MODEL 1
REMARK VINA RESULT:    -7.155      0.000      0.000
REMARK INTER + INTRA:         -11.075
REMARK INTER:                  -9.664
REMARK INTRA:                  -1.411
REMARK UNBOUND:                -1.411
REMARK SMILES O=c1c(-c2ccc(O)cc2)coc2c([C@@H]3O[C@H](CO)[C@@H](O)[C@H](O)[C@H]3O)c(O)ccc12
REMARK SMILES IDX 3 1 11 2 12 3 13 4 30 5 2 6 1 7 29 8 28 9 26 10 14 11 4 12
REMARK SMILES IDX 5 13 6 14 7 15 10 16 9 17 8 18 15 20 24 21 16 22 22 23 17 24
REMARK SMILES IDX 20 25 25 26 23 28 18 30 19 31 21 33 27 35
REMARK H PARENT 8 19 25 27 23 29 19 32 21 34 27 36
REMARK Flexibility Score: inf
ROOT
ATOM      1  C   UNL     1      21.277  50.372  47.429  1.00  0.00     0.065 A 
ATOM      2  C   UNL     1      21.088  50.488  46.043  1.00  0.00     0.208 A 
ATOM      3  O   UNL     1      20.127  49.702  45.481  1.00  0.00    -0.463 OA
ATOM      4  C   UNL     1      19.334  48.808  46.190  1.00  0.00     0.147 A 
ATOM      5  C   UNL     1      19.520  48.691  47.577  1.00  0.00     0.066 A 
ATOM      6  C   UNL     1      20.497  49.486  48.194  1.00  0.00     0.200 A 
ATOM      7  O   UNL     1      20.663  49.429  49.443  1.00  0.00    -0.288 OA
ATOM      8  C   UNL     1      18.700  47.825  48.312  1.00  0.00     0.020 A 
ATOM      9  C   UNL     1      17.721  47.071  47.670  1.00  0.00     0.047 A 
ATOM     10  C   UNL     1      17.543  47.150  46.287  1.00  0.00     0.125 A 
ATOM     11  C   UNL     1      18.345  48.045  45.521  1.00  0.00     0.069 A 
ENDROOT
BRANCH   1  12
ATOM     12  C   UNL     1      22.279  51.251  48.069  1.00  0.00    -0.011 A 
ATOM     13  C   UNL     1      21.889  52.449  48.692  1.00  0.00     0.013 A 
ATOM     14  C   UNL     1      22.847  53.285  49.274  1.00  0.00     0.047 A 
ATOM     15  C   UNL     1      24.206  52.941  49.223  1.00  0.00     0.115 A 
ATOM     16  C   UNL     1      23.641  50.901  48.040  1.00  0.00     0.013 A 
ATOM     17  C   UNL     1      24.599  51.746  48.607  1.00  0.00     0.047 A 
BRANCH  15  18
ATOM     18  O   UNL     1      25.173  53.773  49.784  1.00  0.00    -0.508 OA
ATOM     19  H   UNL     1      25.462  54.633  49.325  1.00  0.00     0.293 HD
ENDBRANCH  15  18
ENDBRANCH   1  12
BRANCH  11  20
ATOM     20  C   UNL     1      18.072  48.328  44.043  1.00  0.00     0.188 C 
ATOM     21  C   UNL     1      18.610  47.163  43.159  1.00  0.00     0.179 C 
ATOM     22  O   UNL     1      16.682  48.525  43.852  1.00  0.00    -0.362 OA
ATOM     23  C   UNL     1      17.597  46.688  42.075  1.00  0.00     0.177 C 
ATOM     24  C   UNL     1      16.435  48.964  42.528  1.00  0.00     0.176 C 
ATOM     25  C   UNL     1      16.707  47.827  41.500  1.00  0.00     0.177 C 
BRANCH  21  26
ATOM     26  O   UNL     1      19.852  47.502  42.590  1.00  0.00    -0.387 OA
ATOM     27  H   UNL     1      20.041  46.867  41.852  1.00  0.00     0.211 HD
ENDBRANCH  21  26
BRANCH  23  28
ATOM     28  O   UNL     1      16.751  45.707  42.626  1.00  0.00    -0.387 OA
ATOM     29  H   UNL     1      17.056  44.830  42.274  1.00  0.00     0.211 HD
ENDBRANCH  23  28
BRANCH  24  30
ATOM     30  C   UNL     1      14.994  49.486  42.434  1.00  0.00     0.191 C 
BRANCH  30  31
ATOM     31  O   UNL     1      14.616  49.652  41.094  1.00  0.00    -0.394 OA
ATOM     32  H   UNL     1      13.673  49.342  41.035  1.00  0.00     0.210 HD
ENDBRANCH  30  31
ENDBRANCH  24  30
BRANCH  25  33
ATOM     33  O   UNL     1      17.244  48.345  40.307  1.00  0.00    -0.388 OA
ATOM     34  H   UNL     1      16.867  49.249  40.166  1.00  0.00     0.211 HD
ENDBRANCH  25  33
ENDBRANCH  11  20
BRANCH  10  35
ATOM     35  O   UNL     1      16.569  46.314  45.728  1.00  0.00    -0.507 OA
ATOM     36  H   UNL     1      15.576  46.421  45.862  1.00  0.00     0.293 HD
ENDBRANCH  10  35
TORSDOF 9
ENDMDL
MODEL 2
REMARK VINA RESULT:    -6.765      2.251      4.457
REMARK INTER + INTRA:         -10.548
REMARK INTER:                  -9.751
REMARK INTRA:                  -0.797
REMARK UNBOUND:                -1.411
REMARK SMILES O=c1c(-c2ccc(O)cc2)coc2c([C@@H]3O[C@H](CO)[C@@H](O)[C@H](O)[C@H]3O)c(O)ccc12
REMARK SMILES IDX 3 1 11 2 12 3 13 4 30 5 2 6 1 7 29 8 28 9 26 10 14 11 4 12
REMARK SMILES IDX 5 13 6 14 7 15 10 16 9 17 8 18 15 20 24 21 16 22 22 23 17 24
REMARK SMILES IDX 20 25 25 26 23 28 18 30 19 31 21 33 27 35
REMARK H PARENT 8 19 25 27 23 29 19 32 21 34 27 36
REMARK Flexibility Score: inf
ROOT
ATOM      1  C   UNL     1      19.818  49.190  44.741  1.00  0.00     0.065 A 
ATOM      2  C   UNL     1      19.819  47.867  44.272  1.00  0.00     0.208 A 
ATOM      3  O   UNL     1      18.819  47.513  43.415  1.00  0.00    -0.463 OA
ATOM      4  C   UNL     1      17.816  48.373  42.986  1.00  0.00     0.147 A 
ATOM      5  C   UNL     1      17.813  49.697  43.452  1.00  0.00     0.066 A 
ATOM      6  C   UNL     1      18.827  50.102  44.332  1.00  0.00     0.200 A 
ATOM      7  O   UNL     1      18.872  51.295  44.741  1.00  0.00    -0.288 OA
ATOM      8  C   UNL     1      16.833  50.587  42.995  1.00  0.00     0.020 A 
ATOM      9  C   UNL     1      15.857  50.158  42.100  1.00  0.00     0.047 A 
ATOM     10  C   UNL     1      15.824  48.836  41.650  1.00  0.00     0.125 A 
ATOM     11  C   UNL     1      16.827  47.919  42.077  1.00  0.00     0.069 A 
ENDROOT
BRANCH   1  12
ATOM     12  C   UNL     1      20.920  49.612  45.631  1.00  0.00    -0.011 A 
ATOM     13  C   UNL     1      20.667  49.973  46.966  1.00  0.00     0.013 A 
ATOM     14  C   UNL     1      21.713  50.393  47.793  1.00  0.00     0.047 A 
ATOM     15  C   UNL     1      23.020  50.475  47.289  1.00  0.00     0.115 A 
ATOM     16  C   UNL     1      22.236  49.676  45.138  1.00  0.00     0.013 A 
ATOM     17  C   UNL     1      23.278  50.113  45.961  1.00  0.00     0.047 A 
BRANCH  15  18
ATOM     18  O   UNL     1      24.069  50.909  48.097  1.00  0.00    -0.508 OA
ATOM     19  H   UNL     1      24.494  51.823  47.968  1.00  0.00     0.293 HD
ENDBRANCH  15  18
ENDBRANCH   1  12
BRANCH  11  20
ATOM     20  C   UNL     1      16.969  46.521  41.474  1.00  0.00     0.188 C 
ATOM     21  C   UNL     1      15.643  45.719  41.644  1.00  0.00     0.179 C 
ATOM     22  O   UNL     1      17.335  46.634  40.110  1.00  0.00    -0.362 OA
ATOM     23  C   UNL     1      15.191  44.986  40.346  1.00  0.00     0.177 C 
ATOM     24  C   UNL     1      17.645  45.354  39.586  1.00  0.00     0.176 C 
ATOM     25  C   UNL     1      16.368  44.473  39.468  1.00  0.00     0.177 C 
BRANCH  21  26
ATOM     26  O   UNL     1      15.735  44.831  42.732  1.00  0.00    -0.387 OA
ATOM     27  H   UNL     1      16.457  45.147  43.333  1.00  0.00     0.211 HD
ENDBRANCH  21  26
BRANCH  23  28
ATOM     28  O   UNL     1      14.410  45.860  39.566  1.00  0.00    -0.387 OA
ATOM     29  H   UNL     1      15.034  46.354  38.972  1.00  0.00     0.211 HD
ENDBRANCH  23  28
BRANCH  24  30
ATOM     30  C   UNL     1      18.350  45.524  38.233  1.00  0.00     0.191 C 
BRANCH  30  31
ATOM     31  O   UNL     1      19.432  46.408  38.349  1.00  0.00    -0.394 OA
ATOM     32  H   UNL     1      19.476  46.664  39.309  1.00  0.00     0.210 HD
ENDBRANCH  30  31
ENDBRANCH  24  30
BRANCH  25  33
ATOM     33  O   UNL     1      16.660  43.124  39.740  1.00  0.00    -0.388 OA
ATOM     34  H   UNL     1      17.347  42.821  39.095  1.00  0.00     0.211 HD
ENDBRANCH  25  33
ENDBRANCH  11  20
BRANCH  10  35
ATOM     35  O   UNL     1      14.773  48.488  40.792  1.00  0.00    -0.507 OA
ATOM     36  H   UNL     1      14.685  47.601  40.324  1.00  0.00     0.293 HD
ENDBRANCH  10  35
TORSDOF 9
ENDMDL
MODEL 3
REMARK VINA RESULT:    -6.748      2.098      4.322
REMARK INTER + INTRA:         -10.525
REMARK INTER:                  -9.398
REMARK INTRA:                  -1.127
REMARK UNBOUND:                -1.411
REMARK SMILES O=c1c(-c2ccc(O)cc2)coc2c([C@@H]3O[C@H](CO)[C@@H](O)[C@H](O)[C@H]3O)c(O)ccc12
REMARK SMILES IDX 3 1 11 2 12 3 13 4 30 5 2 6 1 7 29 8 28 9 26 10 14 11 4 12
REMARK SMILES IDX 5 13 6 14 7 15 10 16 9 17 8 18 15 20 24 21 16 22 22 23 17 24
REMARK SMILES IDX 20 25 25 26 23 28 18 30 19 31 21 33 27 35
REMARK H PARENT 8 19 25 27 23 29 19 32 21 34 27 36
REMARK Flexibility Score: inf
ROOT
ATOM      1  C   UNL     1      19.261  49.172  45.926  1.00  0.00     0.065 A 
ATOM      2  C   UNL     1      19.017  47.797  45.783  1.00  0.00     0.208 A 
ATOM      3  O   UNL     1      18.164  47.421  44.787  1.00  0.00    -0.463 OA
ATOM      4  C   UNL     1      17.536  48.305  43.920  1.00  0.00     0.147 A 
ATOM      5  C   UNL     1      17.779  49.681  44.061  1.00  0.00     0.066 A 
ATOM      6  C   UNL     1      18.653  50.109  45.071  1.00  0.00     0.200 A 
ATOM      7  O   UNL     1      18.920  51.335  45.200  1.00  0.00    -0.288 OA
ATOM      8  C   UNL     1      17.186  50.582  43.168  1.00  0.00     0.020 A 
ATOM      9  C   UNL     1      16.344  50.119  42.160  1.00  0.00     0.047 A 
ATOM     10  C   UNL     1      16.064  48.757  42.024  1.00  0.00     0.125 A 
ATOM     11  C   UNL     1      16.678  47.818  42.901  1.00  0.00     0.069 A 
ENDROOT
BRANCH   1  12
ATOM     12  C   UNL     1      20.220  49.601  46.966  1.00  0.00    -0.011 A 
ATOM     13  C   UNL     1      19.858  49.594  48.324  1.00  0.00     0.013 A 
ATOM     14  C   UNL     1      20.765  50.023  49.299  1.00  0.00     0.047 A 
ATOM     15  C   UNL     1      22.036  50.484  48.923  1.00  0.00     0.115 A 
ATOM     16  C   UNL     1      21.504  50.043  46.598  1.00  0.00     0.013 A 
ATOM     17  C   UNL     1      22.403  50.490  47.571  1.00  0.00     0.047 A 
BRANCH  15  18
ATOM     18  O   UNL     1      22.943  50.931  49.881  1.00  0.00    -0.508 OA
ATOM     19  H   UNL     1      23.776  50.397  50.112  1.00  0.00     0.293 HD
ENDBRANCH  15  18
ENDBRANCH   1  12
BRANCH  11  20
ATOM     20  C   UNL     1      16.575  46.308  42.687  1.00  0.00     0.188 C 
ATOM     21  C   UNL     1      15.152  45.801  43.072  1.00  0.00     0.179 C 
ATOM     22  O   UNL     1      16.886  46.004  41.338  1.00  0.00    -0.362 OA
ATOM     23  C   UNL     1      14.530  44.839  42.016  1.00  0.00     0.177 C 
ATOM     24  C   UNL     1      16.971  44.599  41.168  1.00  0.00     0.176 C 
ATOM     25  C   UNL     1      15.570  43.934  41.296  1.00  0.00     0.177 C 
BRANCH  21  26
ATOM     26  O   UNL     1      15.161  45.222  44.355  1.00  0.00    -0.387 OA
ATOM     27  H   UNL     1      15.435  45.916  45.008  1.00  0.00     0.211 HD
ENDBRANCH  21  26
BRANCH  23  28
ATOM     28  O   UNL     1      13.855  45.594  41.039  1.00  0.00    -0.387 OA
ATOM     29  H   UNL     1      13.061  45.995  41.480  1.00  0.00     0.211 HD
ENDBRANCH  23  28
BRANCH  24  30
ATOM     30  C   UNL     1      17.626  44.298  39.814  1.00  0.00     0.191 C 
BRANCH  30  31
ATOM     31  O   UNL     1      19.018  44.195  39.951  1.00  0.00    -0.394 OA
ATOM     32  H   UNL     1      19.179  43.865  40.875  1.00  0.00     0.210 HD
ENDBRANCH  30  31
ENDBRANCH  24  30
BRANCH  25  33
ATOM     33  O   UNL     1      15.666  42.672  41.912  1.00  0.00    -0.388 OA
ATOM     34  H   UNL     1      15.872  42.812  42.871  1.00  0.00     0.211 HD
ENDBRANCH  25  33
ENDBRANCH  11  20
BRANCH  10  35
ATOM     35  O   UNL     1      15.165  48.396  41.012  1.00  0.00    -0.507 OA
ATOM     36  H   UNL     1      14.940  48.968  40.214  1.00  0.00     0.293 HD
ENDBRANCH  10  35
TORSDOF 9
ENDMDL
MODEL 4
REMARK VINA RESULT:    -6.677      1.994      3.452
REMARK INTER + INTRA:         -10.430
REMARK INTER:                  -9.581
REMARK INTRA:                  -0.849
REMARK UNBOUND:                -1.411
REMARK SMILES O=c1c(-c2ccc(O)cc2)coc2c([C@@H]3O[C@H](CO)[C@@H](O)[C@H](O)[C@H]3O)c(O)ccc12
REMARK SMILES IDX 3 1 11 2 12 3 13 4 30 5 2 6 1 7 29 8 28 9 26 10 14 11 4 12
REMARK SMILES IDX 5 13 6 14 7 15 10 16 9 17 8 18 15 20 24 21 16 22 22 23 17 24
REMARK SMILES IDX 20 25 25 26 23 28 18 30 19 31 21 33 27 35
REMARK H PARENT 8 19 25 27 23 29 19 32 21 34 27 36
REMARK Flexibility Score: inf
ROOT
ATOM      1  C   UNL     1      20.619  49.616  46.432  1.00  0.00     0.065 A 
ATOM      2  C   UNL     1      19.273  49.978  46.606  1.00  0.00     0.208 A 
ATOM      3  O   UNL     1      18.373  49.454  45.727  1.00  0.00    -0.463 OA
ATOM      4  C   UNL     1      18.705  48.595  44.686  1.00  0.00     0.147 A 
ATOM      5  C   UNL     1      20.049  48.231  44.511  1.00  0.00     0.066 A 
ATOM      6  C   UNL     1      21.007  48.746  45.397  1.00  0.00     0.200 A 
ATOM      7  O   UNL     1      22.217  48.410  45.288  1.00  0.00    -0.288 OA
ATOM      8  C   UNL     1      20.394  47.333  43.492  1.00  0.00     0.020 A 
ATOM      9  C   UNL     1      19.414  46.821  42.647  1.00  0.00     0.047 A 
ATOM     10  C   UNL     1      18.075  47.197  42.785  1.00  0.00     0.125 A 
ATOM     11  C   UNL     1      17.695  48.085  43.832  1.00  0.00     0.069 A 
ENDROOT
BRANCH   1  12
ATOM     12  C   UNL     1      21.606  50.131  47.404  1.00  0.00    -0.011 A 
ATOM     13  C   UNL     1      21.325  50.131  48.782  1.00  0.00     0.013 A 
ATOM     14  C   UNL     1      22.257  50.642  49.691  1.00  0.00     0.047 A 
ATOM     15  C   UNL     1      23.471  51.176  49.232  1.00  0.00     0.115 A 
ATOM     16  C   UNL     1      22.834  50.648  46.952  1.00  0.00     0.013 A 
ATOM     17  C   UNL     1      23.757  51.175  47.860  1.00  0.00     0.047 A 
BRANCH  15  18
ATOM     18  O   UNL     1      24.400  51.703  50.125  1.00  0.00    -0.508 OA
ATOM     19  H   UNL     1      24.399  51.440  51.107  1.00  0.00     0.293 HD
ENDBRANCH  15  18
ENDBRANCH   1  12
BRANCH  11  20
ATOM     20  C   UNL     1      16.232  48.381  44.164  1.00  0.00     0.188 C 
ATOM     21  C   UNL     1      15.804  49.753  43.560  1.00  0.00     0.179 C 
ATOM     22  O   UNL     1      15.419  47.326  43.681  1.00  0.00    -0.362 OA
ATOM     23  C   UNL     1      14.435  49.704  42.819  1.00  0.00     0.177 C 
ATOM     24  C   UNL     1      14.088  47.495  44.137  1.00  0.00     0.176 C 
ATOM     25  C   UNL     1      13.411  48.717  43.449  1.00  0.00     0.177 C 
BRANCH  21  26
ATOM     26  O   UNL     1      15.823  50.758  44.545  1.00  0.00    -0.387 OA
ATOM     27  H   UNL     1      14.945  51.217  44.538  1.00  0.00     0.211 HD
ENDBRANCH  21  26
BRANCH  23  28
ATOM     28  O   UNL     1      14.643  49.326  41.480  1.00  0.00    -0.387 OA
ATOM     29  H   UNL     1      15.130  50.071  41.040  1.00  0.00     0.211 HD
ENDBRANCH  23  28
BRANCH  24  30
ATOM     30  C   UNL     1      13.307  46.197  43.894  1.00  0.00     0.191 C 
BRANCH  30  31
ATOM     31  O   UNL     1      12.037  46.476  43.370  1.00  0.00    -0.394 OA
ATOM     32  H   UNL     1      11.387  46.241  44.085  1.00  0.00     0.210 HD
ENDBRANCH  30  31
ENDBRANCH  24  30
BRANCH  25  33
ATOM     33  O   UNL     1      12.541  49.376  44.336  1.00  0.00    -0.388 OA
ATOM     34  H   UNL     1      12.908  50.278  44.514  1.00  0.00     0.211 HD
ENDBRANCH  25  33
ENDBRANCH  11  20
BRANCH  10  35
ATOM     35  O   UNL     1      17.172  46.667  41.855  1.00  0.00    -0.507 OA
ATOM     36  H   UNL     1      17.209  46.832  40.862  1.00  0.00     0.293 HD
ENDBRANCH  10  35
TORSDOF 9
ENDMDL
MODEL 5
REMARK VINA RESULT:    -6.356      1.610      2.562
REMARK INTER + INTRA:          -9.996
REMARK INTER:                  -9.257
REMARK INTRA:                  -0.739
REMARK UNBOUND:                -1.411
REMARK SMILES O=c1c(-c2ccc(O)cc2)coc2c([C@@H]3O[C@H](CO)[C@@H](O)[C@H](O)[C@H]3O)c(O)ccc12
REMARK SMILES IDX 3 1 11 2 12 3 13 4 30 5 2 6 1 7 29 8 28 9 26 10 14 11 4 12
REMARK SMILES IDX 5 13 6 14 7 15 10 16 9 17 8 18 15 20 24 21 16 22 22 23 17 24
REMARK SMILES IDX 20 25 25 26 23 28 18 30 19 31 21 33 27 35
REMARK H PARENT 8 19 25 27 23 29 19 32 21 34 27 36
REMARK Flexibility Score: inf
ROOT
ATOM      1  C   UNL     1      20.028  50.283  47.606  1.00  0.00     0.065 A 
ATOM      2  C   UNL     1      19.736  50.078  46.248  1.00  0.00     0.208 A 
ATOM      3  O   UNL     1      18.582  49.413  45.957  1.00  0.00    -0.463 OA
ATOM      4  C   UNL     1      17.692  48.936  46.911  1.00  0.00     0.147 A 
ATOM      5  C   UNL     1      17.981  49.141  48.270  1.00  0.00     0.066 A 
ATOM      6  C   UNL     1      19.157  49.825  48.611  1.00  0.00     0.200 A 
ATOM      7  O   UNL     1      19.427  50.056  49.821  1.00  0.00    -0.288 OA
ATOM      8  C   UNL     1      17.073  48.703  49.242  1.00  0.00     0.020 A 
ATOM      9  C   UNL     1      15.902  48.051  48.866  1.00  0.00     0.047 A 
ATOM     10  C   UNL     1      15.612  47.809  47.521  1.00  0.00     0.125 A 
ATOM     11  C   UNL     1      16.505  48.271  46.511  1.00  0.00     0.069 A 
ENDROOT
BRANCH   1  12
ATOM     12  C   UNL     1      21.248  51.046  47.945  1.00  0.00    -0.011 A 
ATOM     13  C   UNL     1      21.157  52.305  48.565  1.00  0.00     0.013 A 
ATOM     14  C   UNL     1      22.316  53.030  48.861  1.00  0.00     0.047 A 
ATOM     15  C   UNL     1      23.576  52.512  48.524  1.00  0.00     0.115 A 
ATOM     16  C   UNL     1      22.515  50.524  47.629  1.00  0.00     0.013 A 
ATOM     17  C   UNL     1      23.671  51.257  47.909  1.00  0.00     0.047 A 
BRANCH  15  18
ATOM     18  O   UNL     1      24.738  53.231  48.797  1.00  0.00    -0.508 OA
ATOM     19  H   UNL     1      25.504  52.819  49.323  1.00  0.00     0.293 HD
ENDBRANCH  15  18
ENDBRANCH   1  12
BRANCH  11  20
ATOM     20  C   UNL     1      16.158  48.218  45.024  1.00  0.00     0.188 C 
ATOM     21  C   UNL     1      15.725  49.627  44.516  1.00  0.00     0.179 C 
ATOM     22  O   UNL     1      17.273  47.726  44.299  1.00  0.00    -0.362 OA
ATOM     23  C   UNL     1      16.399  50.037  43.173  1.00  0.00     0.177 C 
ATOM     24  C   UNL     1      16.909  47.502  42.948  1.00  0.00     0.176 C 
ATOM     25  C   UNL     1      16.654  48.846  42.206  1.00  0.00     0.177 C 
BRANCH  21  26
ATOM     26  O   UNL     1      14.323  49.718  44.439  1.00  0.00    -0.387 OA
ATOM     27  H   UNL     1      13.949  49.549  45.342  1.00  0.00     0.211 HD
ENDBRANCH  21  26
BRANCH  23  28
ATOM     28  O   UNL     1      17.634  50.656  43.442  1.00  0.00    -0.387 OA
ATOM     29  H   UNL     1      18.310  50.220  42.860  1.00  0.00     0.211 HD
ENDBRANCH  23  28
BRANCH  24  30
ATOM     30  C   UNL     1      18.004  46.670  42.267  1.00  0.00     0.191 C 
BRANCH  30  31
ATOM     31  O   UNL     1      18.024  46.918  40.887  1.00  0.00    -0.394 OA
ATOM     32  H   UNL     1      17.836  46.045  40.448  1.00  0.00     0.210 HD
ENDBRANCH  30  31
ENDBRANCH  24  30
BRANCH  25  33
ATOM     33  O   UNL     1      15.613  48.715  41.269  1.00  0.00    -0.388 OA
ATOM     34  H   UNL     1      15.688  47.821  40.848  1.00  0.00     0.211 HD
ENDBRANCH  25  33
ENDBRANCH  11  20
BRANCH  10  35
ATOM     35  O   UNL     1      14.436  47.101  47.247  1.00  0.00    -0.507 OA
ATOM     36  H   UNL     1      14.400  46.200  46.798  1.00  0.00     0.293 HD
ENDBRANCH  10  35
TORSDOF 9
ENDMDL
MODEL 6
REMARK VINA RESULT:    -6.324      2.583      4.169
REMARK INTER + INTRA:          -9.953
REMARK INTER:                  -8.739
REMARK INTRA:                  -1.214
REMARK UNBOUND:                -1.411
REMARK SMILES O=c1c(-c2ccc(O)cc2)coc2c([C@@H]3O[C@H](CO)[C@@H](O)[C@H](O)[C@H]3O)c(O)ccc12
REMARK SMILES IDX 3 1 11 2 12 3 13 4 30 5 2 6 1 7 29 8 28 9 26 10 14 11 4 12
REMARK SMILES IDX 5 13 6 14 7 15 10 16 9 17 8 18 15 20 24 21 16 22 22 23 17 24
REMARK SMILES IDX 20 25 25 26 23 28 18 30 19 31 21 33 27 35
REMARK H PARENT 8 19 25 27 23 29 19 32 21 34 27 36
REMARK Flexibility Score: inf
ROOT
ATOM      1  C   UNL     1      19.296  49.197  45.896  1.00  0.00     0.065 A 
ATOM      2  C   UNL     1      19.098  47.815  45.751  1.00  0.00     0.208 A 
ATOM      3  O   UNL     1      17.916  47.414  45.202  1.00  0.00    -0.463 OA
ATOM      4  C   UNL     1      16.915  48.280  44.782  1.00  0.00     0.147 A 
ATOM      5  C   UNL     1      17.112  49.663  44.924  1.00  0.00     0.066 A 
ATOM      6  C   UNL     1      18.316  50.117  45.481  1.00  0.00     0.200 A 
ATOM      7  O   UNL     1      18.537  51.354  45.590  1.00  0.00    -0.288 OA
ATOM      8  C   UNL     1      16.129  50.550  44.467  1.00  0.00     0.020 A 
ATOM      9  C   UNL     1      14.957  50.065  43.894  1.00  0.00     0.047 A 
ATOM     10  C   UNL     1      14.729  48.692  43.773  1.00  0.00     0.125 A 
ATOM     11  C   UNL     1      15.725  47.769  44.203  1.00  0.00     0.069 A 
ENDROOT
BRANCH   1  12
ATOM     12  C   UNL     1      20.590  49.659  46.442  1.00  0.00    -0.011 A 
ATOM     13  C   UNL     1      20.691  50.098  47.774  1.00  0.00     0.013 A 
ATOM     14  C   UNL     1      21.914  50.555  48.275  1.00  0.00     0.047 A 
ATOM     15  C   UNL     1      23.044  50.596  47.444  1.00  0.00     0.115 A 
ATOM     16  C   UNL     1      21.732  49.682  45.621  1.00  0.00     0.013 A 
ATOM     17  C   UNL     1      22.950  50.156  46.118  1.00  0.00     0.047 A 
BRANCH  15  18
ATOM     18  O   UNL     1      24.265  51.065  47.925  1.00  0.00    -0.508 OA
ATOM     19  H   UNL     1      24.484  51.049  48.918  1.00  0.00     0.293 HD
ENDBRANCH  15  18
ENDBRANCH   1  12
BRANCH  11  20
ATOM     20  C   UNL     1      15.630  46.270  43.922  1.00  0.00     0.188 C 
ATOM     21  C   UNL     1      14.681  45.583  44.951  1.00  0.00     0.179 C 
ATOM     22  O   UNL     1      15.183  46.070  42.592  1.00  0.00    -0.362 OA
ATOM     23  C   UNL     1      13.656  44.609  44.296  1.00  0.00     0.177 C 
ATOM     24  C   UNL     1      15.262  44.695  42.258  1.00  0.00     0.176 C 
ATOM     25  C   UNL     1      14.203  43.867  43.043  1.00  0.00     0.177 C 
BRANCH  21  26
ATOM     26  O   UNL     1      15.422  44.947  45.964  1.00  0.00    -0.387 OA
ATOM     27  H   UNL     1      15.650  44.033  45.657  1.00  0.00     0.211 HD
ENDBRANCH  21  26
BRANCH  23  28
ATOM     28  O   UNL     1      12.509  45.329  43.913  1.00  0.00    -0.387 OA
ATOM     29  H   UNL     1      12.525  45.395  42.922  1.00  0.00     0.211 HD
ENDBRANCH  23  28
BRANCH  24  30
ATOM     30  C   UNL     1      15.100  44.538  40.740  1.00  0.00     0.191 C 
BRANCH  30  31
ATOM     31  O   UNL     1      14.347  45.597  40.213  1.00  0.00    -0.394 OA
ATOM     32  H   UNL     1      13.638  45.790  40.884  1.00  0.00     0.210 HD
ENDBRANCH  30  31
ENDBRANCH  24  30
BRANCH  25  33
ATOM     33  O   UNL     1      14.705  42.596  43.379  1.00  0.00    -0.388 OA
ATOM     34  H   UNL     1      14.629  42.484  44.360  1.00  0.00     0.211 HD
ENDBRANCH  25  33
ENDBRANCH  11  20
BRANCH  10  35
ATOM     35  O   UNL     1      13.498  48.303  43.231  1.00  0.00    -0.507 OA
ATOM     36  H   UNL     1      13.388  47.722  42.415  1.00  0.00     0.293 HD
ENDBRANCH  10  35
TORSDOF 9
ENDMDL
MODEL 7
REMARK VINA RESULT:    -6.314      2.795      4.850
REMARK INTER + INTRA:          -9.939
REMARK INTER:                  -9.098
REMARK INTRA:                  -0.841
REMARK UNBOUND:                -1.411
REMARK SMILES O=c1c(-c2ccc(O)cc2)coc2c([C@@H]3O[C@H](CO)[C@@H](O)[C@H](O)[C@H]3O)c(O)ccc12
REMARK SMILES IDX 3 1 11 2 12 3 13 4 30 5 2 6 1 7 29 8 28 9 26 10 14 11 4 12
REMARK SMILES IDX 5 13 6 14 7 15 10 16 9 17 8 18 15 20 24 21 16 22 22 23 17 24
REMARK SMILES IDX 20 25 25 26 23 28 18 30 19 31 21 33 27 35
REMARK H PARENT 8 19 25 27 23 29 19 32 21 34 27 36
REMARK Flexibility Score: inf
ROOT
ATOM      1  C   UNL     1      19.559  49.725  46.049  1.00  0.00     0.065 A 
ATOM      2  C   UNL     1      18.642  49.095  46.906  1.00  0.00     0.208 A 
ATOM      3  O   UNL     1      17.482  48.646  46.348  1.00  0.00    -0.463 OA
ATOM      4  C   UNL     1      17.161  48.771  45.003  1.00  0.00     0.147 A 
ATOM      5  C   UNL     1      18.077  49.399  44.143  1.00  0.00     0.066 A 
ATOM      6  C   UNL     1      19.284  49.873  44.677  1.00  0.00     0.200 A 
ATOM      7  O   UNL     1      20.142  50.409  43.925  1.00  0.00    -0.288 OA
ATOM      8  C   UNL     1      17.786  49.496  42.777  1.00  0.00     0.020 A 
ATOM      9  C   UNL     1      16.589  48.991  42.276  1.00  0.00     0.047 A 
ATOM     10  C   UNL     1      15.651  48.392  43.120  1.00  0.00     0.125 A 
ATOM     11  C   UNL     1      15.936  48.255  44.510  1.00  0.00     0.069 A 
ENDROOT
BRANCH   1  12
ATOM     12  C   UNL     1      20.845  50.176  46.621  1.00  0.00    -0.011 A 
ATOM     13  C   UNL     1      22.062  49.847  45.997  1.00  0.00     0.013 A 
ATOM     14  C   UNL     1      23.276  50.259  46.557  1.00  0.00     0.047 A 
ATOM     15  C   UNL     1      23.286  50.985  47.758  1.00  0.00     0.115 A 
ATOM     16  C   UNL     1      20.862  50.923  47.812  1.00  0.00     0.013 A 
ATOM     17  C   UNL     1      22.077  51.318  48.382  1.00  0.00     0.047 A 
BRANCH  15  18
ATOM     18  O   UNL     1      24.488  51.386  48.337  1.00  0.00    -0.508 OA
ATOM     19  H   UNL     1      25.062  52.112  47.916  1.00  0.00     0.293 HD
ENDBRANCH  15  18
ENDBRANCH   1  12
BRANCH  11  20
ATOM     20  C   UNL     1      15.051  47.438  45.451  1.00  0.00     0.188 C 
ATOM     21  C   UNL     1      13.780  48.251  45.844  1.00  0.00     0.179 C 
ATOM     22  O   UNL     1      14.709  46.212  44.827  1.00  0.00    -0.362 OA
ATOM     23  C   UNL     1      12.461  47.429  45.741  1.00  0.00     0.177 C 
ATOM     24  C   UNL     1      14.041  45.370  45.751  1.00  0.00     0.176 C 
ATOM     25  C   UNL     1      12.627  45.923  46.092  1.00  0.00     0.177 C 
BRANCH  21  26
ATOM     26  O   UNL     1      13.932  48.825  47.120  1.00  0.00    -0.387 OA
ATOM     27  H   UNL     1      14.479  49.647  47.029  1.00  0.00     0.211 HD
ENDBRANCH  21  26
BRANCH  23  28
ATOM     28  O   UNL     1      11.956  47.521  44.431  1.00  0.00    -0.387 OA
ATOM     29  H   UNL     1      11.540  46.646  44.218  1.00  0.00     0.211 HD
ENDBRANCH  23  28
BRANCH  24  30
ATOM     30  C   UNL     1      13.977  43.949  45.177  1.00  0.00     0.191 C 
BRANCH  30  31
ATOM     31  O   UNL     1      14.240  43.001  46.176  1.00  0.00    -0.394 OA
ATOM     32  H   UNL     1      13.601  43.195  46.913  1.00  0.00     0.210 HD
ENDBRANCH  30  31
ENDBRANCH  24  30
BRANCH  25  33
ATOM     33  O   UNL     1      12.298  45.670  47.436  1.00  0.00    -0.388 OA
ATOM     34  H   UNL     1      11.752  46.427  47.768  1.00  0.00     0.211 HD
ENDBRANCH  25  33
ENDBRANCH  11  20
BRANCH  10  35
ATOM     35  O   UNL     1      14.456  47.961  42.531  1.00  0.00    -0.507 OA
ATOM     36  H   UNL     1      13.559  47.959  42.988  1.00  0.00     0.293 HD
ENDBRANCH  10  35
TORSDOF 9
ENDMDL
MODEL 8
REMARK VINA RESULT:    -6.261      1.836      3.314
REMARK INTER + INTRA:          -9.868
REMARK INTER:                 -10.133
REMARK INTRA:                   0.265
REMARK UNBOUND:                -1.411
REMARK SMILES O=c1c(-c2ccc(O)cc2)coc2c([C@@H]3O[C@H](CO)[C@@H](O)[C@H](O)[C@H]3O)c(O)ccc12
REMARK SMILES IDX 3 1 11 2 12 3 13 4 30 5 2 6 1 7 29 8 28 9 26 10 14 11 4 12
REMARK SMILES IDX 5 13 6 14 7 15 10 16 9 17 8 18 15 20 24 21 16 22 22 23 17 24
REMARK SMILES IDX 20 25 25 26 23 28 18 30 19 31 21 33 27 35
REMARK H PARENT 8 19 25 27 23 29 19 32 21 34 27 36
REMARK Flexibility Score: inf
ROOT
ATOM      1  C   UNL     1      20.871  50.214  46.747  1.00  0.00     0.065 A 
ATOM      2  C   UNL     1      19.484  50.121  46.939  1.00  0.00     0.208 A 
ATOM      3  O   UNL     1      18.804  49.259  46.130  1.00  0.00    -0.463 OA
ATOM      4  C   UNL     1      19.395  48.480  45.144  1.00  0.00     0.147 A 
ATOM      5  C   UNL     1      20.783  48.571  44.951  1.00  0.00     0.066 A 
ATOM      6  C   UNL     1      21.520  49.443  45.765  1.00  0.00     0.200 A 
ATOM      7  O   UNL     1      22.772  49.520  45.640  1.00  0.00    -0.288 OA
ATOM      8  C   UNL     1      21.400  47.761  43.989  1.00  0.00     0.020 A 
ATOM      9  C   UNL     1      20.641  46.886  43.216  1.00  0.00     0.047 A 
ATOM     10  C   UNL     1      19.255  46.806  43.371  1.00  0.00     0.125 A 
ATOM     11  C   UNL     1      18.607  47.597  44.363  1.00  0.00     0.069 A 
ENDROOT
BRANCH   1  12
ATOM     12  C   UNL     1      21.637  51.103  47.645  1.00  0.00    -0.011 A 
ATOM     13  C   UNL     1      21.018  52.202  48.268  1.00  0.00     0.013 A 
ATOM     14  C   UNL     1      21.757  53.051  49.098  1.00  0.00     0.047 A 
ATOM     15  C   UNL     1      23.127  52.823  49.299  1.00  0.00     0.115 A 
ATOM     16  C   UNL     1      23.006  50.868  47.868  1.00  0.00     0.013 A 
ATOM     17  C   UNL     1      23.748  51.728  48.683  1.00  0.00     0.047 A 
BRANCH  15  18
ATOM     18  O   UNL     1      23.878  53.670  50.109  1.00  0.00    -0.508 OA
ATOM     19  H   UNL     1      24.100  54.619  49.820  1.00  0.00     0.293 HD
ENDBRANCH  15  18
ENDBRANCH   1  12
BRANCH  11  20
ATOM     20  C   UNL     1      17.132  47.416  44.722  1.00  0.00     0.188 C 
ATOM     21  C   UNL     1      16.966  47.237  46.261  1.00  0.00     0.179 C 
ATOM     22  O   UNL     1      16.394  48.528  44.247  1.00  0.00    -0.362 OA
ATOM     23  C   UNL     1      15.825  48.108  46.867  1.00  0.00     0.177 C 
ATOM     24  C   UNL     1      15.006  48.292  44.411  1.00  0.00     0.176 C 
ATOM     25  C   UNL     1      14.610  48.307  45.916  1.00  0.00     0.177 C 
BRANCH  21  26
ATOM     26  O   UNL     1      16.808  45.878  46.590  1.00  0.00    -0.387 OA
ATOM     27  H   UNL     1      15.991  45.784  47.144  1.00  0.00     0.211 HD
ENDBRANCH  21  26
BRANCH  23  28
ATOM     28  O   UNL     1      16.334  49.377  47.200  1.00  0.00    -0.387 OA
ATOM     29  H   UNL     1      15.559  49.942  47.458  1.00  0.00     0.211 HD
ENDBRANCH  23  28
BRANCH  24  30
ATOM     30  C   UNL     1      14.222  49.334  43.603  1.00  0.00     0.191 C 
BRANCH  30  31
ATOM     31  O   UNL     1      12.928  49.487  44.121  1.00  0.00    -0.394 OA
ATOM     32  H   UNL     1      12.320  49.522  43.335  1.00  0.00     0.210 HD
ENDBRANCH  30  31
ENDBRANCH  24  30
BRANCH  25  33
ATOM     33  O   UNL     1      13.594  47.369  46.179  1.00  0.00    -0.388 OA
ATOM     34  H   UNL     1      12.789  47.637  45.669  1.00  0.00     0.211 HD
ENDBRANCH  25  33
ENDBRANCH  11  20
BRANCH  10  35
ATOM     35  O   UNL     1      18.574  45.934  42.512  1.00  0.00    -0.507 OA
ATOM     36  H   UNL     1      17.875  45.271  42.804  1.00  0.00     0.293 HD
ENDBRANCH  10  35
TORSDOF 9
ENDMDL
MODEL 9
REMARK VINA RESULT:    -6.201      4.501      6.493
REMARK INTER + INTRA:          -9.787
REMARK INTER:                  -8.541
REMARK INTRA:                  -1.246
REMARK UNBOUND:                -1.411
REMARK SMILES O=c1c(-c2ccc(O)cc2)coc2c([C@@H]3O[C@H](CO)[C@@H](O)[C@H](O)[C@H]3O)c(O)ccc12
REMARK SMILES IDX 3 1 11 2 12 3 13 4 30 5 2 6 1 7 29 8 28 9 26 10 14 11 4 12
REMARK SMILES IDX 5 13 6 14 7 15 10 16 9 17 8 18 15 20 24 21 16 22 22 23 17 24
REMARK SMILES IDX 20 25 25 26 23 28 18 30 19 31 21 33 27 35
REMARK H PARENT 8 19 25 27 23 29 19 32 21 34 27 36
REMARK Flexibility Score: inf
ROOT
ATOM      1  C   UNL     1      17.608  48.447  46.019  1.00  0.00     0.065 A 
ATOM      2  C   UNL     1      16.481  47.912  45.376  1.00  0.00     0.208 A 
ATOM      3  O   UNL     1      15.315  47.898  46.081  1.00  0.00    -0.463 OA
ATOM      4  C   UNL     1      15.179  48.375  47.379  1.00  0.00     0.147 A 
ATOM      5  C   UNL     1      16.304  48.912  48.024  1.00  0.00     0.066 A 
ATOM      6  C   UNL     1      17.523  48.949  47.331  1.00  0.00     0.200 A 
ATOM      7  O   UNL     1      18.544  49.457  47.870  1.00  0.00    -0.288 OA
ATOM      8  C   UNL     1      16.174  49.436  49.316  1.00  0.00     0.020 A 
ATOM      9  C   UNL     1      14.943  49.407  49.965  1.00  0.00     0.047 A 
ATOM     10  C   UNL     1      13.819  48.848  49.352  1.00  0.00     0.125 A 
ATOM     11  C   UNL     1      13.918  48.335  48.026  1.00  0.00     0.069 A 
ENDROOT
BRANCH   1  12
ATOM     12  C   UNL     1      18.872  48.520  45.256  1.00  0.00    -0.011 A 
ATOM     13  C   UNL     1      19.818  47.482  45.333  1.00  0.00     0.013 A 
ATOM     14  C   UNL     1      21.021  47.572  44.626  1.00  0.00     0.047 A 
ATOM     15  C   UNL     1      21.300  48.708  43.851  1.00  0.00     0.115 A 
ATOM     16  C   UNL     1      19.149  49.647  44.461  1.00  0.00     0.013 A 
ATOM     17  C   UNL     1      20.360  49.743  43.769  1.00  0.00     0.047 A 
BRANCH  15  18
ATOM     18  O   UNL     1      22.503  48.817  43.156  1.00  0.00    -0.508 OA
ATOM     19  H   UNL     1      23.365  49.075  43.628  1.00  0.00     0.293 HD
ENDBRANCH  15  18
ENDBRANCH   1  12
BRANCH  11  20
ATOM     20  C   UNL     1      12.694  47.893  47.225  1.00  0.00     0.188 C 
ATOM     21  C   UNL     1      12.233  46.474  47.675  1.00  0.00     0.179 C 
ATOM     22  O   UNL     1      11.659  48.849  47.385  1.00  0.00    -0.362 OA
ATOM     23  C   UNL     1      10.697  46.365  47.908  1.00  0.00     0.177 C 
ATOM     24  C   UNL     1      10.586  48.549  46.510  1.00  0.00     0.176 C 
ATOM     25  C   UNL     1       9.849  47.251  46.951  1.00  0.00     0.177 C 
BRANCH  21  26
ATOM     26  O   UNL     1      12.689  45.494  46.773  1.00  0.00    -0.387 OA
ATOM     27  H   UNL     1      13.629  45.274  47.000  1.00  0.00     0.211 HD
ENDBRANCH  21  26
BRANCH  23  28
ATOM     28  O   UNL     1      10.399  46.739  49.232  1.00  0.00    -0.387 OA
ATOM     29  H   UNL     1       9.411  46.810  49.298  1.00  0.00     0.211 HD
ENDBRANCH  23  28
BRANCH  24  30
ATOM     30  C   UNL     1       9.637  49.753  46.450  1.00  0.00     0.191 C 
BRANCH  30  31
ATOM     31  O   UNL     1      10.165  50.756  45.623  1.00  0.00    -0.394 OA
ATOM     32  H   UNL     1      11.109  50.878  45.909  1.00  0.00     0.210 HD
ENDBRANCH  30  31
ENDBRANCH  24  30
BRANCH  25  33
ATOM     33  O   UNL     1       9.404  46.520  45.835  1.00  0.00    -0.388 OA
ATOM     34  H   UNL     1       9.167  47.163  45.120  1.00  0.00     0.211 HD
ENDBRANCH  25  33
ENDBRANCH  11  20
BRANCH  10  35
ATOM     35  O   UNL     1      12.639  48.819  50.105  1.00  0.00    -0.507 OA
ATOM     36  H   UNL     1      11.876  49.468  50.001  1.00  0.00     0.293 HD
ENDBRANCH  10  35
TORSDOF 9
ENDMDL
