MODEL 1
REMARK VINA RESULT:    -3.858      0.000      0.000
REMARK INTER + INTRA:          -4.487
REMARK INTER:                  -4.422
REMARK INTRA:                  -0.065
REMARK UNBOUND:                -0.065
REMARK SMILES CC(C)[C@H]([NH3+])C(=O)[O-]
REMARK SMILES IDX 4 1 5 2 6 6 7 7 8 8 2 9 1 10 3 11
REMARK H PARENT 5 3 5 4 5 5
REMARK Flexibility Score: inf
ROOT
ATOM      1  C   UNL     1     -38.389  20.237 -29.612  1.00  0.00     0.230 C 
ENDROOT
BRANCH   1   2
ATOM      2  N   UNL     1     -39.211  21.442 -29.425  1.00  0.00    -0.350 N 
ATOM      3  H   UNL     1     -39.639  21.442 -28.470  1.00  0.00     0.345 HD
ATOM      4  H   UNL     1     -38.631  22.307 -29.537  1.00  0.00     0.345 HD
ATOM      5  H   UNL     1     -39.997  21.456 -30.113  1.00  0.00     0.345 HD
ENDBRANCH   1   2
BRANCH   1   6
ATOM      6  C   UNL     1     -38.297  19.923 -31.085  1.00  0.00     0.099 C 
ATOM      7  O   UNL     1     -38.595  18.774 -31.507  1.00  0.00    -0.544 OA
ATOM      8  O   UNL     1     -37.887  20.899 -31.984  1.00  0.00    -0.544 OA
ENDBRANCH   1   6
BRANCH   1   9
ATOM      9  C   UNL     1     -38.956  19.019 -28.822  1.00  0.00     0.047 C 
ATOM     10  C   UNL     1     -40.250  19.376 -28.069  1.00  0.00     0.014 C 
ATOM     11  C   UNL     1     -37.924  18.476 -27.818  1.00  0.00     0.014 C 
ENDBRANCH   1   9
TORSDOF 3
ENDMDL
MODEL 2
REMARK VINA RESULT:    -3.848      1.886      2.284
REMARK INTER + INTRA:          -4.476
REMARK INTER:                  -4.442
REMARK INTRA:                  -0.034
REMARK UNBOUND:                -0.065
REMARK SMILES CC(C)[C@H]([NH3+])C(=O)[O-]
REMARK SMILES IDX 4 1 5 2 6 6 7 7 8 8 2 9 1 10 3 11
REMARK H PARENT 5 3 5 4 5 5
REMARK Flexibility Score: inf
ROOT
ATOM      1  C   UNL     1     -38.098  19.484 -30.551  1.00  0.00     0.230 C 
ENDROOT
BRANCH   1   2
ATOM      2  N   UNL     1     -38.309  20.186 -31.826  1.00  0.00    -0.350 N 
ATOM      3  H   UNL     1     -38.356  19.498 -32.613  1.00  0.00     0.345 HD
ATOM      4  H   UNL     1     -39.199  20.738 -31.802  1.00  0.00     0.345 HD
ATOM      5  H   UNL     1     -37.506  20.824 -32.024  1.00  0.00     0.345 HD
ENDBRANCH   1   2
BRANCH   1   6
ATOM      6  C   UNL     1     -38.088  17.996 -30.799  1.00  0.00     0.099 C 
ATOM      7  O   UNL     1     -39.016  17.457 -31.460  1.00  0.00    -0.544 OA
ATOM      8  O   UNL     1     -37.055  17.210 -30.304  1.00  0.00    -0.544 OA
ENDBRANCH   1   6
BRANCH   1   9
ATOM      9  C   UNL     1     -39.182  19.860 -29.496  1.00  0.00     0.047 C 
ATOM     10  C   UNL     1     -39.110  21.346 -29.103  1.00  0.00     0.014 C 
ATOM     11  C   UNL     1     -39.049  18.998 -28.228  1.00  0.00     0.014 C 
ENDBRANCH   1   9
TORSDOF 3
ENDMDL
MODEL 3
REMARK VINA RESULT:    -3.796      1.788      2.267
REMARK INTER + INTRA:          -4.416
REMARK INTER:                  -4.369
REMARK INTRA:                  -0.047
REMARK UNBOUND:                -0.065
REMARK SMILES CC(C)[C@H]([NH3+])C(=O)[O-]
REMARK SMILES IDX 4 1 5 2 6 6 7 7 8 8 2 9 1 10 3 11
REMARK H PARENT 5 3 5 4 5 5
REMARK Flexibility Score: inf
ROOT
ATOM      1  C   UNL     1     -38.412  18.798 -30.204  1.00  0.00     0.230 C 
ENDROOT
BRANCH   1   2
ATOM      2  N   UNL     1     -37.640  17.562 -30.405  1.00  0.00    -0.350 N 
ATOM      3  H   UNL     1     -38.172  16.740 -30.036  1.00  0.00     0.345 HD
ATOM      4  H   UNL     1     -37.443  17.410 -31.423  1.00  0.00     0.345 HD
ATOM      5  H   UNL     1     -36.739  17.607 -29.877  1.00  0.00     0.345 HD
ENDBRANCH   1   2
BRANCH   1   6
ATOM      6  C   UNL     1     -37.798  19.906 -31.024  1.00  0.00     0.099 C 
ATOM      7  O   UNL     1     -38.488  20.510 -31.888  1.00  0.00    -0.544 OA
ATOM      8  O   UNL     1     -36.471  20.268 -30.829  1.00  0.00    -0.544 OA
ENDBRANCH   1   6
BRANCH   1   9
ATOM      9  C   UNL     1     -38.482  19.199 -28.699  1.00  0.00     0.047 C 
ATOM     10  C   UNL     1     -37.679  18.235 -27.810  1.00  0.00     0.014 C 
ATOM     11  C   UNL     1     -39.938  19.247 -28.203  1.00  0.00     0.014 C 
ENDBRANCH   1   9
TORSDOF 3
ENDMDL
MODEL 4
REMARK VINA RESULT:    -3.779      2.674      3.322
REMARK INTER + INTRA:          -4.396
REMARK INTER:                  -4.381
REMARK INTRA:                  -0.015
REMARK UNBOUND:                -0.065
REMARK SMILES CC(C)[C@H]([NH3+])C(=O)[O-]
REMARK SMILES IDX 4 1 5 2 6 6 7 7 8 8 2 9 1 10 3 11
REMARK H PARENT 5 3 5 4 5 5
REMARK Flexibility Score: inf
ROOT
ATOM      1  C   UNL     1     -37.901  18.952 -28.695  1.00  0.00     0.230 C 
ENDROOT
BRANCH   1   2
ATOM      2  N   UNL     1     -37.586  18.326 -27.402  1.00  0.00    -0.350 N 
ATOM      3  H   UNL     1     -36.612  17.944 -27.414  1.00  0.00     0.345 HD
ATOM      4  H   UNL     1     -37.670  19.022 -26.624  1.00  0.00     0.345 HD
ATOM      5  H   UNL     1     -38.228  17.522 -27.223  1.00  0.00     0.345 HD
ENDBRANCH   1   2
BRANCH   1   6
ATOM      6  C   UNL     1     -39.202  19.707 -28.577  1.00  0.00     0.099 C 
ATOM      7  O   UNL     1     -40.213  19.153 -28.068  1.00  0.00    -0.544 OA
ATOM      8  O   UNL     1     -39.293  21.019 -29.025  1.00  0.00    -0.544 OA
ENDBRANCH   1   6
BRANCH   1   9
ATOM      9  C   UNL     1     -37.975  17.903 -29.845  1.00  0.00     0.047 C 
ATOM     10  C   UNL     1     -36.599  17.280 -30.143  1.00  0.00     0.014 C 
ATOM     11  C   UNL     1     -38.533  18.528 -31.136  1.00  0.00     0.014 C 
ENDBRANCH   1   9
TORSDOF 3
ENDMDL
MODEL 5
REMARK VINA RESULT:    -3.766      2.598      3.492
REMARK INTER + INTRA:          -4.382
REMARK INTER:                  -4.309
REMARK INTRA:                  -0.073
REMARK UNBOUND:                -0.065
REMARK SMILES CC(C)[C@H]([NH3+])C(=O)[O-]
REMARK SMILES IDX 4 1 5 2 6 6 7 7 8 8 2 9 1 10 3 11
REMARK H PARENT 5 3 5 4 5 5
REMARK Flexibility Score: inf
ROOT
ATOM      1  C   UNL     1     -38.122  19.074 -29.932  1.00  0.00     0.230 C 
ENDROOT
BRANCH   1   2
ATOM      2  N   UNL     1     -38.732  18.139 -30.890  1.00  0.00    -0.350 N 
ATOM      3  H   UNL     1     -39.644  18.519 -31.235  1.00  0.00     0.345 HD
ATOM      4  H   UNL     1     -38.098  17.982 -31.709  1.00  0.00     0.345 HD
ATOM      5  H   UNL     1     -38.937  17.226 -30.425  1.00  0.00     0.345 HD
ENDBRANCH   1   2
BRANCH   1   6
ATOM      6  C   UNL     1     -38.644  18.777 -28.548  1.00  0.00     0.099 C 
ATOM      7  O   UNL     1     -37.895  18.238 -27.691  1.00  0.00    -0.544 OA
ATOM      8  O   UNL     1     -39.952  19.100 -28.209  1.00  0.00    -0.544 OA
ENDBRANCH   1   6
BRANCH   1   9
ATOM      9  C   UNL     1     -38.394  20.559 -30.318  1.00  0.00     0.047 C 
ATOM     10  C   UNL     1     -37.978  20.861 -31.768  1.00  0.00     0.014 C 
ATOM     11  C   UNL     1     -37.658  21.524 -29.373  1.00  0.00     0.014 C 
ENDBRANCH   1   9
TORSDOF 3
ENDMDL
MODEL 6
REMARK VINA RESULT:    -3.750      2.303      2.810
REMARK INTER + INTRA:          -4.363
REMARK INTER:                  -4.286
REMARK INTRA:                  -0.077
REMARK UNBOUND:                -0.065
REMARK SMILES CC(C)[C@H]([NH3+])C(=O)[O-]
REMARK SMILES IDX 4 1 5 2 6 6 7 7 8 8 2 9 1 10 3 11
REMARK H PARENT 5 3 5 4 5 5
REMARK Flexibility Score: inf
ROOT
ATOM      1  C   UNL     1     -38.778  20.746 -30.284  1.00  0.00     0.230 C 
ENDROOT
BRANCH   1   2
ATOM      2  N   UNL     1     -38.063  20.989 -31.547  1.00  0.00    -0.350 N 
ATOM      3  H   UNL     1     -38.589  20.566 -32.346  1.00  0.00     0.345 HD
ATOM      4  H   UNL     1     -37.953  22.017 -31.717  1.00  0.00     0.345 HD
ATOM      5  H   UNL     1     -37.122  20.536 -31.523  1.00  0.00     0.345 HD
ENDBRANCH   1   2
BRANCH   1   6
ATOM      6  C   UNL     1     -38.389  21.804 -29.281  1.00  0.00     0.099 C 
ATOM      7  O   UNL     1     -37.197  21.891 -28.883  1.00  0.00    -0.544 OA
ATOM      8  O   UNL     1     -39.341  22.690 -28.794  1.00  0.00    -0.544 OA
ENDBRANCH   1   6
BRANCH   1   9
ATOM      9  C   UNL     1     -38.493  19.321 -29.721  1.00  0.00     0.047 C 
ATOM     10  C   UNL     1     -38.656  18.235 -30.799  1.00  0.00     0.014 C 
ATOM     11  C   UNL     1     -39.417  18.994 -28.535  1.00  0.00     0.014 C 
ENDBRANCH   1   9
TORSDOF 3
ENDMDL
MODEL 7
REMARK VINA RESULT:    -3.738      2.765      3.264
REMARK INTER + INTRA:          -4.350
REMARK INTER:                  -4.282
REMARK INTRA:                  -0.068
REMARK UNBOUND:                -0.065
REMARK SMILES CC(C)[C@H]([NH3+])C(=O)[O-]
REMARK SMILES IDX 4 1 5 2 6 6 7 7 8 8 2 9 1 10 3 11
REMARK H PARENT 5 3 5 4 5 5
REMARK Flexibility Score: inf
ROOT
ATOM      1  C   UNL     1     -37.233  18.055 -28.770  1.00  0.00     0.230 C 
ENDROOT
BRANCH   1   2
ATOM      2  N   UNL     1     -37.060  18.242 -27.321  1.00  0.00    -0.350 N 
ATOM      3  H   UNL     1     -36.538  17.432 -26.913  1.00  0.00     0.345 HD
ATOM      4  H   UNL     1     -36.530  19.123 -27.123  1.00  0.00     0.345 HD
ATOM      5  H   UNL     1     -37.990  18.278 -26.847  1.00  0.00     0.345 HD
ENDBRANCH   1   2
BRANCH   1   6
ATOM      6  C   UNL     1     -35.921  18.318 -29.466  1.00  0.00     0.099 C 
ATOM      7  O   UNL     1     -35.297  19.393 -29.256  1.00  0.00    -0.544 OA
ATOM      8  O   UNL     1     -35.390  17.377 -30.339  1.00  0.00    -0.544 OA
ENDBRANCH   1   6
BRANCH   1   9
ATOM      9  C   UNL     1     -38.356  18.972 -29.343  1.00  0.00     0.047 C 
ATOM     10  C   UNL     1     -39.577  19.035 -28.410  1.00  0.00     0.014 C 
ATOM     11  C   UNL     1     -38.810  18.495 -30.734  1.00  0.00     0.014 C 
ENDBRANCH   1   9
TORSDOF 3
ENDMDL
MODEL 8
REMARK VINA RESULT:    -3.734      3.078      3.837
REMARK INTER + INTRA:          -4.346
REMARK INTER:                  -4.284
REMARK INTRA:                  -0.062
REMARK UNBOUND:                -0.065
REMARK SMILES CC(C)[C@H]([NH3+])C(=O)[O-]
REMARK SMILES IDX 4 1 5 2 6 6 7 7 8 8 2 9 1 10 3 11
REMARK H PARENT 5 3 5 4 5 5
REMARK Flexibility Score: inf
ROOT
ATOM      1  C   UNL     1     -37.087  18.692 -29.654  1.00  0.00     0.230 C 
ENDROOT
BRANCH   1   2
ATOM      2  N   UNL     1     -36.410  17.453 -30.068  1.00  0.00    -0.350 N 
ATOM      3  H   UNL     1     -35.387  17.512 -29.853  1.00  0.00     0.345 HD
ATOM      4  H   UNL     1     -36.815  16.626 -29.570  1.00  0.00     0.345 HD
ATOM      5  H   UNL     1     -36.499  17.320 -31.100  1.00  0.00     0.345 HD
ENDBRANCH   1   2
BRANCH   1   6
ATOM      6  C   UNL     1     -37.417  18.609 -28.184  1.00  0.00     0.099 C 
ATOM      7  O   UNL     1     -38.618  18.602 -27.804  1.00  0.00    -0.544 OA
ATOM      8  O   UNL     1     -36.399  18.537 -27.241  1.00  0.00    -0.544 OA
ENDBRANCH   1   6
BRANCH   1   9
ATOM      9  C   UNL     1     -38.372  18.959 -30.494  1.00  0.00     0.047 C 
ATOM     10  C   UNL     1     -38.788  17.726 -31.314  1.00  0.00     0.014 C 
ATOM     11  C   UNL     1     -38.179  20.154 -31.444  1.00  0.00     0.014 C 
ENDBRANCH   1   9
TORSDOF 3
ENDMDL
MODEL 9
REMARK VINA RESULT:    -3.734      2.223      3.144
REMARK INTER + INTRA:          -4.345
REMARK INTER:                  -4.301
REMARK INTRA:                  -0.044
REMARK UNBOUND:                -0.065
REMARK SMILES CC(C)[C@H]([NH3+])C(=O)[O-]
REMARK SMILES IDX 4 1 5 2 6 6 7 7 8 8 2 9 1 10 3 11
REMARK H PARENT 5 3 5 4 5 5
REMARK Flexibility Score: inf
ROOT
ATOM      1  C   UNL     1     -38.913  18.924 -29.222  1.00  0.00     0.230 C 
ENDROOT
BRANCH   1   2
ATOM      2  N   UNL     1     -39.789  19.147 -28.062  1.00  0.00    -0.350 N 
ATOM      3  H   UNL     1     -40.611  19.734 -28.337  1.00  0.00     0.345 HD
ATOM      4  H   UNL     1     -40.136  18.235 -27.679  1.00  0.00     0.345 HD
ATOM      5  H   UNL     1     -39.277  19.668 -27.315  1.00  0.00     0.345 HD
ENDBRANCH   1   2
BRANCH   1   6
ATOM      6  C   UNL     1     -37.701  18.139 -28.785  1.00  0.00     0.099 C 
ATOM      7  O   UNL     1     -37.173  17.302 -29.565  1.00  0.00    -0.544 OA
ATOM      8  O   UNL     1     -37.157  18.336 -27.522  1.00  0.00    -0.544 OA
ENDBRANCH   1   6
BRANCH   1   9
ATOM      9  C   UNL     1     -38.489  20.265 -29.895  1.00  0.00     0.047 C 
ATOM     10  C   UNL     1     -39.504  21.389 -29.624  1.00  0.00     0.014 C 
ATOM     11  C   UNL     1     -38.319  20.096 -31.415  1.00  0.00     0.014 C 
ENDBRANCH   1   9
TORSDOF 3
ENDMDL
