MODEL 1
REMARK VINA RESULT:    -5.303      0.000      0.000
REMARK INTER + INTRA:          -6.551
REMARK INTER:                  -6.232
REMARK INTRA:                  -0.318
REMARK UNBOUND:                -0.318
REMARK SMILES O=c1cc(-c2ccc(O)c(O)c2)oc2cc(O)cc(O)c12
REMARK SMILES IDX 4 1 3 2 2 3 1 4 21 5 19 6 18 7 16 8 15 9 14 10 13 11 5 12
REMARK SMILES IDX 6 13 7 14 8 15 12 16 10 17 9 18 11 20 20 22 17 24
REMARK H PARENT 9 19 11 21 20 23 17 25
REMARK Flexibility Score: inf
ROOT
ATOM      1  C   UNL     1      18.002  25.567  52.967  1.00  0.00     0.138 A 
ATOM      2  C   UNL     1      16.941  24.745  52.555  1.00  0.00     0.100 A 
ATOM      3  C   UNL     1      17.215  23.478  52.038  1.00  0.00     0.197 A 
ATOM      4  O   UNL     1      16.258  22.745  51.672  1.00  0.00    -0.289 OA
ATOM      5  C   UNL     1      18.552  23.041  51.940  1.00  0.00     0.107 A 
ATOM      6  C   UNL     1      18.918  21.774  51.428  1.00  0.00     0.134 A 
ATOM      7  C   UNL     1      20.271  21.412  51.369  1.00  0.00     0.093 A 
ATOM      8  C   UNL     1      21.264  22.289  51.813  1.00  0.00     0.123 A 
ATOM      9  C   UNL     1      20.908  23.544  52.320  1.00  0.00     0.094 A 
ATOM     10  C   UNL     1      19.565  23.924  52.387  1.00  0.00     0.146 A 
ATOM     11  O   UNL     1      19.253  25.121  52.871  1.00  0.00    -0.456 OA
ENDROOT
BRANCH   1  12
ATOM     12  C   UNL     1      17.770  26.923  53.526  1.00  0.00     0.021 A 
ATOM     13  C   UNL     1      16.457  27.418  53.617  1.00  0.00     0.016 A 
ATOM     14  C   UNL     1      16.211  28.688  54.147  1.00  0.00     0.051 A 
ATOM     15  C   UNL     1      17.267  29.480  54.602  1.00  0.00     0.157 A 
ATOM     16  C   UNL     1      18.830  27.722  54.000  1.00  0.00     0.062 A 
ATOM     17  C   UNL     1      18.583  28.995  54.532  1.00  0.00     0.158 A 
BRANCH  15  18
ATOM     18  O   UNL     1      16.990  30.744  55.124  1.00  0.00    -0.504 OA
ATOM     19  H   UNL     1      17.502  31.570  54.836  1.00  0.00     0.293 HD
ENDBRANCH  15  18
BRANCH  17  20
ATOM     20  O   UNL     1      19.641  29.777  54.996  1.00  0.00    -0.504 OA
ATOM     21  H   UNL     1      19.521  30.760  55.209  1.00  0.00     0.293 HD
ENDBRANCH  17  20
ENDBRANCH   1  12
BRANCH   6  22
ATOM     22  O   UNL     1      17.949  20.875  50.978  1.00  0.00    -0.507 OA
ATOM     23  H   UNL     1      17.880  19.936  51.351  1.00  0.00     0.293 HD
ENDBRANCH   6  22
BRANCH   8  24
ATOM     24  O   UNL     1      22.601  21.905  51.744  1.00  0.00    -0.508 OA
ATOM     25  H   UNL     1      23.351  22.579  51.834  1.00  0.00     0.293 HD
ENDBRANCH   8  24
TORSDOF 5
ENDMDL
MODEL 2
REMARK VINA RESULT:    -5.067      1.447      2.142
REMARK INTER + INTRA:          -6.274
REMARK INTER:                  -5.986
REMARK INTRA:                  -0.288
REMARK UNBOUND:                -0.318
REMARK SMILES O=c1cc(-c2ccc(O)c(O)c2)oc2cc(O)cc(O)c12
REMARK SMILES IDX 4 1 3 2 2 3 1 4 21 5 19 6 18 7 16 8 15 9 14 10 13 11 5 12
REMARK SMILES IDX 6 13 7 14 8 15 12 16 10 17 9 18 11 20 20 22 17 24
REMARK H PARENT 9 19 11 21 20 23 17 25
REMARK Flexibility Score: inf
ROOT
ATOM      1  C   UNL     1      19.217  25.607  53.371  1.00  0.00     0.138 A 
ATOM      2  C   UNL     1      18.156  24.844  53.885  1.00  0.00     0.100 A 
ATOM      3  C   UNL     1      17.950  23.548  53.410  1.00  0.00     0.197 A 
ATOM      4  O   UNL     1      16.996  22.869  53.876  1.00  0.00    -0.289 OA
ATOM      5  C   UNL     1      18.811  23.024  52.424  1.00  0.00     0.107 A 
ATOM      6  C   UNL     1      18.672  21.722  51.888  1.00  0.00     0.134 A 
ATOM      7  C   UNL     1      19.574  21.272  50.913  1.00  0.00     0.093 A 
ATOM      8  C   UNL     1      20.611  22.095  50.466  1.00  0.00     0.123 A 
ATOM      9  C   UNL     1      20.752  23.384  50.993  1.00  0.00     0.094 A 
ATOM     10  C   UNL     1      19.863  23.851  51.965  1.00  0.00     0.146 A 
ATOM     11  O   UNL     1      20.018  25.079  52.449  1.00  0.00    -0.456 OA
ENDROOT
BRANCH   1  12
ATOM     12  C   UNL     1      19.484  26.990  53.841  1.00  0.00     0.021 A 
ATOM     13  C   UNL     1      20.802  27.481  53.831  1.00  0.00     0.016 A 
ATOM     14  C   UNL     1      21.079  28.782  54.260  1.00  0.00     0.051 A 
ATOM     15  C   UNL     1      20.049  29.617  54.697  1.00  0.00     0.157 A 
ATOM     16  C   UNL     1      18.447  27.842  54.270  1.00  0.00     0.062 A 
ATOM     17  C   UNL     1      18.724  29.147  54.700  1.00  0.00     0.158 A 
BRANCH  15  18
ATOM     18  O   UNL     1      20.357  30.909  55.122  1.00  0.00    -0.504 OA
ATOM     19  H   UNL     1      20.109  31.247  56.045  1.00  0.00     0.293 HD
ENDBRANCH  15  18
BRANCH  17  20
ATOM     20  O   UNL     1      17.690  29.980  55.124  1.00  0.00    -0.504 OA
ATOM     21  H   UNL     1      16.950  30.271  54.496  1.00  0.00     0.293 HD
ENDBRANCH  17  20
ENDBRANCH   1  12
BRANCH   6  22
ATOM     22  O   UNL     1      17.647  20.875  52.314  1.00  0.00    -0.507 OA
ATOM     23  H   UNL     1      17.410  20.030  51.808  1.00  0.00     0.293 HD
ENDBRANCH   6  22
BRANCH   8  24
ATOM     24  O   UNL     1      21.494  21.624  49.498  1.00  0.00    -0.508 OA
ATOM     25  H   UNL     1      22.156  22.239  49.040  1.00  0.00     0.293 HD
ENDBRANCH   8  24
TORSDOF 5
ENDMDL
MODEL 3
REMARK VINA RESULT:    -4.446      1.520      3.289
REMARK INTER + INTRA:          -5.544
REMARK INTER:                  -5.228
REMARK INTRA:                  -0.315
REMARK UNBOUND:                -0.318
REMARK SMILES O=c1cc(-c2ccc(O)c(O)c2)oc2cc(O)cc(O)c12
REMARK SMILES IDX 4 1 3 2 2 3 1 4 21 5 19 6 18 7 16 8 15 9 14 10 13 11 5 12
REMARK SMILES IDX 6 13 7 14 8 15 12 16 10 17 9 18 11 20 20 22 17 24
REMARK H PARENT 9 19 11 21 20 23 17 25
REMARK Flexibility Score: inf
ROOT
ATOM      1  C   UNL     1      19.777  25.436  52.918  1.00  0.00     0.138 A 
ATOM      2  C   UNL     1      20.817  24.888  52.150  1.00  0.00     0.100 A 
ATOM      3  C   UNL     1      20.676  23.605  51.619  1.00  0.00     0.197 A 
ATOM      4  O   UNL     1      21.614  23.121  50.930  1.00  0.00    -0.289 OA
ATOM      5  C   UNL     1      19.492  22.880  51.859  1.00  0.00     0.107 A 
ATOM      6  C   UNL     1      19.268  21.575  51.359  1.00  0.00     0.134 A 
ATOM      7  C   UNL     1      18.059  20.922  51.637  1.00  0.00     0.093 A 
ATOM      8  C   UNL     1      17.070  21.546  52.402  1.00  0.00     0.123 A 
ATOM      9  C   UNL     1      17.286  22.836  52.899  1.00  0.00     0.094 A 
ATOM     10  C   UNL     1      18.485  23.505  52.633  1.00  0.00     0.146 A 
ATOM     11  O   UNL     1      18.667  24.728  53.117  1.00  0.00    -0.456 OA
ENDROOT
BRANCH   1  12
ATOM     12  C   UNL     1      19.871  26.796  53.506  1.00  0.00     0.021 A 
ATOM     13  C   UNL     1      21.115  27.450  53.542  1.00  0.00     0.016 A 
ATOM     14  C   UNL     1      21.228  28.733  54.083  1.00  0.00     0.051 A 
ATOM     15  C   UNL     1      20.104  29.389  54.588  1.00  0.00     0.157 A 
ATOM     16  C   UNL     1      18.737  27.468  54.005  1.00  0.00     0.062 A 
ATOM     17  C   UNL     1      18.850  28.756  54.547  1.00  0.00     0.158 A 
BRANCH  15  18
ATOM     18  O   UNL     1      20.249  30.669  55.124  1.00  0.00    -0.504 OA
ATOM     19  H   UNL     1      19.583  31.056  55.783  1.00  0.00     0.293 HD
ENDBRANCH  15  18
BRANCH  17  20
ATOM     20  O   UNL     1      17.721  29.411  55.039  1.00  0.00    -0.504 OA
ATOM     21  H   UNL     1      17.257  30.140  54.511  1.00  0.00     0.293 HD
ENDBRANCH  17  20
ENDBRANCH   1  12
BRANCH   6  22
ATOM     22  O   UNL     1      20.236  20.924  50.591  1.00  0.00    -0.507 OA
ATOM     23  H   UNL     1      20.007  20.480  49.710  1.00  0.00     0.293 HD
ENDBRANCH   6  22
BRANCH   8  24
ATOM     24  O   UNL     1      15.878  20.876  52.663  1.00  0.00    -0.508 OA
ATOM     25  H   UNL     1      15.851  20.052  53.252  1.00  0.00     0.293 HD
ENDBRANCH   8  24
TORSDOF 5
ENDMDL
MODEL 4
REMARK VINA RESULT:    -4.267      2.050      7.523
REMARK INTER + INTRA:          -5.334
REMARK INTER:                  -5.068
REMARK INTRA:                  -0.266
REMARK UNBOUND:                -0.318
REMARK SMILES O=c1cc(-c2ccc(O)c(O)c2)oc2cc(O)cc(O)c12
REMARK SMILES IDX 4 1 3 2 2 3 1 4 21 5 19 6 18 7 16 8 15 9 14 10 13 11 5 12
REMARK SMILES IDX 6 13 7 14 8 15 12 16 10 17 9 18 11 20 20 22 17 24
REMARK H PARENT 9 19 11 21 20 23 17 25
REMARK Flexibility Score: inf
ROOT
ATOM      1  C   UNL     1      20.219  26.050  53.068  1.00  0.00     0.138 A 
ATOM      2  C   UNL     1      21.333  26.864  53.332  1.00  0.00     0.100 A 
ATOM      3  C   UNL     1      21.143  28.119  53.913  1.00  0.00     0.197 A 
ATOM      4  O   UNL     1      22.147  28.843  54.147  1.00  0.00    -0.289 OA
ATOM      5  C   UNL     1      19.839  28.548  54.230  1.00  0.00     0.107 A 
ATOM      6  C   UNL     1      19.558  29.804  54.820  1.00  0.00     0.134 A 
ATOM      7  C   UNL     1      18.232  30.155  55.110  1.00  0.00     0.093 A 
ATOM      8  C   UNL     1      17.183  29.277  54.825  1.00  0.00     0.123 A 
ATOM      9  C   UNL     1      17.454  28.034  54.241  1.00  0.00     0.094 A 
ATOM     10  C   UNL     1      18.770  27.665  53.944  1.00  0.00     0.146 A 
ATOM     11  O   UNL     1      19.001  26.481  53.389  1.00  0.00    -0.456 OA
ENDROOT
BRANCH   1  12
ATOM     12  C   UNL     1      20.360  24.706  52.453  1.00  0.00     0.021 A 
ATOM     13  C   UNL     1      20.638  24.600  51.078  1.00  0.00     0.016 A 
ATOM     14  C   UNL     1      20.783  23.347  50.477  1.00  0.00     0.051 A 
ATOM     15  C   UNL     1      20.664  22.181  51.236  1.00  0.00     0.157 A 
ATOM     16  C   UNL     1      20.255  23.526  53.216  1.00  0.00     0.062 A 
ATOM     17  C   UNL     1      20.403  22.268  52.613  1.00  0.00     0.158 A 
BRANCH  15  18
ATOM     18  O   UNL     1      20.813  20.944  50.607  1.00  0.00    -0.504 OA
ATOM     19  H   UNL     1      20.837  20.853  49.598  1.00  0.00     0.293 HD
ENDBRANCH  15  18
BRANCH  17  20
ATOM     20  O   UNL     1      20.295  21.108  53.379  1.00  0.00    -0.504 OA
ATOM     21  H   UNL     1      21.094  20.511  53.554  1.00  0.00     0.293 HD
ENDBRANCH  17  20
ENDBRANCH   1  12
BRANCH   6  22
ATOM     22  O   UNL     1      20.585  30.702  55.117  1.00  0.00    -0.507 OA
ATOM     23  H   UNL     1      21.526  30.387  55.319  1.00  0.00     0.293 HD
ENDBRANCH   6  22
BRANCH   8  24
ATOM     24  O   UNL     1      15.875  29.650  55.124  1.00  0.00    -0.508 OA
ATOM     25  H   UNL     1      15.314  29.127  55.786  1.00  0.00     0.293 HD
ENDBRANCH   8  24
TORSDOF 5
ENDMDL
MODEL 5
REMARK VINA RESULT:    -4.061      1.835      6.932
REMARK INTER + INTRA:          -5.091
REMARK INTER:                  -4.825
REMARK INTRA:                  -0.266
REMARK UNBOUND:                -0.318
REMARK SMILES O=c1cc(-c2ccc(O)c(O)c2)oc2cc(O)cc(O)c12
REMARK SMILES IDX 4 1 3 2 2 3 1 4 21 5 19 6 18 7 16 8 15 9 14 10 13 11 5 12
REMARK SMILES IDX 6 13 7 14 8 15 12 16 10 17 9 18 11 20 20 22 17 24
REMARK H PARENT 9 19 11 21 20 23 17 25
REMARK Flexibility Score: inf
ROOT
ATOM      1  C   UNL     1      19.168  25.462  53.034  1.00  0.00     0.138 A 
ATOM      2  C   UNL     1      17.772  25.484  53.188  1.00  0.00     0.100 A 
ATOM      3  C   UNL     1      17.159  26.619  53.721  1.00  0.00     0.197 A 
ATOM      4  O   UNL     1      15.906  26.630  53.856  1.00  0.00    -0.289 OA
ATOM      5  C   UNL     1      17.948  27.726  54.093  1.00  0.00     0.107 A 
ATOM      6  C   UNL     1      17.407  28.913  54.640  1.00  0.00     0.134 A 
ATOM      7  C   UNL     1      18.259  29.974  54.979  1.00  0.00     0.093 A 
ATOM      8  C   UNL     1      19.639  29.872  54.781  1.00  0.00     0.123 A 
ATOM      9  C   UNL     1      20.179  28.700  54.240  1.00  0.00     0.094 A 
ATOM     10  C   UNL     1      19.346  27.631  53.896  1.00  0.00     0.146 A 
ATOM     11  O   UNL     1      19.883  26.529  53.385  1.00  0.00    -0.456 OA
ENDROOT
BRANCH   1  12
ATOM     12  C   UNL     1      19.875  24.283  52.471  1.00  0.00     0.021 A 
ATOM     13  C   UNL     1      20.206  23.208  53.314  1.00  0.00     0.016 A 
ATOM     14  C   UNL     1      20.864  22.084  52.808  1.00  0.00     0.051 A 
ATOM     15  C   UNL     1      21.194  22.009  51.453  1.00  0.00     0.157 A 
ATOM     16  C   UNL     1      20.198  24.196  51.102  1.00  0.00     0.062 A 
ATOM     17  C   UNL     1      20.857  23.068  50.593  1.00  0.00     0.158 A 
BRANCH  15  18
ATOM     18  O   UNL     1      21.852  20.875  50.977  1.00  0.00    -0.504 OA
ATOM     19  H   UNL     1      22.573  20.929  50.266  1.00  0.00     0.293 HD
ENDBRANCH  15  18
BRANCH  17  20
ATOM     20  O   UNL     1      21.173  22.994  49.238  1.00  0.00    -0.504 OA
ATOM     21  H   UNL     1      21.219  22.107  48.750  1.00  0.00     0.293 HD
ENDBRANCH  17  20
ENDBRANCH   1  12
BRANCH   6  22
ATOM     22  O   UNL     1      16.033  29.046  54.850  1.00  0.00    -0.507 OA
ATOM     23  H   UNL     1      15.525  28.418  55.462  1.00  0.00     0.293 HD
ENDBRANCH   6  22
BRANCH   8  24
ATOM     24  O   UNL     1      20.463  30.940  55.125  1.00  0.00    -0.508 OA
ATOM     25  H   UNL     1      20.145  31.899  55.053  1.00  0.00     0.293 HD
ENDBRANCH   8  24
TORSDOF 5
ENDMDL
MODEL 6
REMARK VINA RESULT:    -3.996      1.083      2.715
REMARK INTER + INTRA:          -5.015
REMARK INTER:                  -4.718
REMARK INTRA:                  -0.297
REMARK UNBOUND:                -0.318
REMARK SMILES O=c1cc(-c2ccc(O)c(O)c2)oc2cc(O)cc(O)c12
REMARK SMILES IDX 4 1 3 2 2 3 1 4 21 5 19 6 18 7 16 8 15 9 14 10 13 11 5 12
REMARK SMILES IDX 6 13 7 14 8 15 12 16 10 17 9 18 11 20 20 22 17 24
REMARK H PARENT 9 19 11 21 20 23 17 25
REMARK Flexibility Score: inf
ROOT
ATOM      1  C   UNL     1      19.224  26.110  53.313  1.00  0.00     0.138 A 
ATOM      2  C   UNL     1      20.611  25.891  53.365  1.00  0.00     0.100 A 
ATOM      3  C   UNL     1      21.132  24.677  52.914  1.00  0.00     0.197 A 
ATOM      4  O   UNL     1      22.377  24.490  52.963  1.00  0.00    -0.289 OA
ATOM      5  C   UNL     1      20.260  23.691  52.411  1.00  0.00     0.107 A 
ATOM      6  C   UNL     1      20.704  22.434  51.936  1.00  0.00     0.134 A 
ATOM      7  C   UNL     1      19.773  21.508  51.445  1.00  0.00     0.093 A 
ATOM      8  C   UNL     1      18.409  21.813  51.419  1.00  0.00     0.123 A 
ATOM      9  C   UNL     1      17.964  23.053  51.888  1.00  0.00     0.094 A 
ATOM     10  C   UNL     1      18.877  23.991  52.382  1.00  0.00     0.146 A 
ATOM     11  O   UNL     1      18.430  25.161  52.823  1.00  0.00    -0.456 OA
ENDROOT
BRANCH   1  12
ATOM     12  C   UNL     1      18.615  27.382  53.777  1.00  0.00     0.021 A 
ATOM     13  C   UNL     1      17.215  27.512  53.793  1.00  0.00     0.016 A 
ATOM     14  C   UNL     1      16.616  28.696  54.232  1.00  0.00     0.051 A 
ATOM     15  C   UNL     1      17.401  29.764  54.671  1.00  0.00     0.157 A 
ATOM     16  C   UNL     1      19.401  28.458  54.234  1.00  0.00     0.062 A 
ATOM     17  C   UNL     1      18.801  29.646  54.676  1.00  0.00     0.158 A 
BRANCH  15  18
ATOM     18  O   UNL     1      16.775  30.934  55.102  1.00  0.00    -0.504 OA
ATOM     19  H   UNL     1      17.146  31.853  54.890  1.00  0.00     0.293 HD
ENDBRANCH  15  18
BRANCH  17  20
ATOM     20  O   UNL     1      19.590  30.704  55.124  1.00  0.00    -0.504 OA
ATOM     21  H   UNL     1      19.477  31.096  56.052  1.00  0.00     0.293 HD
ENDBRANCH  17  20
ENDBRANCH   1  12
BRANCH   6  22
ATOM     22  O   UNL     1      22.060  22.100  51.948  1.00  0.00    -0.507 OA
ATOM     23  H   UNL     1      22.779  22.790  51.766  1.00  0.00     0.293 HD
ENDBRANCH   6  22
BRANCH   8  24
ATOM     24  O   UNL     1      17.505  20.875  50.925  1.00  0.00    -0.508 OA
ATOM     25  H   UNL     1      17.468  20.643  49.940  1.00  0.00     0.293 HD
ENDBRANCH   8  24
TORSDOF 5
ENDMDL
MODEL 7
REMARK VINA RESULT:    -3.268     19.673     21.618
REMARK INTER + INTRA:          -4.159
REMARK INTER:                  -3.864
REMARK INTRA:                  -0.295
REMARK UNBOUND:                -0.318
REMARK SMILES O=c1cc(-c2ccc(O)c(O)c2)oc2cc(O)cc(O)c12
REMARK SMILES IDX 4 1 3 2 2 3 1 4 21 5 19 6 18 7 16 8 15 9 14 10 13 11 5 12
REMARK SMILES IDX 6 13 7 14 8 15 12 16 10 17 9 18 11 20 20 22 17 24
REMARK H PARENT 9 19 11 21 20 23 17 25
REMARK Flexibility Score: inf
ROOT
ATOM      1  C   UNL     1      33.355  25.300  37.368  1.00  0.00     0.138 A 
ATOM      2  C   UNL     1      32.017  24.896  37.231  1.00  0.00     0.100 A 
ATOM      3  C   UNL     1      31.584  23.730  37.864  1.00  0.00     0.197 A 
ATOM      4  O   UNL     1      30.382  23.375  37.736  1.00  0.00    -0.289 OA
ATOM      5  C   UNL     1      32.495  22.978  38.633  1.00  0.00     0.107 A 
ATOM      6  C   UNL     1      32.139  21.785  39.306  1.00  0.00     0.134 A 
ATOM      7  C   UNL     1      33.102  21.097  40.058  1.00  0.00     0.093 A 
ATOM      8  C   UNL     1      34.411  21.577  40.150  1.00  0.00     0.123 A 
ATOM      9  C   UNL     1      34.769  22.756  39.486  1.00  0.00     0.094 A 
ATOM     10  C   UNL     1      33.823  23.457  38.732  1.00  0.00     0.146 A 
ATOM     11  O   UNL     1      34.187  24.572  38.110  1.00  0.00    -0.456 OA
ENDROOT
BRANCH   1  12
ATOM     12  C   UNL     1      33.871  26.532  36.719  1.00  0.00     0.021 A 
ATOM     13  C   UNL     1      35.257  26.764  36.678  1.00  0.00     0.016 A 
ATOM     14  C   UNL     1      35.768  27.912  36.066  1.00  0.00     0.051 A 
ATOM     15  C   UNL     1      34.909  28.841  35.477  1.00  0.00     0.157 A 
ATOM     16  C   UNL     1      33.009  27.467  36.111  1.00  0.00     0.062 A 
ATOM     17  C   UNL     1      33.522  28.618  35.495  1.00  0.00     0.158 A 
BRANCH  15  18
ATOM     18  O   UNL     1      35.448  29.978  34.876  1.00  0.00    -0.504 OA
ATOM     19  H   UNL     1      36.388  30.300  35.078  1.00  0.00     0.293 HD
ENDBRANCH  15  18
BRANCH  17  20
ATOM     20  O   UNL     1      32.659  29.536  34.899  1.00  0.00    -0.504 OA
ATOM     21  H   UNL     1      31.782  29.800  35.332  1.00  0.00     0.293 HD
ENDBRANCH  17  20
ENDBRANCH   1  12
BRANCH   6  22
ATOM     22  O   UNL     1      30.840  21.280  39.233  1.00  0.00    -0.507 OA
ATOM     23  H   UNL     1      30.029  21.879  39.332  1.00  0.00     0.293 HD
ENDBRANCH   6  22
BRANCH   8  24
ATOM     24  O   UNL     1      35.349  20.875  40.904  1.00  0.00    -0.508 OA
ATOM     25  H   UNL     1      36.208  21.310  41.219  1.00  0.00     0.293 HD
ENDBRANCH   8  24
TORSDOF 5
ENDMDL
MODEL 8
REMARK VINA RESULT:    -2.526      2.232      6.592
REMARK INTER + INTRA:          -3.287
REMARK INTER:                  -3.001
REMARK INTRA:                  -0.287
REMARK UNBOUND:                -0.318
REMARK SMILES O=c1cc(-c2ccc(O)c(O)c2)oc2cc(O)cc(O)c12
REMARK SMILES IDX 4 1 3 2 2 3 1 4 21 5 19 6 18 7 16 8 15 9 14 10 13 11 5 12
REMARK SMILES IDX 6 13 7 14 8 15 12 16 10 17 9 18 11 20 20 22 17 24
REMARK H PARENT 9 19 11 21 20 23 17 25
REMARK Flexibility Score: inf
ROOT
ATOM      1  C   UNL     1      17.673  26.023  53.542  1.00  0.00     0.138 A 
ATOM      2  C   UNL     1      16.744  27.014  53.899  1.00  0.00     0.100 A 
ATOM      3  C   UNL     1      17.201  28.270  54.302  1.00  0.00     0.197 A 
ATOM      4  O   UNL     1      16.361  29.153  54.619  1.00  0.00    -0.289 OA
ATOM      5  C   UNL     1      18.586  28.526  54.341  1.00  0.00     0.107 A 
ATOM      6  C   UNL     1      19.133  29.769  54.737  1.00  0.00     0.134 A 
ATOM      7  C   UNL     1      20.524  29.947  54.743  1.00  0.00     0.093 A 
ATOM      8  C   UNL     1      21.377  28.908  54.361  1.00  0.00     0.123 A 
ATOM      9  C   UNL     1      20.842  27.676  53.968  1.00  0.00     0.094 A 
ATOM     10  C   UNL     1      19.458  27.479  53.955  1.00  0.00     0.146 A 
ATOM     11  O   UNL     1      18.974  26.301  53.580  1.00  0.00    -0.456 OA
ENDROOT
BRANCH   1  12
ATOM     12  C   UNL     1      17.245  24.670  53.105  1.00  0.00     0.021 A 
ATOM     13  C   UNL     1      16.292  24.544  52.078  1.00  0.00     0.016 A 
ATOM     14  C   UNL     1      15.878  23.282  51.643  1.00  0.00     0.051 A 
ATOM     15  C   UNL     1      16.413  22.127  52.216  1.00  0.00     0.157 A 
ATOM     16  C   UNL     1      17.791  23.500  53.670  1.00  0.00     0.062 A 
ATOM     17  C   UNL     1      17.377  22.234  53.232  1.00  0.00     0.158 A 
BRANCH  15  18
ATOM     18  O   UNL     1      15.979  20.881  51.762  1.00  0.00    -0.504 OA
ATOM     19  H   UNL     1      16.375  20.014  52.106  1.00  0.00     0.293 HD
ENDBRANCH  15  18
BRANCH  17  20
ATOM     20  O   UNL     1      17.924  21.084  53.800  1.00  0.00    -0.504 OA
ATOM     21  H   UNL     1      17.489  20.176  53.686  1.00  0.00     0.293 HD
ENDBRANCH  17  20
ENDBRANCH   1  12
BRANCH   6  22
ATOM     22  O   UNL     1      18.307  30.826  55.124  1.00  0.00    -0.507 OA
ATOM     23  H   UNL     1      17.547  30.695  55.781  1.00  0.00     0.293 HD
ENDBRANCH   6  22
BRANCH   8  24
ATOM     24  O   UNL     1      22.755  29.111  54.375  1.00  0.00    -0.508 OA
ATOM     25  H   UNL     1      23.199  29.776  53.753  1.00  0.00     0.293 HD
ENDBRANCH   8  24
TORSDOF 5
ENDMDL
