MODEL 1
REMARK VINA RESULT:    -5.263      0.000      0.000
REMARK INTER + INTRA:          -5.991
REMARK INTER:                  -5.571
REMARK INTRA:                  -0.421
REMARK UNBOUND:                -0.421
REMARK SMILES CC1=CC[C@H]2[C@H]3[C@@H]1[C@]2(C)CC[C@H]3C(C)C
REMARK SMILES IDX 1 1 2 2 3 3 4 4 5 5 6 6 7 7 8 8 10 9 11 10 12 11 9 12 13 13
REMARK SMILES IDX 14 14 15 15
REMARK H PARENT
REMARK Flexibility Score: inf
ROOT
ATOM      1  C   UNL     1     136.874 141.574 137.253  1.00  0.00     0.039 C 
ATOM      2  C   UNL     1     137.913 141.474 136.177  1.00  0.00    -0.073 C 
ATOM      3  C   UNL     1     138.764 142.502 135.922  1.00  0.00    -0.027 C 
ATOM      4  C   UNL     1     139.788 142.351 134.792  1.00  0.00     0.031 C 
ATOM      5  C   UNL     1     139.669 140.939 134.133  1.00  0.00     0.003 C 
ATOM      6  C   UNL     1     139.586 139.896 135.279  1.00  0.00     0.004 C 
ATOM      7  C   UNL     1     138.074 140.210 135.327  1.00  0.00     0.024 C 
ATOM      8  C   UNL     1     138.193 140.575 133.830  1.00  0.00    -0.022 C 
ATOM      9  C   UNL     1     138.115 139.270 132.979  1.00  0.00     0.008 C 
ATOM     10  C   UNL     1     139.260 138.275 133.308  1.00  0.00     0.005 C 
ATOM     11  C   UNL     1     139.797 138.439 134.765  1.00  0.00    -0.005 C 
ATOM     12  C   UNL     1     137.252 141.662 133.260  1.00  0.00     0.012 C 
ENDROOT
BRANCH  11  13
ATOM     13  C   UNL     1     141.259 137.944 134.971  1.00  0.00    -0.014 C 
ATOM     14  C   UNL     1     142.040 138.712 136.051  1.00  0.00     0.007 C 
ATOM     15  C   UNL     1     142.044 137.935 133.651  1.00  0.00     0.007 C 
ENDBRANCH  11  13
TORSDOF 1
ENDMDL
MODEL 2
REMARK VINA RESULT:    -5.257      2.295      4.310
REMARK INTER + INTRA:          -5.985
REMARK INTER:                  -5.566
REMARK INTRA:                  -0.419
REMARK UNBOUND:                -0.421
REMARK SMILES CC1=CC[C@H]2[C@H]3[C@@H]1[C@]2(C)CC[C@H]3C(C)C
REMARK SMILES IDX 1 1 2 2 3 3 4 4 5 5 6 6 7 7 8 8 10 9 11 10 12 11 9 12 13 13
REMARK SMILES IDX 14 14 15 15
REMARK H PARENT
REMARK Flexibility Score: inf
ROOT
ATOM      1  C   UNL     1     140.628 136.878 137.247  1.00  0.00     0.039 C 
ATOM      2  C   UNL     1     140.718 137.918 136.171  1.00  0.00    -0.073 C 
ATOM      3  C   UNL     1     139.673 138.742 135.898  1.00  0.00    -0.027 C 
ATOM      4  C   UNL     1     139.815 139.768 134.770  1.00  0.00     0.031 C 
ATOM      5  C   UNL     1     141.240 139.686 134.134  1.00  0.00     0.003 C 
ATOM      6  C   UNL     1     142.267 139.632 135.297  1.00  0.00     0.004 C 
ATOM      7  C   UNL     1     141.992 138.112 135.342  1.00  0.00     0.024 C 
ATOM      8  C   UNL     1     141.648 138.221 133.838  1.00  0.00    -0.022 C 
ATOM      9  C   UNL     1     142.969 138.176 133.010  1.00  0.00     0.008 C 
ATOM     10  C   UNL     1     143.927 139.348 133.354  1.00  0.00     0.005 C 
ATOM     11  C   UNL     1     143.725 139.881 134.806  1.00  0.00    -0.005 C 
ATOM     12  C   UNL     1     140.596 137.250 133.252  1.00  0.00     0.012 C 
ENDROOT
BRANCH  11  13
ATOM     13  C   UNL     1     144.178 141.356 135.019  1.00  0.00    -0.014 C 
ATOM     14  C   UNL     1     143.328 142.137 136.036  1.00  0.00     0.007 C 
ATOM     15  C   UNL     1     144.254 142.121 133.689  1.00  0.00     0.007 C 
ENDBRANCH  11  13
TORSDOF 1
ENDMDL
MODEL 3
REMARK VINA RESULT:    -5.242      2.288      4.303
REMARK INTER + INTRA:          -5.970
REMARK INTER:                  -5.549
REMARK INTRA:                  -0.420
REMARK UNBOUND:                -0.421
REMARK SMILES CC1=CC[C@H]2[C@H]3[C@@H]1[C@]2(C)CC[C@H]3C(C)C
REMARK SMILES IDX 1 1 2 2 3 3 4 4 5 5 6 6 7 7 8 8 10 9 11 10 12 11 9 12 13 13
REMARK SMILES IDX 14 14 15 15
REMARK H PARENT
REMARK Flexibility Score: inf
ROOT
ATOM      1  C   UNL     1     141.689 145.239 137.247  1.00  0.00     0.039 C 
ATOM      2  C   UNL     1     141.559 144.228 136.148  1.00  0.00    -0.073 C 
ATOM      3  C   UNL     1     142.578 143.381 135.845  1.00  0.00    -0.027 C 
ATOM      4  C   UNL     1     142.396 142.386 134.694  1.00  0.00     0.031 C 
ATOM      5  C   UNL     1     140.968 142.525 134.074  1.00  0.00     0.003 C 
ATOM      6  C   UNL     1     139.954 142.580 135.248  1.00  0.00     0.004 C 
ATOM      7  C   UNL     1     140.273 144.091 135.327  1.00  0.00     0.024 C 
ATOM      8  C   UNL     1     140.599 144.008 133.818  1.00  0.00    -0.022 C 
ATOM      9  C   UNL     1     139.273 144.110 133.003  1.00  0.00     0.008 C 
ATOM     10  C   UNL     1     138.284 142.959 133.329  1.00  0.00     0.005 C 
ATOM     11  C   UNL     1     138.484 142.386 134.766  1.00  0.00    -0.005 C 
ATOM     12  C   UNL     1     141.674 144.962 133.244  1.00  0.00     0.012 C 
ENDROOT
BRANCH  11  13
ATOM     13  C   UNL     1     137.991 140.919 134.948  1.00  0.00    -0.014 C 
ATOM     14  C   UNL     1     138.760 140.122 136.015  1.00  0.00     0.007 C 
ATOM     15  C   UNL     1     137.984 140.156 133.615  1.00  0.00     0.007 C 
ENDBRANCH  11  13
TORSDOF 1
ENDMDL
MODEL 4
REMARK VINA RESULT:    -5.237      1.652      4.766
REMARK INTER + INTRA:          -5.964
REMARK INTER:                  -5.559
REMARK INTRA:                  -0.405
REMARK UNBOUND:                -0.421
REMARK SMILES CC1=CC[C@H]2[C@H]3[C@@H]1[C@]2(C)CC[C@H]3C(C)C
REMARK SMILES IDX 1 1 2 2 3 3 4 4 5 5 6 6 7 7 8 8 10 9 11 10 12 11 9 12 13 13
REMARK SMILES IDX 14 14 15 15
REMARK H PARENT
REMARK Flexibility Score: inf
ROOT
ATOM      1  C   UNL     1     138.402 137.641 130.348  1.00  0.00     0.039 C 
ATOM      2  C   UNL     1     139.183 138.447 131.342  1.00  0.00    -0.073 C 
ATOM      3  C   UNL     1     140.402 138.961 131.030  1.00  0.00    -0.027 C 
ATOM      4  C   UNL     1     141.165 139.755 132.095  1.00  0.00     0.031 C 
ATOM      5  C   UNL     1     140.322 139.857 133.407  1.00  0.00     0.003 C 
ATOM      6  C   UNL     1     138.876 140.249 133.002  1.00  0.00     0.004 C 
ATOM      7  C   UNL     1     138.642 138.744 132.743  1.00  0.00     0.024 C 
ATOM      8  C   UNL     1     139.729 138.483 133.811  1.00  0.00    -0.022 C 
ATOM      9  C   UNL     1     139.081 138.562 135.228  1.00  0.00     0.008 C 
ATOM     10  C   UNL     1     138.463 139.954 135.524  1.00  0.00     0.005 C 
ATOM     11  C   UNL     1     138.025 140.704 134.227  1.00  0.00    -0.005 C 
ATOM     12  C   UNL     1     140.606 137.216 133.675  1.00  0.00     0.012 C 
ENDROOT
BRANCH  11  13
ATOM     13  C   UNL     1     137.970 142.254 134.367  1.00  0.00    -0.014 C 
ATOM     14  C   UNL     1     138.489 143.018 133.138  1.00  0.00     0.007 C 
ATOM     15  C   UNL     1     138.691 142.733 135.636  1.00  0.00     0.007 C 
ENDBRANCH  11  13
TORSDOF 1
ENDMDL
MODEL 5
REMARK VINA RESULT:    -5.219      2.500      5.555
REMARK INTER + INTRA:          -5.945
REMARK INTER:                  -5.568
REMARK INTRA:                  -0.377
REMARK UNBOUND:                -0.421
REMARK SMILES CC1=CC[C@H]2[C@H]3[C@@H]1[C@]2(C)CC[C@H]3C(C)C
REMARK SMILES IDX 1 1 2 2 3 3 4 4 5 5 6 6 7 7 8 8 10 9 11 10 12 11 9 12 13 13
REMARK SMILES IDX 14 14 15 15
REMARK H PARENT
REMARK Flexibility Score: inf
ROOT
ATOM      1  C   UNL     1     144.382 138.371 130.419  1.00  0.00     0.039 C 
ATOM      2  C   UNL     1     143.607 139.152 131.437  1.00  0.00    -0.073 C 
ATOM      3  C   UNL     1     143.071 140.364 131.137  1.00  0.00    -0.027 C 
ATOM      4  C   UNL     1     142.312 141.128 132.226  1.00  0.00     0.031 C 
ATOM      5  C   UNL     1     142.268 140.294 133.548  1.00  0.00     0.003 C 
ATOM      6  C   UNL     1     141.874 138.841 133.169  1.00  0.00     0.004 C 
ATOM      7  C   UNL     1     143.370 138.619 132.853  1.00  0.00     0.024 C 
ATOM      8  C   UNL     1     143.662 139.716 133.902  1.00  0.00    -0.022 C 
ATOM      9  C   UNL     1     143.644 139.079 135.326  1.00  0.00     0.008 C 
ATOM     10  C   UNL     1     142.270 138.451 135.680  1.00  0.00     0.005 C 
ATOM     11  C   UNL     1     141.475 137.996 134.416  1.00  0.00    -0.005 C 
ATOM     12  C   UNL     1     144.915 140.603 133.711  1.00  0.00     0.012 C 
ENDROOT
BRANCH  11  13
ATOM     13  C   UNL     1     139.932 137.928 134.617  1.00  0.00    -0.014 C 
ATOM     14  C   UNL     1     139.119 138.584 133.488  1.00  0.00     0.007 C 
ATOM     15  C   UNL     1     139.513 138.502 135.978  1.00  0.00     0.007 C 
ENDBRANCH  11  13
TORSDOF 1
ENDMDL
MODEL 6
REMARK VINA RESULT:    -5.203      3.824      5.619
REMARK INTER + INTRA:          -5.928
REMARK INTER:                  -5.525
REMARK INTRA:                  -0.403
REMARK UNBOUND:                -0.421
REMARK SMILES CC1=CC[C@H]2[C@H]3[C@@H]1[C@]2(C)CC[C@H]3C(C)C
REMARK SMILES IDX 1 1 2 2 3 3 4 4 5 5 6 6 7 7 8 8 10 9 11 10 12 11 9 12 13 13
REMARK SMILES IDX 14 14 15 15
REMARK H PARENT
REMARK Flexibility Score: inf
ROOT
ATOM      1  C   UNL     1     143.737 144.408 130.456  1.00  0.00     0.039 C 
ATOM      2  C   UNL     1     142.954 143.639 131.477  1.00  0.00    -0.073 C 
ATOM      3  C   UNL     1     141.727 143.132 131.189  1.00  0.00    -0.027 C 
ATOM      4  C   UNL     1     140.963 142.377 132.282  1.00  0.00     0.031 C 
ATOM      5  C   UNL     1     141.815 142.302 133.590  1.00  0.00     0.003 C 
ATOM      6  C   UNL     1     143.253 141.881 133.185  1.00  0.00     0.004 C 
ATOM      7  C   UNL     1     143.503 143.376 132.883  1.00  0.00     0.024 C 
ATOM      8  C   UNL     1     142.427 143.679 133.951  1.00  0.00    -0.022 C 
ATOM      9  C   UNL     1     143.085 143.633 135.364  1.00  0.00     0.008 C 
ATOM     10  C   UNL     1     143.689 142.241 135.694  1.00  0.00     0.005 C 
ATOM     11  C   UNL     1     144.109 141.451 134.416  1.00  0.00    -0.005 C 
ATOM     12  C   UNL     1     141.565 144.952 133.785  1.00  0.00     0.012 C 
ENDROOT
BRANCH  11  13
ATOM     13  C   UNL     1     144.146 139.904 134.599  1.00  0.00    -0.014 C 
ATOM     14  C   UNL     1     143.603 139.113 133.398  1.00  0.00     0.007 C 
ATOM     15  C   UNL     1     143.435 139.471 135.890  1.00  0.00     0.007 C 
ENDBRANCH  11  13
TORSDOF 1
ENDMDL
MODEL 7
REMARK VINA RESULT:    -5.197      3.172      6.022
REMARK INTER + INTRA:          -5.922
REMARK INTER:                  -5.504
REMARK INTRA:                  -0.418
REMARK UNBOUND:                -0.421
REMARK SMILES CC1=CC[C@H]2[C@H]3[C@@H]1[C@]2(C)CC[C@H]3C(C)C
REMARK SMILES IDX 1 1 2 2 3 3 4 4 5 5 6 6 7 7 8 8 10 9 11 10 12 11 9 12 13 13
REMARK SMILES IDX 14 14 15 15
REMARK H PARENT
REMARK Flexibility Score: inf
ROOT
ATOM      1  C   UNL     1     145.178 140.672 137.191  1.00  0.00     0.039 C 
ATOM      2  C   UNL     1     144.142 140.783 136.113  1.00  0.00    -0.073 C 
ATOM      3  C   UNL     1     143.278 139.766 135.858  1.00  0.00    -0.027 C 
ATOM      4  C   UNL     1     142.257 139.927 134.727  1.00  0.00     0.031 C 
ATOM      5  C   UNL     1     142.395 141.337 134.066  1.00  0.00     0.003 C 
ATOM      6  C   UNL     1     142.488 142.381 135.211  1.00  0.00     0.004 C 
ATOM      7  C   UNL     1     143.997 142.048 135.261  1.00  0.00     0.024 C 
ATOM      8  C   UNL     1     143.875 141.683 133.764  1.00  0.00    -0.022 C 
ATOM      9  C   UNL     1     143.970 142.986 132.912  1.00  0.00     0.008 C 
ATOM     10  C   UNL     1     142.837 143.995 133.239  1.00  0.00     0.005 C 
ATOM     11  C   UNL     1     142.296 143.839 134.695  1.00  0.00    -0.005 C 
ATOM     12  C   UNL     1     144.803 140.583 133.197  1.00  0.00     0.012 C 
ENDROOT
BRANCH  11  13
ATOM     13  C   UNL     1     140.839 144.352 134.898  1.00  0.00    -0.014 C 
ATOM     14  C   UNL     1     140.087 143.674 136.055  1.00  0.00     0.007 C 
ATOM     15  C   UNL     1     140.021 144.258 133.602  1.00  0.00     0.007 C 
ENDBRANCH  11  13
TORSDOF 1
ENDMDL
MODEL 8
REMARK VINA RESULT:    -5.163      1.811      5.203
REMARK INTER + INTRA:          -5.885
REMARK INTER:                  -5.499
REMARK INTRA:                  -0.387
REMARK UNBOUND:                -0.421
REMARK SMILES CC1=CC[C@H]2[C@H]3[C@@H]1[C@]2(C)CC[C@H]3C(C)C
REMARK SMILES IDX 1 1 2 2 3 3 4 4 5 5 6 6 7 7 8 8 10 9 11 10 12 11 9 12 13 13
REMARK SMILES IDX 14 14 15 15
REMARK H PARENT
REMARK Flexibility Score: inf
ROOT
ATOM      1  C   UNL     1     143.598 137.244 131.393  1.00  0.00     0.039 C 
ATOM      2  C   UNL     1     142.894 138.296 132.197  1.00  0.00    -0.073 C 
ATOM      3  C   UNL     1     143.227 139.608 132.088  1.00  0.00    -0.027 C 
ATOM      4  C   UNL     1     142.490 140.634 132.954  1.00  0.00     0.031 C 
ATOM      5  C   UNL     1     141.402 139.929 133.827  1.00  0.00     0.003 C 
ATOM      6  C   UNL     1     140.621 138.957 132.902  1.00  0.00     0.004 C 
ATOM      7  C   UNL     1     141.759 137.945 133.165  1.00  0.00     0.024 C 
ATOM      8  C   UNL     1     141.962 138.661 134.520  1.00  0.00    -0.022 C 
ATOM      9  C   UNL     1     140.934 138.102 135.551  1.00  0.00     0.008 C 
ATOM     10  C   UNL     1     139.463 138.339 135.114  1.00  0.00     0.005 C 
ATOM     11  C   UNL     1     139.307 138.443 133.565  1.00  0.00    -0.005 C 
ATOM     12  C   UNL     1     143.384 138.701 135.126  1.00  0.00     0.012 C 
ENDROOT
BRANCH  11  13
ATOM     13  C   UNL     1     138.055 139.244 133.097  1.00  0.00    -0.014 C 
ATOM     14  C   UNL     1     138.104 139.687 131.625  1.00  0.00     0.007 C 
ATOM     15  C   UNL     1     137.782 140.449 134.008  1.00  0.00     0.007 C 
ENDBRANCH  11  13
TORSDOF 1
ENDMDL
MODEL 9
REMARK VINA RESULT:    -5.157      1.699      4.707
REMARK INTER + INTRA:          -5.879
REMARK INTER:                  -5.499
REMARK INTRA:                  -0.379
REMARK UNBOUND:                -0.421
REMARK SMILES CC1=CC[C@H]2[C@H]3[C@@H]1[C@]2(C)CC[C@H]3C(C)C
REMARK SMILES IDX 1 1 2 2 3 3 4 4 5 5 6 6 7 7 8 8 10 9 11 10 12 11 9 12 13 13
REMARK SMILES IDX 14 14 15 15
REMARK H PARENT
REMARK Flexibility Score: inf
ROOT
ATOM      1  C   UNL     1     137.262 138.694 131.396  1.00  0.00     0.039 C 
ATOM      2  C   UNL     1     138.321 139.377 132.208  1.00  0.00    -0.073 C 
ATOM      3  C   UNL     1     139.635 139.060 132.064  1.00  0.00    -0.027 C 
ATOM      4  C   UNL     1     140.669 139.773 132.940  1.00  0.00     0.031 C 
ATOM      5  C   UNL     1     139.970 140.822 133.865  1.00  0.00     0.003 C 
ATOM      6  C   UNL     1     138.976 141.628 132.987  1.00  0.00     0.004 C 
ATOM      7  C   UNL     1     137.978 140.472 133.223  1.00  0.00     0.024 C 
ATOM      8  C   UNL     1     138.718 140.225 134.557  1.00  0.00    -0.022 C 
ATOM      9  C   UNL     1     138.168 141.209 135.635  1.00  0.00     0.008 C 
ATOM     10  C   UNL     1     138.385 142.697 135.250  1.00  0.00     0.005 C 
ATOM     11  C   UNL     1     138.462 142.911 133.706  1.00  0.00    -0.005 C 
ATOM     12  C   UNL     1     138.780 138.781 135.109  1.00  0.00     0.012 C 
ENDROOT
BRANCH  11  13
ATOM     13  C   UNL     1     139.244 144.187 133.272  1.00  0.00    -0.014 C 
ATOM     14  C   UNL     1     139.633 144.213 131.785  1.00  0.00     0.007 C 
ATOM     15  C   UNL     1     140.482 144.417 134.151  1.00  0.00     0.007 C 
ENDBRANCH  11  13
TORSDOF 1
ENDMDL
