MODEL 1
REMARK VINA RESULT:    -6.299      0.000      0.000
REMARK INTER + INTRA:          -9.135
REMARK INTER:                  -7.772
REMARK INTRA:                  -1.363
REMARK UNBOUND:                -1.363
REMARK SMILES CC(C)=CCC[C@@H](C)c1ccc(C)cc1
REMARK SMILES IDX 6 1 7 2 8 3 9 4 13 5 12 6 11 7 14 8 10 9 15 10 5 11 4 12
REMARK SMILES IDX 2 13 1 14 3 15
REMARK H PARENT
REMARK Flexibility Score: inf
ROOT
ATOM      1  C   UNL     1      -2.472   4.300  -8.787  1.00  0.00     0.012 C 
ENDROOT
BRANCH   1   2
ATOM      2  C   UNL     1      -3.064   3.065  -9.504  1.00  0.00     0.016 C 
ATOM      3  C   UNL     1      -4.494   3.316 -10.007  1.00  0.00     0.013 C 
BRANCH   2   4
ATOM      4  C   UNL     1      -2.168   2.641 -10.654  1.00  0.00    -0.045 A 
ATOM      5  C   UNL     1       0.352   1.467 -13.959  1.00  0.00     0.044 C 
ATOM      6  C   UNL     1      -0.498   1.874 -12.793  1.00  0.00    -0.051 A 
ATOM      7  C   UNL     1      -0.733   3.232 -12.529  1.00  0.00     0.004 A 
ATOM      8  C   UNL     1      -1.123   0.901 -12.000  1.00  0.00     0.004 A 
ATOM      9  C   UNL     1      -1.555   3.612 -11.465  1.00  0.00     0.004 A 
ATOM     10  C   UNL     1      -1.946   1.280 -10.935  1.00  0.00     0.004 A 
ENDBRANCH   2   4
ENDBRANCH   1   2
BRANCH   1  11
ATOM     11  C   UNL     1      -1.496   3.921  -7.663  1.00  0.00     0.028 C 
BRANCH  11  12
ATOM     12  C   UNL     1      -0.074   3.933  -8.165  1.00  0.00    -0.028 C 
ATOM     13  C   UNL     1       0.707   2.837  -8.278  1.00  0.00    -0.080 C 
ATOM     14  C   UNL     1       2.125   3.011  -8.758  1.00  0.00     0.039 C 
ATOM     15  C   UNL     1       0.196   1.452  -7.954  1.00  0.00     0.039 C 
ENDBRANCH  11  12
ENDBRANCH   1  11
TORSDOF 4
ENDMDL
MODEL 2
REMARK VINA RESULT:    -6.083      1.244      3.402
REMARK INTER + INTRA:          -8.869
REMARK INTER:                  -7.574
REMARK INTRA:                  -1.295
REMARK UNBOUND:                -1.363
REMARK SMILES CC(C)=CCC[C@@H](C)c1ccc(C)cc1
REMARK SMILES IDX 6 1 7 2 8 3 9 4 13 5 12 6 11 7 14 8 10 9 15 10 5 11 4 12
REMARK SMILES IDX 2 13 1 14 3 15
REMARK H PARENT
REMARK Flexibility Score: inf
ROOT
ATOM      1  C   UNL     1       1.009   3.505  -8.895  1.00  0.00     0.012 C 
ENDROOT
BRANCH   1   2
ATOM      2  C   UNL     1       1.364   2.187  -9.619  1.00  0.00     0.016 C 
ATOM      3  C   UNL     1       1.038   0.949  -8.767  1.00  0.00     0.013 C 
BRANCH   2   4
ATOM      4  C   UNL     1       0.647   2.109 -10.956  1.00  0.00    -0.045 A 
ATOM      5  C   UNL     1      -1.347   1.864 -14.780  1.00  0.00     0.044 C 
ATOM      6  C   UNL     1      -0.681   1.941 -13.438  1.00  0.00    -0.051 A 
ATOM      7  C   UNL     1      -0.023   0.821 -12.910  1.00  0.00     0.004 A 
ATOM      8  C   UNL     1      -0.650   3.153 -12.733  1.00  0.00     0.004 A 
ATOM      9  C   UNL     1       0.630   0.902 -11.677  1.00  0.00     0.004 A 
ATOM     10  C   UNL     1       0.002   3.235 -11.499  1.00  0.00     0.004 A 
ENDBRANCH   2   4
ENDBRANCH   1   2
BRANCH   1  11
ATOM     11  C   UNL     1      -0.042   3.310  -7.791  1.00  0.00     0.028 C 
BRANCH  11  12
ATOM     12  C   UNL     1      -1.280   4.120  -8.084  1.00  0.00    -0.028 C 
ATOM     13  C   UNL     1      -2.358   3.655  -8.753  1.00  0.00    -0.080 C 
ATOM     14  C   UNL     1      -3.507   4.596  -9.005  1.00  0.00     0.039 C 
ATOM     15  C   UNL     1      -2.447   2.225  -9.233  1.00  0.00     0.039 C 
ENDBRANCH  11  12
ENDBRANCH   1  11
TORSDOF 4
ENDMDL
MODEL 3
REMARK VINA RESULT:    -5.883      1.692      3.977
REMARK INTER + INTRA:          -8.621
REMARK INTER:                  -7.764
REMARK INTRA:                  -0.858
REMARK UNBOUND:                -1.363
REMARK SMILES CC(C)=CCC[C@@H](C)c1ccc(C)cc1
REMARK SMILES IDX 6 1 7 2 8 3 9 4 13 5 12 6 11 7 14 8 10 9 15 10 5 11 4 12
REMARK SMILES IDX 2 13 1 14 3 15
REMARK H PARENT
REMARK Flexibility Score: inf
ROOT
ATOM      1  C   UNL     1      -0.759   1.354 -11.650  1.00  0.00     0.012 C 
ENDROOT
BRANCH   1   2
ATOM      2  C   UNL     1      -1.322   2.776 -11.877  1.00  0.00     0.016 C 
ATOM      3  C   UNL     1      -0.887   3.365 -13.228  1.00  0.00     0.013 C 
BRANCH   2   4
ATOM      4  C   UNL     1      -2.837   2.768 -11.770  1.00  0.00    -0.045 A 
ATOM      5  C   UNL     1      -7.142   2.717 -11.419  1.00  0.00     0.044 C 
ATOM      6  C   UNL     1      -5.648   2.764 -11.551  1.00  0.00    -0.051 A 
ATOM      7  C   UNL     1      -4.854   3.158 -10.464  1.00  0.00     0.004 A 
ATOM      8  C   UNL     1      -5.031   2.346 -12.739  1.00  0.00     0.004 A 
ATOM      9  C   UNL     1      -3.461   3.166 -10.575  1.00  0.00     0.004 A 
ATOM     10  C   UNL     1      -3.637   2.354 -12.851  1.00  0.00     0.004 A 
ENDBRANCH   2   4
ENDBRANCH   1   2
BRANCH   1  11
ATOM     11  C   UNL     1       0.213   1.284 -10.464  1.00  0.00     0.028 C 
BRANCH  11  12
ATOM     12  C   UNL     1      -0.166   2.288  -9.403  1.00  0.00    -0.028 C 
ATOM     13  C   UNL     1       0.632   3.291  -8.978  1.00  0.00    -0.080 C 
ATOM     14  C   UNL     1       0.130   4.193  -7.881  1.00  0.00     0.039 C 
ATOM     15  C   UNL     1       1.995   3.541  -9.582  1.00  0.00     0.039 C 
ENDBRANCH  11  12
ENDBRANCH   1  11
TORSDOF 4
ENDMDL
MODEL 4
REMARK VINA RESULT:    -5.821      2.237      3.484
REMARK INTER + INTRA:          -8.545
REMARK INTER:                  -7.859
REMARK INTRA:                  -0.685
REMARK UNBOUND:                -1.363
REMARK SMILES CC(C)=CCC[C@@H](C)c1ccc(C)cc1
REMARK SMILES IDX 6 1 7 2 8 3 9 4 13 5 12 6 11 7 14 8 10 9 15 10 5 11 4 12
REMARK SMILES IDX 2 13 1 14 3 15
REMARK H PARENT
REMARK Flexibility Score: inf
ROOT
ATOM      1  C   UNL     1      -1.993   2.970 -10.630  1.00  0.00     0.012 C 
ENDROOT
BRANCH   1   2
ATOM      2  C   UNL     1      -0.888   3.174 -11.692  1.00  0.00     0.016 C 
ATOM      3  C   UNL     1       0.228   2.124 -11.578  1.00  0.00     0.013 C 
BRANCH   2   4
ATOM      4  C   UNL     1      -1.487   3.156 -13.088  1.00  0.00    -0.045 A 
ATOM      5  C   UNL     1      -3.190   3.050 -17.056  1.00  0.00     0.044 C 
ATOM      6  C   UNL     1      -2.616   3.111 -15.671  1.00  0.00    -0.051 A 
ATOM      7  C   UNL     1      -3.203   2.379 -14.629  1.00  0.00     0.004 A 
ATOM      8  C   UNL     1      -1.447   3.845 -15.423  1.00  0.00     0.004 A 
ATOM      9  C   UNL     1      -2.648   2.407 -13.347  1.00  0.00     0.004 A 
ATOM     10  C   UNL     1      -0.890   3.873 -14.141  1.00  0.00     0.004 A 
ENDBRANCH   2   4
ENDBRANCH   1   2
BRANCH   1  11
ATOM     11  C   UNL     1      -2.190   4.202  -9.735  1.00  0.00     0.028 C 
BRANCH  11  12
ATOM     12  C   UNL     1      -2.213   3.806  -8.280  1.00  0.00    -0.028 C 
ATOM     13  C   UNL     1      -1.114   3.673  -7.505  1.00  0.00    -0.080 C 
ATOM     14  C   UNL     1      -1.292   3.230  -6.076  1.00  0.00     0.039 C 
ATOM     15  C   UNL     1       0.273   3.970  -8.025  1.00  0.00     0.039 C 
ENDBRANCH  11  12
ENDBRANCH   1  11
TORSDOF 4
ENDMDL
MODEL 5
REMARK VINA RESULT:    -5.792      2.030      5.259
REMARK INTER + INTRA:          -8.510
REMARK INTER:                  -7.385
REMARK INTRA:                  -1.125
REMARK UNBOUND:                -1.363
REMARK SMILES CC(C)=CCC[C@@H](C)c1ccc(C)cc1
REMARK SMILES IDX 6 1 7 2 8 3 9 4 13 5 12 6 11 7 14 8 10 9 15 10 5 11 4 12
REMARK SMILES IDX 2 13 1 14 3 15
REMARK H PARENT
REMARK Flexibility Score: inf
ROOT
ATOM      1  C   UNL     1      -3.643   0.996 -13.101  1.00  0.00     0.012 C 
ENDROOT
BRANCH   1   2
ATOM      2  C   UNL     1      -4.130   2.416 -12.731  1.00  0.00     0.016 C 
ATOM      3  C   UNL     1      -5.660   2.492 -12.609  1.00  0.00     0.013 C 
BRANCH   2   4
ATOM      4  C   UNL     1      -3.476   2.880 -11.441  1.00  0.00    -0.045 A 
ATOM      5  C   UNL     1      -1.638   4.249  -7.780  1.00  0.00     0.044 C 
ATOM      6  C   UNL     1      -2.282   3.746  -9.038  1.00  0.00    -0.051 A 
ATOM      7  C   UNL     1      -3.653   3.945  -9.260  1.00  0.00     0.004 A 
ATOM      8  C   UNL     1      -1.505   3.137 -10.034  1.00  0.00     0.004 A 
ATOM      9  C   UNL     1      -4.246   3.510 -10.448  1.00  0.00     0.004 A 
ATOM     10  C   UNL     1      -2.097   2.701 -11.223  1.00  0.00     0.004 A 
ENDBRANCH   2   4
ENDBRANCH   1   2
BRANCH   1  11
ATOM     11  C   UNL     1      -3.102   0.910 -14.535  1.00  0.00     0.028 C 
BRANCH  11  12
ATOM     12  C   UNL     1      -2.483   2.222 -14.951  1.00  0.00    -0.028 C 
ATOM     13  C   UNL     1      -1.174   2.527 -14.816  1.00  0.00    -0.080 C 
ATOM     14  C   UNL     1      -0.707   3.895 -15.240  1.00  0.00     0.039 C 
ATOM     15  C   UNL     1      -0.172   1.534 -14.272  1.00  0.00     0.039 C 
ENDBRANCH  11  12
ENDBRANCH   1  11
TORSDOF 4
ENDMDL
MODEL 6
REMARK VINA RESULT:    -5.736      2.143      5.673
REMARK INTER + INTRA:          -8.440
REMARK INTER:                  -7.053
REMARK INTRA:                  -1.387
REMARK UNBOUND:                -1.363
REMARK SMILES CC(C)=CCC[C@@H](C)c1ccc(C)cc1
REMARK SMILES IDX 6 1 7 2 8 3 9 4 13 5 12 6 11 7 14 8 10 9 15 10 5 11 4 12
REMARK SMILES IDX 2 13 1 14 3 15
REMARK H PARENT
REMARK Flexibility Score: inf
ROOT
ATOM      1  C   UNL     1      -1.519   0.084 -13.635  1.00  0.00     0.012 C 
ENDROOT
BRANCH   1   2
ATOM      2  C   UNL     1      -0.600   1.280 -13.297  1.00  0.00     0.016 C 
ATOM      3  C   UNL     1      -0.510   2.289 -14.454  1.00  0.00     0.013 C 
BRANCH   2   4
ATOM      4  C   UNL     1      -1.077   1.972 -12.032  1.00  0.00    -0.045 A 
ATOM      5  C   UNL     1      -2.390   3.975  -8.438  1.00  0.00     0.044 C 
ATOM      6  C   UNL     1      -1.963   3.276  -9.694  1.00  0.00    -0.051 A 
ATOM      7  C   UNL     1      -1.704   4.011 -10.860  1.00  0.00     0.004 A 
ATOM      8  C   UNL     1      -1.752   1.889  -9.694  1.00  0.00     0.004 A 
ATOM      9  C   UNL     1      -1.271   3.364 -12.021  1.00  0.00     0.004 A 
ATOM     10  C   UNL     1      -1.319   1.241 -10.854  1.00  0.00     0.004 A 
ENDBRANCH   2   4
ENDBRANCH   1   2
BRANCH   1  11
ATOM     11  C   UNL     1      -2.769   0.502 -14.424  1.00  0.00     0.028 C 
BRANCH  11  12
ATOM     12  C   UNL     1      -3.831   1.037 -13.495  1.00  0.00    -0.028 C 
ATOM     13  C   UNL     1      -4.442   2.234 -13.640  1.00  0.00    -0.080 C 
ATOM     14  C   UNL     1      -5.457   2.651 -12.608  1.00  0.00     0.039 C 
ATOM     15  C   UNL     1      -4.148   3.147 -14.808  1.00  0.00     0.039 C 
ENDBRANCH  11  12
ENDBRANCH   1  11
TORSDOF 4
ENDMDL
MODEL 7
REMARK VINA RESULT:    -5.712      1.501      3.635
REMARK INTER + INTRA:          -8.411
REMARK INTER:                  -7.583
REMARK INTRA:                  -0.828
REMARK UNBOUND:                -1.363
REMARK SMILES CC(C)=CCC[C@@H](C)c1ccc(C)cc1
REMARK SMILES IDX 6 1 7 2 8 3 9 4 13 5 12 6 11 7 14 8 10 9 15 10 5 11 4 12
REMARK SMILES IDX 2 13 1 14 3 15
REMARK H PARENT
REMARK Flexibility Score: inf
ROOT
ATOM      1  C   UNL     1      -0.402   1.252 -10.189  1.00  0.00     0.012 C 
ENDROOT
BRANCH   1   2
ATOM      2  C   UNL     1      -0.104   2.658 -10.756  1.00  0.00     0.016 C 
ATOM      3  C   UNL     1       1.291   3.162 -10.354  1.00  0.00     0.013 C 
BRANCH   2   4
ATOM      4  C   UNL     1      -0.250   2.661 -12.267  1.00  0.00    -0.045 A 
ATOM      5  C   UNL     1      -0.610   2.656 -16.572  1.00  0.00     0.044 C 
ATOM      6  C   UNL     1      -0.513   2.644 -15.075  1.00  0.00    -0.051 A 
ATOM      7  C   UNL     1       0.109   1.573 -14.415  1.00  0.00     0.004 A 
ATOM      8  C   UNL     1      -0.979   3.735 -14.328  1.00  0.00     0.004 A 
ATOM      9  C   UNL     1       0.234   1.578 -13.024  1.00  0.00     0.004 A 
ATOM     10  C   UNL     1      -0.855   3.741 -12.935  1.00  0.00     0.004 A 
ENDBRANCH   2   4
ENDBRANCH   1   2
BRANCH   1  11
ATOM     11  C   UNL     1      -1.595   1.244  -9.221  1.00  0.00     0.028 C 
BRANCH  11  12
ATOM     12  C   UNL     1      -2.522   2.398  -9.509  1.00  0.00    -0.028 C 
ATOM     13  C   UNL     1      -2.596   3.525  -8.767  1.00  0.00    -0.080 C 
ATOM     14  C   UNL     1      -3.602   4.576  -9.155  1.00  0.00     0.039 C 
ATOM     15  C   UNL     1      -1.691   3.762  -7.580  1.00  0.00     0.039 C 
ENDBRANCH  11  12
ENDBRANCH   1  11
TORSDOF 4
ENDMDL
MODEL 8
REMARK VINA RESULT:    -5.657      2.059      5.328
REMARK INTER + INTRA:          -8.343
REMARK INTER:                  -7.376
REMARK INTRA:                  -0.967
REMARK UNBOUND:                -1.363
REMARK SMILES CC(C)=CCC[C@@H](C)c1ccc(C)cc1
REMARK SMILES IDX 6 1 7 2 8 3 9 4 13 5 12 6 11 7 14 8 10 9 15 10 5 11 4 12
REMARK SMILES IDX 2 13 1 14 3 15
REMARK H PARENT
REMARK Flexibility Score: inf
ROOT
ATOM      1  C   UNL     1      -3.769   0.984 -13.188  1.00  0.00     0.012 C 
ENDROOT
BRANCH   1   2
ATOM      2  C   UNL     1      -2.233   0.938 -13.349  1.00  0.00     0.016 C 
ATOM      3  C   UNL     1      -1.764   1.610 -14.650  1.00  0.00     0.013 C 
BRANCH   2   4
ATOM      4  C   UNL     1      -1.556   1.580 -12.151  1.00  0.00    -0.045 A 
ATOM      5  C   UNL     1       0.418   3.393  -8.765  1.00  0.00     0.044 C 
ATOM      6  C   UNL     1      -0.288   2.787  -9.940  1.00  0.00    -0.051 A 
ATOM      7  C   UNL     1       0.107   3.109 -11.247  1.00  0.00     0.004 A 
ATOM      8  C   UNL     1      -1.302   1.838  -9.743  1.00  0.00     0.004 A 
ATOM      9  C   UNL     1      -0.525   2.516 -12.343  1.00  0.00     0.004 A 
ATOM     10  C   UNL     1      -1.936   1.244 -10.838  1.00  0.00     0.004 A 
ENDBRANCH   2   4
ENDBRANCH   1   2
BRANCH   1  11
ATOM     11  C   UNL     1      -4.331   2.411 -13.273  1.00  0.00     0.028 C 
BRANCH  11  12
ATOM     12  C   UNL     1      -5.738   2.464 -12.731  1.00  0.00    -0.028 C 
ATOM     13  C   UNL     1      -6.056   2.779 -11.457  1.00  0.00    -0.080 C 
ATOM     14  C   UNL     1      -7.506   2.751 -11.050  1.00  0.00     0.039 C 
ATOM     15  C   UNL     1      -5.006   3.173 -10.444  1.00  0.00     0.039 C 
ENDBRANCH  11  12
ENDBRANCH   1  11
TORSDOF 4
ENDMDL
MODEL 9
REMARK VINA RESULT:    -5.608      2.685      4.033
REMARK INTER + INTRA:          -8.283
REMARK INTER:                  -7.401
REMARK INTRA:                  -0.882
REMARK UNBOUND:                -1.363
REMARK SMILES CC(C)=CCC[C@@H](C)c1ccc(C)cc1
REMARK SMILES IDX 6 1 7 2 8 3 9 4 13 5 12 6 11 7 14 8 10 9 15 10 5 11 4 12
REMARK SMILES IDX 2 13 1 14 3 15
REMARK H PARENT
REMARK Flexibility Score: inf
ROOT
ATOM      1  C   UNL     1      -1.439   1.275 -11.736  1.00  0.00     0.012 C 
ENDROOT
BRANCH   1   2
ATOM      2  C   UNL     1      -0.662   1.934 -12.897  1.00  0.00     0.016 C 
ATOM      3  C   UNL     1       0.345   0.969 -13.544  1.00  0.00     0.013 C 
BRANCH   2   4
ATOM      4  C   UNL     1      -1.625   2.467 -13.943  1.00  0.00    -0.045 A 
ATOM      5  C   UNL     1      -4.376   3.933 -16.933  1.00  0.00     0.044 C 
ATOM      6  C   UNL     1      -3.431   3.445 -15.875  1.00  0.00    -0.051 A 
ATOM      7  C   UNL     1      -3.808   2.402 -15.017  1.00  0.00     0.004 A 
ATOM      8  C   UNL     1      -2.138   3.980 -15.781  1.00  0.00     0.004 A 
ATOM      9  C   UNL     1      -2.916   1.921 -14.055  1.00  0.00     0.004 A 
ATOM     10  C   UNL     1      -1.244   3.500 -14.819  1.00  0.00     0.004 A 
ENDBRANCH   2   4
ENDBRANCH   1   2
BRANCH   1  11
ATOM     11  C   UNL     1      -1.399   2.110 -10.447  1.00  0.00     0.028 C 
BRANCH  11  12
ATOM     12  C   UNL     1      -0.163   2.973 -10.409  1.00  0.00    -0.028 C 
ATOM     13  C   UNL     1       0.984   2.639  -9.778  1.00  0.00    -0.080 C 
ATOM     14  C   UNL     1       2.125   3.623  -9.793  1.00  0.00     0.039 C 
ATOM     15  C   UNL     1       1.157   1.311  -9.079  1.00  0.00     0.039 C 
ENDBRANCH  11  12
ENDBRANCH   1  11
TORSDOF 4
ENDMDL
