MODEL 1
REMARK VINA RESULT:    -5.370      0.000      0.000
REMARK INTER + INTRA:          -9.027
REMARK INTER:                  -8.352
REMARK INTRA:                  -0.675
REMARK UNBOUND:                -0.675
REMARK SMILES COc1cc(CNC(=O)CCCCC=CC(C)C)ccc1O
REMARK SMILES IDX 11 1 12 2 13 3 14 4 15 5 16 6 17 7 18 8 10 9 8 10 9 11 7 12
REMARK SMILES IDX 6 14 5 15 4 16 19 17 3 18 20 19 21 20 2 21 1 22 22 23
REMARK H PARENT 7 13 22 24
REMARK Flexibility Score: inf
ROOT
ATOM      1  C   UNL     1     117.494 255.173 340.416  1.00  0.00     0.010 C 
ENDROOT
BRANCH   1   2
ATOM      2  C   UNL     1     116.932 254.492 341.673  1.00  0.00     0.005 C 
BRANCH   2   3
ATOM      3  C   UNL     1     115.501 254.952 342.000  1.00  0.00     0.027 C 
BRANCH   3   4
ATOM      4  C   UNL     1     114.640 253.790 342.426  1.00  0.00    -0.031 C 
ATOM      5  C   UNL     1     113.598 253.873 343.277  1.00  0.00    -0.028 C 
BRANCH   5   6
ATOM      6  C   UNL     1     113.100 255.146 343.932  1.00  0.00     0.005 C 
ATOM      7  C   UNL     1     111.590 255.046 344.165  1.00  0.00     0.012 C 
ATOM      8  C   UNL     1     113.837 255.365 345.256  1.00  0.00     0.012 C 
ENDBRANCH   5   6
ENDBRANCH   3   4
ENDBRANCH   2   3
ENDBRANCH   1   2
BRANCH   1   9
ATOM      9  C   UNL     1     116.627 254.929 339.175  1.00  0.00     0.100 C 
BRANCH   9  10
ATOM     10  C   UNL     1     116.226 256.236 338.563  1.00  0.00     0.220 C 
ATOM     11  O   UNL     1     116.961 257.249 338.723  1.00  0.00    -0.275 OA
ATOM     12  N   UNL     1     114.984 256.345 337.855  1.00  0.00    -0.352 N 
ATOM     13  H   UNL     1     114.421 255.479 337.693  1.00  0.00     0.163 HD
BRANCH  12  14
ATOM     14  C   UNL     1     114.347 257.631 337.586  1.00  0.00     0.151 C 
BRANCH  14  15
ATOM     15  C   UNL     1     113.691 257.596 336.234  1.00  0.00    -0.025 A 
ATOM     16  C   UNL     1     114.210 258.359 335.175  1.00  0.00     0.056 A 
ATOM     17  C   UNL     1     112.510 256.865 336.045  1.00  0.00     0.009 A 
ATOM     18  C   UNL     1     113.564 258.376 333.922  1.00  0.00     0.160 A 
ATOM     19  C   UNL     1     111.867 256.875 334.804  1.00  0.00     0.050 A 
ATOM     20  C   UNL     1     112.390 257.626 333.743  1.00  0.00     0.157 A 
BRANCH  18  21
ATOM     21  O   UNL     1     114.051 259.125 332.839  1.00  0.00    -0.493 OA
ATOM     22  C   UNL     1     115.290 258.880 332.184  1.00  0.00     0.278 C 
ENDBRANCH  18  21
BRANCH  20  23
ATOM     23  O   UNL     1     111.748 257.635 332.505  1.00  0.00    -0.504 OA
ATOM     24  H   UNL     1     112.242 257.869 331.652  1.00  0.00     0.293 HD
ENDBRANCH  20  23
ENDBRANCH  14  15
ENDBRANCH  12  14
ENDBRANCH   9  10
ENDBRANCH   1   9
TORSDOF 10
ENDMDL
MODEL 2
REMARK VINA RESULT:    -5.204      3.267      8.998
REMARK INTER + INTRA:          -8.770
REMARK INTER:                  -8.153
REMARK INTRA:                  -0.617
REMARK UNBOUND:                -0.675
REMARK SMILES COc1cc(CNC(=O)CCCCC=CC(C)C)ccc1O
REMARK SMILES IDX 11 1 12 2 13 3 14 4 15 5 16 6 17 7 18 8 10 9 8 10 9 11 7 12
REMARK SMILES IDX 6 14 5 15 4 16 19 17 3 18 20 19 21 20 2 21 1 22 22 23
REMARK H PARENT 7 13 22 24
REMARK Flexibility Score: inf
ROOT
ATOM      1  C   UNL     1     115.505 256.139 338.123  1.00  0.00     0.010 C 
ENDROOT
BRANCH   1   2
ATOM      2  C   UNL     1     114.713 257.399 337.742  1.00  0.00     0.005 C 
BRANCH   2   3
ATOM      3  C   UNL     1     113.615 257.110 336.706  1.00  0.00     0.027 C 
BRANCH   3   4
ATOM      4  C   UNL     1     113.322 258.330 335.869  1.00  0.00    -0.031 C 
ATOM      5  C   UNL     1     113.080 258.315 334.542  1.00  0.00    -0.028 C 
BRANCH   5   6
ATOM      6  C   UNL     1     113.038 257.075 333.672  1.00  0.00     0.005 C 
ATOM      7  C   UNL     1     111.968 257.242 332.591  1.00  0.00     0.012 C 
ATOM      8  C   UNL     1     114.414 256.845 333.039  1.00  0.00     0.012 C 
ENDBRANCH   5   6
ENDBRANCH   3   4
ENDBRANCH   2   3
ENDBRANCH   1   2
BRANCH   1   9
ATOM      9  C   UNL     1     116.918 256.459 338.625  1.00  0.00     0.100 C 
BRANCH   9  10
ATOM     10  C   UNL     1     117.192 255.717 339.897  1.00  0.00     0.220 C 
ATOM     11  O   UNL     1     118.371 255.360 340.167  1.00  0.00    -0.275 OA
ATOM     12  N   UNL     1     116.109 255.364 340.768  1.00  0.00    -0.352 N 
ATOM     13  H   UNL     1     115.150 255.718 340.546  1.00  0.00     0.163 HD
BRANCH  12  14
ATOM     14  C   UNL     1     116.232 254.326 341.788  1.00  0.00     0.151 C 
BRANCH  14  15
ATOM     15  C   UNL     1     115.032 254.362 342.691  1.00  0.00    -0.025 A 
ATOM     16  C   UNL     1     114.986 255.254 343.775  1.00  0.00     0.056 A 
ATOM     17  C   UNL     1     113.985 253.448 342.505  1.00  0.00     0.009 A 
ATOM     18  C   UNL     1     113.889 255.249 344.660  1.00  0.00     0.160 A 
ATOM     19  C   UNL     1     112.892 253.442 343.377  1.00  0.00     0.050 A 
ATOM     20  C   UNL     1     112.841 254.339 344.451  1.00  0.00     0.157 A 
BRANCH  18  21
ATOM     21  O   UNL     1     113.807 256.126 345.754  1.00  0.00    -0.493 OA
ATOM     22  C   UNL     1     114.930 256.724 346.392  1.00  0.00     0.278 C 
ENDBRANCH  18  21
BRANCH  20  23
ATOM     23  O   UNL     1     111.750 254.333 345.320  1.00  0.00    -0.504 OA
ATOM     24  H   UNL     1     110.924 253.777 345.132  1.00  0.00     0.293 HD
ENDBRANCH  20  23
ENDBRANCH  14  15
ENDBRANCH  12  14
ENDBRANCH   9  10
ENDBRANCH   1   9
TORSDOF 10
ENDMDL
MODEL 3
REMARK VINA RESULT:    -4.818      4.021      7.363
REMARK INTER + INTRA:          -8.170
REMARK INTER:                  -7.588
REMARK INTRA:                  -0.582
REMARK UNBOUND:                -0.675
REMARK SMILES COc1cc(CNC(=O)CCCCC=CC(C)C)ccc1O
REMARK SMILES IDX 11 1 12 2 13 3 14 4 15 5 16 6 17 7 18 8 10 9 8 10 9 11 7 12
REMARK SMILES IDX 6 14 5 15 4 16 19 17 3 18 20 19 21 20 2 21 1 22 22 23
REMARK H PARENT 7 13 22 24
REMARK Flexibility Score: inf
ROOT
ATOM      1  C   UNL     1     115.019 256.224 346.144  1.00  0.00     0.010 C 
ENDROOT
BRANCH   1   2
ATOM      2  C   UNL     1     115.314 257.693 346.483  1.00  0.00     0.005 C 
BRANCH   2   3
ATOM      3  C   UNL     1     116.290 257.838 347.662  1.00  0.00     0.027 C 
BRANCH   3   4
ATOM      4  C   UNL     1     115.976 259.064 348.481  1.00  0.00    -0.031 C 
ATOM      5  C   UNL     1     116.018 259.125 349.828  1.00  0.00    -0.028 C 
BRANCH   5   6
ATOM      6  C   UNL     1     116.409 257.983 350.745  1.00  0.00     0.005 C 
ATOM      7  C   UNL     1     117.413 258.482 351.786  1.00  0.00     0.012 C 
ATOM      8  C   UNL     1     115.158 257.421 351.428  1.00  0.00     0.012 C 
ENDBRANCH   5   6
ENDBRANCH   3   4
ENDBRANCH   2   3
ENDBRANCH   1   2
BRANCH   1   9
ATOM      9  C   UNL     1     113.722 256.051 345.346  1.00  0.00     0.100 C 
BRANCH   9  10
ATOM     10  C   UNL     1     113.875 254.943 344.350  1.00  0.00     0.220 C 
ATOM     11  O   UNL     1     113.419 253.798 344.619  1.00  0.00    -0.275 OA
ATOM     12  N   UNL     1     114.590 255.171 343.128  1.00  0.00    -0.352 N 
ATOM     13  H   UNL     1     114.911 256.141 342.908  1.00  0.00     0.163 HD
BRANCH  12  14
ATOM     14  C   UNL     1     115.117 254.078 342.315  1.00  0.00     0.151 C 
BRANCH  14  15
ATOM     15  C   UNL     1     116.150 254.612 341.362  1.00  0.00    -0.025 A 
ATOM     16  C   UNL     1     115.759 255.366 340.243  1.00  0.00     0.056 A 
ATOM     17  C   UNL     1     117.503 254.292 341.540  1.00  0.00     0.009 A 
ATOM     18  C   UNL     1     116.718 255.817 339.315  1.00  0.00     0.160 A 
ATOM     19  C   UNL     1     118.459 254.740 340.625  1.00  0.00     0.050 A 
ATOM     20  C   UNL     1     118.071 255.502 339.515  1.00  0.00     0.157 A 
BRANCH  18  21
ATOM     21  O   UNL     1     116.367 256.573 338.185  1.00  0.00    -0.493 OA
ATOM     22  C   UNL     1     115.058 257.065 337.919  1.00  0.00     0.278 C 
ENDBRANCH  18  21
BRANCH  20  23
ATOM     23  O   UNL     1     119.027 255.950 338.603  1.00  0.00    -0.504 OA
ATOM     24  H   UNL     1     119.701 256.665 338.848  1.00  0.00     0.293 HD
ENDBRANCH  20  23
ENDBRANCH  14  15
ENDBRANCH  12  14
ENDBRANCH   9  10
ENDBRANCH   1   9
TORSDOF 10
ENDMDL
MODEL 4
REMARK VINA RESULT:    -4.648      5.777     11.591
REMARK INTER + INTRA:          -7.905
REMARK INTER:                  -7.207
REMARK INTRA:                  -0.698
REMARK UNBOUND:                -0.675
REMARK SMILES COc1cc(CNC(=O)CCCCC=CC(C)C)ccc1O
REMARK SMILES IDX 11 1 12 2 13 3 14 4 15 5 16 6 17 7 18 8 10 9 8 10 9 11 7 12
REMARK SMILES IDX 6 14 5 15 4 16 19 17 3 18 20 19 21 20 2 21 1 22 22 23
REMARK H PARENT 7 13 22 24
REMARK Flexibility Score: inf
ROOT
ATOM      1  C   UNL     1     113.481 254.243 343.549  1.00  0.00     0.010 C 
ENDROOT
BRANCH   1   2
ATOM      2  C   UNL     1     114.395 253.847 342.379  1.00  0.00     0.005 C 
BRANCH   2   3
ATOM      3  C   UNL     1     115.508 254.878 342.130  1.00  0.00     0.027 C 
BRANCH   3   4
ATOM      4  C   UNL     1     116.769 254.210 341.640  1.00  0.00    -0.031 C 
ATOM      5  C   UNL     1     117.649 254.759 340.779  1.00  0.00    -0.028 C 
BRANCH   5   6
ATOM      6  C   UNL     1     117.536 256.144 340.174  1.00  0.00     0.005 C 
ATOM      7  C   UNL     1     118.916 256.804 340.142  1.00  0.00     0.012 C 
ATOM      8  C   UNL     1     116.953 256.043 338.761  1.00  0.00     0.012 C 
ENDBRANCH   5   6
ENDBRANCH   3   4
ENDBRANCH   2   3
ENDBRANCH   1   2
BRANCH   1   9
ATOM      9  C   UNL     1     114.233 254.325 344.882  1.00  0.00     0.100 C 
BRANCH   9  10
ATOM     10  C   UNL     1     114.103 255.701 345.461  1.00  0.00     0.220 C 
ATOM     11  O   UNL     1     113.055 256.369 345.247  1.00  0.00    -0.275 OA
ATOM     12  N   UNL     1     115.190 256.273 346.200  1.00  0.00    -0.352 N 
ATOM     13  H   UNL     1     116.025 255.678 346.408  1.00  0.00     0.163 HD
BRANCH  12  14
ATOM     14  C   UNL     1     115.300 257.709 346.444  1.00  0.00     0.151 C 
BRANCH  14  15
ATOM     15  C   UNL     1     115.962 257.946 347.772  1.00  0.00    -0.025 A 
ATOM     16  C   UNL     1     115.197 258.325 348.887  1.00  0.00     0.056 A 
ATOM     17  C   UNL     1     117.358 257.869 347.886  1.00  0.00     0.009 A 
ATOM     18  C   UNL     1     115.820 258.606 350.120  1.00  0.00     0.160 A 
ATOM     19  C   UNL     1     117.981 258.143 349.107  1.00  0.00     0.050 A 
ATOM     20  C   UNL     1     117.217 258.509 350.223  1.00  0.00     0.157 A 
BRANCH  18  21
ATOM     21  O   UNL     1     115.090 258.987 351.257  1.00  0.00    -0.493 OA
ATOM     22  C   UNL     1     114.381 258.085 352.099  1.00  0.00     0.278 C 
ENDBRANCH  18  21
BRANCH  20  23
ATOM     23  O   UNL     1     117.839 258.782 351.441  1.00  0.00    -0.504 OA
ATOM     24  H   UNL     1     118.576 258.189 351.805  1.00  0.00     0.293 HD
ENDBRANCH  20  23
ENDBRANCH  14  15
ENDBRANCH  12  14
ENDBRANCH   9  10
ENDBRANCH   1   9
TORSDOF 10
ENDMDL
MODEL 5
REMARK VINA RESULT:    -4.059      1.819      2.829
REMARK INTER + INTRA:          -6.989
REMARK INTER:                  -6.112
REMARK INTRA:                  -0.877
REMARK UNBOUND:                -0.675
REMARK SMILES COc1cc(CNC(=O)CCCCC=CC(C)C)ccc1O
REMARK SMILES IDX 11 1 12 2 13 3 14 4 15 5 16 6 17 7 18 8 10 9 8 10 9 11 7 12
REMARK SMILES IDX 6 14 5 15 4 16 19 17 3 18 20 19 21 20 2 21 1 22 22 23
REMARK H PARENT 7 13 22 24
REMARK Flexibility Score: inf
ROOT
ATOM      1  C   UNL     1     115.715 255.143 341.873  1.00  0.00     0.010 C 
ENDROOT
BRANCH   1   2
ATOM      2  C   UNL     1     114.672 254.050 342.154  1.00  0.00     0.005 C 
BRANCH   2   3
ATOM      3  C   UNL     1     114.639 253.638 343.635  1.00  0.00     0.027 C 
BRANCH   3   4
ATOM      4  C   UNL     1     114.286 254.808 344.518  1.00  0.00    -0.031 C 
ATOM      5  C   UNL     1     113.035 255.262 344.735  1.00  0.00    -0.028 C 
BRANCH   5   6
ATOM      6  C   UNL     1     111.772 254.664 344.149  1.00  0.00     0.005 C 
ATOM      7  C   UNL     1     110.963 253.985 345.257  1.00  0.00     0.012 C 
ATOM      8  C   UNL     1     110.946 255.765 343.476  1.00  0.00     0.012 C 
ENDBRANCH   5   6
ENDBRANCH   3   4
ENDBRANCH   2   3
ENDBRANCH   1   2
BRANCH   1   9
ATOM      9  C   UNL     1     117.008 254.584 341.268  1.00  0.00     0.100 C 
BRANCH   9  10
ATOM     10  C   UNL     1     117.202 255.122 339.884  1.00  0.00     0.220 C 
ATOM     11  O   UNL     1     118.370 255.267 339.432  1.00  0.00    -0.275 OA
ATOM     12  N   UNL     1     116.067 255.527 339.106  1.00  0.00    -0.352 N 
ATOM     13  H   UNL     1     115.109 255.347 339.485  1.00  0.00     0.163 HD
BRANCH  12  14
ATOM     14  C   UNL     1     116.187 256.408 337.948  1.00  0.00     0.151 C 
BRANCH  14  15
ATOM     15  C   UNL     1     114.854 257.036 337.651  1.00  0.00    -0.025 A 
ATOM     16  C   UNL     1     114.014 256.484 336.670  1.00  0.00     0.056 A 
ATOM     17  C   UNL     1     114.476 258.222 338.295  1.00  0.00     0.009 A 
ATOM     18  C   UNL     1     112.790 257.102 336.346  1.00  0.00     0.160 A 
ATOM     19  C   UNL     1     113.262 258.838 337.981  1.00  0.00     0.050 A 
ATOM     20  C   UNL     1     112.418 258.282 337.011  1.00  0.00     0.157 A 
BRANCH  18  21
ATOM     21  O   UNL     1     111.923 256.581 335.371  1.00  0.00    -0.493 OA
ATOM     22  C   UNL     1     111.978 256.907 333.988  1.00  0.00     0.278 C 
ENDBRANCH  18  21
BRANCH  20  23
ATOM     23  O   UNL     1     111.206 258.896 336.699  1.00  0.00    -0.504 OA
ATOM     24  H   UNL     1     111.144 259.893 336.528  1.00  0.00     0.293 HD
ENDBRANCH  20  23
ENDBRANCH  14  15
ENDBRANCH  12  14
ENDBRANCH   9  10
ENDBRANCH   1   9
TORSDOF 10
ENDMDL
MODEL 6
REMARK VINA RESULT:    -3.831      2.119      8.795
REMARK INTER + INTRA:          -6.635
REMARK INTER:                  -6.467
REMARK INTRA:                  -0.168
REMARK UNBOUND:                -0.675
REMARK SMILES COc1cc(CNC(=O)CCCCC=CC(C)C)ccc1O
REMARK SMILES IDX 11 1 12 2 13 3 14 4 15 5 16 6 17 7 18 8 10 9 8 10 9 11 7 12
REMARK SMILES IDX 6 14 5 15 4 16 19 17 3 18 20 19 21 20 2 21 1 22 22 23
REMARK H PARENT 7 13 22 24
REMARK Flexibility Score: inf
ROOT
ATOM      1  C   UNL     1     112.176 256.646 336.587  1.00  0.00     0.010 C 
ENDROOT
BRANCH   1   2
ATOM      2  C   UNL     1     112.217 256.565 335.054  1.00  0.00     0.005 C 
BRANCH   2   3
ATOM      3  C   UNL     1     112.389 257.944 334.397  1.00  0.00     0.027 C 
BRANCH   3   4
ATOM      4  C   UNL     1     111.988 257.909 332.943  1.00  0.00    -0.031 C 
ATOM      5  C   UNL     1     112.847 257.942 331.905  1.00  0.00    -0.028 C 
BRANCH   5   6
ATOM      6  C   UNL     1     114.358 257.996 332.018  1.00  0.00     0.005 C 
ATOM      7  C   UNL     1     114.760 259.117 332.979  1.00  0.00     0.012 C 
ATOM      8  C   UNL     1     114.886 256.646 332.511  1.00  0.00     0.012 C 
ENDBRANCH   5   6
ENDBRANCH   3   4
ENDBRANCH   2   3
ENDBRANCH   1   2
BRANCH   1   9
ATOM      9  C   UNL     1     112.562 258.033 337.115  1.00  0.00     0.100 C 
BRANCH   9  10
ATOM     10  C   UNL     1     114.042 258.106 337.333  1.00  0.00     0.220 C 
ATOM     11  O   UNL     1     114.682 259.112 336.923  1.00  0.00    -0.275 OA
ATOM     12  N   UNL     1     114.730 257.008 337.949  1.00  0.00    -0.352 N 
ATOM     13  H   UNL     1     114.168 256.211 338.326  1.00  0.00     0.163 HD
BRANCH  12  14
ATOM     14  C   UNL     1     116.175 256.830 337.836  1.00  0.00     0.151 C 
BRANCH  14  15
ATOM     15  C   UNL     1     116.672 255.998 338.986  1.00  0.00    -0.025 A 
ATOM     16  C   UNL     1     115.770 255.501 339.941  1.00  0.00     0.056 A 
ATOM     17  C   UNL     1     118.047 255.782 339.155  1.00  0.00     0.009 A 
ATOM     18  C   UNL     1     116.238 254.771 341.053  1.00  0.00     0.160 A 
ATOM     19  C   UNL     1     118.515 255.055 340.252  1.00  0.00     0.050 A 
ATOM     20  C   UNL     1     117.616 254.549 341.200  1.00  0.00     0.157 A 
BRANCH  18  21
ATOM     21  O   UNL     1     115.369 254.257 342.029  1.00  0.00    -0.493 OA
ATOM     22  C   UNL     1     114.537 255.053 342.866  1.00  0.00     0.278 C 
ENDBRANCH  18  21
BRANCH  20  23
ATOM     23  O   UNL     1     118.085 253.823 342.295  1.00  0.00    -0.504 OA
ATOM     24  H   UNL     1     118.336 254.277 343.165  1.00  0.00     0.293 HD
ENDBRANCH  20  23
ENDBRANCH  14  15
ENDBRANCH  12  14
ENDBRANCH   9  10
ENDBRANCH   1   9
TORSDOF 10
ENDMDL
MODEL 7
REMARK VINA RESULT:    -3.488      2.030      2.673
REMARK INTER + INTRA:          -6.101
REMARK INTER:                  -5.367
REMARK INTRA:                  -0.734
REMARK UNBOUND:                -0.675
REMARK SMILES COc1cc(CNC(=O)CCCCC=CC(C)C)ccc1O
REMARK SMILES IDX 11 1 12 2 13 3 14 4 15 5 16 6 17 7 18 8 10 9 8 10 9 11 7 12
REMARK SMILES IDX 6 14 5 15 4 16 19 17 3 18 20 19 21 20 2 21 1 22 22 23
REMARK H PARENT 7 13 22 24
REMARK Flexibility Score: inf
ROOT
ATOM      1  C   UNL     1     117.433 254.868 341.436  1.00  0.00     0.010 C 
ENDROOT
BRANCH   1   2
ATOM      2  C   UNL     1     116.153 254.021 341.493  1.00  0.00     0.005 C 
BRANCH   2   3
ATOM      3  C   UNL     1     115.091 254.626 342.427  1.00  0.00     0.027 C 
BRANCH   3   4
ATOM      4  C   UNL     1     114.017 253.619 342.754  1.00  0.00    -0.031 C 
ATOM      5  C   UNL     1     112.937 253.865 343.523  1.00  0.00    -0.028 C 
BRANCH   5   6
ATOM      6  C   UNL     1     112.605 255.195 344.169  1.00  0.00     0.005 C 
ATOM      7  C   UNL     1     111.090 255.315 344.349  1.00  0.00     0.012 C 
ATOM      8  C   UNL     1     113.319 255.303 345.521  1.00  0.00     0.012 C 
ENDBRANCH   5   6
ENDBRANCH   3   4
ENDBRANCH   2   3
ENDBRANCH   1   2
BRANCH   1   9
ATOM      9  C   UNL     1     118.076 254.873 340.045  1.00  0.00     0.100 C 
BRANCH   9  10
ATOM     10  C   UNL     1     117.715 256.131 339.317  1.00  0.00     0.220 C 
ATOM     11  O   UNL     1     118.493 257.123 339.365  1.00  0.00    -0.275 OA
ATOM     12  N   UNL     1     116.463 256.224 338.623  1.00  0.00    -0.352 N 
ATOM     13  H   UNL     1     115.862 255.371 338.555  1.00  0.00     0.163 HD
BRANCH  12  14
ATOM     14  C   UNL     1     115.873 257.505 338.243  1.00  0.00     0.151 C 
BRANCH  14  15
ATOM     15  C   UNL     1     114.586 257.267 337.502  1.00  0.00    -0.025 A 
ATOM     16  C   UNL     1     114.260 255.980 337.044  1.00  0.00     0.056 A 
ATOM     17  C   UNL     1     113.743 258.344 337.194  1.00  0.00     0.009 A 
ATOM     18  C   UNL     1     113.085 255.763 336.297  1.00  0.00     0.160 A 
ATOM     19  C   UNL     1     112.574 258.135 336.458  1.00  0.00     0.050 A 
ATOM     20  C   UNL     1     112.242 256.849 336.010  1.00  0.00     0.157 A 
BRANCH  18  21
ATOM     21  O   UNL     1     112.724 254.492 335.823  1.00  0.00    -0.493 OA
ATOM     22  C   UNL     1     112.685 253.315 336.622  1.00  0.00     0.278 C 
ENDBRANCH  18  21
BRANCH  20  23
ATOM     23  O   UNL     1     111.075 256.641 335.276  1.00  0.00    -0.504 OA
ATOM     24  H   UNL     1     111.040 256.805 334.277  1.00  0.00     0.293 HD
ENDBRANCH  20  23
ENDBRANCH  14  15
ENDBRANCH  12  14
ENDBRANCH   9  10
ENDBRANCH   1   9
TORSDOF 10
ENDMDL
MODEL 8
REMARK VINA RESULT:    -2.963      2.063      3.324
REMARK INTER + INTRA:          -5.284
REMARK INTER:                  -4.750
REMARK INTRA:                  -0.534
REMARK UNBOUND:                -0.675
REMARK SMILES COc1cc(CNC(=O)CCCCC=CC(C)C)ccc1O
REMARK SMILES IDX 11 1 12 2 13 3 14 4 15 5 16 6 17 7 18 8 10 9 8 10 9 11 7 12
REMARK SMILES IDX 6 14 5 15 4 16 19 17 3 18 20 19 21 20 2 21 1 22 22 23
REMARK H PARENT 7 13 22 24
REMARK Flexibility Score: inf
ROOT
ATOM      1  C   UNL     1     114.867 254.364 342.139  1.00  0.00     0.010 C 
ENDROOT
BRANCH   1   2
ATOM      2  C   UNL     1     114.384 254.394 343.597  1.00  0.00     0.005 C 
BRANCH   2   3
ATOM      3  C   UNL     1     114.616 255.761 344.263  1.00  0.00     0.027 C 
BRANCH   3   4
ATOM      4  C   UNL     1     114.069 255.781 345.668  1.00  0.00    -0.031 C 
ATOM      5  C   UNL     1     114.548 256.543 346.672  1.00  0.00    -0.028 C 
BRANCH   5   6
ATOM      6  C   UNL     1     115.699 257.523 346.557  1.00  0.00     0.005 C 
ATOM      7  C   UNL     1     115.160 258.954 346.593  1.00  0.00     0.012 C 
ATOM      8  C   UNL     1     116.689 257.289 347.702  1.00  0.00     0.012 C 
ENDBRANCH   5   6
ENDBRANCH   3   4
ENDBRANCH   2   3
ENDBRANCH   1   2
BRANCH   1   9
ATOM      9  C   UNL     1     116.286 254.919 341.975  1.00  0.00     0.100 C 
BRANCH   9  10
ATOM     10  C   UNL     1     116.625 255.043 340.521  1.00  0.00     0.220 C 
ATOM     11  O   UNL     1     117.736 254.617 340.103  1.00  0.00    -0.275 OA
ATOM     12  N   UNL     1     115.715 255.697 339.626  1.00  0.00    -0.352 N 
ATOM     13  H   UNL     1     114.780 255.993 339.989  1.00  0.00     0.163 HD
BRANCH  12  14
ATOM     14  C   UNL     1     116.131 256.203 338.321  1.00  0.00     0.151 C 
BRANCH  14  15
ATOM     15  C   UNL     1     114.971 256.886 337.652  1.00  0.00    -0.025 A 
ATOM     16  C   UNL     1     114.436 256.371 336.460  1.00  0.00     0.056 A 
ATOM     17  C   UNL     1     114.468 258.088 338.172  1.00  0.00     0.009 A 
ATOM     18  C   UNL     1     113.388 257.042 335.798  1.00  0.00     0.160 A 
ATOM     19  C   UNL     1     113.426 258.755 337.522  1.00  0.00     0.050 A 
ATOM     20  C   UNL     1     112.885 258.235 336.339  1.00  0.00     0.157 A 
BRANCH  18  21
ATOM     21  O   UNL     1     112.827 256.558 334.605  1.00  0.00    -0.493 OA
ATOM     22  C   UNL     1     113.194 257.003 333.304  1.00  0.00     0.278 C 
ENDBRANCH  18  21
BRANCH  20  23
ATOM     23  O   UNL     1     111.844 258.901 335.692  1.00  0.00    -0.504 OA
ATOM     24  H   UNL     1     111.914 259.882 335.444  1.00  0.00     0.293 HD
ENDBRANCH  20  23
ENDBRANCH  14  15
ENDBRANCH  12  14
ENDBRANCH   9  10
ENDBRANCH   1   9
TORSDOF 10
ENDMDL
MODEL 9
REMARK VINA RESULT:    -2.619      1.164      2.043
REMARK INTER + INTRA:          -4.748
REMARK INTER:                  -4.553
REMARK INTRA:                  -0.195
REMARK UNBOUND:                -0.675
REMARK SMILES COc1cc(CNC(=O)CCCCC=CC(C)C)ccc1O
REMARK SMILES IDX 11 1 12 2 13 3 14 4 15 5 16 6 17 7 18 8 10 9 8 10 9 11 7 12
REMARK SMILES IDX 6 14 5 15 4 16 19 17 3 18 20 19 21 20 2 21 1 22 22 23
REMARK H PARENT 7 13 22 24
REMARK Flexibility Score: inf
ROOT
ATOM      1  C   UNL     1     117.035 255.745 339.544  1.00  0.00     0.010 C 
ENDROOT
BRANCH   1   2
ATOM      2  C   UNL     1     115.805 255.017 340.108  1.00  0.00     0.005 C 
BRANCH   2   3
ATOM      3  C   UNL     1     115.696 255.149 341.636  1.00  0.00     0.027 C 
BRANCH   3   4
ATOM      4  C   UNL     1     115.139 253.890 342.253  1.00  0.00    -0.031 C 
ATOM      5  C   UNL     1     114.169 253.853 343.188  1.00  0.00    -0.028 C 
BRANCH   5   6
ATOM      6  C   UNL     1     113.458 255.061 343.763  1.00  0.00     0.005 C 
ATOM      7  C   UNL     1     111.999 254.707 344.059  1.00  0.00     0.012 C 
ATOM      8  C   UNL     1     114.172 255.518 345.039  1.00  0.00     0.012 C 
ENDBRANCH   5   6
ENDBRANCH   3   4
ENDBRANCH   2   3
ENDBRANCH   1   2
BRANCH   1   9
ATOM      9  C   UNL     1     116.676 256.735 338.431  1.00  0.00     0.100 C 
BRANCH   9  10
ATOM     10  C   UNL     1     115.273 256.496 337.963  1.00  0.00     0.220 C 
ATOM     11  O   UNL     1     114.978 255.397 337.419  1.00  0.00    -0.275 OA
ATOM     12  N   UNL     1     114.291 257.535 338.080  1.00  0.00    -0.352 N 
ATOM     13  H   UNL     1     114.549 258.415 338.582  1.00  0.00     0.163 HD
BRANCH  12  14
ATOM     14  C   UNL     1     113.052 257.529 337.308  1.00  0.00     0.151 C 
BRANCH  14  15
ATOM     15  C   UNL     1     113.346 257.890 335.879  1.00  0.00    -0.025 A 
ATOM     16  C   UNL     1     112.680 257.233 334.831  1.00  0.00     0.056 A 
ATOM     17  C   UNL     1     114.346 258.827 335.581  1.00  0.00     0.009 A 
ATOM     18  C   UNL     1     112.995 257.525 333.489  1.00  0.00     0.160 A 
ATOM     19  C   UNL     1     114.660 259.123 334.252  1.00  0.00     0.050 A 
ATOM     20  C   UNL     1     113.987 258.477 333.206  1.00  0.00     0.157 A 
BRANCH  18  21
ATOM     21  O   UNL     1     112.351 256.891 332.414  1.00  0.00    -0.493 OA
ATOM     22  C   UNL     1     111.005 257.137 332.022  1.00  0.00     0.278 C 
ENDBRANCH  18  21
BRANCH  20  23
ATOM     23  O   UNL     1     114.301 258.775 331.881  1.00  0.00    -0.504 OA
ATOM     24  H   UNL     1     114.926 259.535 331.640  1.00  0.00     0.293 HD
ENDBRANCH  20  23
ENDBRANCH  14  15
ENDBRANCH  12  14
ENDBRANCH   9  10
ENDBRANCH   1   9
TORSDOF 10
ENDMDL
