MODEL 1
REMARK VINA RESULT:    -3.094      0.000      0.000
REMARK INTER + INTRA:          -8.816
REMARK INTER:                  -6.711
REMARK INTRA:                  -2.105
REMARK UNBOUND:                -2.105
REMARK SMILES C[C@@H]1O[C@H](OC[C@H]2O[C@@H](Oc3c(-c4ccc(OCCO)c(OCCO)c4)oc4cc(OCCO)cc(O)c4c3=O)[C@H](O)[C@@H](O)[C@@H]2O)[C@@H](O)[C@@H](O)[C@H]1O
REMARK SMILES IDX 11 1 12 2 27 3 28 4 29 5 30 6 35 7 36 8 38 9 39 10 40 11
REMARK SMILES IDX 10 12 9 13 7 14 45 15 8 16 43 17 41 18 6 19 5 20 4 21 1 22
REMARK SMILES IDX 2 23 51 24 3 25 49 26 47 27 52 28 50 30 48 32 46 34 44 36
REMARK SMILES IDX 42 38 13 40 26 41 14 42 21 43 15 44 16 45 22 46 23 47 24 48
REMARK SMILES IDX 25 49 17 51 18 52 19 53 20 54 37 56 31 58 32 59 33 60 34 61
REMARK H PARENT 52 29 50 31 48 33 46 35 44 37 42 39 25 50 20 55 37 57 34 62
REMARK Flexibility Score: inf
ROOT
ATOM      1  C   UNL     1      -4.102   6.080  15.058  1.00  0.00     0.214 A 
ATOM      2  C   UNL     1      -5.455   6.130  15.305  1.00  0.00     0.180 A 
ATOM      3  O   UNL     1      -5.966   5.196  16.129  1.00  0.00    -0.452 OA
ATOM      4  C   UNL     1      -5.248   4.131  16.563  1.00  0.00     0.146 A 
ATOM      5  C   UNL     1      -5.714   3.255  17.547  1.00  0.00     0.094 A 
ATOM      6  C   UNL     1      -4.937   2.169  17.971  1.00  0.00     0.126 A 
ATOM      7  C   UNL     1      -3.809   1.815  17.234  1.00  0.00     0.093 A 
ATOM      8  C   UNL     1      -3.300   2.650  16.237  1.00  0.00     0.134 A 
ATOM      9  C   UNL     1      -3.986   3.845  15.948  1.00  0.00     0.111 A 
ATOM     10  C   UNL     1      -3.421   4.909  15.239  1.00  0.00     0.239 A 
ATOM     11  O   UNL     1      -2.209   4.830  14.839  1.00  0.00    -0.285 OA
ENDROOT
BRANCH   1  12
ATOM     12  O   UNL     1      -3.377   7.296  14.813  1.00  0.00    -0.454 OA
BRANCH  12  13
ATOM     13  C   UNL     1      -2.955   7.508  13.459  1.00  0.00     0.339 C 
ATOM     14  C   UNL     1      -0.901   8.980  13.640  1.00  0.00     0.180 C 
ATOM     15  C   UNL     1      -1.774  10.043  12.960  1.00  0.00     0.177 C 
ATOM     16  O   UNL     1      -1.480   7.677  13.392  1.00  0.00    -0.332 OA
ATOM     17  C   UNL     1      -3.273   9.955  13.347  1.00  0.00     0.180 C 
ATOM     18  C   UNL     1      -3.862   8.595  12.889  1.00  0.00     0.214 C 
BRANCH  14  19
ATOM     19  C   UNL     1      -0.296   9.218  15.151  1.00  0.00     0.198 C 
BRANCH  19  20
ATOM     20  O   UNL     1       1.107   8.888  15.370  1.00  0.00    -0.347 OA
BRANCH  20  21
ATOM     21  C   UNL     1       1.249   7.657  16.070  1.00  0.00     0.281 C 
ATOM     22  C   UNL     1       2.001  10.125  17.473  1.00  0.00     0.041 C 
ATOM     23  C   UNL     1       2.005   8.674  18.138  1.00  0.00     0.150 C 
ATOM     24  C   UNL     1       0.890   8.069  19.102  1.00  0.00     0.174 C 
ATOM     25  O   UNL     1       2.296   7.735  17.113  1.00  0.00    -0.344 OA
ATOM     26  C   UNL     1       0.170   6.852  18.320  1.00  0.00     0.179 C 
ATOM     27  C   UNL     1      -0.036   7.304  16.835  1.00  0.00     0.202 C 
BRANCH  24  28
ATOM     28  O   UNL     1       1.454   7.644  20.322  1.00  0.00    -0.388 OA
ATOM     29  H   UNL     1       0.919   8.056  21.023  1.00  0.00     0.211 HD
ENDBRANCH  24  28
BRANCH  26  30
ATOM     30  O   UNL     1       0.924   5.685  18.366  1.00  0.00    -0.387 OA
ATOM     31  H   UNL     1       1.844   5.919  18.528  1.00  0.00     0.211 HD
ENDBRANCH  26  30
BRANCH  27  32
ATOM     32  O   UNL     1      -1.051   6.647  16.175  1.00  0.00    -0.385 OA
ATOM     33  H   UNL     1      -0.879   5.655  16.490  1.00  0.00     0.211 HD
ENDBRANCH  27  32
ENDBRANCH  20  21
ENDBRANCH  19  20
ENDBRANCH  14  19
BRANCH  15  34
ATOM     34  O   UNL     1      -1.685  10.094  11.538  1.00  0.00    -0.387 OA
ATOM     35  H   UNL     1      -1.334  11.003  11.336  1.00  0.00     0.211 HD
ENDBRANCH  15  34
BRANCH  17  36
ATOM     36  O   UNL     1      -3.438  10.125  14.714  1.00  0.00    -0.387 OA
ATOM     37  H   UNL     1      -3.856  11.035  14.871  1.00  0.00     0.211 HD
ENDBRANCH  17  36
BRANCH  18  38
ATOM     38  O   UNL     1      -3.819   8.508  11.465  1.00  0.00    -0.384 OA
ATOM     39  H   UNL     1      -2.841   8.412  11.280  1.00  0.00     0.211 HD
ENDBRANCH  18  38
ENDBRANCH  12  13
ENDBRANCH   1  12
BRANCH   2  40
ATOM     40  C   UNL     1      -6.393   6.753  14.294  1.00  0.00     0.025 A 
ATOM     41  C   UNL     1      -6.455   6.306  12.917  1.00  0.00     0.062 A 
ATOM     42  C   UNL     1      -7.516   7.406  14.754  1.00  0.00     0.016 A 
ATOM     43  C   UNL     1      -7.314   6.857  11.945  1.00  0.00     0.162 A 
ATOM     44  C   UNL     1      -8.453   7.918  13.814  1.00  0.00     0.051 A 
ATOM     45  C   UNL     1      -8.273   7.731  12.428  1.00  0.00     0.161 A 
BRANCH  43  46
ATOM     46  O   UNL     1      -7.050   6.676  10.554  1.00  0.00    -0.487 OA
BRANCH  46  47
ATOM     47  C   UNL     1      -6.402   5.521  10.027  1.00  0.00     0.258 C 
BRANCH  47  48
ATOM     48  C   UNL     1      -7.263   4.256   9.875  1.00  0.00     0.197 C 
BRANCH  48  49
ATOM     49  O   UNL     1      -7.823   3.985  11.171  1.00  0.00    -0.393 OA
ATOM     50  H   UNL     1      -8.807   3.766  11.021  1.00  0.00     0.210 HD
ENDBRANCH  48  49
ENDBRANCH  47  48
ENDBRANCH  46  47
ENDBRANCH  43  46
BRANCH  45  51
ATOM     51  O   UNL     1      -9.125   8.337  11.480  1.00  0.00    -0.487 OA
BRANCH  51  52
ATOM     52  C   UNL     1      -9.028   9.755  11.323  1.00  0.00     0.258 C 
BRANCH  52  53
ATOM     53  C   UNL     1      -8.131  10.068  10.029  1.00  0.00     0.197 C 
BRANCH  53  54
ATOM     54  O   UNL     1      -6.840   9.564  10.183  1.00  0.00    -0.393 OA
ATOM     55  H   UNL     1      -6.453   9.423   9.298  1.00  0.00     0.210 HD
ENDBRANCH  53  54
ENDBRANCH  52  53
ENDBRANCH  51  52
ENDBRANCH  45  51
ENDBRANCH   2  40
BRANCH   8  56
ATOM     56  O   UNL     1      -2.130   2.290  15.541  1.00  0.00    -0.507 OA
ATOM     57  H   UNL     1      -2.043   1.367  15.091  1.00  0.00     0.293 HD
ENDBRANCH   8  56
BRANCH   6  58
ATOM     58  O   UNL     1      -5.375   1.393  19.075  1.00  0.00    -0.491 OA
BRANCH  58  59
ATOM     59  C   UNL     1      -5.390  -0.054  19.180  1.00  0.00     0.257 C 
BRANCH  59  60
ATOM     60  C   UNL     1      -6.432  -0.692  18.222  1.00  0.00     0.197 C 
BRANCH  60  61
ATOM     61  O   UNL     1      -6.321  -2.106  18.238  1.00  0.00    -0.393 OA
ATOM     62  H   UNL     1      -5.418  -2.271  17.816  1.00  0.00     0.210 HD
ENDBRANCH  60  61
ENDBRANCH  59  60
ENDBRANCH  58  59
ENDBRANCH   6  58
TORSDOF 25
ENDMDL
MODEL 2
REMARK VINA RESULT:    -2.759      2.530      8.522
REMARK INTER + INTRA:          -8.091
REMARK INTER:                  -6.392
REMARK INTRA:                  -1.699
REMARK UNBOUND:                -2.105
REMARK SMILES C[C@@H]1O[C@H](OC[C@H]2O[C@@H](Oc3c(-c4ccc(OCCO)c(OCCO)c4)oc4cc(OCCO)cc(O)c4c3=O)[C@H](O)[C@@H](O)[C@@H]2O)[C@@H](O)[C@@H](O)[C@H]1O
REMARK SMILES IDX 11 1 12 2 27 3 28 4 29 5 30 6 35 7 36 8 38 9 39 10 40 11
REMARK SMILES IDX 10 12 9 13 7 14 45 15 8 16 43 17 41 18 6 19 5 20 4 21 1 22
REMARK SMILES IDX 2 23 51 24 3 25 49 26 47 27 52 28 50 30 48 32 46 34 44 36
REMARK SMILES IDX 42 38 13 40 26 41 14 42 21 43 15 44 16 45 22 46 23 47 24 48
REMARK SMILES IDX 25 49 17 51 18 52 19 53 20 54 37 56 31 58 32 59 33 60 34 61
REMARK H PARENT 52 29 50 31 48 33 46 35 44 37 42 39 25 50 20 55 37 57 34 62
REMARK Flexibility Score: inf
ROOT
ATOM      1  C   UNL     1      -3.081   3.332  16.805  1.00  0.00     0.214 A 
ATOM      2  C   UNL     1      -1.733   3.605  16.742  1.00  0.00     0.180 A 
ATOM      3  O   UNL     1      -0.893   2.679  17.239  1.00  0.00    -0.452 OA
ATOM      4  C   UNL     1      -1.323   1.604  17.945  1.00  0.00     0.146 A 
ATOM      5  C   UNL     1      -0.478   0.555  18.316  1.00  0.00     0.094 A 
ATOM      6  C   UNL     1      -0.965  -0.540  19.042  1.00  0.00     0.126 A 
ATOM      7  C   UNL     1      -2.234  -0.465  19.610  1.00  0.00     0.093 A 
ATOM      8  C   UNL     1      -3.121   0.561  19.278  1.00  0.00     0.134 A 
ATOM      9  C   UNL     1      -2.685   1.563  18.389  1.00  0.00     0.111 A 
ATOM     10  C   UNL     1      -3.550   2.432  17.720  1.00  0.00     0.239 A 
ATOM     11  O   UNL     1      -4.813   2.322  17.887  1.00  0.00    -0.285 OA
ENDROOT
BRANCH   1  12
ATOM     12  O   UNL     1      -3.958   3.831  15.781  1.00  0.00    -0.454 OA
BRANCH  12  13
ATOM     13  C   UNL     1      -5.292   4.142  16.201  1.00  0.00     0.339 C 
ATOM     14  C   UNL     1      -6.518   4.757  14.070  1.00  0.00     0.180 C 
ATOM     15  C   UNL     1      -6.581   6.166  14.679  1.00  0.00     0.177 C 
ATOM     16  O   UNL     1      -6.268   3.806  15.132  1.00  0.00    -0.332 OA
ATOM     17  C   UNL     1      -5.346   6.523  15.545  1.00  0.00     0.180 C 
ATOM     18  C   UNL     1      -5.250   5.561  16.758  1.00  0.00     0.214 C 
BRANCH  14  19
ATOM     19  C   UNL     1      -5.725   4.479  12.657  1.00  0.00     0.198 C 
BRANCH  19  20
ATOM     20  O   UNL     1      -6.484   4.636  11.422  1.00  0.00    -0.347 OA
BRANCH  20  21
ATOM     21  C   UNL     1      -5.969   5.698  10.626  1.00  0.00     0.281 C 
ATOM     22  C   UNL     1      -8.739   5.915  11.577  1.00  0.00     0.041 C 
ATOM     23  C   UNL     1      -7.976   7.054  10.760  1.00  0.00     0.150 C 
ATOM     24  C   UNL     1      -7.313   8.372  11.362  1.00  0.00     0.174 C 
ATOM     25  O   UNL     1      -7.044   6.412   9.902  1.00  0.00    -0.344 OA
ATOM     26  C   UNL     1      -5.713   8.250  11.169  1.00  0.00     0.179 C 
ATOM     27  C   UNL     1      -5.309   6.776  11.502  1.00  0.00     0.202 C 
BRANCH  24  28
ATOM     28  O   UNL     1      -7.828   9.526  10.740  1.00  0.00    -0.388 OA
ATOM     29  H   UNL     1      -7.223   9.728  10.004  1.00  0.00     0.211 HD
ENDBRANCH  24  28
BRANCH  26  30
ATOM     30  O   UNL     1      -5.320   8.575   9.875  1.00  0.00    -0.387 OA
ATOM     31  H   UNL     1      -6.107   8.739   9.346  1.00  0.00     0.211 HD
ENDBRANCH  26  30
BRANCH  27  32
ATOM     32  O   UNL     1      -3.995   6.616  11.884  1.00  0.00    -0.385 OA
ATOM     33  H   UNL     1      -3.522   6.581  10.942  1.00  0.00     0.211 HD
ENDBRANCH  27  32
ENDBRANCH  20  21
ENDBRANCH  19  20
ENDBRANCH  14  19
BRANCH  15  34
ATOM     34  O   UNL     1      -7.753   6.455  15.437  1.00  0.00    -0.387 OA
ATOM     35  H   UNL     1      -8.349   6.948  14.810  1.00  0.00     0.211 HD
ENDBRANCH  15  34
BRANCH  17  36
ATOM     36  O   UNL     1      -4.185   6.472  14.787  1.00  0.00    -0.387 OA
ATOM     37  H   UNL     1      -3.894   5.503  14.722  1.00  0.00     0.211 HD
ENDBRANCH  17  36
BRANCH  18  38
ATOM     38  O   UNL     1      -6.386   5.741  17.604  1.00  0.00    -0.384 OA
ATOM     39  H   UNL     1      -7.057   5.115  17.207  1.00  0.00     0.211 HD
ENDBRANCH  18  38
ENDBRANCH  12  13
ENDBRANCH   1  12
BRANCH   2  40
ATOM     40  C   UNL     1      -1.246   5.037  16.703  1.00  0.00     0.025 A 
ATOM     41  C   UNL     1      -0.413   5.600  17.748  1.00  0.00     0.062 A 
ATOM     42  C   UNL     1      -1.176   5.675  15.484  1.00  0.00     0.016 A 
ATOM     43  C   UNL     1       0.063   6.927  17.749  1.00  0.00     0.162 A 
ATOM     44  C   UNL     1      -0.635   6.990  15.420  1.00  0.00     0.051 A 
ATOM     45  C   UNL     1      -0.132   7.629  16.572  1.00  0.00     0.161 A 
BRANCH  43  46
ATOM     46  O   UNL     1       0.512   7.537  18.959  1.00  0.00    -0.487 OA
BRANCH  46  47
ATOM     47  C   UNL     1       0.274   6.979  20.249  1.00  0.00     0.258 C 
BRANCH  47  48
ATOM     48  C   UNL     1       1.394   7.144  21.289  1.00  0.00     0.197 C 
BRANCH  48  49
ATOM     49  O   UNL     1       2.023   8.407  21.014  1.00  0.00    -0.393 OA
ATOM     50  H   UNL     1       2.088   8.482  19.999  1.00  0.00     0.210 HD
ENDBRANCH  48  49
ENDBRANCH  47  48
ENDBRANCH  46  47
ENDBRANCH  43  46
BRANCH  45  51
ATOM     51  O   UNL     1       0.292   8.974  16.548  1.00  0.00    -0.487 OA
BRANCH  51  52
ATOM     52  C   UNL     1       1.470   9.278  15.797  1.00  0.00     0.258 C 
BRANCH  52  53
ATOM     53  C   UNL     1       2.628   9.724  16.815  1.00  0.00     0.197 C 
BRANCH  53  54
ATOM     54  O   UNL     1       2.294   9.393  18.128  1.00  0.00    -0.393 OA
ATOM     55  H   UNL     1       1.393   9.019  18.136  1.00  0.00     0.210 HD
ENDBRANCH  53  54
ENDBRANCH  52  53
ENDBRANCH  51  52
ENDBRANCH  45  51
ENDBRANCH   2  40
BRANCH   8  56
ATOM     56  O   UNL     1      -4.416   0.585  19.831  1.00  0.00    -0.507 OA
ATOM     57  H   UNL     1      -4.902   1.477  20.007  1.00  0.00     0.293 HD
ENDBRANCH   8  56
BRANCH   6  58
ATOM     58  O   UNL     1      -0.115  -1.654  19.269  1.00  0.00    -0.491 OA
BRANCH  58  59
ATOM     59  C   UNL     1       1.279  -1.626  19.672  1.00  0.00     0.257 C 
BRANCH  59  60
ATOM     60  C   UNL     1       2.227  -1.997  18.501  1.00  0.00     0.197 C 
BRANCH  60  61
ATOM     61  O   UNL     1       2.587  -0.838  17.768  1.00  0.00    -0.393 OA
ATOM     62  H   UNL     1       2.305  -1.065  16.825  1.00  0.00     0.210 HD
ENDBRANCH  60  61
ENDBRANCH  59  60
ENDBRANCH  58  59
ENDBRANCH   6  58
TORSDOF 25
ENDMDL
MODEL 3
REMARK VINA RESULT:    -2.747      2.430      8.422
REMARK INTER + INTRA:          -8.064
REMARK INTER:                  -7.976
REMARK INTRA:                  -0.089
REMARK UNBOUND:                -2.105
REMARK SMILES C[C@@H]1O[C@H](OC[C@H]2O[C@@H](Oc3c(-c4ccc(OCCO)c(OCCO)c4)oc4cc(OCCO)cc(O)c4c3=O)[C@H](O)[C@@H](O)[C@@H]2O)[C@@H](O)[C@@H](O)[C@H]1O
REMARK SMILES IDX 11 1 12 2 27 3 28 4 29 5 30 6 35 7 36 8 38 9 39 10 40 11
REMARK SMILES IDX 10 12 9 13 7 14 45 15 8 16 43 17 41 18 6 19 5 20 4 21 1 22
REMARK SMILES IDX 2 23 51 24 3 25 49 26 47 27 52 28 50 30 48 32 46 34 44 36
REMARK SMILES IDX 42 38 13 40 26 41 14 42 21 43 15 44 16 45 22 46 23 47 24 48
REMARK SMILES IDX 25 49 17 51 18 52 19 53 20 54 37 56 31 58 32 59 33 60 34 61
REMARK H PARENT 52 29 50 31 48 33 46 35 44 37 42 39 25 50 20 55 37 57 34 62
REMARK Flexibility Score: inf
ROOT
ATOM      1  C   UNL     1      -2.493   4.009  16.621  1.00  0.00     0.214 A 
ATOM      2  C   UNL     1      -1.159   4.057  16.955  1.00  0.00     0.180 A 
ATOM      3  O   UNL     1      -0.648   2.997  17.607  1.00  0.00    -0.452 OA
ATOM      4  C   UNL     1      -1.421   1.994  18.094  1.00  0.00     0.146 A 
ATOM      5  C   UNL     1      -0.889   0.814  18.619  1.00  0.00     0.094 A 
ATOM      6  C   UNL     1      -1.724  -0.199  19.107  1.00  0.00     0.126 A 
ATOM      7  C   UNL     1      -3.076   0.074  19.301  1.00  0.00     0.093 A 
ATOM      8  C   UNL     1      -3.663   1.238  18.800  1.00  0.00     0.134 A 
ATOM      9  C   UNL     1      -2.843   2.171  18.136  1.00  0.00     0.111 A 
ATOM     10  C   UNL     1      -3.337   3.183  17.309  1.00  0.00     0.239 A 
ATOM     11  O   UNL     1      -4.596   3.279  17.108  1.00  0.00    -0.285 OA
ENDROOT
BRANCH   1  12
ATOM     12  O   UNL     1      -2.952   4.664  15.427  1.00  0.00    -0.454 OA
BRANCH  12  13
ATOM     13  C   UNL     1      -3.068   6.091  15.504  1.00  0.00     0.339 C 
ATOM     14  C   UNL     1      -5.547   6.558  15.270  1.00  0.00     0.180 C 
ATOM     15  C   UNL     1      -5.157   7.206  13.934  1.00  0.00     0.177 C 
ATOM     16  O   UNL     1      -4.369   6.478  16.107  1.00  0.00    -0.332 OA
ATOM     17  C   UNL     1      -3.955   6.517  13.238  1.00  0.00     0.180 C 
ATOM     18  C   UNL     1      -2.689   6.630  14.128  1.00  0.00     0.214 C 
BRANCH  14  19
ATOM     19  C   UNL     1      -6.550   5.255  15.319  1.00  0.00     0.198 C 
BRANCH  19  20
ATOM     20  O   UNL     1      -7.922   5.449  14.866  1.00  0.00    -0.347 OA
BRANCH  20  21
ATOM     21  C   UNL     1      -8.194   4.694  13.691  1.00  0.00     0.281 C 
ATOM     22  C   UNL     1      -8.432   7.617  13.528  1.00  0.00     0.041 C 
ATOM     23  C   UNL     1      -8.605   6.629  12.287  1.00  0.00     0.150 C 
ATOM     24  C   UNL     1      -7.520   6.320  11.161  1.00  0.00     0.174 C 
ATOM     25  O   UNL     1      -9.124   5.404  12.784  1.00  0.00    -0.344 OA
ATOM     26  C   UNL     1      -7.067   4.778  11.325  1.00  0.00     0.179 C 
ATOM     27  C   UNL     1      -6.919   4.491  12.856  1.00  0.00     0.202 C 
BRANCH  24  28
ATOM     28  O   UNL     1      -8.038   6.578   9.876  1.00  0.00    -0.388 OA
ATOM     29  H   UNL     1      -8.527   7.417   9.947  1.00  0.00     0.211 HD
ENDBRANCH  24  28
BRANCH  26  30
ATOM     30  O   UNL     1      -7.986   3.902  10.759  1.00  0.00    -0.387 OA
ATOM     31  H   UNL     1      -8.056   4.094   9.819  1.00  0.00     0.211 HD
ENDBRANCH  26  30
BRANCH  27  32
ATOM     32  O   UNL     1      -6.078   3.443  13.162  1.00  0.00    -0.385 OA
ATOM     33  H   UNL     1      -5.159   3.952  13.254  1.00  0.00     0.211 HD
ENDBRANCH  27  32
ENDBRANCH  20  21
ENDBRANCH  19  20
ENDBRANCH  14  19
BRANCH  15  34
ATOM     34  O   UNL     1      -4.898   8.607  13.984  1.00  0.00    -0.387 OA
ATOM     35  H   UNL     1      -3.954   8.682  14.292  1.00  0.00     0.211 HD
ENDBRANCH  15  34
BRANCH  17  36
ATOM     36  O   UNL     1      -4.243   5.188  12.963  1.00  0.00    -0.387 OA
ATOM     37  H   UNL     1      -5.238   5.112  12.784  1.00  0.00     0.211 HD
ENDBRANCH  17  36
BRANCH  18  38
ATOM     38  O   UNL     1      -2.325   8.002  14.272  1.00  0.00    -0.384 OA
ATOM     39  H   UNL     1      -3.198   8.475  14.157  1.00  0.00     0.211 HD
ENDBRANCH  18  38
ENDBRANCH  12  13
ENDBRANCH   1  12
BRANCH   2  40
ATOM     40  C   UNL     1      -0.468   5.390  17.147  1.00  0.00     0.025 A 
ATOM     41  C   UNL     1      -0.210   5.947  18.461  1.00  0.00     0.062 A 
ATOM     42  C   UNL     1       0.340   5.864  16.136  1.00  0.00     0.016 A 
ATOM     43  C   UNL     1       0.432   7.182  18.683  1.00  0.00     0.162 A 
ATOM     44  C   UNL     1       1.067   7.070  16.338  1.00  0.00     0.051 A 
ATOM     45  C   UNL     1       1.008   7.761  17.566  1.00  0.00     0.161 A 
BRANCH  43  46
ATOM     46  O   UNL     1       0.292   7.859  19.932  1.00  0.00    -0.487 OA
BRANCH  46  47
ATOM     47  C   UNL     1       0.170   7.179  21.179  1.00  0.00     0.258 C 
BRANCH  47  48
ATOM     48  C   UNL     1       1.480   6.817  21.898  1.00  0.00     0.197 C 
BRANCH  48  49
ATOM     49  O   UNL     1       2.325   7.978  21.816  1.00  0.00    -0.393 OA
ATOM     50  H   UNL     1       2.699   8.129  22.752  1.00  0.00     0.210 HD
ENDBRANCH  48  49
ENDBRANCH  47  48
ENDBRANCH  46  47
ENDBRANCH  43  46
BRANCH  45  51
ATOM     51  O   UNL     1       1.622   9.019  17.739  1.00  0.00    -0.487 OA
BRANCH  51  52
ATOM     52  C   UNL     1       1.728   9.862  16.589  1.00  0.00     0.258 C 
BRANCH  52  53
ATOM     53  C   UNL     1       0.280   9.986  15.908  1.00  0.00     0.197 C 
BRANCH  53  54
ATOM     54  O   UNL     1       0.354   9.755  14.535  1.00  0.00    -0.393 OA
ATOM     55  H   UNL     1      -0.045  10.514  14.068  1.00  0.00     0.210 HD
ENDBRANCH  53  54
ENDBRANCH  52  53
ENDBRANCH  51  52
ENDBRANCH  45  51
ENDBRANCH   2  40
BRANCH   8  56
ATOM     56  O   UNL     1      -5.043   1.465  18.969  1.00  0.00    -0.507 OA
ATOM     57  H   UNL     1      -5.410   2.417  19.115  1.00  0.00     0.293 HD
ENDBRANCH   8  56
BRANCH   6  58
ATOM     58  O   UNL     1      -1.155  -1.441  19.490  1.00  0.00    -0.491 OA
BRANCH  58  59
ATOM     59  C   UNL     1       0.249  -1.734  19.703  1.00  0.00     0.257 C 
BRANCH  59  60
ATOM     60  C   UNL     1       1.129  -1.240  18.524  1.00  0.00     0.197 C 
BRANCH  60  61
ATOM     61  O   UNL     1       2.309  -2.018  18.424  1.00  0.00    -0.393 OA
ATOM     62  H   UNL     1       3.025  -1.396  18.770  1.00  0.00     0.210 HD
ENDBRANCH  60  61
ENDBRANCH  59  60
ENDBRANCH  58  59
ENDBRANCH   6  58
TORSDOF 25
ENDMDL
MODEL 4
REMARK VINA RESULT:    -2.493      2.362      7.596
REMARK INTER + INTRA:          -7.513
REMARK INTER:                  -7.159
REMARK INTRA:                  -0.354
REMARK UNBOUND:                -2.105
REMARK SMILES C[C@@H]1O[C@H](OC[C@H]2O[C@@H](Oc3c(-c4ccc(OCCO)c(OCCO)c4)oc4cc(OCCO)cc(O)c4c3=O)[C@H](O)[C@@H](O)[C@@H]2O)[C@@H](O)[C@@H](O)[C@H]1O
REMARK SMILES IDX 11 1 12 2 27 3 28 4 29 5 30 6 35 7 36 8 38 9 39 10 40 11
REMARK SMILES IDX 10 12 9 13 7 14 45 15 8 16 43 17 41 18 6 19 5 20 4 21 1 22
REMARK SMILES IDX 2 23 51 24 3 25 49 26 47 27 52 28 50 30 48 32 46 34 44 36
REMARK SMILES IDX 42 38 13 40 26 41 14 42 21 43 15 44 16 45 22 46 23 47 24 48
REMARK SMILES IDX 25 49 17 51 18 52 19 53 20 54 37 56 31 58 32 59 33 60 34 61
REMARK H PARENT 52 29 50 31 48 33 46 35 44 37 42 39 25 50 20 55 37 57 34 62
REMARK Flexibility Score: inf
ROOT
ATOM      1  C   UNL     1      -3.880   3.889  16.134  1.00  0.00     0.214 A 
ATOM      2  C   UNL     1      -2.567   4.178  15.839  1.00  0.00     0.180 A 
ATOM      3  O   UNL     1      -1.630   3.335  16.310  1.00  0.00    -0.452 OA
ATOM      4  C   UNL     1      -1.912   2.345  17.193  1.00  0.00     0.146 A 
ATOM      5  C   UNL     1      -0.984   1.366  17.553  1.00  0.00     0.094 A 
ATOM      6  C   UNL     1      -1.319   0.357  18.466  1.00  0.00     0.126 A 
ATOM      7  C   UNL     1      -2.494   0.476  19.205  1.00  0.00     0.093 A 
ATOM      8  C   UNL     1      -3.457   1.438  18.892  1.00  0.00     0.134 A 
ATOM      9  C   UNL     1      -3.193   2.333  17.837  1.00  0.00     0.111 A 
ATOM     10  C   UNL     1      -4.178   3.099  17.208  1.00  0.00     0.239 A 
ATOM     11  O   UNL     1      -5.397   2.985  17.574  1.00  0.00    -0.285 OA
ENDROOT
BRANCH   1  12
ATOM     12  O   UNL     1      -4.915   4.244  15.202  1.00  0.00    -0.454 OA
BRANCH  12  13
ATOM     13  C   UNL     1      -6.209   4.484  15.769  1.00  0.00     0.339 C 
ATOM     14  C   UNL     1      -7.691   5.051  13.794  1.00  0.00     0.180 C 
ATOM     15  C   UNL     1      -7.757   6.450  14.422  1.00  0.00     0.177 C 
ATOM     16  O   UNL     1      -7.279   4.106  14.810  1.00  0.00    -0.332 OA
ATOM     17  C   UNL     1      -6.453   6.864  15.152  1.00  0.00     0.180 C 
ATOM     18  C   UNL     1      -6.177   5.900  16.336  1.00  0.00     0.214 C 
BRANCH  14  19
ATOM     19  C   UNL     1      -7.045   4.822  12.299  1.00  0.00     0.198 C 
BRANCH  19  20
ATOM     20  O   UNL     1      -7.405   5.781  11.261  1.00  0.00    -0.347 OA
BRANCH  20  21
ATOM     21  C   UNL     1      -6.269   6.174  10.499  1.00  0.00     0.281 C 
ATOM     22  C   UNL     1      -7.973   8.292  11.611  1.00  0.00     0.041 C 
ATOM     23  C   UNL     1      -6.613   8.554  10.818  1.00  0.00     0.150 C 
ATOM     24  C   UNL     1      -5.193   8.898  11.456  1.00  0.00     0.174 C 
ATOM     25  O   UNL     1      -6.458   7.503   9.875  1.00  0.00    -0.344 OA
ATOM     26  C   UNL     1      -4.208   7.650  11.168  1.00  0.00     0.179 C 
ATOM     27  C   UNL     1      -5.031   6.339  11.395  1.00  0.00     0.202 C 
BRANCH  24  28
ATOM     28  O   UNL     1      -4.681  10.100  10.928  1.00  0.00    -0.388 OA
ATOM     29  H   UNL     1      -5.448  10.685  10.796  1.00  0.00     0.211 HD
ENDBRANCH  24  28
BRANCH  26  30
ATOM     30  O   UNL     1      -3.698   7.678   9.875  1.00  0.00    -0.387 OA
ATOM     31  H   UNL     1      -3.508   8.592   9.638  1.00  0.00     0.211 HD
ENDBRANCH  26  30
BRANCH  27  32
ATOM     32  O   UNL     1      -4.268   5.231  11.696  1.00  0.00    -0.385 OA
ATOM     33  H   UNL     1      -3.809   5.054  10.763  1.00  0.00     0.211 HD
ENDBRANCH  27  32
ENDBRANCH  20  21
ENDBRANCH  19  20
ENDBRANCH  14  19
BRANCH  15  34
ATOM     34  O   UNL     1      -8.851   6.675  15.308  1.00  0.00    -0.387 OA
ATOM     35  H   UNL     1      -8.780   7.634  15.565  1.00  0.00     0.211 HD
ENDBRANCH  15  34
BRANCH  17  36
ATOM     36  O   UNL     1      -5.381   6.877  14.271  1.00  0.00    -0.387 OA
ATOM     37  H   UNL     1      -5.143   5.916  14.051  1.00  0.00     0.211 HD
ENDBRANCH  17  36
BRANCH  18  38
ATOM     38  O   UNL     1      -7.221   6.017  17.303  1.00  0.00    -0.384 OA
ATOM     39  H   UNL     1      -7.009   5.280  17.944  1.00  0.00     0.211 HD
ENDBRANCH  18  38
ENDBRANCH  12  13
ENDBRANCH   1  12
BRANCH   2  40
ATOM     40  C   UNL     1      -2.144   5.604  15.560  1.00  0.00     0.025 A 
ATOM     41  C   UNL     1      -0.891   6.148  16.045  1.00  0.00     0.062 A 
ATOM     42  C   UNL     1      -2.686   6.250  14.471  1.00  0.00     0.016 A 
ATOM     43  C   UNL     1      -0.458   7.468  15.807  1.00  0.00     0.162 A 
ATOM     44  C   UNL     1      -2.230   7.558  14.143  1.00  0.00     0.051 A 
ATOM     45  C   UNL     1      -1.207   8.181  14.887  1.00  0.00     0.161 A 
BRANCH  43  46
ATOM     46  O   UNL     1       0.547   8.063  16.627  1.00  0.00    -0.487 OA
BRANCH  46  47
ATOM     47  C   UNL     1       0.668   7.805  18.024  1.00  0.00     0.258 C 
BRANCH  47  48
ATOM     48  C   UNL     1       1.493   8.812  18.843  1.00  0.00     0.197 C 
BRANCH  48  49
ATOM     49  O   UNL     1       0.828   8.949  20.110  1.00  0.00    -0.393 OA
ATOM     50  H   UNL     1       1.541   9.231  20.781  1.00  0.00     0.210 HD
ENDBRANCH  48  49
ENDBRANCH  47  48
ENDBRANCH  46  47
ENDBRANCH  43  46
BRANCH  45  51
ATOM     51  O   UNL     1      -0.832   9.522  14.653  1.00  0.00    -0.487 OA
BRANCH  51  52
ATOM     52  C   UNL     1      -0.070   9.794  13.475  1.00  0.00     0.258 C 
BRANCH  52  53
ATOM     53  C   UNL     1      -1.082  10.056  12.257  1.00  0.00     0.197 C 
BRANCH  53  54
ATOM     54  O   UNL     1      -0.485   9.743  11.037  1.00  0.00    -0.393 OA
ATOM     55  H   UNL     1      -0.515   8.775  10.913  1.00  0.00     0.210 HD
ENDBRANCH  53  54
ENDBRANCH  52  53
ENDBRANCH  51  52
ENDBRANCH  45  51
ENDBRANCH   2  40
BRANCH   8  56
ATOM     56  O   UNL     1      -4.657   1.504  19.626  1.00  0.00    -0.507 OA
ATOM     57  H   UNL     1      -4.958   0.720  20.224  1.00  0.00     0.293 HD
ENDBRANCH   8  56
BRANCH   6  58
ATOM     58  O   UNL     1      -0.405  -0.705  18.692  1.00  0.00    -0.491 OA
BRANCH  58  59
ATOM     59  C   UNL     1       0.906  -0.618  19.308  1.00  0.00     0.257 C 
BRANCH  59  60
ATOM     60  C   UNL     1       1.861  -1.728  18.794  1.00  0.00     0.197 C 
BRANCH  60  61
ATOM     61  O   UNL     1       2.642  -1.248  17.712  1.00  0.00    -0.393 OA
ATOM     62  H   UNL     1       3.146  -0.472  18.118  1.00  0.00     0.210 HD
ENDBRANCH  60  61
ENDBRANCH  59  60
ENDBRANCH  58  59
ENDBRANCH   6  58
TORSDOF 25
ENDMDL
MODEL 5
REMARK VINA RESULT:    -2.366      1.358      2.581
REMARK INTER + INTRA:          -7.237
REMARK INTER:                  -5.889
REMARK INTRA:                  -1.348
REMARK UNBOUND:                -2.105
REMARK SMILES C[C@@H]1O[C@H](OC[C@H]2O[C@@H](Oc3c(-c4ccc(OCCO)c(OCCO)c4)oc4cc(OCCO)cc(O)c4c3=O)[C@H](O)[C@@H](O)[C@@H]2O)[C@@H](O)[C@@H](O)[C@H]1O
REMARK SMILES IDX 11 1 12 2 27 3 28 4 29 5 30 6 35 7 36 8 38 9 39 10 40 11
REMARK SMILES IDX 10 12 9 13 7 14 45 15 8 16 43 17 41 18 6 19 5 20 4 21 1 22
REMARK SMILES IDX 2 23 51 24 3 25 49 26 47 27 52 28 50 30 48 32 46 34 44 36
REMARK SMILES IDX 42 38 13 40 26 41 14 42 21 43 15 44 16 45 22 46 23 47 24 48
REMARK SMILES IDX 25 49 17 51 18 52 19 53 20 54 37 56 31 58 32 59 33 60 34 61
REMARK H PARENT 52 29 50 31 48 33 46 35 44 37 42 39 25 50 20 55 37 57 34 62
REMARK Flexibility Score: inf
ROOT
ATOM      1  C   UNL     1      -3.521   5.973  14.975  1.00  0.00     0.214 A 
ATOM      2  C   UNL     1      -4.881   5.831  14.824  1.00  0.00     0.180 A 
ATOM      3  O   UNL     1      -5.484   4.869  15.546  1.00  0.00    -0.452 OA
ATOM      4  C   UNL     1      -4.792   3.942  16.254  1.00  0.00     0.146 A 
ATOM      5  C   UNL     1      -5.406   3.050  17.136  1.00  0.00     0.094 A 
ATOM      6  C   UNL     1      -4.652   2.111  17.852  1.00  0.00     0.126 A 
ATOM      7  C   UNL     1      -3.321   1.899  17.497  1.00  0.00     0.093 A 
ATOM      8  C   UNL     1      -2.657   2.757  16.619  1.00  0.00     0.134 A 
ATOM      9  C   UNL     1      -3.378   3.822  16.047  1.00  0.00     0.111 A 
ATOM     10  C   UNL     1      -2.775   4.927  15.440  1.00  0.00     0.239 A 
ATOM     11  O   UNL     1      -1.500   5.013  15.407  1.00  0.00    -0.285 OA
ENDROOT
BRANCH   1  12
ATOM     12  O   UNL     1      -2.921   7.273  14.843  1.00  0.00    -0.454 OA
BRANCH  12  13
ATOM     13  C   UNL     1      -2.114   7.471  13.675  1.00  0.00     0.339 C 
ATOM     14  C   UNL     1      -0.402   9.211  14.354  1.00  0.00     0.180 C 
ATOM     15  C   UNL     1      -1.123  10.113  13.343  1.00  0.00     0.177 C 
ATOM     16  O   UNL     1      -0.724   7.832  14.055  1.00  0.00    -0.332 OA
ATOM     17  C   UNL     1      -2.648   9.846  13.250  1.00  0.00     0.180 C 
ATOM     18  C   UNL     1      -2.904   8.398  12.756  1.00  0.00     0.214 C 
BRANCH  14  19
ATOM     19  C   UNL     1      -0.343   9.603  15.950  1.00  0.00     0.198 C 
BRANCH  19  20
ATOM     20  O   UNL     1       0.341   8.675  16.842  1.00  0.00    -0.347 OA
BRANCH  20  21
ATOM     21  C   UNL     1       0.639   9.281  18.095  1.00  0.00     0.281 C 
ATOM     22  C   UNL     1      -0.212   6.470  18.101  1.00  0.00     0.041 C 
ATOM     23  C   UNL     1       0.251   7.273  19.400  1.00  0.00     0.150 C 
ATOM     24  C   UNL     1       1.677   7.192  20.108  1.00  0.00     0.174 C 
ATOM     25  O   UNL     1      -0.097   8.637  19.206  1.00  0.00    -0.344 OA
ATOM     26  C   UNL     1       2.403   8.623  19.919  1.00  0.00     0.179 C 
ATOM     27  C   UNL     1       2.122   9.104  18.457  1.00  0.00     0.202 C 
BRANCH  24  28
ATOM     28  O   UNL     1       1.546   6.848  21.468  1.00  0.00    -0.388 OA
ATOM     29  H   UNL     1       2.283   6.243  21.665  1.00  0.00     0.211 HD
ENDBRANCH  24  28
BRANCH  26  30
ATOM     30  O   UNL     1       1.940   9.565  20.832  1.00  0.00    -0.387 OA
ATOM     31  H   UNL     1       1.314   9.138  21.424  1.00  0.00     0.211 HD
ENDBRANCH  26  30
BRANCH  27  32
ATOM     32  O   UNL     1       3.044  10.002  17.965  1.00  0.00    -0.385 OA
ATOM     33  H   UNL     1       2.558  10.914  18.174  1.00  0.00     0.211 HD
ENDBRANCH  27  32
ENDBRANCH  20  21
ENDBRANCH  19  20
ENDBRANCH  14  19
BRANCH  15  34
ATOM     34  O   UNL     1      -0.590  10.104  12.021  1.00  0.00    -0.387 OA
ATOM     35  H   UNL     1      -0.241  11.025  11.879  1.00  0.00     0.211 HD
ENDBRANCH  15  34
BRANCH  17  36
ATOM     36  O   UNL     1      -3.259  10.060  14.477  1.00  0.00    -0.387 OA
ATOM     37  H   UNL     1      -2.988  10.979  14.808  1.00  0.00     0.211 HD
ENDBRANCH  17  36
BRANCH  18  38
ATOM     38  O   UNL     1      -2.398   8.246  11.430  1.00  0.00    -0.384 OA
ATOM     39  H   UNL     1      -3.216   8.366  10.868  1.00  0.00     0.211 HD
ENDBRANCH  18  38
ENDBRANCH  12  13
ENDBRANCH   1  12
BRANCH   2  40
ATOM     40  C   UNL     1      -5.556   6.264  13.541  1.00  0.00     0.025 A 
ATOM     41  C   UNL     1      -6.148   7.578  13.381  1.00  0.00     0.062 A 
ATOM     42  C   UNL     1      -5.210   5.627  12.369  1.00  0.00     0.016 A 
ATOM     43  C   UNL     1      -6.783   8.021  12.203  1.00  0.00     0.162 A 
ATOM     44  C   UNL     1      -5.767   6.083  11.141  1.00  0.00     0.051 A 
ATOM     45  C   UNL     1      -6.629   7.198  11.101  1.00  0.00     0.161 A 
BRANCH  43  46
ATOM     46  O   UNL     1      -7.686   9.125  12.235  1.00  0.00    -0.487 OA
BRANCH  46  47
ATOM     47  C   UNL     1      -8.883   9.132  13.008  1.00  0.00     0.258 C 
BRANCH  47  48
ATOM     48  C   UNL     1      -9.125   7.914  13.916  1.00  0.00     0.197 C 
BRANCH  48  49
ATOM     49  O   UNL     1      -8.732   8.309  15.241  1.00  0.00    -0.393 OA
ATOM     50  H   UNL     1      -8.214   7.524  15.634  1.00  0.00     0.210 HD
ENDBRANCH  48  49
ENDBRANCH  47  48
ENDBRANCH  46  47
ENDBRANCH  43  46
BRANCH  45  51
ATOM     51  O   UNL     1      -7.285   7.585   9.913  1.00  0.00    -0.487 OA
BRANCH  51  52
ATOM     52  C   UNL     1      -8.708   7.448   9.875  1.00  0.00     0.258 C 
BRANCH  52  53
ATOM     53  C   UNL     1      -9.081   5.899  10.068  1.00  0.00     0.197 C 
BRANCH  53  54
ATOM     54  O   UNL     1      -8.983   5.524  11.407  1.00  0.00    -0.393 OA
ATOM     55  H   UNL     1      -8.257   4.878  11.499  1.00  0.00     0.210 HD
ENDBRANCH  53  54
ENDBRANCH  52  53
ENDBRANCH  51  52
ENDBRANCH  45  51
ENDBRANCH   2  40
BRANCH   8  56
ATOM     56  O   UNL     1      -1.298   2.546  16.315  1.00  0.00    -0.507 OA
ATOM     57  H   UNL     1      -0.585   3.253  16.547  1.00  0.00     0.293 HD
ENDBRANCH   8  56
BRANCH   6  58
ATOM     58  O   UNL     1      -5.288   1.326  18.849  1.00  0.00    -0.491 OA
BRANCH  58  59
ATOM     59  C   UNL     1      -5.374  -0.121  18.904  1.00  0.00     0.257 C 
BRANCH  59  60
ATOM     60  C   UNL     1      -6.253  -0.691  17.758  1.00  0.00     0.197 C 
BRANCH  60  61
ATOM     61  O   UNL     1      -7.501  -1.136  18.264  1.00  0.00    -0.393 OA
ATOM     62  H   UNL     1      -7.243  -1.897  18.876  1.00  0.00     0.210 HD
ENDBRANCH  60  61
ENDBRANCH  59  60
ENDBRANCH  58  59
ENDBRANCH   6  58
TORSDOF 25
ENDMDL
MODEL 6
REMARK VINA RESULT:    -1.986      1.916      8.207
REMARK INTER + INTRA:          -6.414
REMARK INTER:                  -5.877
REMARK INTRA:                  -0.538
REMARK UNBOUND:                -2.105
REMARK SMILES C[C@@H]1O[C@H](OC[C@H]2O[C@@H](Oc3c(-c4ccc(OCCO)c(OCCO)c4)oc4cc(OCCO)cc(O)c4c3=O)[C@H](O)[C@@H](O)[C@@H]2O)[C@@H](O)[C@@H](O)[C@H]1O
REMARK SMILES IDX 11 1 12 2 27 3 28 4 29 5 30 6 35 7 36 8 38 9 39 10 40 11
REMARK SMILES IDX 10 12 9 13 7 14 45 15 8 16 43 17 41 18 6 19 5 20 4 21 1 22
REMARK SMILES IDX 2 23 51 24 3 25 49 26 47 27 52 28 50 30 48 32 46 34 44 36
REMARK SMILES IDX 42 38 13 40 26 41 14 42 21 43 15 44 16 45 22 46 23 47 24 48
REMARK SMILES IDX 25 49 17 51 18 52 19 53 20 54 37 56 31 58 32 59 33 60 34 61
REMARK H PARENT 52 29 50 31 48 33 46 35 44 37 42 39 25 50 20 55 37 57 34 62
REMARK Flexibility Score: inf
ROOT
ATOM      1  C   UNL     1      -4.187   7.127  13.473  1.00  0.00     0.214 A 
ATOM      2  C   UNL     1      -3.738   6.613  14.667  1.00  0.00     0.180 A 
ATOM      3  O   UNL     1      -2.576   7.093  15.146  1.00  0.00    -0.452 OA
ATOM      4  C   UNL     1      -1.765   7.906  14.423  1.00  0.00     0.146 A 
ATOM      5  C   UNL     1      -0.648   8.542  14.971  1.00  0.00     0.094 A 
ATOM      6  C   UNL     1       0.160   9.378  14.189  1.00  0.00     0.126 A 
ATOM      7  C   UNL     1      -0.004   9.377  12.806  1.00  0.00     0.093 A 
ATOM      8  C   UNL     1      -1.100   8.756  12.203  1.00  0.00     0.134 A 
ATOM      9  C   UNL     1      -2.020   8.075  13.023  1.00  0.00     0.111 A 
ATOM     10  C   UNL     1      -3.305   7.713  12.609  1.00  0.00     0.239 A 
ATOM     11  O   UNL     1      -3.702   8.024  11.435  1.00  0.00    -0.285 OA
ENDROOT
BRANCH   1  12
ATOM     12  O   UNL     1      -5.600   7.232  13.229  1.00  0.00    -0.454 OA
BRANCH  12  13
ATOM     13  C   UNL     1      -5.981   7.484  11.870  1.00  0.00     0.339 C 
ATOM     14  C   UNL     1      -8.291   8.512  12.020  1.00  0.00     0.180 C 
ATOM     15  C   UNL     1      -8.759   7.218  11.340  1.00  0.00     0.177 C 
ATOM     16  O   UNL     1      -6.871   8.670  11.787  1.00  0.00    -0.332 OA
ATOM     17  C   UNL     1      -7.930   5.971  11.741  1.00  0.00     0.180 C 
ATOM     18  C   UNL     1      -6.453   6.150  11.299  1.00  0.00     0.214 C 
BRANCH  14  19
ATOM     19  C   UNL     1      -8.820   8.919  13.523  1.00  0.00     0.198 C 
BRANCH  19  20
ATOM     20  O   UNL     1      -8.599   7.954  14.594  1.00  0.00    -0.347 OA
BRANCH  20  21
ATOM     21  C   UNL     1      -8.112   8.587  15.772  1.00  0.00     0.281 C 
ATOM     22  C   UNL     1      -8.743   5.722  15.916  1.00  0.00     0.041 C 
ATOM     23  C   UNL     1      -8.099   6.563  17.110  1.00  0.00     0.150 C 
ATOM     24  C   UNL     1      -6.563   6.588  17.533  1.00  0.00     0.174 C 
ATOM     25  O   UNL     1      -8.575   7.897  16.998  1.00  0.00    -0.344 OA
ATOM     26  C   UNL     1      -5.991   8.067  17.222  1.00  0.00     0.179 C 
ATOM     27  C   UNL     1      -6.579   8.519  15.844  1.00  0.00     0.202 C 
BRANCH  24  28
ATOM     28  O   UNL     1      -6.408   6.243  18.890  1.00  0.00    -0.388 OA
ATOM     29  H   UNL     1      -6.153   7.062  19.349  1.00  0.00     0.211 HD
ENDBRANCH  24  28
BRANCH  26  30
ATOM     30  O   UNL     1      -6.338   8.978  18.214  1.00  0.00    -0.387 OA
ATOM     31  H   UNL     1      -7.035   8.593  18.755  1.00  0.00     0.211 HD
ENDBRANCH  26  30
BRANCH  27  32
ATOM     32  O   UNL     1      -5.834   9.479  15.194  1.00  0.00    -0.385 OA
ATOM     33  H   UNL     1      -5.048   8.889  14.812  1.00  0.00     0.211 HD
ENDBRANCH  27  32
ENDBRANCH  20  21
ENDBRANCH  19  20
ENDBRANCH  14  19
BRANCH  15  34
ATOM     34  O   UNL     1      -8.831   7.264   9.917  1.00  0.00    -0.387 OA
ATOM     35  H   UNL     1      -8.262   6.509   9.607  1.00  0.00     0.211 HD
ENDBRANCH  15  34
BRANCH  17  36
ATOM     36  O   UNL     1      -8.008   5.749  13.108  1.00  0.00    -0.387 OA
ATOM     37  H   UNL     1      -7.145   5.308  13.406  1.00  0.00     0.211 HD
ENDBRANCH  17  36
BRANCH  18  38
ATOM     38  O   UNL     1      -6.384   6.225   9.875  1.00  0.00    -0.384 OA
ATOM     39  H   UNL     1      -6.934   7.035   9.671  1.00  0.00     0.211 HD
ENDBRANCH  18  38
ENDBRANCH  12  13
ENDBRANCH   1  12
BRANCH   2  40
ATOM     40  C   UNL     1      -4.148   5.223  15.102  1.00  0.00     0.025 A 
ATOM     41  C   UNL     1      -3.260   4.350  15.845  1.00  0.00     0.062 A 
ATOM     42  C   UNL     1      -5.492   4.942  15.227  1.00  0.00     0.016 A 
ATOM     43  C   UNL     1      -3.603   3.051  16.271  1.00  0.00     0.162 A 
ATOM     44  C   UNL     1      -5.891   3.669  15.722  1.00  0.00     0.051 A 
ATOM     45  C   UNL     1      -4.937   2.712  16.126  1.00  0.00     0.161 A 
BRANCH  43  46
ATOM     46  O   UNL     1      -2.589   2.108  16.618  1.00  0.00    -0.487 OA
BRANCH  46  47
ATOM     47  C   UNL     1      -1.549   2.389  17.551  1.00  0.00     0.258 C 
BRANCH  47  48
ATOM     48  C   UNL     1      -1.247   1.302  18.595  1.00  0.00     0.197 C 
BRANCH  48  49
ATOM     49  O   UNL     1      -0.424   0.323  17.939  1.00  0.00    -0.393 OA
ATOM     50  H   UNL     1      -0.362  -0.473  18.572  1.00  0.00     0.210 HD
ENDBRANCH  48  49
ENDBRANCH  47  48
ENDBRANCH  46  47
ENDBRANCH  43  46
BRANCH  45  51
ATOM     51  O   UNL     1      -5.312   1.404  16.500  1.00  0.00    -0.487 OA
BRANCH  51  52
ATOM     52  C   UNL     1      -5.374   1.113  17.898  1.00  0.00     0.258 C 
BRANCH  52  53
ATOM     53  C   UNL     1      -5.906  -0.389  18.088  1.00  0.00     0.197 C 
BRANCH  53  54
ATOM     54  O   UNL     1      -7.140  -0.564  17.463  1.00  0.00    -0.393 OA
ATOM     55  H   UNL     1      -7.609  -1.301  17.898  1.00  0.00     0.210 HD
ENDBRANCH  53  54
ENDBRANCH  52  53
ENDBRANCH  51  52
ENDBRANCH  45  51
ENDBRANCH   2  40
BRANCH   8  56
ATOM     56  O   UNL     1      -1.266   8.812  10.805  1.00  0.00    -0.507 OA
ATOM     57  H   UNL     1      -1.968   9.434  10.378  1.00  0.00     0.293 HD
ENDBRANCH   8  56
BRANCH   6  58
ATOM     58  O   UNL     1       1.193  10.124  14.813  1.00  0.00    -0.491 OA
BRANCH  58  59
ATOM     59  C   UNL     1       1.789   9.879  16.113  1.00  0.00     0.257 C 
BRANCH  59  60
ATOM     60  C   UNL     1       1.890   8.362  16.426  1.00  0.00     0.197 C 
BRANCH  60  61
ATOM     61  O   UNL     1       1.406   8.091  17.730  1.00  0.00    -0.393 OA
ATOM     62  H   UNL     1       0.862   7.249  17.603  1.00  0.00     0.210 HD
ENDBRANCH  60  61
ENDBRANCH  59  60
ENDBRANCH  58  59
ENDBRANCH   6  58
TORSDOF 25
ENDMDL
MODEL 7
REMARK VINA RESULT:    -1.426      2.386      7.678
REMARK INTER + INTRA:          -5.198
REMARK INTER:                  -3.549
REMARK INTRA:                  -1.648
REMARK UNBOUND:                -2.105
REMARK SMILES C[C@@H]1O[C@H](OC[C@H]2O[C@@H](Oc3c(-c4ccc(OCCO)c(OCCO)c4)oc4cc(OCCO)cc(O)c4c3=O)[C@H](O)[C@@H](O)[C@@H]2O)[C@@H](O)[C@@H](O)[C@H]1O
REMARK SMILES IDX 11 1 12 2 27 3 28 4 29 5 30 6 35 7 36 8 38 9 39 10 40 11
REMARK SMILES IDX 10 12 9 13 7 14 45 15 8 16 43 17 41 18 6 19 5 20 4 21 1 22
REMARK SMILES IDX 2 23 51 24 3 25 49 26 47 27 52 28 50 30 48 32 46 34 44 36
REMARK SMILES IDX 42 38 13 40 26 41 14 42 21 43 15 44 16 45 22 46 23 47 24 48
REMARK SMILES IDX 25 49 17 51 18 52 19 53 20 54 37 56 31 58 32 59 33 60 34 61
REMARK H PARENT 52 29 50 31 48 33 46 35 44 37 42 39 25 50 20 55 37 57 34 62
REMARK Flexibility Score: inf
ROOT
ATOM      1  C   UNL     1      -4.178   4.992  16.324  1.00  0.00     0.214 A 
ATOM      2  C   UNL     1      -4.364   3.753  15.756  1.00  0.00     0.180 A 
ATOM      3  O   UNL     1      -4.895   3.714  14.520  1.00  0.00    -0.452 OA
ATOM      4  C   UNL     1      -5.408   4.811  13.909  1.00  0.00     0.146 A 
ATOM      5  C   UNL     1      -5.804   4.816  12.570  1.00  0.00     0.094 A 
ATOM      6  C   UNL     1      -6.325   5.973  11.976  1.00  0.00     0.126 A 
ATOM      7  C   UNL     1      -6.683   7.047  12.787  1.00  0.00     0.093 A 
ATOM      8  C   UNL     1      -6.317   7.096  14.134  1.00  0.00     0.134 A 
ATOM      9  C   UNL     1      -5.618   6.002  14.680  1.00  0.00     0.111 A 
ATOM     10  C   UNL     1      -4.908   6.059  15.882  1.00  0.00     0.239 A 
ATOM     11  O   UNL     1      -4.854   7.158  16.533  1.00  0.00    -0.285 OA
ENDROOT
BRANCH   1  12
ATOM     12  O   UNL     1      -3.081   5.205  17.228  1.00  0.00    -0.454 OA
BRANCH  12  13
ATOM     13  C   UNL     1      -1.846   4.570  16.870  1.00  0.00     0.339 C 
ATOM     14  C   UNL     1      -0.046   5.996  17.940  1.00  0.00     0.180 C 
ATOM     15  C   UNL     1       0.343   6.342  16.496  1.00  0.00     0.177 C 
ATOM     16  O   UNL     1      -0.826   4.776  17.930  1.00  0.00    -0.332 OA
ATOM     17  C   UNL     1      -0.864   6.394  15.524  1.00  0.00     0.180 C 
ATOM     18  C   UNL     1      -1.538   4.999  15.439  1.00  0.00     0.214 C 
BRANCH  14  19
ATOM     19  C   UNL     1      -0.553   7.161  18.984  1.00  0.00     0.198 C 
BRANCH  19  20
ATOM     20  O   UNL     1       0.455   7.784  19.834  1.00  0.00    -0.347 OA
BRANCH  20  21
ATOM     21  C   UNL     1       1.042   6.839  20.722  1.00  0.00     0.281 C 
ATOM     22  C   UNL     1       2.223   9.525  20.602  1.00  0.00     0.041 C 
ATOM     23  C   UNL     1       2.693   8.379  21.609  1.00  0.00     0.150 C 
ATOM     24  C   UNL     1       2.306   8.253  23.150  1.00  0.00     0.174 C 
ATOM     25  O   UNL     1       2.472   7.131  20.969  1.00  0.00    -0.344 OA
ATOM     26  C   UNL     1       1.380   6.940  23.320  1.00  0.00     0.179 C 
ATOM     27  C   UNL     1       0.387   6.905  22.111  1.00  0.00     0.202 C 
BRANCH  24  28
ATOM     28  O   UNL     1       3.461   8.186  23.956  1.00  0.00    -0.388 OA
ATOM     29  H   UNL     1       4.112   7.668  23.450  1.00  0.00     0.211 HD
ENDBRANCH  24  28
BRANCH  26  30
ATOM     30  O   UNL     1       2.135   5.773  23.355  1.00  0.00    -0.387 OA
ATOM     31  H   UNL     1       2.698   5.794  24.135  1.00  0.00     0.211 HD
ENDBRANCH  26  30
BRANCH  27  32
ATOM     32  O   UNL     1      -0.768   6.191  22.343  1.00  0.00    -0.385 OA
ATOM     33  H   UNL     1      -0.400   5.422  22.963  1.00  0.00     0.211 HD
ENDBRANCH  27  32
ENDBRANCH  20  21
ENDBRANCH  19  20
ENDBRANCH  14  19
BRANCH  15  34
ATOM     34  O   UNL     1       1.346   5.512  15.915  1.00  0.00    -0.387 OA
ATOM     35  H   UNL     1       1.445   5.846  14.982  1.00  0.00     0.211 HD
ENDBRANCH  15  34
BRANCH  17  36
ATOM     36  O   UNL     1      -1.778   7.356  15.927  1.00  0.00    -0.387 OA
ATOM     37  H   UNL     1      -2.430   6.921  16.570  1.00  0.00     0.211 HD
ENDBRANCH  17  36
BRANCH  18  38
ATOM     38  O   UNL     1      -0.624   4.057  14.879  1.00  0.00    -0.384 OA
ATOM     39  H   UNL     1      -0.101   3.757  15.676  1.00  0.00     0.211 HD
ENDBRANCH  18  38
ENDBRANCH  12  13
ENDBRANCH   1  12
BRANCH   2  40
ATOM     40  C   UNL     1      -4.551   2.533  16.631  1.00  0.00     0.025 A 
ATOM     41  C   UNL     1      -3.683   2.247  17.758  1.00  0.00     0.062 A 
ATOM     42  C   UNL     1      -5.795   1.943  16.681  1.00  0.00     0.016 A 
ATOM     43  C   UNL     1      -3.824   1.125  18.599  1.00  0.00     0.162 A 
ATOM     44  C   UNL     1      -6.010   0.852  17.568  1.00  0.00     0.051 A 
ATOM     45  C   UNL     1      -4.987   0.395  18.425  1.00  0.00     0.161 A 
BRANCH  43  46
ATOM     46  O   UNL     1      -2.734   0.680  19.406  1.00  0.00    -0.487 OA
BRANCH  46  47
ATOM     47  C   UNL     1      -1.383   1.071  19.176  1.00  0.00     0.258 C 
BRANCH  47  48
ATOM     48  C   UNL     1      -0.390  -0.050  18.825  1.00  0.00     0.197 C 
BRANCH  48  49
ATOM     49  O   UNL     1      -0.102   0.086  17.423  1.00  0.00    -0.393 OA
ATOM     50  H   UNL     1       0.858   0.424  17.358  1.00  0.00     0.210 HD
ENDBRANCH  48  49
ENDBRANCH  47  48
ENDBRANCH  46  47
ENDBRANCH  43  46
BRANCH  45  51
ATOM     51  O   UNL     1      -5.145  -0.761  19.218  1.00  0.00    -0.487 OA
BRANCH  51  52
ATOM     52  C   UNL     1      -6.391  -1.456  19.125  1.00  0.00     0.258 C 
BRANCH  52  53
ATOM     53  C   UNL     1      -6.173  -2.969  19.613  1.00  0.00     0.197 C 
BRANCH  53  54
ATOM     54  O   UNL     1      -7.394  -3.620  19.783  1.00  0.00    -0.393 OA
ATOM     55  H   UNL     1      -8.113  -2.994  19.575  1.00  0.00     0.210 HD
ENDBRANCH  53  54
ENDBRANCH  52  53
ENDBRANCH  51  52
ENDBRANCH  45  51
ENDBRANCH   2  40
BRANCH   8  56
ATOM     56  O   UNL     1      -6.651   8.217  14.919  1.00  0.00    -0.507 OA
ATOM     57  H   UNL     1      -6.605   9.170  14.530  1.00  0.00     0.293 HD
ENDBRANCH   8  56
BRANCH   6  58
ATOM     58  O   UNL     1      -6.573   5.983  10.579  1.00  0.00    -0.491 OA
BRANCH  58  59
ATOM     59  C   UNL     1      -7.656   5.321   9.875  1.00  0.00     0.257 C 
BRANCH  59  60
ATOM     60  C   UNL     1      -9.045   5.837  10.336  1.00  0.00     0.197 C 
BRANCH  60  61
ATOM     61  O   UNL     1      -9.111   7.249  10.229  1.00  0.00    -0.393 OA
ATOM     62  H   UNL     1      -8.162   7.539  10.420  1.00  0.00     0.210 HD
ENDBRANCH  60  61
ENDBRANCH  59  60
ENDBRANCH  58  59
ENDBRANCH   6  58
TORSDOF 25
ENDMDL
MODEL 8
REMARK VINA RESULT:    -1.197     10.907     18.514
REMARK INTER + INTRA:          -4.703
REMARK INTER:                  -2.071
REMARK INTRA:                  -2.631
REMARK UNBOUND:                -2.105
REMARK SMILES C[C@@H]1O[C@H](OC[C@H]2O[C@@H](Oc3c(-c4ccc(OCCO)c(OCCO)c4)oc4cc(OCCO)cc(O)c4c3=O)[C@H](O)[C@@H](O)[C@@H]2O)[C@@H](O)[C@@H](O)[C@H]1O
REMARK SMILES IDX 11 1 12 2 27 3 28 4 29 5 30 6 35 7 36 8 38 9 39 10 40 11
REMARK SMILES IDX 10 12 9 13 7 14 45 15 8 16 43 17 41 18 6 19 5 20 4 21 1 22
REMARK SMILES IDX 2 23 51 24 3 25 49 26 47 27 52 28 50 30 48 32 46 34 44 36
REMARK SMILES IDX 42 38 13 40 26 41 14 42 21 43 15 44 16 45 22 46 23 47 24 48
REMARK SMILES IDX 25 49 17 51 18 52 19 53 20 54 37 56 31 58 32 59 33 60 34 61
REMARK H PARENT 52 29 50 31 48 33 46 35 44 37 42 39 25 50 20 55 37 57 34 62
REMARK Flexibility Score: inf
ROOT
ATOM      1  C   UNL     1      -5.016  -6.534  23.992  1.00  0.00     0.214 A 
ATOM      2  C   UNL     1      -4.121  -5.782  24.718  1.00  0.00     0.180 A 
ATOM      3  O   UNL     1      -3.254  -5.019  24.028  1.00  0.00    -0.452 OA
ATOM      4  C   UNL     1      -3.114  -5.104  22.681  1.00  0.00     0.146 A 
ATOM      5  C   UNL     1      -2.345  -4.202  21.942  1.00  0.00     0.094 A 
ATOM      6  C   UNL     1      -2.231  -4.324  20.551  1.00  0.00     0.126 A 
ATOM      7  C   UNL     1      -2.680  -5.490  19.935  1.00  0.00     0.093 A 
ATOM      8  C   UNL     1      -3.451  -6.427  20.625  1.00  0.00     0.134 A 
ATOM      9  C   UNL     1      -3.725  -6.199  21.987  1.00  0.00     0.111 A 
ATOM     10  C   UNL     1      -4.738  -6.854  22.692  1.00  0.00     0.239 A 
ATOM     11  O   UNL     1      -5.488  -7.695  22.089  1.00  0.00    -0.285 OA
ENDROOT
BRANCH   1  12
ATOM     12  O   UNL     1      -6.322  -6.803  24.528  1.00  0.00    -0.454 OA
BRANCH  12  13
ATOM     13  C   UNL     1      -6.462  -8.041  25.236  1.00  0.00     0.339 C 
ATOM     14  C   UNL     1      -8.372  -9.240  24.080  1.00  0.00     0.180 C 
ATOM     15  C   UNL     1      -9.122  -9.026  25.403  1.00  0.00     0.177 C 
ATOM     16  O   UNL     1      -6.952  -9.110  24.328  1.00  0.00    -0.332 OA
ATOM     17  C   UNL     1      -8.743  -7.708  26.125  1.00  0.00     0.180 C 
ATOM     18  C   UNL     1      -7.240  -7.725  26.510  1.00  0.00     0.214 C 
BRANCH  14  19
ATOM     19  C   UNL     1      -8.918  -8.575  22.679  1.00  0.00     0.198 C 
BRANCH  19  20
ATOM     20  O   UNL     1      -8.468  -7.225  22.359  1.00  0.00    -0.347 OA
BRANCH  20  21
ATOM     21  C   UNL     1      -8.679  -6.919  20.985  1.00  0.00     0.281 C 
ATOM     22  C   UNL     1      -7.945  -4.716  22.784  1.00  0.00     0.041 C 
ATOM     23  C   UNL     1      -8.124  -4.567  21.205  1.00  0.00     0.150 C 
ATOM     24  C   UNL     1      -6.959  -4.514  20.119  1.00  0.00     0.174 C 
ATOM     25  O   UNL     1      -9.102  -5.512  20.794  1.00  0.00    -0.344 OA
ATOM     26  C   UNL     1      -7.062  -5.851  19.219  1.00  0.00     0.179 C 
ATOM     27  C   UNL     1      -7.375  -7.044  20.182  1.00  0.00     0.202 C 
BRANCH  24  28
ATOM     28  O   UNL     1      -7.054  -3.347  19.334  1.00  0.00    -0.388 OA
ATOM     29  H   UNL     1      -7.847  -2.877  19.646  1.00  0.00     0.211 HD
ENDBRANCH  24  28
BRANCH  26  30
ATOM     30  O   UNL     1      -8.051  -5.749  18.246  1.00  0.00    -0.387 OA
ATOM     31  H   UNL     1      -8.158  -6.607  17.824  1.00  0.00     0.211 HD
ENDBRANCH  26  30
BRANCH  27  32
ATOM     32  O   UNL     1      -7.000  -8.280  19.701  1.00  0.00    -0.385 OA
ATOM     33  H   UNL     1      -6.175  -8.012  19.101  1.00  0.00     0.211 HD
ENDBRANCH  27  32
ENDBRANCH  20  21
ENDBRANCH  19  20
ENDBRANCH  14  19
BRANCH  15  34
ATOM     34  O   UNL     1      -9.022 -10.092  26.344  1.00  0.00    -0.387 OA
ATOM     35  H   UNL     1      -9.535 -10.842  25.937  1.00  0.00     0.211 HD
ENDBRANCH  15  34
BRANCH  17  36
ATOM     36  O   UNL     1      -9.031  -6.611  25.327  1.00  0.00    -0.387 OA
ATOM     37  H   UNL     1      -9.972  -6.721  24.967  1.00  0.00     0.211 HD
ENDBRANCH  17  36
BRANCH  18  38
ATOM     38  O   UNL     1      -6.998  -8.771  27.451  1.00  0.00    -0.384 OA
ATOM     39  H   UNL     1      -7.788  -9.369  27.322  1.00  0.00     0.211 HD
ENDBRANCH  18  38
ENDBRANCH  12  13
ENDBRANCH   1  12
BRANCH   2  40
ATOM     40  C   UNL     1      -3.711  -6.217  26.108  1.00  0.00     0.025 A 
ATOM     41  C   UNL     1      -3.316  -7.580  26.407  1.00  0.00     0.062 A 
ATOM     42  C   UNL     1      -3.248  -5.262  26.987  1.00  0.00     0.016 A 
ATOM     43  C   UNL     1      -2.925  -8.026  27.686  1.00  0.00     0.162 A 
ATOM     44  C   UNL     1      -2.773  -5.669  28.265  1.00  0.00     0.051 A 
ATOM     45  C   UNL     1      -2.728  -7.031  28.627  1.00  0.00     0.161 A 
BRANCH  43  46
ATOM     46  O   UNL     1      -2.949  -9.416  28.010  1.00  0.00    -0.487 OA
BRANCH  46  47
ATOM     47  C   UNL     1      -4.100 -10.075  28.533  1.00  0.00     0.258 C 
BRANCH  47  48
ATOM     48  C   UNL     1      -4.447  -9.793  30.005  1.00  0.00     0.197 C 
BRANCH  48  49
ATOM     49  O   UNL     1      -5.726  -9.136  30.003  1.00  0.00    -0.393 OA
ATOM     50  H   UNL     1      -6.419  -9.856  29.803  1.00  0.00     0.210 HD
ENDBRANCH  48  49
ENDBRANCH  47  48
ENDBRANCH  46  47
ENDBRANCH  43  46
BRANCH  45  51
ATOM     51  O   UNL     1      -2.378  -7.440  29.932  1.00  0.00    -0.487 OA
BRANCH  51  52
ATOM     52  C   UNL     1      -1.071  -7.989  30.119  1.00  0.00     0.258 C 
BRANCH  52  53
ATOM     53  C   UNL     1      -0.013  -7.078  29.328  1.00  0.00     0.197 C 
BRANCH  53  54
ATOM     54  O   UNL     1       0.267  -5.910  30.034  1.00  0.00    -0.393 OA
ATOM     55  H   UNL     1      -0.088  -5.998  30.939  1.00  0.00     0.210 HD
ENDBRANCH  53  54
ENDBRANCH  52  53
ENDBRANCH  51  52
ENDBRANCH  45  51
ENDBRANCH   2  40
BRANCH   8  56
ATOM     56  O   UNL     1      -3.932  -7.574  19.963  1.00  0.00    -0.507 OA
ATOM     57  H   UNL     1      -3.292  -8.200  19.452  1.00  0.00     0.293 HD
ENDBRANCH   8  56
BRANCH   6  58
ATOM     58  O   UNL     1      -1.568  -3.305  19.818  1.00  0.00    -0.491 OA
BRANCH  58  59
ATOM     59  C   UNL     1      -0.149  -3.002  19.826  1.00  0.00     0.257 C 
BRANCH  59  60
ATOM     60  C   UNL     1       0.123  -1.504  19.521  1.00  0.00     0.197 C 
BRANCH  60  61
ATOM     61  O   UNL     1       0.787  -1.364  18.276  1.00  0.00    -0.393 OA
ATOM     62  H   UNL     1       1.472  -0.644  18.461  1.00  0.00     0.210 HD
ENDBRANCH  60  61
ENDBRANCH  59  60
ENDBRANCH  58  59
ENDBRANCH   6  58
TORSDOF 25
ENDMDL
MODEL 9
REMARK VINA RESULT:    -1.148      2.666      7.717
REMARK INTER + INTRA:          -4.595
REMARK INTER:                  -3.038
REMARK INTRA:                  -1.558
REMARK UNBOUND:                -2.105
REMARK SMILES C[C@@H]1O[C@H](OC[C@H]2O[C@@H](Oc3c(-c4ccc(OCCO)c(OCCO)c4)oc4cc(OCCO)cc(O)c4c3=O)[C@H](O)[C@@H](O)[C@@H]2O)[C@@H](O)[C@@H](O)[C@H]1O
REMARK SMILES IDX 11 1 12 2 27 3 28 4 29 5 30 6 35 7 36 8 38 9 39 10 40 11
REMARK SMILES IDX 10 12 9 13 7 14 45 15 8 16 43 17 41 18 6 19 5 20 4 21 1 22
REMARK SMILES IDX 2 23 51 24 3 25 49 26 47 27 52 28 50 30 48 32 46 34 44 36
REMARK SMILES IDX 42 38 13 40 26 41 14 42 21 43 15 44 16 45 22 46 23 47 24 48
REMARK SMILES IDX 25 49 17 51 18 52 19 53 20 54 37 56 31 58 32 59 33 60 34 61
REMARK H PARENT 52 29 50 31 48 33 46 35 44 37 42 39 25 50 20 55 37 57 34 62
REMARK Flexibility Score: inf
ROOT
ATOM      1  C   UNL     1      -4.797   4.145  16.950  1.00  0.00     0.214 A 
ATOM      2  C   UNL     1      -5.192   2.927  16.446  1.00  0.00     0.180 A 
ATOM      3  O   UNL     1      -5.889   2.933  15.295  1.00  0.00    -0.452 OA
ATOM      4  C   UNL     1      -6.359   4.072  14.729  1.00  0.00     0.146 A 
ATOM      5  C   UNL     1      -6.931   4.104  13.455  1.00  0.00     0.094 A 
ATOM      6  C   UNL     1      -7.400   5.304  12.905  1.00  0.00     0.126 A 
ATOM      7  C   UNL     1      -7.525   6.422  13.727  1.00  0.00     0.093 A 
ATOM      8  C   UNL     1      -6.975   6.446  15.011  1.00  0.00     0.134 A 
ATOM      9  C   UNL     1      -6.330   5.288  15.487  1.00  0.00     0.111 A 
ATOM     10  C   UNL     1      -5.461   5.282  16.581  1.00  0.00     0.239 A 
ATOM     11  O   UNL     1      -5.200   6.376  17.188  1.00  0.00    -0.285 OA
ENDROOT
BRANCH   1  12
ATOM     12  O   UNL     1      -3.570   4.246  17.692  1.00  0.00    -0.454 OA
BRANCH  12  13
ATOM     13  C   UNL     1      -2.411   3.690  17.058  1.00  0.00     0.339 C 
ATOM     14  C   UNL     1      -0.496   5.185  17.775  1.00  0.00     0.180 C 
ATOM     15  C   UNL     1      -0.440   5.589  16.295  1.00  0.00     0.177 C 
ATOM     16  O   UNL     1      -1.199   3.925  17.885  1.00  0.00    -0.332 OA
ATOM     17  C   UNL     1      -1.828   5.599  15.602  1.00  0.00     0.180 C 
ATOM     18  C   UNL     1      -2.437   4.172  15.611  1.00  0.00     0.214 C 
BRANCH  14  19
ATOM     19  C   UNL     1      -0.825   6.294  18.944  1.00  0.00     0.198 C 
BRANCH  19  20
ATOM     20  O   UNL     1       0.300   7.043  19.491  1.00  0.00    -0.347 OA
BRANCH  20  21
ATOM     21  C   UNL     1       0.891   6.364  20.594  1.00  0.00     0.281 C 
ATOM     22  C   UNL     1       1.982   8.989  19.858  1.00  0.00     0.041 C 
ATOM     23  C   UNL     1       2.458   8.138  21.121  1.00  0.00     0.150 C 
ATOM     24  C   UNL     1       2.028   8.369  22.638  1.00  0.00     0.174 C 
ATOM     25  O   UNL     1       2.301   6.765  20.795  1.00  0.00    -0.344 OA
ATOM     26  C   UNL     1       1.143   7.098  23.098  1.00  0.00     0.179 C 
ATOM     27  C   UNL     1       0.190   6.734  21.911  1.00  0.00     0.202 C 
BRANCH  24  28
ATOM     28  O   UNL     1       3.158   8.545  23.462  1.00  0.00    -0.388 OA
ATOM     29  H   UNL     1       3.319   7.683  23.885  1.00  0.00     0.211 HD
ENDBRANCH  24  28
BRANCH  26  30
ATOM     30  O   UNL     1       1.936   6.005  23.430  1.00  0.00    -0.387 OA
ATOM     31  H   UNL     1       1.416   5.203  23.322  1.00  0.00     0.211 HD
ENDBRANCH  26  30
BRANCH  27  32
ATOM     32  O   UNL     1      -0.946   6.048  22.282  1.00  0.00    -0.385 OA
ATOM     33  H   UNL     1      -0.552   5.401  23.015  1.00  0.00     0.211 HD
ENDBRANCH  27  32
ENDBRANCH  20  21
ENDBRANCH  19  20
ENDBRANCH  14  19
BRANCH  15  34
ATOM     34  O   UNL     1       0.454   4.831  15.484  1.00  0.00    -0.387 OA
ATOM     35  H   UNL     1       0.799   5.477  14.810  1.00  0.00     0.211 HD
ENDBRANCH  15  34
BRANCH  17  36
ATOM     36  O   UNL     1      -2.681   6.498  16.225  1.00  0.00    -0.387 OA
ATOM     37  H   UNL     1      -2.458   6.510  17.214  1.00  0.00     0.211 HD
ENDBRANCH  17  36
BRANCH  18  38
ATOM     38  O   UNL     1      -1.618   3.296  14.835  1.00  0.00    -0.384 OA
ATOM     39  H   UNL     1      -2.083   2.417  14.932  1.00  0.00     0.211 HD
ENDBRANCH  18  38
ENDBRANCH  12  13
ENDBRANCH   1  12
BRANCH   2  40
ATOM     40  C   UNL     1      -5.389   1.747  17.372  1.00  0.00     0.025 A 
ATOM     41  C   UNL     1      -6.217   0.611  17.014  1.00  0.00     0.062 A 
ATOM     42  C   UNL     1      -4.436   1.502  18.337  1.00  0.00     0.016 A 
ATOM     43  C   UNL     1      -6.424  -0.508  17.846  1.00  0.00     0.162 A 
ATOM     44  C   UNL     1      -4.560   0.344  19.155  1.00  0.00     0.051 A 
ATOM     45  C   UNL     1      -5.614  -0.574  18.966  1.00  0.00     0.161 A 
BRANCH  43  46
ATOM     46  O   UNL     1      -7.540  -1.374  17.635  1.00  0.00    -0.487 OA
BRANCH  46  47
ATOM     47  C   UNL     1      -8.845  -1.102  18.139  1.00  0.00     0.258 C 
BRANCH  47  48
ATOM     48  C   UNL     1      -9.105  -1.466  19.610  1.00  0.00     0.197 C 
BRANCH  48  49
ATOM     49  O   UNL     1      -8.671  -0.340  20.392  1.00  0.00    -0.393 OA
ATOM     50  H   UNL     1      -9.020  -0.493  21.337  1.00  0.00     0.210 HD
ENDBRANCH  48  49
ENDBRANCH  47  48
ENDBRANCH  46  47
ENDBRANCH  43  46
BRANCH  45  51
ATOM     51  O   UNL     1      -5.821  -1.657  19.846  1.00  0.00    -0.487 OA
BRANCH  51  52
ATOM     52  C   UNL     1      -5.334  -2.938  19.438  1.00  0.00     0.258 C 
BRANCH  52  53
ATOM     53  C   UNL     1      -6.523  -4.008  19.575  1.00  0.00     0.197 C 
BRANCH  53  54
ATOM     54  O   UNL     1      -7.154  -4.213  18.350  1.00  0.00    -0.393 OA
ATOM     55  H   UNL     1      -7.897  -3.586  18.271  1.00  0.00     0.210 HD
ENDBRANCH  53  54
ENDBRANCH  52  53
ENDBRANCH  51  52
ENDBRANCH  45  51
ENDBRANCH   2  40
BRANCH   8  56
ATOM     56  O   UNL     1      -7.075   7.607  15.802  1.00  0.00    -0.507 OA
ATOM     57  H   UNL     1      -7.454   8.483  15.414  1.00  0.00     0.293 HD
ENDBRANCH   8  56
BRANCH   6  58
ATOM     58  O   UNL     1      -7.834   5.325  11.554  1.00  0.00    -0.491 OA
BRANCH  58  59
ATOM     59  C   UNL     1      -7.024   5.114  10.369  1.00  0.00     0.257 C 
BRANCH  59  60
ATOM     60  C   UNL     1      -5.862   6.137  10.274  1.00  0.00     0.197 C 
BRANCH  60  61
ATOM     61  O   UNL     1      -4.665   5.580  10.791  1.00  0.00    -0.393 OA
ATOM     62  H   UNL     1      -4.306   6.315  11.384  1.00  0.00     0.210 HD
ENDBRANCH  60  61
ENDBRANCH  59  60
ENDBRANCH  58  59
ENDBRANCH   6  58
TORSDOF 25
ENDMDL
