MODEL 1
REMARK VINA RESULT:    -3.671      0.000      0.000
REMARK INTER + INTRA:          -4.735
REMARK INTER:                  -4.423
REMARK INTRA:                  -0.313
REMARK UNBOUND:                -0.313
REMARK SMILES O=c1c(O)c(-c2ccc(O)cc2O)oc2cc(O)cc(O)c12
REMARK SMILES IDX 5 1 3 2 2 3 1 4 22 5 20 6 19 7 17 8 16 9 15 10 14 11 6 12
REMARK SMILES IDX 8 13 7 14 9 15 11 16 12 17 10 18 13 20 4 22 21 24 18 26
REMARK H PARENT 10 19 13 21 4 23 21 25 18 27
REMARK Flexibility Score: inf
ROOT
ATOM      1  C   UNL     1      16.264  -0.501  27.032  1.00  0.00     0.184 A 
ATOM      2  C   UNL     1      15.604  -0.987  28.169  1.00  0.00     0.208 A 
ATOM      3  C   UNL     1      16.271  -1.891  29.011  1.00  0.00     0.238 A 
ATOM      4  O   UNL     1      15.701  -2.266  30.068  1.00  0.00    -0.285 OA
ATOM      5  C   UNL     1      17.573  -2.339  28.673  1.00  0.00     0.111 A 
ATOM      6  C   UNL     1      18.328  -3.286  29.428  1.00  0.00     0.134 A 
ATOM      7  C   UNL     1      19.646  -3.574  29.054  1.00  0.00     0.093 A 
ATOM      8  C   UNL     1      20.216  -2.998  27.920  1.00  0.00     0.123 A 
ATOM      9  C   UNL     1      19.469  -2.112  27.143  1.00  0.00     0.094 A 
ATOM     10  C   UNL     1      18.163  -1.776  27.510  1.00  0.00     0.146 A 
ATOM     11  O   UNL     1      17.495  -0.912  26.755  1.00  0.00    -0.451 OA
ENDROOT
BRANCH   1  12
ATOM     12  C   UNL     1      15.621   0.457  26.109  1.00  0.00     0.063 A 
ATOM     13  C   UNL     1      14.678   0.915  23.916  1.00  0.00     0.047 A 
ATOM     14  C   UNL     1      15.282   0.033  24.815  1.00  0.00     0.020 A 
ATOM     15  C   UNL     1      14.417   2.237  24.296  1.00  0.00     0.119 A 
ATOM     16  C   UNL     1      14.773   2.675  25.575  1.00  0.00     0.093 A 
ATOM     17  C   UNL     1      15.385   1.797  26.482  1.00  0.00     0.130 A 
BRANCH  15  18
ATOM     18  O   UNL     1      13.812   3.125  23.408  1.00  0.00    -0.508 OA
ATOM     19  H   UNL     1      13.793   4.122  23.587  1.00  0.00     0.293 HD
ENDBRANCH  15  18
BRANCH  17  20
ATOM     20  O   UNL     1      15.779   2.260  27.738  1.00  0.00    -0.507 OA
ATOM     21  H   UNL     1      16.670   2.001  28.144  1.00  0.00     0.293 HD
ENDBRANCH  17  20
ENDBRANCH   1  12
BRANCH   2  22
ATOM     22  O   UNL     1      14.293  -0.585  28.442  1.00  0.00    -0.502 OA
ATOM     23  H   UNL     1      13.568  -1.241  28.709  1.00  0.00     0.293 HD
ENDBRANCH   2  22
BRANCH   6  24
ATOM     24  O   UNL     1      17.826  -3.987  30.529  1.00  0.00    -0.507 OA
ATOM     25  H   UNL     1      16.858  -4.011  30.808  1.00  0.00     0.293 HD
ENDBRANCH   6  24
BRANCH   8  26
ATOM     26  O   UNL     1      21.524  -3.320  27.569  1.00  0.00    -0.508 OA
ATOM     27  H   UNL     1      21.743  -3.757  26.681  1.00  0.00     0.293 HD
ENDBRANCH   8  26
TORSDOF 6
ENDMDL
MODEL 2
REMARK VINA RESULT:    -2.430     11.487     13.710
REMARK INTER + INTRA:          -3.240
REMARK INTER:                  -3.088
REMARK INTRA:                  -0.153
REMARK UNBOUND:                -0.313
REMARK SMILES O=c1c(O)c(-c2ccc(O)cc2O)oc2cc(O)cc(O)c12
REMARK SMILES IDX 5 1 3 2 2 3 1 4 22 5 20 6 19 7 17 8 16 9 15 10 14 11 6 12
REMARK SMILES IDX 8 13 7 14 9 15 11 16 12 17 10 18 13 20 4 22 21 24 18 26
REMARK H PARENT 10 19 13 21 4 23 21 25 18 27
REMARK Flexibility Score: inf
ROOT
ATOM      1  C   UNL     1      13.441 -12.980  29.644  1.00  0.00     0.184 A 
ATOM      2  C   UNL     1      13.695 -13.493  28.364  1.00  0.00     0.208 A 
ATOM      3  C   UNL     1      14.429 -14.683  28.239  1.00  0.00     0.238 A 
ATOM      4  O   UNL     1      14.589 -15.176  27.093  1.00  0.00    -0.285 OA
ATOM      5  C   UNL     1      14.947 -15.316  29.397  1.00  0.00     0.111 A 
ATOM      6  C   UNL     1      15.741 -16.502  29.388  1.00  0.00     0.134 A 
ATOM      7  C   UNL     1      16.109 -17.096  30.602  1.00  0.00     0.093 A 
ATOM      8  C   UNL     1      15.766 -16.515  31.822  1.00  0.00     0.123 A 
ATOM      9  C   UNL     1      15.037 -15.326  31.842  1.00  0.00     0.094 A 
ATOM     10  C   UNL     1      14.622 -14.729  30.649  1.00  0.00     0.146 A 
ATOM     11  O   UNL     1      13.911 -13.610  30.715  1.00  0.00    -0.451 OA
ENDROOT
BRANCH   1  12
ATOM     12  C   UNL     1      12.669 -11.737  29.846  1.00  0.00     0.063 A 
ATOM     13  C   UNL     1      12.547  -9.496  30.781  1.00  0.00     0.047 A 
ATOM     14  C   UNL     1      13.251 -10.684  30.569  1.00  0.00     0.020 A 
ATOM     15  C   UNL     1      11.246  -9.352  30.285  1.00  0.00     0.119 A 
ATOM     16  C   UNL     1      10.650 -10.404  29.584  1.00  0.00     0.093 A 
ATOM     17  C   UNL     1      11.348 -11.602  29.371  1.00  0.00     0.130 A 
BRANCH  15  18
ATOM     18  O   UNL     1      10.535  -8.171  30.489  1.00  0.00    -0.508 OA
ATOM     19  H   UNL     1      10.260  -7.578  29.715  1.00  0.00     0.293 HD
ENDBRANCH  15  18
BRANCH  17  20
ATOM     20  O   UNL     1      10.723 -12.662  28.712  1.00  0.00    -0.507 OA
ATOM     21  H   UNL     1      11.037 -13.618  28.827  1.00  0.00     0.293 HD
ENDBRANCH  17  20
ENDBRANCH   1  12
BRANCH   2  22
ATOM     22  O   UNL     1      13.234 -12.812  27.234  1.00  0.00    -0.502 OA
ATOM     23  H   UNL     1      12.717 -11.942  27.297  1.00  0.00     0.293 HD
ENDBRANCH   2  22
BRANCH   6  24
ATOM     24  O   UNL     1      16.214 -17.119  28.225  1.00  0.00    -0.507 OA
ATOM     25  H   UNL     1      17.092 -16.910  27.776  1.00  0.00     0.293 HD
ENDBRANCH   6  24
BRANCH   8  26
ATOM     26  O   UNL     1      16.163 -17.125  33.009  1.00  0.00    -0.508 OA
ATOM     27  H   UNL     1      15.897 -16.751  33.912  1.00  0.00     0.293 HD
ENDBRANCH   8  26
TORSDOF 6
ENDMDL
MODEL 3
REMARK VINA RESULT:    -2.285      1.173      2.824
REMARK INTER + INTRA:          -3.066
REMARK INTER:                  -2.770
REMARK INTRA:                  -0.295
REMARK UNBOUND:                -0.313
REMARK SMILES O=c1c(O)c(-c2ccc(O)cc2O)oc2cc(O)cc(O)c12
REMARK SMILES IDX 5 1 3 2 2 3 1 4 22 5 20 6 19 7 17 8 16 9 15 10 14 11 6 12
REMARK SMILES IDX 8 13 7 14 9 15 11 16 12 17 10 18 13 20 4 22 21 24 18 26
REMARK H PARENT 10 19 13 21 4 23 21 25 18 27
REMARK Flexibility Score: inf
ROOT
ATOM      1  C   UNL     1      16.750  -0.613  26.620  1.00  0.00     0.184 A 
ATOM      2  C   UNL     1      17.956  -1.093  26.089  1.00  0.00     0.208 A 
ATOM      3  C   UNL     1      18.696  -2.034  26.822  1.00  0.00     0.238 A 
ATOM      4  O   UNL     1      19.738  -2.515  26.307  1.00  0.00    -0.285 OA
ATOM      5  C   UNL     1      18.247  -2.441  28.103  1.00  0.00     0.111 A 
ATOM      6  C   UNL     1      18.939  -3.356  28.953  1.00  0.00     0.134 A 
ATOM      7  C   UNL     1      18.345  -3.766  30.154  1.00  0.00     0.093 A 
ATOM      8  C   UNL     1      17.118  -3.248  30.565  1.00  0.00     0.123 A 
ATOM      9  C   UNL     1      16.459  -2.312  29.768  1.00  0.00     0.094 A 
ATOM     10  C   UNL     1      17.006  -1.911  28.547  1.00  0.00     0.146 A 
ATOM     11  O   UNL     1      16.335  -1.035  27.808  1.00  0.00    -0.451 OA
ENDROOT
BRANCH   1  12
ATOM     12  C   UNL     1      15.918   0.372  25.897  1.00  0.00     0.063 A 
ATOM     13  C   UNL     1      14.684   0.973  23.891  1.00  0.00     0.047 A 
ATOM     14  C   UNL     1      15.467   0.063  24.605  1.00  0.00     0.020 A 
ATOM     15  C   UNL     1      14.353   2.210  24.457  1.00  0.00     0.119 A 
ATOM     16  C   UNL     1      14.817   2.536  25.735  1.00  0.00     0.093 A 
ATOM     17  C   UNL     1      15.609   1.629  26.456  1.00  0.00     0.130 A 
BRANCH  15  18
ATOM     18  O   UNL     1      13.569   3.124  23.756  1.00  0.00    -0.508 OA
ATOM     19  H   UNL     1      13.236   2.927  22.819  1.00  0.00     0.293 HD
ENDBRANCH  15  18
BRANCH  17  20
ATOM     20  O   UNL     1      16.106   1.987  27.710  1.00  0.00    -0.507 OA
ATOM     21  H   UNL     1      16.054   2.940  28.049  1.00  0.00     0.293 HD
ENDBRANCH  17  20
ENDBRANCH   1  12
BRANCH   2  22
ATOM     22  O   UNL     1      18.413  -0.621  24.856  1.00  0.00    -0.502 OA
ATOM     23  H   UNL     1      18.980  -1.186  24.234  1.00  0.00     0.293 HD
ENDBRANCH   2  22
BRANCH   6  24
ATOM     24  O   UNL     1      20.211  -3.868  28.682  1.00  0.00    -0.507 OA
ATOM     25  H   UNL     1      20.585  -4.723  29.064  1.00  0.00     0.293 HD
ENDBRANCH   6  24
BRANCH   8  26
ATOM     26  O   UNL     1      16.566  -3.666  31.773  1.00  0.00    -0.508 OA
ATOM     27  H   UNL     1      16.827  -4.548  32.198  1.00  0.00     0.293 HD
ENDBRANCH   8  26
TORSDOF 6
ENDMDL
MODEL 4
REMARK VINA RESULT:    -2.010     10.989     13.833
REMARK INTER + INTRA:          -2.735
REMARK INTER:                  -2.517
REMARK INTRA:                  -0.217
REMARK UNBOUND:                -0.313
REMARK SMILES O=c1c(O)c(-c2ccc(O)cc2O)oc2cc(O)cc(O)c12
REMARK SMILES IDX 5 1 3 2 2 3 1 4 22 5 20 6 19 7 17 8 16 9 15 10 14 11 6 12
REMARK SMILES IDX 8 13 7 14 9 15 11 16 12 17 10 18 13 20 4 22 21 24 18 26
REMARK H PARENT 10 19 13 21 4 23 21 25 18 27
REMARK Flexibility Score: inf
ROOT
ATOM      1  C   UNL     1      13.325 -13.061  28.406  1.00  0.00     0.184 A 
ATOM      2  C   UNL     1      12.038 -12.933  27.863  1.00  0.00     0.208 A 
ATOM      3  C   UNL     1      11.205 -11.901  28.321  1.00  0.00     0.238 A 
ATOM      4  O   UNL     1      10.081 -11.746  27.778  1.00  0.00    -0.285 OA
ATOM      5  C   UNL     1      11.651 -11.043  29.358  1.00  0.00     0.111 A 
ATOM      6  C   UNL     1      10.875  -9.991  29.932  1.00  0.00     0.134 A 
ATOM      7  C   UNL     1      11.459  -9.140  30.879  1.00  0.00     0.093 A 
ATOM      8  C   UNL     1      12.766  -9.341  31.319  1.00  0.00     0.123 A 
ATOM      9  C   UNL     1      13.515 -10.400  30.805  1.00  0.00     0.094 A 
ATOM     10  C   UNL     1      12.975 -11.243  29.832  1.00  0.00     0.146 A 
ATOM     11  O   UNL     1      13.730 -12.225  29.354  1.00  0.00    -0.451 OA
ENDROOT
BRANCH   1  12
ATOM     12  C   UNL     1      14.254 -14.121  27.962  1.00  0.00     0.063 A 
ATOM     13  C   UNL     1      15.368 -15.274  26.135  1.00  0.00     0.047 A 
ATOM     14  C   UNL     1      14.498 -14.280  26.589  1.00  0.00     0.020 A 
ATOM     15  C   UNL     1      15.994 -16.131  27.048  1.00  0.00     0.119 A 
ATOM     16  C   UNL     1      15.739 -15.995  28.416  1.00  0.00     0.093 A 
ATOM     17  C   UNL     1      14.863 -15.002  28.880  1.00  0.00     0.130 A 
BRANCH  15  18
ATOM     18  O   UNL     1      16.866 -17.125  26.607  1.00  0.00    -0.508 OA
ATOM     19  H   UNL     1      17.688 -17.383  27.139  1.00  0.00     0.293 HD
ENDBRANCH  15  18
BRANCH  17  20
ATOM     20  O   UNL     1      14.580 -14.908  30.243  1.00  0.00    -0.507 OA
ATOM     21  H   UNL     1      14.215 -15.696  30.765  1.00  0.00     0.293 HD
ENDBRANCH  17  20
ENDBRANCH   1  12
BRANCH   2  22
ATOM     22  O   UNL     1      11.596 -13.836  26.892  1.00  0.00    -0.502 OA
ATOM     23  H   UNL     1      12.220 -14.490  26.434  1.00  0.00     0.293 HD
ENDBRANCH   2  22
BRANCH   6  24
ATOM     24  O   UNL     1       9.530  -9.755  29.629  1.00  0.00    -0.507 OA
ATOM     25  H   UNL     1       8.771 -10.384  29.837  1.00  0.00     0.293 HD
ENDBRANCH   6  24
BRANCH   8  26
ATOM     26  O   UNL     1      13.308  -8.485  32.274  1.00  0.00    -0.508 OA
ATOM     27  H   UNL     1      14.310  -8.377  32.382  1.00  0.00     0.293 HD
ENDBRANCH   8  26
TORSDOF 6
ENDMDL
MODEL 5
REMARK VINA RESULT:    -1.182      2.483      6.332
REMARK INTER + INTRA:          -1.736
REMARK INTER:                  -1.414
REMARK INTRA:                  -0.323
REMARK UNBOUND:                -0.313
REMARK SMILES O=c1c(O)c(-c2ccc(O)cc2O)oc2cc(O)cc(O)c12
REMARK SMILES IDX 5 1 3 2 2 3 1 4 22 5 20 6 19 7 17 8 16 9 15 10 14 11 6 12
REMARK SMILES IDX 8 13 7 14 9 15 11 16 12 17 10 18 13 20 4 22 21 24 18 26
REMARK H PARENT 10 19 13 21 4 23 21 25 18 27
REMARK Flexibility Score: inf
ROOT
ATOM      1  C   UNL     1      15.787  -1.828  26.926  1.00  0.00     0.184 A 
ATOM      2  C   UNL     1      15.854  -1.243  28.199  1.00  0.00     0.208 A 
ATOM      3  C   UNL     1      15.583   0.127  28.335  1.00  0.00     0.238 A 
ATOM      4  O   UNL     1      15.572   0.629  29.488  1.00  0.00    -0.285 OA
ATOM      5  C   UNL     1      15.301   0.907  27.185  1.00  0.00     0.111 A 
ATOM      6  C   UNL     1      15.054   2.313  27.198  1.00  0.00     0.134 A 
ATOM      7  C   UNL     1      14.682   2.959  26.013  1.00  0.00     0.093 A 
ATOM      8  C   UNL     1      14.610   2.266  24.806  1.00  0.00     0.123 A 
ATOM      9  C   UNL     1      14.903   0.903  24.771  1.00  0.00     0.094 A 
ATOM     10  C   UNL     1      15.240   0.221  25.943  1.00  0.00     0.146 A 
ATOM     11  O   UNL     1      15.489  -1.081  25.869  1.00  0.00    -0.451 OA
ENDROOT
BRANCH   1  12
ATOM     12  C   UNL     1      16.053  -3.266  26.715  1.00  0.00     0.063 A 
ATOM     13  C   UNL     1      15.196  -5.484  26.211  1.00  0.00     0.047 A 
ATOM     14  C   UNL     1      14.980  -4.119  26.411  1.00  0.00     0.020 A 
ATOM     15  C   UNL     1      16.486  -6.016  26.324  1.00  0.00     0.119 A 
ATOM     16  C   UNL     1      17.557  -5.178  26.649  1.00  0.00     0.093 A 
ATOM     17  C   UNL     1      17.348  -3.806  26.857  1.00  0.00     0.130 A 
BRANCH  15  18
ATOM     18  O   UNL     1      16.713  -7.376  26.123  1.00  0.00    -0.508 OA
ATOM     19  H   UNL     1      16.361  -8.073  26.769  1.00  0.00     0.293 HD
ENDBRANCH  15  18
BRANCH  17  20
ATOM     20  O   UNL     1      18.417  -2.990  27.228  1.00  0.00    -0.507 OA
ATOM     21  H   UNL     1      19.342  -3.369  27.393  1.00  0.00     0.293 HD
ENDBRANCH  17  20
ENDBRANCH   1  12
BRANCH   2  22
ATOM     22  O   UNL     1      16.204  -2.020  29.307  1.00  0.00    -0.502 OA
ATOM     23  H   UNL     1      17.013  -1.813  29.881  1.00  0.00     0.293 HD
ENDBRANCH   2  22
BRANCH   6  24
ATOM     24  O   UNL     1      15.183   3.120  28.333  1.00  0.00    -0.507 OA
ATOM     25  H   UNL     1      15.891   3.013  29.042  1.00  0.00     0.293 HD
ENDBRANCH   6  24
BRANCH   8  26
ATOM     26  O   UNL     1      14.253   2.945  23.643  1.00  0.00    -0.508 OA
ATOM     27  H   UNL     1      14.832   2.914  22.812  1.00  0.00     0.293 HD
ENDBRANCH   8  26
TORSDOF 6
ENDMDL
