MODEL 1
REMARK VINA RESULT:    -5.398      0.000      0.000
REMARK INTER + INTRA:          -6.108
REMARK INTER:                  -5.871
REMARK INTRA:                  -0.237
REMARK UNBOUND:                -0.237
REMARK SMILES C[C@H]1[C@H]2C3=CC[C@H]4[C@]5(C)CC[C@@H](O)C(C)(C)[C@@H]5CC[C@@]4(C)[C@@]3(C)CC[C@@]2(C(=O)[O-])CC[C@@H]1C
REMARK SMILES IDX 26 1 30 2 25 3 3 4 31 5 24 6 4 7 2 8 32 9 22 10 5 11 1 12
REMARK SMILES IDX 33 13 23 14 20 15 6 16 7 17 19 18 21 19 8 20 18 21 17 22
REMARK SMILES IDX 10 23 9 24 14 25 11 26 12 27 15 28 16 29 27 30 28 31 29 32
REMARK SMILES IDX 13 33
REMARK H PARENT 13 34
REMARK Flexibility Score: inf
ROOT
ATOM      1  C   UNL     1       3.680  -7.734  12.117  1.00  0.00     0.017 C 
ATOM      2  C   UNL     1       2.693  -7.033  13.125  1.00  0.00     0.014 C 
ATOM      3  C   UNL     1       5.141  -7.234  12.395  1.00  0.00     0.014 C 
ATOM      4  C   UNL     1       3.208  -7.475  10.633  1.00  0.00     0.030 C 
ATOM      5  C   UNL     1       1.244  -7.074  12.639  1.00  0.00     0.004 C 
ATOM      6  C   UNL     1       5.948  -6.729  11.181  1.00  0.00     0.013 C 
ATOM      7  C   UNL     1       4.298  -7.640   9.560  1.00  0.00    -0.063 C 
ATOM      8  C   UNL     1       2.334  -6.192  10.444  1.00  0.00    -0.003 C 
ATOM      9  C   UNL     1       1.046  -6.259  11.333  1.00  0.00    -0.011 C 
ATOM     10  C   UNL     1       5.792  -7.563   9.864  1.00  0.00    -0.006 C 
ATOM     11  C   UNL     1       3.895  -7.945   8.318  1.00  0.00    -0.027 C 
ATOM     12  C   UNL     1       3.089  -4.862  10.649  1.00  0.00     0.008 C 
ATOM     13  C   UNL     1      -0.140  -6.849  10.542  1.00  0.00     0.008 C 
ATOM     14  C   UNL     1       6.307  -9.013  10.115  1.00  0.00     0.017 C 
ATOM     15  C   UNL     1       6.592  -6.915   8.606  1.00  0.00    -0.020 C 
ATOM     16  C   UNL     1       4.810  -8.159   7.151  1.00  0.00     0.032 C 
ATOM     17  C   UNL     1       6.330  -7.767   7.290  1.00  0.00     0.006 C 
ATOM     18  C   UNL     1       6.092  -5.475   8.299  1.00  0.00     0.008 C 
ATOM     19  C   UNL     1       8.125  -6.879   8.948  1.00  0.00     0.012 C 
ATOM     20  C   UNL     1       6.880  -7.167   5.895  1.00  0.00    -0.025 C 
ATOM     21  C   UNL     1       6.665  -4.853   7.019  1.00  0.00     0.005 C 
ATOM     22  C   UNL     1       6.402  -5.667   5.715  1.00  0.00     0.003 C 
ATOM     23  C   UNL     1       8.441  -7.220   5.788  1.00  0.00     0.010 C 
ATOM     24  C   UNL     1       6.332  -8.104   4.753  1.00  0.00     0.012 C 
ATOM     25  C   UNL     1       7.000  -4.923   4.435  1.00  0.00    -0.006 C 
ATOM     26  C   UNL     1       9.020  -6.555   4.526  1.00  0.00     0.033 C 
ATOM     27  C   UNL     1       8.555  -5.090   4.385  1.00  0.00     0.120 C 
ATOM     28  C   UNL     1       6.689  -3.399   4.481  1.00  0.00     0.014 C 
ATOM     29  C   UNL     1       6.335  -5.437   3.126  1.00  0.00     0.014 C 
ENDROOT
BRANCH   1  30
ATOM     30  C   UNL     1       3.635  -9.244  12.408  1.00  0.00     0.048 C 
ATOM     31  O   UNL     1       4.537  -9.781  13.112  1.00  0.00    -0.550 OA
ATOM     32  O   UNL     1       2.636 -10.057  11.874  1.00  0.00    -0.550 OA
ENDBRANCH   1  30
BRANCH  27  33
ATOM     33  O   UNL     1       9.107  -4.496   3.233  1.00  0.00    -0.393 OA
ATOM     34  H   UNL     1       9.352  -5.216   2.594  1.00  0.00     0.210 HD
ENDBRANCH  27  33
TORSDOF 2
ENDMDL
MODEL 2
REMARK VINA RESULT:    -4.949     14.806     18.323
REMARK INTER + INTRA:          -5.620
REMARK INTER:                  -5.444
REMARK INTRA:                  -0.176
REMARK UNBOUND:                -0.237
REMARK SMILES C[C@H]1[C@H]2C3=CC[C@H]4[C@]5(C)CC[C@@H](O)C(C)(C)[C@@H]5CC[C@@]4(C)[C@@]3(C)CC[C@@]2(C(=O)[O-])CC[C@@H]1C
REMARK SMILES IDX 26 1 30 2 25 3 3 4 31 5 24 6 4 7 2 8 32 9 22 10 5 11 1 12
REMARK SMILES IDX 33 13 23 14 20 15 6 16 7 17 19 18 21 19 8 20 18 21 17 22
REMARK SMILES IDX 10 23 9 24 14 25 11 26 12 27 15 28 16 29 27 30 28 31 29 32
REMARK SMILES IDX 13 33
REMARK H PARENT 13 34
REMARK Flexibility Score: inf
ROOT
ATOM      1  C   UNL     1       5.063   7.059  -5.684  1.00  0.00     0.017 C 
ATOM      2  C   UNL     1       3.842   7.915  -6.190  1.00  0.00     0.014 C 
ATOM      3  C   UNL     1       6.043   6.803  -6.882  1.00  0.00     0.014 C 
ATOM      4  C   UNL     1       4.545   5.728  -5.012  1.00  0.00     0.030 C 
ATOM      5  C   UNL     1       2.633   7.808  -5.259  1.00  0.00     0.004 C 
ATOM      6  C   UNL     1       6.484   5.345  -7.123  1.00  0.00     0.013 C 
ATOM      7  C   UNL     1       5.576   4.588  -4.937  1.00  0.00    -0.063 C 
ATOM      8  C   UNL     1       3.132   5.263  -5.496  1.00  0.00    -0.003 C 
ATOM      9  C   UNL     1       2.057   6.368  -5.219  1.00  0.00    -0.011 C 
ATOM     10  C   UNL     1       6.805   4.508  -5.839  1.00  0.00    -0.006 C 
ATOM     11  C   UNL     1       5.408   3.672  -3.972  1.00  0.00    -0.027 C 
ATOM     12  C   UNL     1       3.078   4.781  -6.960  1.00  0.00     0.008 C 
ATOM     13  C   UNL     1       1.365   6.136  -3.861  1.00  0.00     0.008 C 
ATOM     14  C   UNL     1       7.998   5.170  -5.084  1.00  0.00     0.017 C 
ATOM     15  C   UNL     1       7.165   2.958  -6.166  1.00  0.00    -0.020 C 
ATOM     16  C   UNL     1       6.315   2.504  -3.735  1.00  0.00     0.032 C 
ATOM     17  C   UNL     1       7.405   2.151  -4.817  1.00  0.00     0.006 C 
ATOM     18  C   UNL     1       5.992   2.246  -6.896  1.00  0.00     0.008 C 
ATOM     19  C   UNL     1       8.449   2.919  -7.071  1.00  0.00     0.012 C 
ATOM     20  C   UNL     1       7.580   0.549  -4.930  1.00  0.00    -0.025 C 
ATOM     21  C   UNL     1       6.172   0.734  -7.087  1.00  0.00     0.005 C 
ATOM     22  C   UNL     1       6.391  -0.075  -5.772  1.00  0.00     0.003 C 
ATOM     23  C   UNL     1       8.940   0.135  -5.585  1.00  0.00     0.010 C 
ATOM     24  C   UNL     1       7.618  -0.006  -3.456  1.00  0.00     0.012 C 
ATOM     25  C   UNL     1       6.530  -1.639  -6.068  1.00  0.00    -0.006 C 
ATOM     26  C   UNL     1       9.103  -1.378  -5.820  1.00  0.00     0.033 C 
ATOM     27  C   UNL     1       7.944  -1.958  -6.657  1.00  0.00     0.120 C 
ATOM     28  C   UNL     1       5.468  -2.105  -7.105  1.00  0.00     0.014 C 
ATOM     29  C   UNL     1       6.249  -2.478  -4.788  1.00  0.00     0.014 C 
ENDROOT
BRANCH   1  30
ATOM     30  C   UNL     1       5.809   7.901  -4.635  1.00  0.00     0.048 C 
ATOM     31  O   UNL     1       6.920   8.432  -4.921  1.00  0.00    -0.550 OA
ATOM     32  O   UNL     1       5.309   8.063  -3.344  1.00  0.00    -0.550 OA
ENDBRANCH   1  30
BRANCH  27  33
ATOM     33  O   UNL     1       8.120  -3.338  -6.872  1.00  0.00    -0.393 OA
ATOM     34  H   UNL     1       8.696  -3.461  -7.672  1.00  0.00     0.210 HD
ENDBRANCH  27  33
TORSDOF 2
ENDMDL
MODEL 3
REMARK VINA RESULT:    -4.945      1.936      8.305
REMARK INTER + INTRA:          -5.615
REMARK INTER:                  -5.355
REMARK INTRA:                  -0.260
REMARK UNBOUND:                -0.237
REMARK SMILES C[C@H]1[C@H]2C3=CC[C@H]4[C@]5(C)CC[C@@H](O)C(C)(C)[C@@H]5CC[C@@]4(C)[C@@]3(C)CC[C@@]2(C(=O)[O-])CC[C@@H]1C
REMARK SMILES IDX 26 1 30 2 25 3 3 4 31 5 24 6 4 7 2 8 32 9 22 10 5 11 1 12
REMARK SMILES IDX 33 13 23 14 20 15 6 16 7 17 19 18 21 19 8 20 18 21 17 22
REMARK SMILES IDX 10 23 9 24 14 25 11 26 12 27 15 28 16 29 27 30 28 31 29 32
REMARK SMILES IDX 13 33
REMARK H PARENT 13 34
REMARK Flexibility Score: inf
ROOT
ATOM      1  C   UNL     1       8.079  -3.933   3.604  1.00  0.00     0.017 C 
ATOM      2  C   UNL     1       9.100  -4.274   2.454  1.00  0.00     0.014 C 
ATOM      3  C   UNL     1       8.865  -3.367   4.838  1.00  0.00     0.014 C 
ATOM      4  C   UNL     1       7.215  -5.207   3.951  1.00  0.00     0.030 C 
ATOM      5  C   UNL     1       8.517  -5.251   1.432  1.00  0.00     0.004 C 
ATOM      6  C   UNL     1       8.564  -4.005   6.209  1.00  0.00     0.013 C 
ATOM      7  C   UNL     1       6.561  -5.196   5.344  1.00  0.00    -0.063 C 
ATOM      8  C   UNL     1       7.892  -6.570   3.590  1.00  0.00    -0.003 C 
ATOM      9  C   UNL     1       8.222  -6.640   2.060  1.00  0.00    -0.011 C 
ATOM     10  C   UNL     1       7.058  -4.327   6.497  1.00  0.00    -0.006 C 
ATOM     11  C   UNL     1       5.453  -5.933   5.508  1.00  0.00    -0.027 C 
ATOM     12  C   UNL     1       9.124  -6.926   4.447  1.00  0.00     0.008 C 
ATOM     13  C   UNL     1       7.077  -7.316   1.279  1.00  0.00     0.008 C 
ATOM     14  C   UNL     1       6.242  -2.998   6.484  1.00  0.00     0.017 C 
ATOM     15  C   UNL     1       6.833  -5.087   7.915  1.00  0.00    -0.020 C 
ATOM     16  C   UNL     1       4.673  -6.033   6.783  1.00  0.00     0.032 C 
ATOM     17  C   UNL     1       5.296  -5.449   8.107  1.00  0.00     0.006 C 
ATOM     18  C   UNL     1       7.607  -6.435   7.965  1.00  0.00     0.008 C 
ATOM     19  C   UNL     1       7.331  -4.150   9.074  1.00  0.00     0.012 C 
ATOM     20  C   UNL     1       4.905  -6.384   9.366  1.00  0.00    -0.025 C 
ATOM     21  C   UNL     1       7.311  -7.304   9.194  1.00  0.00     0.005 C 
ATOM     22  C   UNL     1       5.811  -7.683   9.388  1.00  0.00     0.003 C 
ATOM     23  C   UNL     1       5.046  -5.640  10.736  1.00  0.00     0.010 C 
ATOM     24  C   UNL     1       3.376  -6.730   9.213  1.00  0.00     0.012 C 
ATOM     25  C   UNL     1       5.608  -8.618  10.668  1.00  0.00    -0.006 C 
ATOM     26  C   UNL     1       4.795  -6.524  11.972  1.00  0.00     0.033 C 
ATOM     27  C   UNL     1       5.702  -7.772  11.980  1.00  0.00     0.120 C 
ATOM     28  C   UNL     1       6.708  -9.718  10.733  1.00  0.00     0.014 C 
ATOM     29  C   UNL     1       4.260  -9.391  10.589  1.00  0.00     0.014 C 
ENDROOT
BRANCH   1  30
ATOM     30  C   UNL     1       7.156  -2.820   3.080  1.00  0.00     0.048 C 
ATOM     31  O   UNL     1       7.600  -1.646   2.929  1.00  0.00    -0.550 OA
ATOM     32  O   UNL     1       5.811  -3.061   2.805  1.00  0.00    -0.550 OA
ENDBRANCH   1  30
BRANCH  27  33
ATOM     33  O   UNL     1       5.468  -8.558  13.125  1.00  0.00    -0.393 OA
ATOM     34  H   UNL     1       4.692  -9.151  12.946  1.00  0.00     0.210 HD
ENDBRANCH  27  33
TORSDOF 2
ENDMDL
MODEL 4
REMARK VINA RESULT:    -4.936      2.239      3.700
REMARK INTER + INTRA:          -5.606
REMARK INTER:                  -5.388
REMARK INTRA:                  -0.218
REMARK UNBOUND:                -0.237
REMARK SMILES C[C@H]1[C@H]2C3=CC[C@H]4[C@]5(C)CC[C@@H](O)C(C)(C)[C@@H]5CC[C@@]4(C)[C@@]3(C)CC[C@@]2(C(=O)[O-])CC[C@@H]1C
REMARK SMILES IDX 26 1 30 2 25 3 3 4 31 5 24 6 4 7 2 8 32 9 22 10 5 11 1 12
REMARK SMILES IDX 33 13 23 14 20 15 6 16 7 17 19 18 21 19 8 20 18 21 17 22
REMARK SMILES IDX 10 23 9 24 14 25 11 26 12 27 15 28 16 29 27 30 28 31 29 32
REMARK SMILES IDX 13 33
REMARK H PARENT 13 34
REMARK Flexibility Score: inf
ROOT
ATOM      1  C   UNL     1       6.380  -6.187  10.205  1.00  0.00     0.017 C 
ATOM      2  C   UNL     1       5.199  -5.846  11.190  1.00  0.00     0.014 C 
ATOM      3  C   UNL     1       6.942  -4.854   9.596  1.00  0.00     0.014 C 
ATOM      4  C   UNL     1       5.889  -7.210   9.110  1.00  0.00     0.030 C 
ATOM      5  C   UNL     1       4.295  -7.052  11.450  1.00  0.00     0.004 C 
ATOM      6  C   UNL     1       7.091  -4.798   8.062  1.00  0.00     0.013 C 
ATOM      7  C   UNL     1       6.730  -7.245   7.821  1.00  0.00    -0.063 C 
ATOM      8  C   UNL     1       4.347  -7.194   8.849  1.00  0.00    -0.003 C 
ATOM      9  C   UNL     1       3.556  -7.511  10.164  1.00  0.00    -0.011 C 
ATOM     10  C   UNL     1       7.636  -6.098   7.380  1.00  0.00    -0.006 C 
ATOM     11  C   UNL     1       6.712  -8.380   7.107  1.00  0.00    -0.027 C 
ATOM     12  C   UNL     1       3.821  -5.911   8.173  1.00  0.00     0.008 C 
ATOM     13  C   UNL     1       3.245  -9.018  10.270  1.00  0.00     0.008 C 
ATOM     14  C   UNL     1       9.073  -6.389   7.913  1.00  0.00     0.017 C 
ATOM     15  C   UNL     1       7.670  -5.997   5.759  1.00  0.00    -0.020 C 
ATOM     16  C   UNL     1       7.476  -8.604   5.839  1.00  0.00     0.032 C 
ATOM     17  C   UNL     1       8.161  -7.374   5.132  1.00  0.00     0.006 C 
ATOM     18  C   UNL     1       6.253  -5.735   5.178  1.00  0.00     0.008 C 
ATOM     19  C   UNL     1       8.633  -4.826   5.348  1.00  0.00     0.012 C 
ATOM     20  C   UNL     1       8.071  -7.532   3.526  1.00  0.00    -0.025 C 
ATOM     21  C   UNL     1       6.160  -5.802   3.647  1.00  0.00     0.005 C 
ATOM     22  C   UNL     1       6.620  -7.151   3.017  1.00  0.00     0.003 C 
ATOM     23  C   UNL     1       9.124  -6.652   2.773  1.00  0.00     0.010 C 
ATOM     24  C   UNL     1       8.440  -9.029   3.200  1.00  0.00     0.012 C 
ATOM     25  C   UNL     1       6.452  -7.138   1.428  1.00  0.00    -0.006 C 
ATOM     26  C   UNL     1       9.002  -6.681   1.238  1.00  0.00     0.033 C 
ATOM     27  C   UNL     1       7.586  -6.288   0.767  1.00  0.00     0.120 C 
ATOM     28  C   UNL     1       5.088  -6.509   1.019  1.00  0.00     0.014 C 
ATOM     29  C   UNL     1       6.423  -8.585   0.856  1.00  0.00     0.014 C 
ENDROOT
BRANCH   1  30
ATOM     30  C   UNL     1       7.499  -6.833  11.040  1.00  0.00     0.048 C 
ATOM     31  O   UNL     1       8.058  -6.178  11.965  1.00  0.00    -0.550 OA
ATOM     32  O   UNL     1       7.951  -8.125  10.773  1.00  0.00    -0.550 OA
ENDBRANCH   1  30
BRANCH  27  33
ATOM     33  O   UNL     1       7.500  -6.307  -0.638  1.00  0.00    -0.393 OA
ATOM     34  H   UNL     1       6.580  -6.581  -0.894  1.00  0.00     0.210 HD
ENDBRANCH  27  33
TORSDOF 2
ENDMDL
MODEL 5
REMARK VINA RESULT:    -4.656      3.957      6.756
REMARK INTER + INTRA:          -5.302
REMARK INTER:                  -5.322
REMARK INTRA:                   0.021
REMARK UNBOUND:                -0.237
REMARK SMILES C[C@H]1[C@H]2C3=CC[C@H]4[C@]5(C)CC[C@@H](O)C(C)(C)[C@@H]5CC[C@@]4(C)[C@@]3(C)CC[C@@]2(C(=O)[O-])CC[C@@H]1C
REMARK SMILES IDX 26 1 30 2 25 3 3 4 31 5 24 6 4 7 2 8 32 9 22 10 5 11 1 12
REMARK SMILES IDX 33 13 23 14 20 15 6 16 7 17 19 18 21 19 8 20 18 21 17 22
REMARK SMILES IDX 10 23 9 24 14 25 11 26 12 27 15 28 16 29 27 30 28 31 29 32
REMARK SMILES IDX 13 33
REMARK H PARENT 13 34
REMARK Flexibility Score: inf
ROOT
ATOM      1  C   UNL     1       6.936  -4.597   7.461  1.00  0.00     0.017 C 
ATOM      2  C   UNL     1       6.386  -4.944   8.895  1.00  0.00     0.014 C 
ATOM      3  C   UNL     1       5.786  -3.947   6.613  1.00  0.00     0.014 C 
ATOM      4  C   UNL     1       7.544  -5.890   6.791  1.00  0.00     0.030 C 
ATOM      5  C   UNL     1       7.247  -5.988   9.609  1.00  0.00     0.004 C 
ATOM      6  C   UNL     1       5.533  -4.539   5.212  1.00  0.00     0.013 C 
ATOM      7  C   UNL     1       7.646  -5.846   5.256  1.00  0.00    -0.063 C 
ATOM      8  C   UNL     1       6.972  -7.238   7.341  1.00  0.00    -0.003 C 
ATOM      9  C   UNL     1       7.218  -7.359   8.883  1.00  0.00    -0.011 C 
ATOM     10  C   UNL     1       6.811  -4.910   4.386  1.00  0.00    -0.006 C 
ATOM     11  C   UNL     1       8.578  -6.621   4.681  1.00  0.00    -0.027 C 
ATOM     12  C   UNL     1       5.495  -7.506   6.985  1.00  0.00     0.008 C 
ATOM     13  C   UNL     1       8.530  -8.115   9.175  1.00  0.00     0.008 C 
ATOM     14  C   UNL     1       7.647  -3.618   4.132  1.00  0.00     0.017 C 
ATOM     15  C   UNL     1       6.465  -5.618   2.965  1.00  0.00    -0.020 C 
ATOM     16  C   UNL     1       8.834  -6.699   3.207  1.00  0.00     0.032 C 
ATOM     17  C   UNL     1       7.804  -6.034   2.217  1.00  0.00     0.006 C 
ATOM     18  C   UNL     1       5.654  -6.929   3.169  1.00  0.00     0.008 C 
ATOM     19  C   UNL     1       5.631  -4.613   2.092  1.00  0.00     0.012 C 
ATOM     20  C   UNL     1       7.660  -6.930   0.879  1.00  0.00    -0.025 C 
ATOM     21  C   UNL     1       5.435  -7.757   1.895  1.00  0.00     0.005 C 
ATOM     22  C   UNL     1       6.739  -8.189   1.158  1.00  0.00     0.003 C 
ATOM     23  C   UNL     1       7.070  -6.123  -0.326  1.00  0.00     0.010 C 
ATOM     24  C   UNL     1       9.119  -7.345   0.455  1.00  0.00     0.012 C 
ATOM     25  C   UNL     1       6.412  -9.075  -0.130  1.00  0.00    -0.006 C 
ATOM     26  C   UNL     1       6.806  -6.963  -1.590  1.00  0.00     0.033 C 
ATOM     27  C   UNL     1       5.893  -8.171  -1.296  1.00  0.00     0.120 C 
ATOM     28  C   UNL     1       5.306 -10.125   0.184  1.00  0.00     0.014 C 
ATOM     29  C   UNL     1       7.652  -9.906  -0.569  1.00  0.00     0.014 C 
ENDROOT
BRANCH   1  30
ATOM     30  C   UNL     1       8.044  -3.546   7.638  1.00  0.00     0.048 C 
ATOM     31  O   UNL     1       9.114  -3.634   6.971  1.00  0.00    -0.550 OA
ATOM     32  O   UNL     1       7.920  -2.508   8.560  1.00  0.00    -0.550 OA
ENDBRANCH   1  30
BRANCH  27  33
ATOM     33  O   UNL     1       5.652  -8.916  -2.466  1.00  0.00    -0.393 OA
ATOM     34  H   UNL     1       5.484  -9.861  -2.209  1.00  0.00     0.210 HD
ENDBRANCH  27  33
TORSDOF 2
ENDMDL
MODEL 6
REMARK VINA RESULT:    -4.495      5.360      8.764
REMARK INTER + INTRA:          -5.126
REMARK INTER:                  -4.837
REMARK INTRA:                  -0.289
REMARK UNBOUND:                -0.237
REMARK SMILES C[C@H]1[C@H]2C3=CC[C@H]4[C@]5(C)CC[C@@H](O)C(C)(C)[C@@H]5CC[C@@]4(C)[C@@]3(C)CC[C@@]2(C(=O)[O-])CC[C@@H]1C
REMARK SMILES IDX 26 1 30 2 25 3 3 4 31 5 24 6 4 7 2 8 32 9 22 10 5 11 1 12
REMARK SMILES IDX 33 13 23 14 20 15 6 16 7 17 19 18 21 19 8 20 18 21 17 22
REMARK SMILES IDX 10 23 9 24 14 25 11 26 12 27 15 28 16 29 27 30 28 31 29 32
REMARK SMILES IDX 13 33
REMARK H PARENT 13 34
REMARK Flexibility Score: inf
ROOT
ATOM      1  C   UNL     1       7.871  -7.142   4.464  1.00  0.00     0.017 C 
ATOM      2  C   UNL     1       8.353  -6.058   5.499  1.00  0.00     0.014 C 
ATOM      3  C   UNL     1       9.124  -7.796   3.782  1.00  0.00     0.014 C 
ATOM      4  C   UNL     1       6.872  -6.492   3.429  1.00  0.00     0.030 C 
ATOM      5  C   UNL     1       7.250  -5.057   5.846  1.00  0.00     0.004 C 
ATOM      6  C   UNL     1       9.125  -7.862   2.242  1.00  0.00     0.013 C 
ATOM      7  C   UNL     1       6.720  -7.251   2.099  1.00  0.00    -0.063 C 
ATOM      8  C   UNL     1       7.034  -4.947   3.252  1.00  0.00    -0.003 C 
ATOM      9  C   UNL     1       6.832  -4.205   4.618  1.00  0.00    -0.011 C 
ATOM     10  C   UNL     1       7.759  -8.238   1.574  1.00  0.00    -0.006 C 
ATOM     11  C   UNL     1       5.574  -7.082   1.424  1.00  0.00    -0.027 C 
ATOM     12  C   UNL     1       8.344  -4.510   2.565  1.00  0.00     0.008 C 
ATOM     13  C   UNL     1       5.367  -3.755   4.788  1.00  0.00     0.008 C 
ATOM     14  C   UNL     1       7.342  -9.667   2.037  1.00  0.00     0.017 C 
ATOM     15  C   UNL     1       7.813  -8.190  -0.050  1.00  0.00    -0.020 C 
ATOM     16  C   UNL     1       5.241  -7.747   0.124  1.00  0.00     0.032 C 
ATOM     17  C   UNL     1       6.379  -8.508  -0.658  1.00  0.00     0.006 C 
ATOM     18  C   UNL     1       8.199  -6.773  -0.562  1.00  0.00     0.008 C 
ATOM     19  C   UNL     1       8.872  -9.237  -0.549  1.00  0.00     0.012 C 
ATOM     20  C   UNL     1       6.187  -8.312  -2.250  1.00  0.00    -0.025 C 
ATOM     21  C   UNL     1       8.101  -6.588  -2.082  1.00  0.00     0.005 C 
ATOM     22  C   UNL     1       6.697  -6.878  -2.693  1.00  0.00     0.003 C 
ATOM     23  C   UNL     1       6.939  -9.400  -3.087  1.00  0.00     0.010 C 
ATOM     24  C   UNL     1       4.653  -8.514  -2.548  1.00  0.00     0.012 C 
ATOM     25  C   UNL     1       6.684  -6.621  -4.269  1.00  0.00    -0.006 C 
ATOM     26  C   UNL     1       6.881  -9.189  -4.611  1.00  0.00     0.033 C 
ATOM     27  C   UNL     1       7.400  -7.794  -5.018  1.00  0.00     0.120 C 
ATOM     28  C   UNL     1       7.434  -5.305  -4.624  1.00  0.00     0.014 C 
ATOM     29  C   UNL     1       5.233  -6.420  -4.793  1.00  0.00     0.014 C 
ENDROOT
BRANCH   1  30
ATOM     30  C   UNL     1       7.139  -8.239   5.257  1.00  0.00     0.048 C 
ATOM     31  O   UNL     1       7.794  -9.176   5.796  1.00  0.00    -0.550 OA
ATOM     32  O   UNL     1       5.749  -8.252   5.365  1.00  0.00    -0.550 OA
ENDBRANCH   1  30
BRANCH  27  33
ATOM     33  O   UNL     1       7.353  -7.627  -6.415  1.00  0.00    -0.393 OA
ATOM     34  H   UNL     1       8.265  -7.401  -6.736  1.00  0.00     0.210 HD
ENDBRANCH  27  33
TORSDOF 2
ENDMDL
MODEL 7
REMARK VINA RESULT:    -4.416      6.338     12.338
REMARK INTER + INTRA:          -5.041
REMARK INTER:                  -4.751
REMARK INTRA:                  -0.289
REMARK UNBOUND:                -0.237
REMARK SMILES C[C@H]1[C@H]2C3=CC[C@H]4[C@]5(C)CC[C@@H](O)C(C)(C)[C@@H]5CC[C@@]4(C)[C@@]3(C)CC[C@@]2(C(=O)[O-])CC[C@@H]1C
REMARK SMILES IDX 26 1 30 2 25 3 3 4 31 5 24 6 4 7 2 8 32 9 22 10 5 11 1 12
REMARK SMILES IDX 33 13 23 14 20 15 6 16 7 17 19 18 21 19 8 20 18 21 17 22
REMARK SMILES IDX 10 23 9 24 14 25 11 26 12 27 15 28 16 29 27 30 28 31 29 32
REMARK SMILES IDX 13 33
REMARK H PARENT 13 34
REMARK Flexibility Score: inf
ROOT
ATOM      1  C   UNL     1       5.534  -7.937  -5.060  1.00  0.00     0.017 C 
ATOM      2  C   UNL     1       4.691  -7.334  -6.246  1.00  0.00     0.014 C 
ATOM      3  C   UNL     1       4.595  -8.807  -4.152  1.00  0.00     0.014 C 
ATOM      4  C   UNL     1       6.260  -6.779  -4.271  1.00  0.00     0.030 C 
ATOM      5  C   UNL     1       5.373  -6.123  -6.884  1.00  0.00     0.004 C 
ATOM      6  C   UNL     1       4.638  -8.528  -2.636  1.00  0.00     0.013 C 
ATOM      7  C   UNL     1       6.684  -7.131  -2.834  1.00  0.00    -0.063 C 
ATOM      8  C   UNL     1       5.574  -5.379  -4.396  1.00  0.00    -0.003 C 
ATOM      9  C   UNL     1       5.488  -4.932  -5.895  1.00  0.00    -0.011 C 
ATOM     10  C   UNL     1       6.059  -8.268  -2.030  1.00  0.00    -0.006 C 
ATOM     11  C   UNL     1       7.710  -6.443  -2.312  1.00  0.00    -0.027 C 
ATOM     12  C   UNL     1       4.204  -5.268  -3.696  1.00  0.00     0.008 C 
ATOM     13  C   UNL     1       6.703  -4.066  -6.283  1.00  0.00     0.008 C 
ATOM     14  C   UNL     1       6.939  -9.539  -2.231  1.00  0.00     0.017 C 
ATOM     15  C   UNL     1       6.014  -7.885  -0.452  1.00  0.00    -0.020 C 
ATOM     16  C   UNL     1       8.270  -6.655  -0.939  1.00  0.00     0.032 C 
ATOM     17  C   UNL     1       7.478  -7.561   0.078  1.00  0.00     0.006 C 
ATOM     18  C   UNL     1       5.169  -6.604  -0.204  1.00  0.00     0.008 C 
ATOM     19  C   UNL     1       5.391  -9.090   0.341  1.00  0.00     0.012 C 
ATOM     20  C   UNL     1       7.612  -6.967   1.574  1.00  0.00    -0.025 C 
ATOM     21  C   UNL     1       5.217  -6.067   1.233  1.00  0.00     0.005 C 
ATOM     22  C   UNL     1       6.643  -5.728   1.762  1.00  0.00     0.003 C 
ATOM     23  C   UNL     1       7.297  -8.033   2.677  1.00  0.00     0.010 C 
ATOM     24  C   UNL     1       9.125  -6.572   1.769  1.00  0.00     0.012 C 
ATOM     25  C   UNL     1       6.588  -5.142   3.247  1.00  0.00    -0.006 C 
ATOM     26  C   UNL     1       7.299  -7.485   4.116  1.00  0.00     0.033 C 
ATOM     27  C   UNL     1       6.334  -6.291   4.277  1.00  0.00     0.120 C 
ATOM     28  C   UNL     1       5.433  -4.109   3.395  1.00  0.00     0.014 C 
ATOM     29  C   UNL     1       7.887  -4.355   3.588  1.00  0.00     0.014 C 
ENDROOT
BRANCH   1  30
ATOM     30  C   UNL     1       6.589  -8.871  -5.679  1.00  0.00     0.048 C 
ATOM     31  O   UNL     1       6.293 -10.068  -5.953  1.00  0.00    -0.550 OA
ATOM     32  O   UNL     1       7.895  -8.439  -5.908  1.00  0.00    -0.550 OA
ENDBRANCH   1  30
BRANCH  27  33
ATOM     33  O   UNL     1       6.340  -5.815   5.603  1.00  0.00    -0.393 OA
ATOM     34  H   UNL     1       5.642  -5.114   5.688  1.00  0.00     0.210 HD
ENDBRANCH  27  33
TORSDOF 2
ENDMDL
MODEL 8
REMARK VINA RESULT:    -2.727      1.583      2.177
REMARK INTER + INTRA:          -3.203
REMARK INTER:                  -2.922
REMARK INTRA:                  -0.281
REMARK UNBOUND:                -0.237
REMARK SMILES C[C@H]1[C@H]2C3=CC[C@H]4[C@]5(C)CC[C@@H](O)C(C)(C)[C@@H]5CC[C@@]4(C)[C@@]3(C)CC[C@@]2(C(=O)[O-])CC[C@@H]1C
REMARK SMILES IDX 26 1 30 2 25 3 3 4 31 5 24 6 4 7 2 8 32 9 22 10 5 11 1 12
REMARK SMILES IDX 33 13 23 14 20 15 6 16 7 17 19 18 21 19 8 20 18 21 17 22
REMARK SMILES IDX 10 23 9 24 14 25 11 26 12 27 15 28 16 29 27 30 28 31 29 32
REMARK SMILES IDX 13 33
REMARK H PARENT 13 34
REMARK Flexibility Score: inf
ROOT
ATOM      1  C   UNL     1       3.952  -7.523  11.238  1.00  0.00     0.017 C 
ATOM      2  C   UNL     1       2.492  -7.740  11.786  1.00  0.00     0.014 C 
ATOM      3  C   UNL     1       4.396  -6.045  11.526  1.00  0.00     0.014 C 
ATOM      4  C   UNL     1       4.013  -7.900   9.707  1.00  0.00     0.030 C 
ATOM      5  C   UNL     1       1.806  -8.947  11.146  1.00  0.00     0.004 C 
ATOM      6  C   UNL     1       4.972  -5.246  10.340  1.00  0.00     0.013 C 
ATOM      7  C   UNL     1       5.184  -7.279   8.924  1.00  0.00    -0.063 C 
ATOM      8  C   UNL     1       2.642  -7.807   8.959  1.00  0.00    -0.003 C 
ATOM      9  C   UNL     1       1.580  -8.748   9.624  1.00  0.00    -0.011 C 
ATOM     10  C   UNL     1       5.936  -6.035   9.389  1.00  0.00    -0.006 C 
ATOM     11  C   UNL     1       5.598  -7.924   7.824  1.00  0.00    -0.027 C 
ATOM     12  C   UNL     1       2.096  -6.375   8.789  1.00  0.00     0.008 C 
ATOM     13  C   UNL     1       1.552 -10.125   8.931  1.00  0.00     0.008 C 
ATOM     14  C   UNL     1       7.182  -6.503  10.202  1.00  0.00     0.017 C 
ATOM     15  C   UNL     1       6.423  -5.158   8.111  1.00  0.00    -0.020 C 
ATOM     16  C   UNL     1       6.728  -7.480   6.947  1.00  0.00     0.032 C 
ATOM     17  C   UNL     1       7.335  -6.041   7.153  1.00  0.00     0.006 C 
ATOM     18  C   UNL     1       5.214  -4.691   7.252  1.00  0.00     0.008 C 
ATOM     19  C   UNL     1       7.215  -3.905   8.631  1.00  0.00     0.012 C 
ATOM     20  C   UNL     1       7.751  -5.402   5.728  1.00  0.00    -0.025 C 
ATOM     21  C   UNL     1       5.587  -4.008   5.929  1.00  0.00     0.005 C 
ATOM     22  C   UNL     1       6.467  -4.867   4.970  1.00  0.00     0.003 C 
ATOM     23  C   UNL     1       8.784  -4.235   5.869  1.00  0.00     0.010 C 
ATOM     24  C   UNL     1       8.485  -6.540   4.922  1.00  0.00     0.012 C 
ATOM     25  C   UNL     1       6.771  -4.089   3.608  1.00  0.00    -0.006 C 
ATOM     26  C   UNL     1       9.124  -3.519   4.549  1.00  0.00     0.033 C 
ATOM     27  C   UNL     1       7.860  -2.990   3.840  1.00  0.00     0.120 C 
ATOM     28  C   UNL     1       5.491  -3.383   3.073  1.00  0.00     0.014 C 
ATOM     29  C   UNL     1       7.195  -5.076   2.482  1.00  0.00     0.014 C 
ENDROOT
BRANCH   1  30
ATOM     30  C   UNL     1       4.882  -8.458  12.030  1.00  0.00     0.048 C 
ATOM     31  O   UNL     1       5.383  -8.076  13.125  1.00  0.00    -0.550 OA
ATOM     32  O   UNL     1       5.228  -9.719  11.545  1.00  0.00    -0.550 OA
ENDBRANCH   1  30
BRANCH  27  33
ATOM     33  O   UNL     1       8.194  -2.327   2.643  1.00  0.00    -0.393 OA
ATOM     34  H   UNL     1       9.183  -2.329   2.547  1.00  0.00     0.210 HD
ENDBRANCH  27  33
TORSDOF 2
ENDMDL
