MODEL 1
REMARK VINA RESULT:    -5.816      0.000      0.000
REMARK INTER + INTRA:          -7.328
REMARK INTER:                  -7.007
REMARK INTRA:                  -0.322
REMARK UNBOUND:                -0.322
REMARK SMILES O=c1c(O)c(-c2ccc(O)c(O)c2)oc2cc(O)cc(O)c12
REMARK SMILES IDX 5 1 3 2 2 3 1 4 22 5 20 6 19 7 17 8 16 9 15 10 14 11 6 12
REMARK SMILES IDX 7 13 8 14 9 15 13 16 11 17 10 18 12 20 4 22 21 24 18 26
REMARK H PARENT 10 19 12 21 4 23 21 25 18 27
REMARK Flexibility Score: inf
ROOT
ATOM      1  C   UNL     1    -140.310  60.208   4.275  1.00  0.00     0.180 A 
ATOM      2  C   UNL     1    -139.591  60.186   3.067  1.00  0.00     0.208 A 
ATOM      3  C   UNL     1    -139.398  58.960   2.411  1.00  0.00     0.238 A 
ATOM      4  O   UNL     1    -138.708  58.940   1.359  1.00  0.00    -0.285 OA
ATOM      5  C   UNL     1    -139.939  57.773   2.963  1.00  0.00     0.111 A 
ATOM      6  C   UNL     1    -139.838  56.482   2.362  1.00  0.00     0.134 A 
ATOM      7  C   UNL     1    -140.298  55.358   3.060  1.00  0.00     0.093 A 
ATOM      8  C   UNL     1    -140.912  55.487   4.308  1.00  0.00     0.123 A 
ATOM      9  C   UNL     1    -141.069  56.750   4.875  1.00  0.00     0.094 A 
ATOM     10  C   UNL     1    -140.589  57.886   4.219  1.00  0.00     0.146 A 
ATOM     11  O   UNL     1    -140.748  59.069   4.800  1.00  0.00    -0.452 OA
ENDROOT
BRANCH   1  12
ATOM     12  C   UNL     1    -140.577  61.464   5.012  1.00  0.00     0.025 A 
ATOM     13  C   UNL     1    -139.659  61.974   5.942  1.00  0.00     0.016 A 
ATOM     14  C   UNL     1    -139.921  63.173   6.608  1.00  0.00     0.051 A 
ATOM     15  C   UNL     1    -141.094  63.891   6.352  1.00  0.00     0.157 A 
ATOM     16  C   UNL     1    -141.744  62.193   4.737  1.00  0.00     0.062 A 
ATOM     17  C   UNL     1    -142.016  63.396   5.399  1.00  0.00     0.158 A 
BRANCH  15  18
ATOM     18  O   UNL     1    -141.298  65.080   7.055  1.00  0.00    -0.504 OA
ATOM     19  H   UNL     1    -141.055  65.210   8.026  1.00  0.00     0.293 HD
ENDBRANCH  15  18
BRANCH  17  20
ATOM     20  O   UNL     1    -143.202  64.062   5.083  1.00  0.00    -0.504 OA
ATOM     21  H   UNL     1    -143.242  64.947   4.600  1.00  0.00     0.293 HD
ENDBRANCH  17  20
ENDBRANCH   1  12
BRANCH   2  22
ATOM     22  O   UNL     1    -139.048  61.366   2.553  1.00  0.00    -0.502 OA
ATOM     23  H   UNL     1    -138.299  61.367   1.870  1.00  0.00     0.293 HD
ENDBRANCH   2  22
BRANCH   6  24
ATOM     24  O   UNL     1    -139.325  56.254   1.082  1.00  0.00    -0.507 OA
ATOM     25  H   UNL     1    -139.679  55.566   0.435  1.00  0.00     0.293 HD
ENDBRANCH   6  24
BRANCH   8  26
ATOM     26  O   UNL     1    -141.381  54.365   4.989  1.00  0.00    -0.508 OA
ATOM     27  H   UNL     1    -141.923  53.650   4.521  1.00  0.00     0.293 HD
ENDBRANCH   8  26
TORSDOF 6
ENDMDL
MODEL 2
REMARK VINA RESULT:    -5.808      7.477     10.236
REMARK INTER + INTRA:          -7.318
REMARK INTER:                  -7.438
REMARK INTRA:                   0.121
REMARK UNBOUND:                -0.322
REMARK SMILES O=c1c(O)c(-c2ccc(O)c(O)c2)oc2cc(O)cc(O)c12
REMARK SMILES IDX 5 1 3 2 2 3 1 4 22 5 20 6 19 7 17 8 16 9 15 10 14 11 6 12
REMARK SMILES IDX 7 13 8 14 9 15 13 16 11 17 10 18 12 20 4 22 21 24 18 26
REMARK H PARENT 10 19 12 21 4 23 21 25 18 27
REMARK Flexibility Score: inf
ROOT
ATOM      1  C   UNL     1    -143.224  60.144  -2.987  1.00  0.00     0.180 A 
ATOM      2  C   UNL     1    -143.988  61.231  -2.529  1.00  0.00     0.208 A 
ATOM      3  C   UNL     1    -143.734  62.511  -3.049  1.00  0.00     0.238 A 
ATOM      4  O   UNL     1    -144.384  63.488  -2.595  1.00  0.00    -0.285 OA
ATOM      5  C   UNL     1    -142.729  62.684  -4.032  1.00  0.00     0.111 A 
ATOM      6  C   UNL     1    -142.414  63.929  -4.657  1.00  0.00     0.134 A 
ATOM      7  C   UNL     1    -141.315  64.008  -5.521  1.00  0.00     0.093 A 
ATOM      8  C   UNL     1    -140.559  62.875  -5.831  1.00  0.00     0.123 A 
ATOM      9  C   UNL     1    -140.896  61.644  -5.273  1.00  0.00     0.094 A 
ATOM     10  C   UNL     1    -141.966  61.540  -4.380  1.00  0.00     0.146 A 
ATOM     11  O   UNL     1    -142.245  60.350  -3.862  1.00  0.00    -0.452 OA
ENDROOT
BRANCH   1  12
ATOM     12  C   UNL     1    -143.450  58.762  -2.506  1.00  0.00     0.025 A 
ATOM     13  C   UNL     1    -142.379  57.933  -2.137  1.00  0.00     0.016 A 
ATOM     14  C   UNL     1    -142.617  56.642  -1.663  1.00  0.00     0.051 A 
ATOM     15  C   UNL     1    -143.923  56.156  -1.536  1.00  0.00     0.157 A 
ATOM     16  C   UNL     1    -144.761  58.286  -2.359  1.00  0.00     0.062 A 
ATOM     17  C   UNL     1    -145.011  56.992  -1.885  1.00  0.00     0.158 A 
BRANCH  15  18
ATOM     18  O   UNL     1    -144.093  54.855  -1.061  1.00  0.00    -0.504 OA
ATOM     19  H   UNL     1    -143.754  54.031  -1.538  1.00  0.00     0.293 HD
ENDBRANCH  15  18
BRANCH  17  20
ATOM     20  O   UNL     1    -146.341  56.582  -1.776  1.00  0.00    -0.504 OA
ATOM     21  H   UNL     1    -146.934  56.791  -0.987  1.00  0.00     0.293 HD
ENDBRANCH  17  20
ENDBRANCH   1  12
BRANCH   2  22
ATOM     22  O   UNL     1    -144.959  61.041  -1.542  1.00  0.00    -0.502 OA
ATOM     23  H   UNL     1    -145.445  61.813  -1.101  1.00  0.00     0.293 HD
ENDBRANCH   2  22
BRANCH   6  24
ATOM     24  O   UNL     1    -143.160  65.099  -4.486  1.00  0.00    -0.507 OA
ATOM     25  H   UNL     1    -143.325  65.550  -3.599  1.00  0.00     0.293 HD
ENDBRANCH   6  24
BRANCH   8  26
ATOM     26  O   UNL     1    -139.476  62.960  -6.704  1.00  0.00    -0.508 OA
ATOM     27  H   UNL     1    -139.447  62.427  -7.565  1.00  0.00     0.293 HD
ENDBRANCH   8  26
TORSDOF 6
ENDMDL
MODEL 3
REMARK VINA RESULT:    -5.750      7.623     10.260
REMARK INTER + INTRA:          -7.248
REMARK INTER:                  -7.663
REMARK INTRA:                   0.415
REMARK UNBOUND:                -0.322
REMARK SMILES O=c1c(O)c(-c2ccc(O)c(O)c2)oc2cc(O)cc(O)c12
REMARK SMILES IDX 5 1 3 2 2 3 1 4 22 5 20 6 19 7 17 8 16 9 15 10 14 11 6 12
REMARK SMILES IDX 7 13 8 14 9 15 13 16 11 17 10 18 12 20 4 22 21 24 18 26
REMARK H PARENT 10 19 12 21 4 23 21 25 18 27
REMARK Flexibility Score: inf
ROOT
ATOM      1  C   UNL     1    -143.999  60.142  -2.757  1.00  0.00     0.180 A 
ATOM      2  C   UNL     1    -142.885  60.806  -3.297  1.00  0.00     0.208 A 
ATOM      3  C   UNL     1    -143.010  62.153  -3.673  1.00  0.00     0.238 A 
ATOM      4  O   UNL     1    -142.024  62.726  -4.205  1.00  0.00    -0.285 OA
ATOM      5  C   UNL     1    -144.244  62.823  -3.490  1.00  0.00     0.111 A 
ATOM      6  C   UNL     1    -144.472  64.198  -3.799  1.00  0.00     0.134 A 
ATOM      7  C   UNL     1    -145.767  64.722  -3.700  1.00  0.00     0.093 A 
ATOM      8  C   UNL     1    -146.829  63.938  -3.242  1.00  0.00     0.123 A 
ATOM      9  C   UNL     1    -146.603  62.611  -2.880  1.00  0.00     0.094 A 
ATOM     10  C   UNL     1    -145.329  62.050  -3.003  1.00  0.00     0.146 A 
ATOM     11  O   UNL     1    -145.161  60.779  -2.659  1.00  0.00    -0.452 OA
ENDROOT
BRANCH   1  12
ATOM     12  C   UNL     1    -143.938  58.731  -2.314  1.00  0.00     0.025 A 
ATOM     13  C   UNL     1    -142.711  58.067  -2.154  1.00  0.00     0.016 A 
ATOM     14  C   UNL     1    -142.677  56.743  -1.712  1.00  0.00     0.051 A 
ATOM     15  C   UNL     1    -143.860  56.060  -1.410  1.00  0.00     0.157 A 
ATOM     16  C   UNL     1    -145.125  58.055  -1.990  1.00  0.00     0.062 A 
ATOM     17  C   UNL     1    -145.101  56.726  -1.546  1.00  0.00     0.158 A 
BRANCH  15  18
ATOM     18  O   UNL     1    -143.757  54.736  -0.977  1.00  0.00    -0.504 OA
ATOM     19  H   UNL     1    -144.550  54.146  -0.774  1.00  0.00     0.293 HD
ENDBRANCH  15  18
BRANCH  17  20
ATOM     20  O   UNL     1    -146.321  56.114  -1.254  1.00  0.00    -0.504 OA
ATOM     21  H   UNL     1    -147.144  56.611  -0.947  1.00  0.00     0.293 HD
ENDBRANCH  17  20
ENDBRANCH   1  12
BRANCH   2  22
ATOM     22  O   UNL     1    -141.683  60.119  -3.488  1.00  0.00    -0.502 OA
ATOM     23  H   UNL     1    -141.034  60.355  -4.230  1.00  0.00     0.293 HD
ENDBRANCH   2  22
BRANCH   6  24
ATOM     24  O   UNL     1    -143.465  65.091  -4.177  1.00  0.00    -0.507 OA
ATOM     25  H   UNL     1    -142.704  64.868  -4.800  1.00  0.00     0.293 HD
ENDBRANCH   6  24
BRANCH   8  26
ATOM     26  O   UNL     1    -148.112  64.471  -3.131  1.00  0.00    -0.508 OA
ATOM     27  H   UNL     1    -148.400  64.990  -2.311  1.00  0.00     0.293 HD
ENDBRANCH   8  26
TORSDOF 6
ENDMDL
MODEL 4
REMARK VINA RESULT:    -5.566      8.482     11.503
REMARK INTER + INTRA:          -7.026
REMARK INTER:                  -6.866
REMARK INTRA:                  -0.160
REMARK UNBOUND:                -0.322
REMARK SMILES O=c1c(O)c(-c2ccc(O)c(O)c2)oc2cc(O)cc(O)c12
REMARK SMILES IDX 5 1 3 2 2 3 1 4 22 5 20 6 19 7 17 8 16 9 15 10 14 11 6 12
REMARK SMILES IDX 7 13 8 14 9 15 13 16 11 17 10 18 12 20 4 22 21 24 18 26
REMARK H PARENT 10 19 12 21 4 23 21 25 18 27
REMARK Flexibility Score: inf
ROOT
ATOM      1  C   UNL     1    -145.150  63.122  -2.905  1.00  0.00     0.180 A 
ATOM      2  C   UNL     1    -146.481  63.403  -3.259  1.00  0.00     0.208 A 
ATOM      3  C   UNL     1    -146.918  64.737  -3.263  1.00  0.00     0.238 A 
ATOM      4  O   UNL     1    -148.125  64.977  -3.528  1.00  0.00    -0.285 OA
ATOM      5  C   UNL     1    -146.014  65.775  -2.929  1.00  0.00     0.111 A 
ATOM      6  C   UNL     1    -146.338  67.166  -2.940  1.00  0.00     0.134 A 
ATOM      7  C   UNL     1    -145.405  68.095  -2.466  1.00  0.00     0.093 A 
ATOM      8  C   UNL     1    -144.136  67.691  -2.043  1.00  0.00     0.123 A 
ATOM      9  C   UNL     1    -143.790  66.342  -2.086  1.00  0.00     0.094 A 
ATOM     10  C   UNL     1    -144.713  65.387  -2.520  1.00  0.00     0.146 A 
ATOM     11  O   UNL     1    -144.346  64.112  -2.533  1.00  0.00    -0.452 OA
ENDROOT
BRANCH   1  12
ATOM     12  C   UNL     1    -144.609  61.744  -2.902  1.00  0.00     0.025 A 
ATOM     13  C   UNL     1    -143.579  61.361  -3.776  1.00  0.00     0.016 A 
ATOM     14  C   UNL     1    -143.068  60.062  -3.738  1.00  0.00     0.051 A 
ATOM     15  C   UNL     1    -143.562  59.126  -2.824  1.00  0.00     0.157 A 
ATOM     16  C   UNL     1    -145.091  60.813  -1.969  1.00  0.00     0.062 A 
ATOM     17  C   UNL     1    -144.586  59.508  -1.924  1.00  0.00     0.158 A 
BRANCH  15  18
ATOM     18  O   UNL     1    -143.011  57.843  -2.841  1.00  0.00    -0.504 OA
ATOM     19  H   UNL     1    -143.558  56.994  -2.818  1.00  0.00     0.293 HD
ENDBRANCH  15  18
BRANCH  17  20
ATOM     20  O   UNL     1    -145.121  58.633  -0.977  1.00  0.00    -0.504 OA
ATOM     21  H   UNL     1    -145.646  58.928  -0.168  1.00  0.00     0.293 HD
ENDBRANCH  17  20
ENDBRANCH   1  12
BRANCH   2  22
ATOM     22  O   UNL     1    -147.361  62.361  -3.563  1.00  0.00    -0.502 OA
ATOM     23  H   UNL     1    -147.044  61.417  -3.748  1.00  0.00     0.293 HD
ENDBRANCH   2  22
BRANCH   6  24
ATOM     24  O   UNL     1    -147.542  67.683  -3.427  1.00  0.00    -0.507 OA
ATOM     25  H   UNL     1    -147.671  68.629  -3.754  1.00  0.00     0.293 HD
ENDBRANCH   6  24
BRANCH   8  26
ATOM     26  O   UNL     1    -143.207  68.625  -1.588  1.00  0.00    -0.508 OA
ATOM     27  H   UNL     1    -142.754  68.524  -0.688  1.00  0.00     0.293 HD
ENDBRANCH   8  26
TORSDOF 6
ENDMDL
MODEL 5
REMARK VINA RESULT:    -5.526      7.055      9.657
REMARK INTER + INTRA:          -6.978
REMARK INTER:                  -6.674
REMARK INTRA:                  -0.304
REMARK UNBOUND:                -0.322
REMARK SMILES O=c1c(O)c(-c2ccc(O)c(O)c2)oc2cc(O)cc(O)c12
REMARK SMILES IDX 5 1 3 2 2 3 1 4 22 5 20 6 19 7 17 8 16 9 15 10 14 11 6 12
REMARK SMILES IDX 7 13 8 14 9 15 13 16 11 17 10 18 12 20 4 22 21 24 18 26
REMARK H PARENT 10 19 12 21 4 23 21 25 18 27
REMARK Flexibility Score: inf
ROOT
ATOM      1  C   UNL     1    -143.118  59.900  -2.575  1.00  0.00     0.180 A 
ATOM      2  C   UNL     1    -142.332  59.909  -3.740  1.00  0.00     0.208 A 
ATOM      3  C   UNL     1    -142.244  61.089  -4.495  1.00  0.00     0.238 A 
ATOM      4  O   UNL     1    -141.582  61.075  -5.565  1.00  0.00    -0.285 OA
ATOM      5  C   UNL     1    -142.933  62.251  -4.068  1.00  0.00     0.111 A 
ATOM      6  C   UNL     1    -142.883  63.513  -4.734  1.00  0.00     0.134 A 
ATOM      7  C   UNL     1    -143.707  64.557  -4.296  1.00  0.00     0.093 A 
ATOM      8  C   UNL     1    -144.530  64.405  -3.177  1.00  0.00     0.123 A 
ATOM      9  C   UNL     1    -144.539  63.196  -2.485  1.00  0.00     0.094 A 
ATOM     10  C   UNL     1    -143.756  62.124  -2.919  1.00  0.00     0.146 A 
ATOM     11  O   UNL     1    -143.804  60.986  -2.237  1.00  0.00    -0.452 OA
ENDROOT
BRANCH   1  12
ATOM     12  C   UNL     1    -143.239  58.702  -1.714  1.00  0.00     0.025 A 
ATOM     13  C   UNL     1    -142.228  58.350  -0.805  1.00  0.00     0.016 A 
ATOM     14  C   UNL     1    -142.374  57.230   0.014  1.00  0.00     0.051 A 
ATOM     15  C   UNL     1    -143.531  56.447  -0.046  1.00  0.00     0.157 A 
ATOM     16  C   UNL     1    -144.410  57.931  -1.760  1.00  0.00     0.062 A 
ATOM     17  C   UNL     1    -144.566  56.805  -0.943  1.00  0.00     0.158 A 
BRANCH  15  18
ATOM     18  O   UNL     1    -143.613  55.336   0.797  1.00  0.00    -0.504 OA
ATOM     19  H   UNL     1    -144.482  54.931   1.113  1.00  0.00     0.293 HD
ENDBRANCH  15  18
BRANCH  17  20
ATOM     20  O   UNL     1    -145.754  56.079  -1.051  1.00  0.00    -0.504 OA
ATOM     21  H   UNL     1    -146.129  55.496  -0.318  1.00  0.00     0.293 HD
ENDBRANCH  17  20
ENDBRANCH   1  12
BRANCH   2  22
ATOM     22  O   UNL     1    -141.679  58.745  -4.155  1.00  0.00    -0.502 OA
ATOM     23  H   UNL     1    -141.487  57.974  -3.525  1.00  0.00     0.293 HD
ENDBRANCH   2  22
BRANCH   6  24
ATOM     24  O   UNL     1    -142.030  63.798  -5.804  1.00  0.00    -0.507 OA
ATOM     25  H   UNL     1    -141.456  64.624  -5.876  1.00  0.00     0.293 HD
ENDBRANCH   6  24
BRANCH   8  26
ATOM     26  O   UNL     1    -145.335  65.454  -2.738  1.00  0.00    -0.508 OA
ATOM     27  H   UNL     1    -145.145  66.413  -3.004  1.00  0.00     0.293 HD
ENDBRANCH   8  26
TORSDOF 6
ENDMDL
MODEL 6
REMARK VINA RESULT:    -5.449      6.615      7.993
REMARK INTER + INTRA:          -6.886
REMARK INTER:                  -6.695
REMARK INTRA:                  -0.191
REMARK UNBOUND:                -0.322
REMARK SMILES O=c1c(O)c(-c2ccc(O)c(O)c2)oc2cc(O)cc(O)c12
REMARK SMILES IDX 5 1 3 2 2 3 1 4 22 5 20 6 19 7 17 8 16 9 15 10 14 11 6 12
REMARK SMILES IDX 7 13 8 14 9 15 13 16 11 17 10 18 12 20 4 22 21 24 18 26
REMARK H PARENT 10 19 12 21 4 23 21 25 18 27
REMARK Flexibility Score: inf
ROOT
ATOM      1  C   UNL     1    -142.101  60.201  -2.751  1.00  0.00     0.180 A 
ATOM      2  C   UNL     1    -141.080  59.836  -1.857  1.00  0.00     0.208 A 
ATOM      3  C   UNL     1    -141.276  58.732  -1.011  1.00  0.00     0.238 A 
ATOM      4  O   UNL     1    -140.380  58.444  -0.176  1.00  0.00    -0.285 OA
ATOM      5  C   UNL     1    -142.485  57.998  -1.081  1.00  0.00     0.111 A 
ATOM      6  C   UNL     1    -142.775  56.839  -0.300  1.00  0.00     0.134 A 
ATOM      7  C   UNL     1    -144.053  56.269  -0.358  1.00  0.00     0.093 A 
ATOM      8  C   UNL     1    -145.030  56.779  -1.216  1.00  0.00     0.123 A 
ATOM      9  C   UNL     1    -144.737  57.873  -2.027  1.00  0.00     0.094 A 
ATOM     10  C   UNL     1    -143.483  58.485  -1.965  1.00  0.00     0.146 A 
ATOM     11  O   UNL     1    -143.249  59.532  -2.746  1.00  0.00    -0.452 OA
ENDROOT
BRANCH   1  12
ATOM     12  C   UNL     1    -141.958  61.336  -3.691  1.00  0.00     0.025 A 
ATOM     13  C   UNL     1    -140.997  61.321  -4.714  1.00  0.00     0.016 A 
ATOM     14  C   UNL     1    -140.896  62.393  -5.603  1.00  0.00     0.051 A 
ATOM     15  C   UNL     1    -141.757  63.491  -5.499  1.00  0.00     0.157 A 
ATOM     16  C   UNL     1    -142.837  62.426  -3.598  1.00  0.00     0.062 A 
ATOM     17  C   UNL     1    -142.744  63.506  -4.485  1.00  0.00     0.158 A 
BRANCH  15  18
ATOM     18  O   UNL     1    -141.600  64.531  -6.417  1.00  0.00    -0.504 OA
ATOM     19  H   UNL     1    -142.015  64.538  -7.338  1.00  0.00     0.293 HD
ENDBRANCH  15  18
BRANCH  17  20
ATOM     20  O   UNL     1    -143.643  64.561  -4.326  1.00  0.00    -0.504 OA
ATOM     21  H   UNL     1    -143.507  65.328  -3.684  1.00  0.00     0.293 HD
ENDBRANCH  17  20
ENDBRANCH   1  12
BRANCH   2  22
ATOM     22  O   UNL     1    -139.904  60.588  -1.789  1.00  0.00    -0.502 OA
ATOM     23  H   UNL     1    -139.244  60.636  -2.556  1.00  0.00     0.293 HD
ENDBRANCH   2  22
BRANCH   6  24
ATOM     24  O   UNL     1    -141.842  56.197   0.520  1.00  0.00    -0.507 OA
ATOM     25  H   UNL     1    -142.043  55.398   1.102  1.00  0.00     0.293 HD
ENDBRANCH   6  24
BRANCH   8  26
ATOM     26  O   UNL     1    -146.295  56.196  -1.280  1.00  0.00    -0.508 OA
ATOM     27  H   UNL     1    -146.677  55.854  -2.153  1.00  0.00     0.293 HD
ENDBRANCH   8  26
TORSDOF 6
ENDMDL
MODEL 7
REMARK VINA RESULT:    -5.414      6.804      7.786
REMARK INTER + INTRA:          -6.844
REMARK INTER:                  -6.981
REMARK INTRA:                   0.137
REMARK UNBOUND:                -0.322
REMARK SMILES O=c1c(O)c(-c2ccc(O)c(O)c2)oc2cc(O)cc(O)c12
REMARK SMILES IDX 5 1 3 2 2 3 1 4 22 5 20 6 19 7 17 8 16 9 15 10 14 11 6 12
REMARK SMILES IDX 7 13 8 14 9 15 13 16 11 17 10 18 12 20 4 22 21 24 18 26
REMARK H PARENT 10 19 12 21 4 23 21 25 18 27
REMARK Flexibility Score: inf
ROOT
ATOM      1  C   UNL     1    -143.507  59.926  -2.111  1.00  0.00     0.180 A 
ATOM      2  C   UNL     1    -144.423  59.480  -1.143  1.00  0.00     0.208 A 
ATOM      3  C   UNL     1    -144.300  58.175  -0.639  1.00  0.00     0.238 A 
ATOM      4  O   UNL     1    -145.156  57.763   0.187  1.00  0.00    -0.285 OA
ATOM      5  C   UNL     1    -143.254  57.337  -1.098  1.00  0.00     0.111 A 
ATOM      6  C   UNL     1    -143.012  56.012  -0.628  1.00  0.00     0.134 A 
ATOM      7  C   UNL     1    -142.030  55.229  -1.246  1.00  0.00     0.093 A 
ATOM      8  C   UNL     1    -141.238  55.746  -2.274  1.00  0.00     0.123 A 
ATOM      9  C   UNL     1    -141.426  57.059  -2.699  1.00  0.00     0.094 A 
ATOM     10  C   UNL     1    -142.423  57.853  -2.126  1.00  0.00     0.146 A 
ATOM     11  O   UNL     1    -142.577  59.095  -2.569  1.00  0.00    -0.452 OA
ENDROOT
BRANCH   1  12
ATOM     12  C   UNL     1    -143.555  61.296  -2.670  1.00  0.00     0.025 A 
ATOM     13  C   UNL     1    -142.384  62.041  -2.881  1.00  0.00     0.016 A 
ATOM     14  C   UNL     1    -142.452  63.322  -3.432  1.00  0.00     0.051 A 
ATOM     15  C   UNL     1    -143.683  63.879  -3.795  1.00  0.00     0.157 A 
ATOM     16  C   UNL     1    -144.788  61.843  -3.054  1.00  0.00     0.062 A 
ATOM     17  C   UNL     1    -144.867  63.128  -3.607  1.00  0.00     0.158 A 
BRANCH  15  18
ATOM     18  O   UNL     1    -143.682  65.166  -4.336  1.00  0.00    -0.504 OA
ATOM     19  H   UNL     1    -144.365  65.498  -5.002  1.00  0.00     0.293 HD
ENDBRANCH  15  18
BRANCH  17  20
ATOM     20  O   UNL     1    -146.130  63.613  -3.954  1.00  0.00    -0.504 OA
ATOM     21  H   UNL     1    -146.760  63.145  -4.589  1.00  0.00     0.293 HD
ENDBRANCH  17  20
ENDBRANCH   1  12
BRANCH   2  22
ATOM     22  O   UNL     1    -145.460  60.315  -0.720  1.00  0.00    -0.502 OA
ATOM     23  H   UNL     1    -145.352  60.973   0.044  1.00  0.00     0.293 HD
ENDBRANCH   2  22
BRANCH   6  24
ATOM     24  O   UNL     1    -143.684  55.432   0.453  1.00  0.00    -0.507 OA
ATOM     25  H   UNL     1    -143.365  55.459   1.409  1.00  0.00     0.293 HD
ENDBRANCH   6  24
BRANCH   8  26
ATOM     26  O   UNL     1    -140.251  54.965  -2.873  1.00  0.00    -0.508 OA
ATOM     27  H   UNL     1    -139.765  55.274  -3.706  1.00  0.00     0.293 HD
ENDBRANCH   8  26
TORSDOF 6
ENDMDL
MODEL 8
REMARK VINA RESULT:    -5.401      2.522      6.981
REMARK INTER + INTRA:          -6.827
REMARK INTER:                  -6.575
REMARK INTRA:                  -0.253
REMARK UNBOUND:                -0.322
REMARK SMILES O=c1c(O)c(-c2ccc(O)c(O)c2)oc2cc(O)cc(O)c12
REMARK SMILES IDX 5 1 3 2 2 3 1 4 22 5 20 6 19 7 17 8 16 9 15 10 14 11 6 12
REMARK SMILES IDX 7 13 8 14 9 15 13 16 11 17 10 18 12 20 4 22 21 24 18 26
REMARK H PARENT 10 19 12 21 4 23 21 25 18 27
REMARK Flexibility Score: inf
ROOT
ATOM      1  C   UNL     1    -140.845  58.363   2.986  1.00  0.00     0.180 A 
ATOM      2  C   UNL     1    -141.362  58.791   4.221  1.00  0.00     0.208 A 
ATOM      3  C   UNL     1    -140.777  59.897   4.859  1.00  0.00     0.238 A 
ATOM      4  O   UNL     1    -141.209  60.241   5.989  1.00  0.00    -0.285 OA
ATOM      5  C   UNL     1    -139.691  60.569   4.247  1.00  0.00     0.111 A 
ATOM      6  C   UNL     1    -139.047  61.724   4.785  1.00  0.00     0.134 A 
ATOM      7  C   UNL     1    -137.900  62.229   4.160  1.00  0.00     0.093 A 
ATOM      8  C   UNL     1    -137.412  61.660   2.981  1.00  0.00     0.123 A 
ATOM      9  C   UNL     1    -138.070  60.569   2.416  1.00  0.00     0.094 A 
ATOM     10  C   UNL     1    -139.195  60.021   3.036  1.00  0.00     0.146 A 
ATOM     11  O   UNL     1    -139.784  58.974   2.470  1.00  0.00    -0.452 OA
ENDROOT
BRANCH   1  12
ATOM     12  C   UNL     1    -141.424  57.223   2.241  1.00  0.00     0.025 A 
ATOM     13  C   UNL     1    -140.789  55.971   2.210  1.00  0.00     0.016 A 
ATOM     14  C   UNL     1    -141.366  54.904   1.520  1.00  0.00     0.051 A 
ATOM     15  C   UNL     1    -142.589  55.057   0.860  1.00  0.00     0.157 A 
ATOM     16  C   UNL     1    -142.662  57.374   1.597  1.00  0.00     0.062 A 
ATOM     17  C   UNL     1    -143.249  56.309   0.902  1.00  0.00     0.158 A 
BRANCH  15  18
ATOM     18  O   UNL     1    -143.109  53.951   0.184  1.00  0.00    -0.504 OA
ATOM     19  H   UNL     1    -143.961  53.478   0.449  1.00  0.00     0.293 HD
ENDBRANCH  15  18
BRANCH  17  20
ATOM     20  O   UNL     1    -144.476  56.535   0.276  1.00  0.00    -0.504 OA
ATOM     21  H   UNL     1    -145.367  56.269   0.668  1.00  0.00     0.293 HD
ENDBRANCH  17  20
ENDBRANCH   1  12
BRANCH   2  22
ATOM     22  O   UNL     1    -142.419  58.099   4.817  1.00  0.00    -0.502 OA
ATOM     23  H   UNL     1    -142.932  57.369   4.335  1.00  0.00     0.293 HD
ENDBRANCH   2  22
BRANCH   6  24
ATOM     24  O   UNL     1    -139.506  62.423   5.906  1.00  0.00    -0.507 OA
ATOM     25  H   UNL     1    -138.947  62.640   6.717  1.00  0.00     0.293 HD
ENDBRANCH   6  24
BRANCH   8  26
ATOM     26  O   UNL     1    -136.279  62.178   2.357  1.00  0.00    -0.508 OA
ATOM     27  H   UNL     1    -135.346  61.903   2.640  1.00  0.00     0.293 HD
ENDBRANCH   8  26
TORSDOF 6
ENDMDL
MODEL 9
REMARK VINA RESULT:    -5.217      3.358      5.948
REMARK INTER + INTRA:          -6.607
REMARK INTER:                  -6.445
REMARK INTRA:                  -0.161
REMARK UNBOUND:                -0.322
REMARK SMILES O=c1c(O)c(-c2ccc(O)c(O)c2)oc2cc(O)cc(O)c12
REMARK SMILES IDX 5 1 3 2 2 3 1 4 22 5 20 6 19 7 17 8 16 9 15 10 14 11 6 12
REMARK SMILES IDX 7 13 8 14 9 15 13 16 11 17 10 18 12 20 4 22 21 24 18 26
REMARK H PARENT 10 19 12 21 4 23 21 25 18 27
REMARK Flexibility Score: inf
ROOT
ATOM      1  C   UNL     1    -139.762  65.006   5.129  1.00  0.00     0.180 A 
ATOM      2  C   UNL     1    -140.699  64.536   6.065  1.00  0.00     0.208 A 
ATOM      3  C   UNL     1    -140.977  63.160   6.119  1.00  0.00     0.238 A 
ATOM      4  O   UNL     1    -141.857  62.753   6.921  1.00  0.00    -0.285 OA
ATOM      5  C   UNL     1    -140.302  62.271   5.248  1.00  0.00     0.111 A 
ATOM      6  C   UNL     1    -140.476  60.854   5.243  1.00  0.00     0.134 A 
ATOM      7  C   UNL     1    -139.855  60.085   4.251  1.00  0.00     0.093 A 
ATOM      8  C   UNL     1    -139.015  60.675   3.303  1.00  0.00     0.123 A 
ATOM      9  C   UNL     1    -138.792  62.050   3.337  1.00  0.00     0.094 A 
ATOM     10  C   UNL     1    -139.426  62.848   4.293  1.00  0.00     0.146 A 
ATOM     11  O   UNL     1    -139.194  64.155   4.282  1.00  0.00    -0.452 OA
ENDROOT
BRANCH   1  12
ATOM     12  C   UNL     1    -139.397  66.438   5.029  1.00  0.00     0.025 A 
ATOM     13  C   UNL     1    -139.717  67.195   3.891  1.00  0.00     0.016 A 
ATOM     14  C   UNL     1    -139.384  68.549   3.828  1.00  0.00     0.051 A 
ATOM     15  C   UNL     1    -138.740  69.177   4.899  1.00  0.00     0.157 A 
ATOM     16  C   UNL     1    -138.771  67.070   6.113  1.00  0.00     0.062 A 
ATOM     17  C   UNL     1    -138.433  68.428   6.060  1.00  0.00     0.158 A 
BRANCH  15  18
ATOM     18  O   UNL     1    -138.431  70.533   4.771  1.00  0.00    -0.504 OA
ATOM     19  H   UNL     1    -137.512  70.883   4.540  1.00  0.00     0.293 HD
ENDBRANCH  15  18
BRANCH  17  20
ATOM     20  O   UNL     1    -137.800  68.988   7.172  1.00  0.00    -0.504 OA
ATOM     21  H   UNL     1    -136.805  68.952   7.333  1.00  0.00     0.293 HD
ENDBRANCH  17  20
ENDBRANCH   1  12
BRANCH   2  22
ATOM     22  O   UNL     1    -141.369  65.434   6.900  1.00  0.00    -0.502 OA
ATOM     23  H   UNL     1    -141.265  66.438   6.813  1.00  0.00     0.293 HD
ENDBRANCH   2  22
BRANCH   6  24
ATOM     24  O   UNL     1    -141.220  60.155   6.199  1.00  0.00    -0.507 OA
ATOM     25  H   UNL     1    -141.830  60.585   6.879  1.00  0.00     0.293 HD
ENDBRANCH   6  24
BRANCH   8  26
ATOM     26  O   UNL     1    -138.388  59.901   2.329  1.00  0.00    -0.508 OA
ATOM     27  H   UNL     1    -138.908  59.497   1.559  1.00  0.00     0.293 HD
ENDBRANCH   8  26
TORSDOF 6
ENDMDL
