MODEL 1
REMARK VINA RESULT:    -4.084      0.000      0.000
REMARK INTER + INTRA:          -4.461
REMARK INTER:                  -4.442
REMARK INTRA:                  -0.019
REMARK UNBOUND:                -0.019
REMARK SMILES OCc1ccco1
REMARK SMILES IDX 2 1 3 2 5 3 6 4 4 5 7 6 1 7
REMARK H PARENT 1 8
REMARK Flexibility Score: inf
ROOT
ATOM      1  C   UNL     1     -32.582  44.064  16.707  1.00  0.00     0.231 C 
ENDROOT
BRANCH   1   2
ATOM      2  C   UNL     1     -32.041  43.623  18.029  1.00  0.00     0.129 A 
ATOM      3  C   UNL     1     -31.810  43.224  20.176  1.00  0.00     0.042 A 
ATOM      4  C   UNL     1     -30.676  42.861  19.479  1.00  0.00     0.195 A 
ATOM      5  C   UNL     1     -32.693  43.720  19.242  1.00  0.00     0.048 A 
ATOM      6  O   UNL     1     -30.843  43.114  18.200  1.00  0.00    -0.467 OA
ENDBRANCH   1   2
BRANCH   1   7
ATOM      7  O   UNL     1     -31.588  44.725  15.976  1.00  0.00    -0.388 OA
ATOM      8  H   UNL     1     -31.828  44.628  15.017  1.00  0.00     0.211 HD
ENDBRANCH   1   7
TORSDOF 2
ENDMDL
MODEL 2
REMARK VINA RESULT:    -3.962      1.200      2.655
REMARK INTER + INTRA:          -4.328
REMARK INTER:                  -4.310
REMARK INTRA:                  -0.018
REMARK UNBOUND:                -0.019
REMARK SMILES OCc1ccco1
REMARK SMILES IDX 2 1 3 2 5 3 6 4 4 5 7 6 1 7
REMARK H PARENT 1 8
REMARK Flexibility Score: inf
ROOT
ATOM      1  C   UNL     1     -29.522  41.998  18.911  1.00  0.00     0.231 C 
ENDROOT
BRANCH   1   2
ATOM      2  C   UNL     1     -30.800  42.770  18.985  1.00  0.00     0.129 A 
ATOM      3  C   UNL     1     -32.644  43.711  19.715  1.00  0.00     0.042 A 
ATOM      4  C   UNL     1     -32.498  43.894  18.355  1.00  0.00     0.195 A 
ATOM      5  C   UNL     1     -31.550  42.982  20.124  1.00  0.00     0.048 A 
ATOM      6  O   UNL     1     -31.389  43.318  17.948  1.00  0.00    -0.467 OA
ENDBRANCH   1   2
BRANCH   1   7
ATOM      7  O   UNL     1     -28.584  42.694  18.139  1.00  0.00    -0.388 OA
ATOM      8  H   UNL     1     -28.251  43.442  18.702  1.00  0.00     0.211 HD
ENDBRANCH   1   7
TORSDOF 2
ENDMDL
MODEL 3
REMARK VINA RESULT:    -3.902      1.915      2.843
REMARK INTER + INTRA:          -4.263
REMARK INTER:                  -4.247
REMARK INTRA:                  -0.016
REMARK UNBOUND:                -0.019
REMARK SMILES OCc1ccco1
REMARK SMILES IDX 2 1 3 2 5 3 6 4 4 5 7 6 1 7
REMARK H PARENT 1 8
REMARK Flexibility Score: inf
ROOT
ATOM      1  C   UNL     1     -30.992  43.335  18.183  1.00  0.00     0.231 C 
ENDROOT
BRANCH   1   2
ATOM      2  C   UNL     1     -30.552  42.174  19.016  1.00  0.00     0.129 A 
ATOM      3  C   UNL     1     -29.326  40.746  20.147  1.00  0.00     0.042 A 
ATOM      4  C   UNL     1     -30.644  40.341  20.101  1.00  0.00     0.195 A 
ATOM      5  C   UNL     1     -29.263  41.929  19.444  1.00  0.00     0.048 A 
ATOM      6  O   UNL     1     -31.351  41.212  19.416  1.00  0.00    -0.467 OA
ENDBRANCH   1   2
BRANCH   1   7
ATOM      7  O   UNL     1     -29.882  44.097  17.797  1.00  0.00    -0.388 OA
ATOM      8  H   UNL     1     -29.725  43.904  16.836  1.00  0.00     0.211 HD
ENDBRANCH   1   7
TORSDOF 2
ENDMDL
MODEL 4
REMARK VINA RESULT:    -3.887     13.888     15.218
REMARK INTER + INTRA:          -4.247
REMARK INTER:                  -4.232
REMARK INTRA:                  -0.014
REMARK UNBOUND:                -0.019
REMARK SMILES OCc1ccco1
REMARK SMILES IDX 2 1 3 2 5 3 6 4 4 5 7 6 1 7
REMARK H PARENT 1 8
REMARK Flexibility Score: inf
ROOT
ATOM      1  C   UNL     1     -16.009  43.418  22.068  1.00  0.00     0.231 C 
ENDROOT
BRANCH   1   2
ATOM      2  C   UNL     1     -17.055  42.540  21.460  1.00  0.00     0.129 A 
ATOM      3  C   UNL     1     -18.235  40.789  20.857  1.00  0.00     0.042 A 
ATOM      4  C   UNL     1     -18.731  41.943  20.286  1.00  0.00     0.195 A 
ATOM      5  C   UNL     1     -17.149  41.172  21.614  1.00  0.00     0.048 A 
ATOM      6  O   UNL     1     -18.004  42.971  20.662  1.00  0.00    -0.467 OA
ENDBRANCH   1   2
BRANCH   1   7
ATOM      7  O   UNL     1     -14.733  42.952  21.731  1.00  0.00    -0.388 OA
ATOM      8  H   UNL     1     -14.086  43.482  22.266  1.00  0.00     0.211 HD
ENDBRANCH   1   7
TORSDOF 2
ENDMDL
MODEL 5
REMARK VINA RESULT:    -3.883     13.273     14.521
REMARK INTER + INTRA:          -4.242
REMARK INTER:                  -4.221
REMARK INTRA:                  -0.021
REMARK UNBOUND:                -0.019
REMARK SMILES OCc1ccco1
REMARK SMILES IDX 2 1 3 2 5 3 6 4 4 5 7 6 1 7
REMARK H PARENT 1 8
REMARK Flexibility Score: inf
ROOT
ATOM      1  C   UNL     1     -19.258  40.738  19.863  1.00  0.00     0.231 C 
ENDROOT
BRANCH   1   2
ATOM      2  C   UNL     1     -18.143  41.067  20.804  1.00  0.00     0.129 A 
ATOM      3  C   UNL     1     -16.585  42.138  21.920  1.00  0.00     0.042 A 
ATOM      4  C   UNL     1     -16.586  40.794  22.234  1.00  0.00     0.195 A 
ATOM      5  C   UNL     1     -17.589  42.316  20.993  1.00  0.00     0.048 A 
ATOM      6  O   UNL     1     -17.525  40.180  21.549  1.00  0.00    -0.467 OA
ENDBRANCH   1   2
BRANCH   1   7
ATOM      7  O   UNL     1     -19.282  39.361  19.608  1.00  0.00    -0.388 OA
ATOM      8  H   UNL     1     -19.350  39.255  18.622  1.00  0.00     0.211 HD
ENDBRANCH   1   7
TORSDOF 2
ENDMDL
MODEL 6
REMARK VINA RESULT:    -3.839      2.493      2.922
REMARK INTER + INTRA:          -4.195
REMARK INTER:                  -4.177
REMARK INTRA:                  -0.019
REMARK UNBOUND:                -0.019
REMARK SMILES OCc1ccco1
REMARK SMILES IDX 2 1 3 2 5 3 6 4 4 5 7 6 1 7
REMARK H PARENT 1 8
REMARK Flexibility Score: inf
ROOT
ATOM      1  C   UNL     1     -32.751  43.563  19.451  1.00  0.00     0.231 C 
ENDROOT
BRANCH   1   2
ATOM      2  C   UNL     1     -31.411  42.898  19.469  1.00  0.00     0.129 A 
ATOM      3  C   UNL     1     -29.397  42.219  18.918  1.00  0.00     0.042 A 
ATOM      4  C   UNL     1     -29.804  41.653  20.109  1.00  0.00     0.195 A 
ATOM      5  C   UNL     1     -30.436  43.022  18.501  1.00  0.00     0.048 A 
ATOM      6  O   UNL     1     -31.012  42.075  20.410  1.00  0.00    -0.467 OA
ENDBRANCH   1   2
BRANCH   1   7
ATOM      7  O   UNL     1     -33.125  43.925  20.751  1.00  0.00    -0.388 OA
ATOM      8  H   UNL     1     -33.344  43.082  21.229  1.00  0.00     0.211 HD
ENDBRANCH   1   7
TORSDOF 2
ENDMDL
MODEL 7
REMARK VINA RESULT:    -3.764     13.652     14.864
REMARK INTER + INTRA:          -4.113
REMARK INTER:                  -4.093
REMARK INTRA:                  -0.020
REMARK UNBOUND:                -0.019
REMARK SMILES OCc1ccco1
REMARK SMILES IDX 2 1 3 2 5 3 6 4 4 5 7 6 1 7
REMARK H PARENT 1 8
REMARK Flexibility Score: inf
ROOT
ATOM      1  C   UNL     1     -18.264  41.196  20.613  1.00  0.00     0.231 C 
ENDROOT
BRANCH   1   2
ATOM      2  C   UNL     1     -17.441  42.290  21.213  1.00  0.00     0.129 A 
ATOM      3  C   UNL     1     -15.877  43.390  22.293  1.00  0.00     0.042 A 
ATOM      4  C   UNL     1     -16.850  44.247  21.820  1.00  0.00     0.195 A 
ATOM      5  C   UNL     1     -16.258  42.125  21.905  1.00  0.00     0.048 A 
ATOM      6  O   UNL     1     -17.772  43.560  21.183  1.00  0.00    -0.467 OA
ENDBRANCH   1   2
BRANCH   1   7
ATOM      7  O   UNL     1     -19.626  41.486  20.753  1.00  0.00    -0.388 OA
ATOM      8  H   UNL     1     -20.019  40.752  21.294  1.00  0.00     0.211 HD
ENDBRANCH   1   7
TORSDOF 2
ENDMDL
MODEL 8
REMARK VINA RESULT:    -3.745     15.553     16.452
REMARK INTER + INTRA:          -4.092
REMARK INTER:                  -4.076
REMARK INTRA:                  -0.016
REMARK UNBOUND:                -0.019
REMARK SMILES OCc1ccco1
REMARK SMILES IDX 2 1 3 2 5 3 6 4 4 5 7 6 1 7
REMARK H PARENT 1 8
REMARK Flexibility Score: inf
ROOT
ATOM      1  C   UNL     1     -17.742  38.533  13.115  1.00  0.00     0.231 C 
ENDROOT
BRANCH   1   2
ATOM      2  C   UNL     1     -17.342  37.255  13.780  1.00  0.00     0.129 A 
ATOM      3  C   UNL     1     -17.178  35.135  14.327  1.00  0.00     0.042 A 
ATOM      4  C   UNL     1     -16.418  35.924  15.165  1.00  0.00     0.195 A 
ATOM      5  C   UNL     1     -17.779  35.993  13.433  1.00  0.00     0.048 A 
ATOM      6  O   UNL     1     -16.539  37.185  14.816  1.00  0.00    -0.467 OA
ENDBRANCH   1   2
BRANCH   1   7
ATOM      7  O   UNL     1     -18.450  39.341  14.013  1.00  0.00    -0.388 OA
ATOM      8  H   UNL     1     -18.374  38.909  14.905  1.00  0.00     0.211 HD
ENDBRANCH   1   7
TORSDOF 2
ENDMDL
MODEL 9
REMARK VINA RESULT:    -3.715     13.320     14.421
REMARK INTER + INTRA:          -4.060
REMARK INTER:                  -4.041
REMARK INTRA:                  -0.020
REMARK UNBOUND:                -0.019
REMARK SMILES OCc1ccco1
REMARK SMILES IDX 2 1 3 2 5 3 6 4 4 5 7 6 1 7
REMARK H PARENT 1 8
REMARK Flexibility Score: inf
ROOT
ATOM      1  C   UNL     1     -17.360  38.769  18.850  1.00  0.00     0.231 C 
ENDROOT
BRANCH   1   2
ATOM      2  C   UNL     1     -17.797  40.007  19.566  1.00  0.00     0.129 A 
ATOM      3  C   UNL     1     -18.082  41.560  21.091  1.00  0.00     0.042 A 
ATOM      4  C   UNL     1     -18.825  41.832  19.960  1.00  0.00     0.195 A 
ATOM      5  C   UNL     1     -17.419  40.379  20.840  1.00  0.00     0.048 A 
ATOM      6  O   UNL     1     -18.636  40.885  19.069  1.00  0.00    -0.467 OA
ENDBRANCH   1   2
BRANCH   1   7
ATOM      7  O   UNL     1     -17.360  38.987  17.467  1.00  0.00    -0.388 OA
ATOM      8  H   UNL     1     -16.563  39.545  17.267  1.00  0.00     0.211 HD
ENDBRANCH   1   7
TORSDOF 2
ENDMDL
