MODEL 1
REMARK VINA RESULT:    -4.192      0.000      0.000
REMARK INTER + INTRA:          -6.702
REMARK INTER:                  -6.152
REMARK INTRA:                  -0.550
REMARK UNBOUND:                -0.550
REMARK SMILES O=C([O-])CCCCCCCC(=O)[O-]
REMARK SMILES IDX 7 1 6 2 5 3 4 4 2 5 1 6 3 7 8 8 9 9 10 10 11 11 12 12 13 13
REMARK H PARENT
REMARK Flexibility Score: inf
ROOT
ATOM      1  C   UNL     1      37.781  21.435 -23.394  1.00  0.00     0.000 C 
ENDROOT
BRANCH   1   2
ATOM      2  C   UNL     1      38.144  21.866 -24.819  1.00  0.00     0.000 C 
BRANCH   2   3
ATOM      3  C   UNL     1      39.660  21.810 -25.043  1.00  0.00     0.006 C 
BRANCH   3   4
ATOM      4  C   UNL     1      40.267  23.217 -25.051  1.00  0.00     0.053 C 
BRANCH   4   5
ATOM      5  C   UNL     1      41.290  23.352 -23.968  1.00  0.00     0.041 C 
ATOM      6  O   UNL     1      41.994  22.362 -23.634  1.00  0.00    -0.550 OA
ATOM      7  O   UNL     1      41.502  24.583 -23.361  1.00  0.00    -0.550 OA
ENDBRANCH   4   5
ENDBRANCH   3   4
ENDBRANCH   2   3
ENDBRANCH   1   2
BRANCH   1   8
ATOM      8  C   UNL     1      37.952  19.922 -23.214  1.00  0.00     0.000 C 
BRANCH   8   9
ATOM      9  C   UNL     1      38.250  19.571 -21.752  1.00  0.00     0.006 C 
BRANCH   9  10
ATOM     10  C   UNL     1      39.657  20.028 -21.353  1.00  0.00     0.053 C 
BRANCH  10  11
ATOM     11  C   UNL     1      40.674  19.016 -21.777  1.00  0.00     0.041 C 
ATOM     12  O   UNL     1      40.838  17.963 -21.107  1.00  0.00    -0.550 OA
ATOM     13  O   UNL     1      41.410  19.215 -22.939  1.00  0.00    -0.550 OA
ENDBRANCH  10  11
ENDBRANCH   9  10
ENDBRANCH   8   9
ENDBRANCH   1   8
TORSDOF 8
ENDMDL
MODEL 2
REMARK VINA RESULT:    -4.158      1.001      4.886
REMARK INTER + INTRA:          -6.653
REMARK INTER:                  -6.244
REMARK INTRA:                  -0.409
REMARK UNBOUND:                -0.550
REMARK SMILES O=C([O-])CCCCCCCC(=O)[O-]
REMARK SMILES IDX 7 1 6 2 5 3 4 4 2 5 1 6 3 7 8 8 9 9 10 10 11 11 12 12 13 13
REMARK H PARENT
REMARK Flexibility Score: inf
ROOT
ATOM      1  C   UNL     1      38.291  21.088 -23.070  1.00  0.00     0.000 C 
ENDROOT
BRANCH   1   2
ATOM      2  C   UNL     1      37.757  19.661 -23.235  1.00  0.00     0.000 C 
BRANCH   2   3
ATOM      3  C   UNL     1      38.346  18.726 -22.172  1.00  0.00     0.006 C 
BRANCH   3   4
ATOM      4  C   UNL     1      38.656  19.488 -20.880  1.00  0.00     0.053 C 
BRANCH   4   5
ATOM      5  C   UNL     1      39.834  18.884 -20.184  1.00  0.00     0.041 C 
ATOM      6  O   UNL     1      40.875  18.597 -20.834  1.00  0.00    -0.550 OA
ATOM      7  O   UNL     1      39.803  18.684 -18.810  1.00  0.00    -0.550 OA
ENDBRANCH   4   5
ENDBRANCH   3   4
ENDBRANCH   2   3
ENDBRANCH   1   2
BRANCH   1   8
ATOM      8  C   UNL     1      38.103  21.899 -24.358  1.00  0.00     0.000 C 
BRANCH   8   9
ATOM      9  C   UNL     1      39.427  22.036 -25.120  1.00  0.00     0.006 C 
BRANCH   9  10
ATOM     10  C   UNL     1      40.016  23.440 -24.949  1.00  0.00     0.053 C 
BRANCH  10  11
ATOM     11  C   UNL     1      41.159  23.412 -23.984  1.00  0.00     0.041 C 
ATOM     12  O   UNL     1      41.524  24.467 -23.403  1.00  0.00    -0.550 OA
ATOM     13  O   UNL     1      41.792  22.210 -23.691  1.00  0.00    -0.550 OA
ENDBRANCH  10  11
ENDBRANCH   9  10
ENDBRANCH   8   9
ENDBRANCH   1   8
TORSDOF 8
ENDMDL
MODEL 3
REMARK VINA RESULT:    -4.110     17.762     19.015
REMARK INTER + INTRA:          -6.583
REMARK INTER:                  -5.876
REMARK INTRA:                  -0.707
REMARK UNBOUND:                -0.550
REMARK SMILES O=C([O-])CCCCCCCC(=O)[O-]
REMARK SMILES IDX 7 1 6 2 5 3 4 4 2 5 1 6 3 7 8 8 9 9 10 10 11 11 12 12 13 13
REMARK H PARENT
REMARK Flexibility Score: inf
ROOT
ATOM      1  C   UNL     1      47.420  34.362 -13.324  1.00  0.00     0.000 C 
ENDROOT
BRANCH   1   2
ATOM      2  C   UNL     1      45.897  34.423 -13.489  1.00  0.00     0.000 C 
BRANCH   2   3
ATOM      3  C   UNL     1      45.276  35.429 -12.513  1.00  0.00     0.006 C 
BRANCH   3   4
ATOM      4  C   UNL     1      44.510  36.522 -13.263  1.00  0.00     0.053 C 
BRANCH   4   5
ATOM      5  C   UNL     1      45.460  37.491 -13.892  1.00  0.00     0.041 C 
ATOM      6  O   UNL     1      45.362  37.770 -15.117  1.00  0.00    -0.550 OA
ATOM      7  O   UNL     1      46.422  38.124 -13.117  1.00  0.00    -0.550 OA
ENDBRANCH   4   5
ENDBRANCH   3   4
ENDBRANCH   2   3
ENDBRANCH   1   2
BRANCH   1   8
ATOM      8  C   UNL     1      48.127  35.156 -14.429  1.00  0.00     0.000 C 
BRANCH   8   9
ATOM      9  C   UNL     1      47.633  34.730 -15.816  1.00  0.00     0.006 C 
BRANCH   9  10
ATOM     10  C   UNL     1      47.857  35.842 -16.845  1.00  0.00     0.053 C 
BRANCH  10  11
ATOM     11  C   UNL     1      49.317  36.133 -16.991  1.00  0.00     0.041 C 
ATOM     12  O   UNL     1      50.112  35.224 -17.345  1.00  0.00    -0.550 OA
ATOM     13  O   UNL     1      49.794  37.422 -16.781  1.00  0.00    -0.550 OA
ENDBRANCH  10  11
ENDBRANCH   9  10
ENDBRANCH   8   9
ENDBRANCH   1   8
TORSDOF 8
ENDMDL
MODEL 4
REMARK VINA RESULT:    -4.095     18.000     18.880
REMARK INTER + INTRA:          -6.560
REMARK INTER:                  -6.093
REMARK INTRA:                  -0.467
REMARK UNBOUND:                -0.550
REMARK SMILES O=C([O-])CCCCCCCC(=O)[O-]
REMARK SMILES IDX 7 1 6 2 5 3 4 4 2 5 1 6 3 7 8 8 9 9 10 10 11 11 12 12 13 13
REMARK H PARENT
REMARK Flexibility Score: inf
ROOT
ATOM      1  C   UNL     1      47.828  34.687 -15.569  1.00  0.00     0.000 C 
ENDROOT
BRANCH   1   2
ATOM      2  C   UNL     1      47.585  35.506 -16.842  1.00  0.00     0.000 C 
BRANCH   2   3
ATOM      3  C   UNL     1      48.800  36.379 -17.177  1.00  0.00     0.006 C 
BRANCH   3   4
ATOM      4  C   UNL     1      50.088  35.550 -17.183  1.00  0.00     0.053 C 
BRANCH   4   5
ATOM      5  C   UNL     1      51.183  36.278 -16.470  1.00  0.00     0.041 C 
ATOM      6  O   UNL     1      52.348  36.296 -16.950  1.00  0.00    -0.550 OA
ATOM      7  O   UNL     1      50.908  36.977 -15.303  1.00  0.00    -0.550 OA
ENDBRANCH   4   5
ENDBRANCH   3   4
ENDBRANCH   2   3
ENDBRANCH   1   2
BRANCH   1   8
ATOM      8  C   UNL     1      47.616  35.543 -14.314  1.00  0.00     0.000 C 
BRANCH   8   9
ATOM      9  C   UNL     1      47.206  34.676 -13.118  1.00  0.00     0.006 C 
BRANCH   9  10
ATOM     10  C   UNL     1      45.704  34.378 -13.144  1.00  0.00     0.053 C 
BRANCH  10  11
ATOM     11  C   UNL     1      44.931  35.546 -12.617  1.00  0.00     0.041 C 
ATOM     12  O   UNL     1      44.287  36.288 -13.404  1.00  0.00    -0.550 OA
ATOM     13  O   UNL     1      44.883  35.786 -11.248  1.00  0.00    -0.550 OA
ENDBRANCH  10  11
ENDBRANCH   9  10
ENDBRANCH   8   9
ENDBRANCH   1   8
TORSDOF 8
ENDMDL
MODEL 5
REMARK VINA RESULT:    -4.093     18.091     19.665
REMARK INTER + INTRA:          -6.558
REMARK INTER:                  -5.886
REMARK INTRA:                  -0.672
REMARK UNBOUND:                -0.550
REMARK SMILES O=C([O-])CCCCCCCC(=O)[O-]
REMARK SMILES IDX 7 1 6 2 5 3 4 4 2 5 1 6 3 7 8 8 9 9 10 10 11 11 12 12 13 13
REMARK H PARENT
REMARK Flexibility Score: inf
ROOT
ATOM      1  C   UNL     1      47.654  34.741 -16.203  1.00  0.00     0.000 C 
ENDROOT
BRANCH   1   2
ATOM      2  C   UNL     1      47.141  34.720 -14.759  1.00  0.00     0.000 C 
BRANCH   2   3
ATOM      3  C   UNL     1      48.276  34.999 -13.766  1.00  0.00     0.006 C 
BRANCH   3   4
ATOM      4  C   UNL     1      47.950  36.207 -12.884  1.00  0.00     0.053 C 
BRANCH   4   5
ATOM      5  C   UNL     1      47.630  35.768 -11.490  1.00  0.00     0.041 C 
ATOM      6  O   UNL     1      48.367  36.120 -10.530  1.00  0.00    -0.550 OA
ATOM      7  O   UNL     1      46.492  35.011 -11.243  1.00  0.00    -0.550 OA
ENDBRANCH   4   5
ENDBRANCH   3   4
ENDBRANCH   2   3
ENDBRANCH   1   2
BRANCH   1   8
ATOM      8  C   UNL     1      47.437  36.116 -16.846  1.00  0.00     0.000 C 
BRANCH   8   9
ATOM      9  C   UNL     1      48.774  36.768 -17.218  1.00  0.00     0.006 C 
BRANCH   9  10
ATOM     10  C   UNL     1      49.924  35.761 -17.113  1.00  0.00     0.053 C 
BRANCH  10  11
ATOM     11  C   UNL     1      51.072  36.356 -16.359  1.00  0.00     0.041 C 
ATOM     12  O   UNL     1      50.880  36.907 -15.244  1.00  0.00    -0.550 OA
ATOM     13  O   UNL     1      52.362  36.258 -16.867  1.00  0.00    -0.550 OA
ENDBRANCH  10  11
ENDBRANCH   9  10
ENDBRANCH   8   9
ENDBRANCH   1   8
TORSDOF 8
ENDMDL
MODEL 6
REMARK VINA RESULT:    -4.066     17.748     19.059
REMARK INTER + INTRA:          -6.517
REMARK INTER:                  -6.088
REMARK INTRA:                  -0.429
REMARK UNBOUND:                -0.550
REMARK SMILES O=C([O-])CCCCCCCC(=O)[O-]
REMARK SMILES IDX 7 1 6 2 5 3 4 4 2 5 1 6 3 7 8 8 9 9 10 10 11 11 12 12 13 13
REMARK H PARENT
REMARK Flexibility Score: inf
ROOT
ATOM      1  C   UNL     1      47.176  34.360 -13.374  1.00  0.00     0.000 C 
ENDROOT
BRANCH   1   2
ATOM      2  C   UNL     1      45.646  34.446 -13.422  1.00  0.00     0.000 C 
BRANCH   2   3
ATOM      3  C   UNL     1      45.165  35.878 -13.161  1.00  0.00     0.006 C 
BRANCH   3   4
ATOM      4  C   UNL     1      44.874  36.098 -11.674  1.00  0.00     0.053 C 
BRANCH   4   5
ATOM      5  C   UNL     1      43.404  36.255 -11.446  1.00  0.00     0.041 C 
ATOM      6  O   UNL     1      42.613  36.317 -12.424  1.00  0.00    -0.550 OA
ATOM      7  O   UNL     1      42.900  36.283 -10.152  1.00  0.00    -0.550 OA
ENDBRANCH   4   5
ENDBRANCH   3   4
ENDBRANCH   2   3
ENDBRANCH   1   2
BRANCH   1   8
ATOM      8  C   UNL     1      47.813  35.277 -14.424  1.00  0.00     0.000 C 
BRANCH   8   9
ATOM      9  C   UNL     1      47.591  34.732 -15.840  1.00  0.00     0.006 C 
BRANCH   9  10
ATOM     10  C   UNL     1      47.768  35.835 -16.888  1.00  0.00     0.053 C 
BRANCH  10  11
ATOM     11  C   UNL     1      49.213  36.194 -17.028  1.00  0.00     0.041 C 
ATOM     12  O   UNL     1      49.584  37.391 -16.903  1.00  0.00    -0.550 OA
ATOM     13  O   UNL     1      50.158  35.200 -17.251  1.00  0.00    -0.550 OA
ENDBRANCH  10  11
ENDBRANCH   9  10
ENDBRANCH   8   9
ENDBRANCH   1   8
TORSDOF 8
ENDMDL
MODEL 7
REMARK VINA RESULT:    -4.012      2.362      3.502
REMARK INTER + INTRA:          -6.438
REMARK INTER:                  -5.681
REMARK INTRA:                  -0.757
REMARK UNBOUND:                -0.550
REMARK SMILES O=C([O-])CCCCCCCC(=O)[O-]
REMARK SMILES IDX 7 1 6 2 5 3 4 4 2 5 1 6 3 7 8 8 9 9 10 10 11 11 12 12 13 13
REMARK H PARENT
REMARK Flexibility Score: inf
ROOT
ATOM      1  C   UNL     1      40.030  18.908 -21.138  1.00  0.00     0.000 C 
ENDROOT
BRANCH   1   2
ATOM      2  C   UNL     1      40.697  18.353 -22.402  1.00  0.00     0.000 C 
BRANCH   2   3
ATOM      3  C   UNL     1      41.512  19.437 -23.117  1.00  0.00     0.006 C 
BRANCH   3   4
ATOM      4  C   UNL     1      40.607  20.568 -23.614  1.00  0.00     0.053 C 
BRANCH   4   5
ATOM      5  C   UNL     1      41.067  21.884 -23.071  1.00  0.00     0.041 C 
ATOM      6  O   UNL     1      40.585  22.329 -21.995  1.00  0.00    -0.550 OA
ATOM      7  O   UNL     1      42.062  22.598 -23.726  1.00  0.00    -0.550 OA
ENDBRANCH   4   5
ENDBRANCH   3   4
ENDBRANCH   2   3
ENDBRANCH   1   2
BRANCH   1   8
ATOM      8  C   UNL     1      38.575  18.438 -21.031  1.00  0.00     0.000 C 
BRANCH   8   9
ATOM      9  C   UNL     1      37.807  18.722 -22.327  1.00  0.00     0.006 C 
BRANCH   9  10
ATOM     10  C   UNL     1      36.646  19.690 -22.078  1.00  0.00     0.053 C 
BRANCH  10  11
ATOM     11  C   UNL     1      37.134  21.104 -22.086  1.00  0.00     0.041 C 
ATOM     12  O   UNL     1      37.391  21.693 -21.003  1.00  0.00    -0.550 OA
ATOM     13  O   UNL     1      37.352  21.758 -23.294  1.00  0.00    -0.550 OA
ENDBRANCH  10  11
ENDBRANCH   9  10
ENDBRANCH   8   9
ENDBRANCH   1   8
TORSDOF 8
ENDMDL
MODEL 8
REMARK VINA RESULT:    -3.966     18.217     19.078
REMARK INTER + INTRA:          -6.371
REMARK INTER:                  -5.975
REMARK INTRA:                  -0.396
REMARK UNBOUND:                -0.550
REMARK SMILES O=C([O-])CCCCCCCC(=O)[O-]
REMARK SMILES IDX 7 1 6 2 5 3 4 4 2 5 1 6 3 7 8 8 9 9 10 10 11 11 12 12 13 13
REMARK H PARENT
REMARK Flexibility Score: inf
ROOT
ATOM      1  C   UNL     1      47.296  35.539 -14.554  1.00  0.00     0.000 C 
ENDROOT
BRANCH   1   2
ATOM      2  C   UNL     1      47.495  34.794 -15.879  1.00  0.00     0.000 C 
BRANCH   2   3
ATOM      3  C   UNL     1      48.258  35.657 -16.890  1.00  0.00     0.006 C 
BRANCH   3   4
ATOM      4  C   UNL     1      49.727  35.235 -16.975  1.00  0.00     0.053 C 
BRANCH   4   5
ATOM      5  C   UNL     1      50.621  36.358 -16.554  1.00  0.00     0.041 C 
ATOM      6  O   UNL     1      51.864  36.284 -16.742  1.00  0.00    -0.550 OA
ATOM      7  O   UNL     1      50.077  37.508 -15.997  1.00  0.00    -0.550 OA
ENDBRANCH   4   5
ENDBRANCH   3   4
ENDBRANCH   2   3
ENDBRANCH   1   2
BRANCH   1   8
ATOM      8  C   UNL     1      47.384  34.580 -13.362  1.00  0.00     0.000 C 
BRANCH   8   9
ATOM      9  C   UNL     1      45.991  34.260 -12.807  1.00  0.00     0.006 C 
BRANCH   9  10
ATOM     10  C   UNL     1      45.494  35.381 -11.890  1.00  0.00     0.053 C 
BRANCH  10  11
ATOM     11  C   UNL     1      46.216  35.343 -10.580  1.00  0.00     0.041 C 
ATOM     12  O   UNL     1      46.983  36.286 -10.251  1.00  0.00    -0.550 OA
ATOM     13  O   UNL     1      46.005  34.288  -9.701  1.00  0.00    -0.550 OA
ENDBRANCH  10  11
ENDBRANCH   9  10
ENDBRANCH   8   9
ENDBRANCH   1   8
TORSDOF 8
ENDMDL
MODEL 9
REMARK VINA RESULT:    -3.966     17.802     19.809
REMARK INTER + INTRA:          -6.371
REMARK INTER:                  -5.768
REMARK INTRA:                  -0.603
REMARK UNBOUND:                -0.550
REMARK SMILES O=C([O-])CCCCCCCC(=O)[O-]
REMARK SMILES IDX 7 1 6 2 5 3 4 4 2 5 1 6 3 7 8 8 9 9 10 10 11 11 12 12 13 13
REMARK H PARENT
REMARK Flexibility Score: inf
ROOT
ATOM      1  C   UNL     1      48.590  34.969 -13.763  1.00  0.00     0.000 C 
ENDROOT
BRANCH   1   2
ATOM      2  C   UNL     1      48.993  36.179 -12.912  1.00  0.00     0.000 C 
BRANCH   2   3
ATOM      3  C   UNL     1      47.806  36.695 -12.090  1.00  0.00     0.006 C 
BRANCH   3   4
ATOM      4  C   UNL     1      47.867  36.175 -10.651  1.00  0.00     0.053 C 
BRANCH   4   5
ATOM      5  C   UNL     1      46.797  35.156 -10.416  1.00  0.00     0.041 C 
ATOM      6  O   UNL     1      46.003  34.846 -11.343  1.00  0.00    -0.550 OA
ATOM      7  O   UNL     1      46.706  34.513  -9.188  1.00  0.00    -0.550 OA
ENDBRANCH   4   5
ENDBRANCH   3   4
ENDBRANCH   2   3
ENDBRANCH   1   2
BRANCH   1   8
ATOM      8  C   UNL     1      47.384  35.296 -14.651  1.00  0.00     0.000 C 
BRANCH   8   9
ATOM      9  C   UNL     1      47.572  34.734 -16.065  1.00  0.00     0.006 C 
BRANCH   9  10
ATOM     10  C   UNL     1      48.906  35.191 -16.664  1.00  0.00     0.053 C 
BRANCH  10  11
ATOM     11  C   UNL     1      48.852  36.645 -17.011  1.00  0.00     0.041 C 
ATOM     12  O   UNL     1      49.688  37.447 -16.516  1.00  0.00    -0.550 OA
ATOM     13  O   UNL     1      47.908  37.109 -17.920  1.00  0.00    -0.550 OA
ENDBRANCH  10  11
ENDBRANCH   9  10
ENDBRANCH   8   9
ENDBRANCH   1   8
TORSDOF 8
ENDMDL
