MODEL 1
REMARK VINA RESULT:    -6.882      0.000      0.000
REMARK INTER + INTRA:          -8.369
REMARK INTER:                  -8.089
REMARK INTRA:                  -0.280
REMARK UNBOUND:                -0.280
REMARK SMILES O=c1cc(-c2ccc(O)c(O)c2)oc2cc(O)cc(O)c12
REMARK SMILES IDX 4 1 3 2 2 3 1 4 21 5 19 6 18 7 16 8 15 9 14 10 13 11 5 12
REMARK SMILES IDX 6 13 7 14 8 15 12 16 10 17 9 18 11 20 20 22 17 24
REMARK H PARENT 9 19 11 21 20 23 17 25
REMARK Flexibility Score: inf
ROOT
ATOM      1  C   UNL     1      32.560 -35.742  35.797  1.00  0.00     0.138 A 
ATOM      2  C   UNL     1      33.643 -36.062  34.967  1.00  0.00     0.100 A 
ATOM      3  C   UNL     1      33.653 -37.278  34.282  1.00  0.00     0.197 A 
ATOM      4  O   UNL     1      34.609 -37.509  33.497  1.00  0.00    -0.289 OA
ATOM      5  C   UNL     1      32.586 -38.191  34.454  1.00  0.00     0.107 A 
ATOM      6  C   UNL     1      32.509 -39.476  33.838  1.00  0.00     0.134 A 
ATOM      7  C   UNL     1      31.349 -40.246  33.991  1.00  0.00     0.093 A 
ATOM      8  C   UNL     1      30.288 -39.802  34.785  1.00  0.00     0.123 A 
ATOM      9  C   UNL     1      30.376 -38.573  35.434  1.00  0.00     0.094 A 
ATOM     10  C   UNL     1      31.507 -37.766  35.274  1.00  0.00     0.146 A 
ATOM     11  O   UNL     1      31.545 -36.594  35.899  1.00  0.00    -0.456 OA
ENDROOT
BRANCH   1  12
ATOM     12  C   UNL     1      32.499 -34.464  36.550  1.00  0.00     0.021 A 
ATOM     13  C   UNL     1      32.589 -33.218  35.901  1.00  0.00     0.016 A 
ATOM     14  C   UNL     1      32.539 -32.031  36.636  1.00  0.00     0.051 A 
ATOM     15  C   UNL     1      32.405 -32.066  38.029  1.00  0.00     0.157 A 
ATOM     16  C   UNL     1      32.379 -34.491  37.951  1.00  0.00     0.062 A 
ATOM     17  C   UNL     1      32.328 -33.303  38.689  1.00  0.00     0.158 A 
BRANCH  15  18
ATOM     18  O   UNL     1      32.355 -30.879  38.759  1.00  0.00    -0.504 OA
ATOM     19  H   UNL     1      33.182 -30.489  39.195  1.00  0.00     0.293 HD
ENDBRANCH  15  18
BRANCH  17  20
ATOM     20  O   UNL     1      32.199 -33.373  40.076  1.00  0.00    -0.504 OA
ATOM     21  H   UNL     1      32.960 -33.672  40.673  1.00  0.00     0.293 HD
ENDBRANCH  17  20
ENDBRANCH   1  12
BRANCH   6  22
ATOM     22  O   UNL     1      33.544 -40.049  33.094  1.00  0.00    -0.507 OA
ATOM     23  H   UNL     1      34.484 -39.687  33.040  1.00  0.00     0.293 HD
ENDBRANCH   6  22
BRANCH   8  24
ATOM     24  O   UNL     1      29.144 -40.581  34.943  1.00  0.00    -0.508 OA
ATOM     25  H   UNL     1      28.239 -40.164  35.125  1.00  0.00     0.293 HD
ENDBRANCH   8  24
TORSDOF 5
ENDMDL
MODEL 2
REMARK VINA RESULT:    -6.493      1.877      2.704
REMARK INTER + INTRA:          -7.912
REMARK INTER:                  -7.634
REMARK INTRA:                  -0.278
REMARK UNBOUND:                -0.280
REMARK SMILES O=c1cc(-c2ccc(O)c(O)c2)oc2cc(O)cc(O)c12
REMARK SMILES IDX 4 1 3 2 2 3 1 4 21 5 19 6 18 7 16 8 15 9 14 10 13 11 5 12
REMARK SMILES IDX 6 13 7 14 8 15 12 16 10 17 9 18 11 20 20 22 17 24
REMARK H PARENT 9 19 11 21 20 23 17 25
REMARK Flexibility Score: inf
ROOT
ATOM      1  C   UNL     1      32.569 -35.348  35.263  1.00  0.00     0.138 A 
ATOM      2  C   UNL     1      31.555 -35.651  34.343  1.00  0.00     0.100 A 
ATOM      3  C   UNL     1      31.682 -36.769  33.518  1.00  0.00     0.197 A 
ATOM      4  O   UNL     1      30.728 -37.050  32.748  1.00  0.00    -0.289 OA
ATOM      5  C   UNL     1      32.846 -37.570  33.593  1.00  0.00     0.107 A 
ATOM      6  C   UNL     1      33.102 -38.710  32.774  1.00  0.00     0.134 A 
ATOM      7  C   UNL     1      34.237 -39.494  33.017  1.00  0.00     0.093 A 
ATOM      8  C   UNL     1      35.155 -39.144  34.012  1.00  0.00     0.123 A 
ATOM      9  C   UNL     1      34.941 -38.004  34.781  1.00  0.00     0.094 A 
ATOM     10  C   UNL     1      33.800 -37.219  34.585  1.00  0.00     0.146 A 
ATOM     11  O   UNL     1      33.627 -36.147  35.351  1.00  0.00    -0.456 OA
ENDROOT
BRANCH   1  12
ATOM     12  C   UNL     1      32.486 -34.171  36.162  1.00  0.00     0.021 A 
ATOM     13  C   UNL     1      32.428 -32.857  35.659  1.00  0.00     0.016 A 
ATOM     14  C   UNL     1      32.360 -31.766  36.530  1.00  0.00     0.051 A 
ATOM     15  C   UNL     1      32.356 -31.966  37.916  1.00  0.00     0.157 A 
ATOM     16  C   UNL     1      32.496 -34.362  37.556  1.00  0.00     0.062 A 
ATOM     17  C   UNL     1      32.427 -33.271  38.430  1.00  0.00     0.158 A 
BRANCH  15  18
ATOM     18  O   UNL     1      32.288 -30.875  38.781  1.00  0.00    -0.504 OA
ATOM     19  H   UNL     1      32.233 -30.997  39.785  1.00  0.00     0.293 HD
ENDBRANCH  15  18
BRANCH  17  20
ATOM     20  O   UNL     1      32.429 -33.504  39.805  1.00  0.00    -0.504 OA
ATOM     21  H   UNL     1      31.707 -34.050  40.259  1.00  0.00     0.293 HD
ENDBRANCH  17  20
ENDBRANCH   1  12
BRANCH   6  22
ATOM     22  O   UNL     1      32.295 -39.097  31.700  1.00  0.00    -0.507 OA
ATOM     23  H   UNL     1      31.884 -40.012  31.588  1.00  0.00     0.293 HD
ENDBRANCH   6  22
BRANCH   8  24
ATOM     24  O   UNL     1      36.288 -39.923  34.237  1.00  0.00    -0.508 OA
ATOM     25  H   UNL     1      36.592 -40.623  33.571  1.00  0.00     0.293 HD
ENDBRANCH   8  24
TORSDOF 5
ENDMDL
MODEL 3
REMARK VINA RESULT:    -6.278      4.552      6.596
REMARK INTER + INTRA:          -7.659
REMARK INTER:                  -7.346
REMARK INTRA:                  -0.313
REMARK UNBOUND:                -0.280
REMARK SMILES O=c1cc(-c2ccc(O)c(O)c2)oc2cc(O)cc(O)c12
REMARK SMILES IDX 4 1 3 2 2 3 1 4 21 5 19 6 18 7 16 8 15 9 14 10 13 11 5 12
REMARK SMILES IDX 6 13 7 14 8 15 12 16 10 17 9 18 11 20 20 22 17 24
REMARK H PARENT 9 19 11 21 20 23 17 25
REMARK Flexibility Score: inf
ROOT
ATOM      1  C   UNL     1      32.391 -37.298  32.685  1.00  0.00     0.138 A 
ATOM      2  C   UNL     1      32.353 -36.413  31.599  1.00  0.00     0.100 A 
ATOM      3  C   UNL     1      33.538 -35.848  31.126  1.00  0.00     0.197 A 
ATOM      4  O   UNL     1      33.479 -35.107  30.111  1.00  0.00    -0.289 OA
ATOM      5  C   UNL     1      34.764 -36.147  31.765  1.00  0.00     0.107 A 
ATOM      6  C   UNL     1      36.029 -35.600  31.395  1.00  0.00     0.134 A 
ATOM      7  C   UNL     1      37.192 -36.058  32.028  1.00  0.00     0.093 A 
ATOM      8  C   UNL     1      37.128 -37.002  33.057  1.00  0.00     0.123 A 
ATOM      9  C   UNL     1      35.893 -37.503  33.461  1.00  0.00     0.094 A 
ATOM     10  C   UNL     1      34.718 -37.090  32.827  1.00  0.00     0.146 A 
ATOM     11  O   UNL     1      33.562 -37.604  33.233  1.00  0.00    -0.456 OA
ENDROOT
BRANCH   1  12
ATOM     12  C   UNL     1      31.161 -37.925  33.229  1.00  0.00     0.021 A 
ATOM     13  C   UNL     1      29.886 -37.373  33.002  1.00  0.00     0.016 A 
ATOM     14  C   UNL     1      28.745 -37.980  33.535  1.00  0.00     0.051 A 
ATOM     15  C   UNL     1      28.857 -39.141  34.308  1.00  0.00     0.157 A 
ATOM     16  C   UNL     1      31.266 -39.084  34.019  1.00  0.00     0.062 A 
ATOM     17  C   UNL     1      30.125 -39.694  34.553  1.00  0.00     0.158 A 
BRANCH  15  18
ATOM     18  O   UNL     1      27.717 -39.744  34.837  1.00  0.00    -0.504 OA
ATOM     19  H   UNL     1      26.813 -39.288  34.806  1.00  0.00     0.293 HD
ENDBRANCH  15  18
BRANCH  17  20
ATOM     20  O   UNL     1      30.271 -40.848  35.323  1.00  0.00    -0.504 OA
ATOM     21  H   UNL     1      30.669 -40.826  36.254  1.00  0.00     0.293 HD
ENDBRANCH  17  20
ENDBRANCH   1  12
BRANCH   6  22
ATOM     22  O   UNL     1      36.194 -34.592  30.441  1.00  0.00    -0.507 OA
ATOM     23  H   UNL     1      36.614 -33.692  30.619  1.00  0.00     0.293 HD
ENDBRANCH   6  22
BRANCH   8  24
ATOM     24  O   UNL     1      38.289 -37.442  33.689  1.00  0.00    -0.508 OA
ATOM     25  H   UNL     1      38.377 -37.438  34.698  1.00  0.00     0.293 HD
ENDBRANCH   8  24
TORSDOF 5
ENDMDL
MODEL 4
REMARK VINA RESULT:    -6.183      4.282      6.422
REMARK INTER + INTRA:          -7.548
REMARK INTER:                  -7.254
REMARK INTRA:                  -0.294
REMARK UNBOUND:                -0.280
REMARK SMILES O=c1cc(-c2ccc(O)c(O)c2)oc2cc(O)cc(O)c12
REMARK SMILES IDX 4 1 3 2 2 3 1 4 21 5 19 6 18 7 16 8 15 9 14 10 13 11 5 12
REMARK SMILES IDX 6 13 7 14 8 15 12 16 10 17 9 18 11 20 20 22 17 24
REMARK H PARENT 9 19 11 21 20 23 17 25
REMARK Flexibility Score: inf
ROOT
ATOM      1  C   UNL     1      32.318 -38.269  33.492  1.00  0.00     0.138 A 
ATOM      2  C   UNL     1      33.183 -39.337  33.770  1.00  0.00     0.100 A 
ATOM      3  C   UNL     1      34.559 -39.171  33.613  1.00  0.00     0.197 A 
ATOM      4  O   UNL     1      35.313 -40.127  33.930  1.00  0.00    -0.289 OA
ATOM      5  C   UNL     1      35.070 -37.937  33.146  1.00  0.00     0.107 A 
ATOM      6  C   UNL     1      36.451 -37.665  32.911  1.00  0.00     0.134 A 
ATOM      7  C   UNL     1      36.849 -36.369  32.558  1.00  0.00     0.093 A 
ATOM      8  C   UNL     1      35.910 -35.351  32.376  1.00  0.00     0.123 A 
ATOM      9  C   UNL     1      34.555 -35.619  32.551  1.00  0.00     0.094 A 
ATOM     10  C   UNL     1      34.128 -36.894  32.936  1.00  0.00     0.146 A 
ATOM     11  O   UNL     1      32.827 -37.104  33.107  1.00  0.00    -0.456 OA
ENDROOT
BRANCH   1  12
ATOM     12  C   UNL     1      30.847 -38.393  33.640  1.00  0.00     0.021 A 
ATOM     13  C   UNL     1      29.974 -37.365  33.237  1.00  0.00     0.016 A 
ATOM     14  C   UNL     1      28.592 -37.504  33.398  1.00  0.00     0.051 A 
ATOM     15  C   UNL     1      28.060 -38.666  33.969  1.00  0.00     0.157 A 
ATOM     16  C   UNL     1      30.304 -39.551  34.227  1.00  0.00     0.062 A 
ATOM     17  C   UNL     1      28.922 -39.692  34.388  1.00  0.00     0.158 A 
BRANCH  15  18
ATOM     18  O   UNL     1      26.681 -38.801  34.127  1.00  0.00    -0.504 OA
ATOM     19  H   UNL     1      26.269 -39.024  35.025  1.00  0.00     0.293 HD
ENDBRANCH  15  18
BRANCH  17  20
ATOM     20  O   UNL     1      28.423 -40.861  34.965  1.00  0.00    -0.504 OA
ATOM     21  H   UNL     1      28.793 -41.774  34.733  1.00  0.00     0.293 HD
ENDBRANCH  17  20
ENDBRANCH   1  12
BRANCH   6  22
ATOM     22  O   UNL     1      37.460 -38.630  32.982  1.00  0.00    -0.507 OA
ATOM     23  H   UNL     1      37.992 -38.968  32.194  1.00  0.00     0.293 HD
ENDBRANCH   6  22
BRANCH   8  24
ATOM     24  O   UNL     1      36.314 -34.069  32.012  1.00  0.00    -0.508 OA
ATOM     25  H   UNL     1      35.888 -33.578  31.234  1.00  0.00     0.293 HD
ENDBRANCH   8  24
TORSDOF 5
ENDMDL
MODEL 5
REMARK VINA RESULT:    -6.148      2.059      7.104
REMARK INTER + INTRA:          -7.506
REMARK INTER:                  -7.220
REMARK INTRA:                  -0.286
REMARK UNBOUND:                -0.280
REMARK SMILES O=c1cc(-c2ccc(O)c(O)c2)oc2cc(O)cc(O)c12
REMARK SMILES IDX 4 1 3 2 2 3 1 4 21 5 19 6 18 7 16 8 15 9 14 10 13 11 5 12
REMARK SMILES IDX 6 13 7 14 8 15 12 16 10 17 9 18 11 20 20 22 17 24
REMARK H PARENT 9 19 11 21 20 23 17 25
REMARK Flexibility Score: inf
ROOT
ATOM      1  C   UNL     1      32.520 -35.536  34.976  1.00  0.00     0.138 A 
ATOM      2  C   UNL     1      31.757 -34.646  34.207  1.00  0.00     0.100 A 
ATOM      3  C   UNL     1      31.232 -33.497  34.798  1.00  0.00     0.197 A 
ATOM      4  O   UNL     1      30.605 -32.687  34.068  1.00  0.00    -0.289 OA
ATOM      5  C   UNL     1      31.444 -33.255  36.176  1.00  0.00     0.107 A 
ATOM      6  C   UNL     1      30.924 -32.138  36.895  1.00  0.00     0.134 A 
ATOM      7  C   UNL     1      31.297 -31.941  38.231  1.00  0.00     0.093 A 
ATOM      8  C   UNL     1      32.125 -32.854  38.889  1.00  0.00     0.123 A 
ATOM      9  C   UNL     1      32.596 -33.976  38.212  1.00  0.00     0.094 A 
ATOM     10  C   UNL     1      32.268 -34.182  36.868  1.00  0.00     0.146 A 
ATOM     11  O   UNL     1      32.750 -35.258  36.255  1.00  0.00    -0.456 OA
ENDROOT
BRANCH   1  12
ATOM     12  C   UNL     1      33.101 -36.773  34.398  1.00  0.00     0.021 A 
ATOM     13  C   UNL     1      34.301 -37.325  34.885  1.00  0.00     0.016 A 
ATOM     14  C   UNL     1      34.831 -38.486  34.314  1.00  0.00     0.051 A 
ATOM     15  C   UNL     1      34.177 -39.111  33.246  1.00  0.00     0.157 A 
ATOM     16  C   UNL     1      32.458 -37.400  33.314  1.00  0.00     0.062 A 
ATOM     17  C   UNL     1      32.987 -38.562  32.743  1.00  0.00     0.158 A 
BRANCH  15  18
ATOM     18  O   UNL     1      34.709 -40.269  32.680  1.00  0.00    -0.504 OA
ATOM     19  H   UNL     1      35.029 -40.292  31.720  1.00  0.00     0.293 HD
ENDBRANCH  15  18
BRANCH  17  20
ATOM     20  O   UNL     1      32.313 -39.159  31.676  1.00  0.00    -0.504 OA
ATOM     21  H   UNL     1      32.259 -40.164  31.569  1.00  0.00     0.293 HD
ENDBRANCH  17  20
ENDBRANCH   1  12
BRANCH   6  22
ATOM     22  O   UNL     1      30.023 -31.214  36.357  1.00  0.00    -0.507 OA
ATOM     23  H   UNL     1      29.514 -31.340  35.495  1.00  0.00     0.293 HD
ENDBRANCH   6  22
BRANCH   8  24
ATOM     24  O   UNL     1      32.479 -32.658  40.222  1.00  0.00    -0.508 OA
ATOM     25  H   UNL     1      33.111 -31.916  40.499  1.00  0.00     0.293 HD
ENDBRANCH   8  24
TORSDOF 5
ENDMDL
MODEL 6
REMARK VINA RESULT:    -6.125      6.135      9.547
REMARK INTER + INTRA:          -7.479
REMARK INTER:                  -7.201
REMARK INTRA:                  -0.277
REMARK UNBOUND:                -0.280
REMARK SMILES O=c1cc(-c2ccc(O)c(O)c2)oc2cc(O)cc(O)c12
REMARK SMILES IDX 4 1 3 2 2 3 1 4 21 5 19 6 18 7 16 8 15 9 14 10 13 11 5 12
REMARK SMILES IDX 6 13 7 14 8 15 12 16 10 17 9 18 11 20 20 22 17 24
REMARK H PARENT 9 19 11 21 20 23 17 25
REMARK Flexibility Score: inf
ROOT
ATOM      1  C   UNL     1      29.795 -33.958  42.263  1.00  0.00     0.138 A 
ATOM      2  C   UNL     1      28.844 -34.987  42.286  1.00  0.00     0.100 A 
ATOM      3  C   UNL     1      28.477 -35.561  43.504  1.00  0.00     0.197 A 
ATOM      4  O   UNL     1      27.576 -36.439  43.499  1.00  0.00    -0.289 OA
ATOM      5  C   UNL     1      29.090 -35.123  44.701  1.00  0.00     0.107 A 
ATOM      6  C   UNL     1      28.824 -35.662  45.995  1.00  0.00     0.134 A 
ATOM      7  C   UNL     1      29.406 -35.069  47.123  1.00  0.00     0.093 A 
ATOM      8  C   UNL     1      30.289 -33.994  46.997  1.00  0.00     0.123 A 
ATOM      9  C   UNL     1      30.597 -33.494  45.735  1.00  0.00     0.094 A 
ATOM     10  C   UNL     1      30.006 -34.042  44.592  1.00  0.00     0.146 A 
ATOM     11  O   UNL     1      30.315 -33.527  43.407  1.00  0.00    -0.456 OA
ENDROOT
BRANCH   1  12
ATOM     12  C   UNL     1      30.223 -33.313  40.996  1.00  0.00     0.021 A 
ATOM     13  C   UNL     1      29.305 -32.659  40.152  1.00  0.00     0.016 A 
ATOM     14  C   UNL     1      29.735 -32.070  38.959  1.00  0.00     0.051 A 
ATOM     15  C   UNL     1      31.083 -32.129  38.586  1.00  0.00     0.157 A 
ATOM     16  C   UNL     1      31.573 -33.381  40.606  1.00  0.00     0.062 A 
ATOM     17  C   UNL     1      32.005 -32.791  39.413  1.00  0.00     0.158 A 
BRANCH  15  18
ATOM     18  O   UNL     1      31.506 -31.539  37.396  1.00  0.00    -0.504 OA
ATOM     19  H   UNL     1      31.204 -31.887  36.494  1.00  0.00     0.293 HD
ENDBRANCH  15  18
BRANCH  17  20
ATOM     20  O   UNL     1      33.354 -32.871  39.067  1.00  0.00    -0.504 OA
ATOM     21  H   UNL     1      34.065 -33.138  39.736  1.00  0.00     0.293 HD
ENDBRANCH  17  20
ENDBRANCH   1  12
BRANCH   6  22
ATOM     22  O   UNL     1      28.024 -36.785  46.224  1.00  0.00    -0.507 OA
ATOM     23  H   UNL     1      27.745 -37.448  45.516  1.00  0.00     0.293 HD
ENDBRANCH   6  22
BRANCH   8  24
ATOM     24  O   UNL     1      30.874 -33.419  48.124  1.00  0.00    -0.508 OA
ATOM     25  H   UNL     1      30.908 -32.415  48.251  1.00  0.00     0.293 HD
ENDBRANCH   8  24
TORSDOF 5
ENDMDL
MODEL 7
REMARK VINA RESULT:    -6.092     12.069     13.702
REMARK INTER + INTRA:          -7.441
REMARK INTER:                  -7.152
REMARK INTRA:                  -0.289
REMARK UNBOUND:                -0.280
REMARK SMILES O=c1cc(-c2ccc(O)c(O)c2)oc2cc(O)cc(O)c12
REMARK SMILES IDX 4 1 3 2 2 3 1 4 21 5 19 6 18 7 16 8 15 9 14 10 13 11 5 12
REMARK SMILES IDX 6 13 7 14 8 15 12 16 10 17 9 18 11 20 20 22 17 24
REMARK H PARENT 9 19 11 21 20 23 17 25
REMARK Flexibility Score: inf
ROOT
ATOM      1  C   UNL     1      34.318 -46.657  43.141  1.00  0.00     0.138 A 
ATOM      2  C   UNL     1      34.126 -47.906  43.747  1.00  0.00     0.100 A 
ATOM      3  C   UNL     1      35.223 -48.733  43.989  1.00  0.00     0.197 A 
ATOM      4  O   UNL     1      35.027 -49.820  44.591  1.00  0.00    -0.289 OA
ATOM      5  C   UNL     1      36.517 -48.318  43.592  1.00  0.00     0.107 A 
ATOM      6  C   UNL     1      37.704 -49.095  43.752  1.00  0.00     0.134 A 
ATOM      7  C   UNL     1      38.945 -48.533  43.426  1.00  0.00     0.093 A 
ATOM      8  C   UNL     1      39.035 -47.244  42.893  1.00  0.00     0.123 A 
ATOM      9  C   UNL     1      37.878 -46.499  42.684  1.00  0.00     0.094 A 
ATOM     10  C   UNL     1      36.627 -47.019  43.030  1.00  0.00     0.146 A 
ATOM     11  O   UNL     1      35.549 -46.268  42.828  1.00  0.00    -0.456 OA
ENDROOT
BRANCH   1  12
ATOM     12  C   UNL     1      33.186 -45.739  42.860  1.00  0.00     0.021 A 
ATOM     13  C   UNL     1      32.035 -46.172  42.173  1.00  0.00     0.016 A 
ATOM     14  C   UNL     1      30.988 -45.283  41.913  1.00  0.00     0.051 A 
ATOM     15  C   UNL     1      31.074 -43.948  42.326  1.00  0.00     0.157 A 
ATOM     16  C   UNL     1      33.270 -44.392  43.258  1.00  0.00     0.062 A 
ATOM     17  C   UNL     1      32.222 -43.501  43.000  1.00  0.00     0.158 A 
BRANCH  15  18
ATOM     18  O   UNL     1      30.027 -43.065  42.065  1.00  0.00    -0.504 OA
ATOM     19  H   UNL     1      30.193 -42.080  41.897  1.00  0.00     0.293 HD
ENDBRANCH  15  18
BRANCH  17  20
ATOM     20  O   UNL     1      32.341 -42.177  43.421  1.00  0.00    -0.504 OA
ATOM     21  H   UNL     1      31.691 -41.761  44.077  1.00  0.00     0.293 HD
ENDBRANCH  17  20
ENDBRANCH   1  12
BRANCH   6  22
ATOM     22  O   UNL     1      37.716 -50.420  44.196  1.00  0.00    -0.507 OA
ATOM     23  H   UNL     1      37.097 -51.145  43.865  1.00  0.00     0.293 HD
ENDBRANCH   6  22
BRANCH   8  24
ATOM     24  O   UNL     1      40.273 -46.700  42.559  1.00  0.00    -0.508 OA
ATOM     25  H   UNL     1      40.410 -45.698  42.485  1.00  0.00     0.293 HD
ENDBRANCH   8  24
TORSDOF 5
ENDMDL
MODEL 8
REMARK VINA RESULT:    -5.996      4.580      6.335
REMARK INTER + INTRA:          -7.328
REMARK INTER:                  -7.016
REMARK INTRA:                  -0.312
REMARK UNBOUND:                -0.280
REMARK SMILES O=c1cc(-c2ccc(O)c(O)c2)oc2cc(O)cc(O)c12
REMARK SMILES IDX 4 1 3 2 2 3 1 4 21 5 19 6 18 7 16 8 15 9 14 10 13 11 5 12
REMARK SMILES IDX 6 13 7 14 8 15 12 16 10 17 9 18 11 20 20 22 17 24
REMARK H PARENT 9 19 11 21 20 23 17 25
REMARK Flexibility Score: inf
ROOT
ATOM      1  C   UNL     1      33.472 -38.548  33.504  1.00  0.00     0.138 A 
ATOM      2  C   UNL     1      34.200 -37.379  33.242  1.00  0.00     0.100 A 
ATOM      3  C   UNL     1      35.593 -37.429  33.192  1.00  0.00     0.197 A 
ATOM      4  O   UNL     1      36.215 -36.377  32.894  1.00  0.00    -0.289 OA
ATOM      5  C   UNL     1      36.263 -38.651  33.438  1.00  0.00     0.107 A 
ATOM      6  C   UNL     1      37.680 -38.813  33.453  1.00  0.00     0.134 A 
ATOM      7  C   UNL     1      38.228 -40.094  33.593  1.00  0.00     0.093 A 
ATOM      8  C   UNL     1      37.408 -41.212  33.777  1.00  0.00     0.123 A 
ATOM      9  C   UNL     1      36.025 -41.057  33.817  1.00  0.00     0.094 A 
ATOM     10  C   UNL     1      35.447 -39.795  33.647  1.00  0.00     0.146 A 
ATOM     11  O   UNL     1      34.123 -39.694  33.677  1.00  0.00    -0.456 OA
ENDROOT
BRANCH   1  12
ATOM     12  C   UNL     1      31.990 -38.551  33.569  1.00  0.00     0.021 A 
ATOM     13  C   UNL     1      31.221 -37.524  32.989  1.00  0.00     0.016 A 
ATOM     14  C   UNL     1      29.826 -37.547  33.075  1.00  0.00     0.051 A 
ATOM     15  C   UNL     1      29.176 -38.590  33.745  1.00  0.00     0.157 A 
ATOM     16  C   UNL     1      31.328 -39.588  34.252  1.00  0.00     0.062 A 
ATOM     17  C   UNL     1      29.932 -39.614  34.338  1.00  0.00     0.158 A 
BRANCH  15  18
ATOM     18  O   UNL     1      27.784 -38.610  33.827  1.00  0.00    -0.504 OA
ATOM     19  H   UNL     1      27.305 -39.010  34.624  1.00  0.00     0.293 HD
ENDBRANCH  15  18
BRANCH  17  20
ATOM     20  O   UNL     1      29.314 -40.665  35.016  1.00  0.00    -0.504 OA
ATOM     21  H   UNL     1      29.767 -41.151  35.780  1.00  0.00     0.293 HD
ENDBRANCH  17  20
ENDBRANCH   1  12
BRANCH   6  22
ATOM     22  O   UNL     1      38.588 -37.754  33.362  1.00  0.00    -0.507 OA
ATOM     23  H   UNL     1      38.949 -37.234  34.149  1.00  0.00     0.293 HD
ENDBRANCH   6  22
BRANCH   8  24
ATOM     24  O   UNL     1      37.963 -42.481  33.930  1.00  0.00    -0.508 OA
ATOM     25  H   UNL     1      38.955 -42.611  34.085  1.00  0.00     0.293 HD
ENDBRANCH   8  24
TORSDOF 5
ENDMDL
MODEL 9
REMARK VINA RESULT:    -5.993      1.925      3.450
REMARK INTER + INTRA:          -7.324
REMARK INTER:                  -7.044
REMARK INTRA:                  -0.279
REMARK UNBOUND:                -0.280
REMARK SMILES O=c1cc(-c2ccc(O)c(O)c2)oc2cc(O)cc(O)c12
REMARK SMILES IDX 4 1 3 2 2 3 1 4 21 5 19 6 18 7 16 8 15 9 14 10 13 11 5 12
REMARK SMILES IDX 6 13 7 14 8 15 12 16 10 17 9 18 11 20 20 22 17 24
REMARK H PARENT 9 19 11 21 20 23 17 25
REMARK Flexibility Score: inf
ROOT
ATOM      1  C   UNL     1      32.744 -35.003  35.157  1.00  0.00     0.138 A 
ATOM      2  C   UNL     1      32.048 -36.213  35.285  1.00  0.00     0.100 A 
ATOM      3  C   UNL     1      32.203 -37.205  34.316  1.00  0.00     0.197 A 
ATOM      4  O   UNL     1      31.615 -38.303  34.491  1.00  0.00    -0.289 OA
ATOM      5  C   UNL     1      33.035 -36.970  33.196  1.00  0.00     0.107 A 
ATOM      6  C   UNL     1      33.237 -37.892  32.126  1.00  0.00     0.134 A 
ATOM      7  C   UNL     1      34.174 -37.596  31.128  1.00  0.00     0.093 A 
ATOM      8  C   UNL     1      34.873 -36.386  31.131  1.00  0.00     0.123 A 
ATOM      9  C   UNL     1      34.644 -35.457  32.142  1.00  0.00     0.094 A 
ATOM     10  C   UNL     1      33.740 -35.737  33.170  1.00  0.00     0.146 A 
ATOM     11  O   UNL     1      33.561 -34.828  34.124  1.00  0.00    -0.456 OA
ENDROOT
BRANCH   1  12
ATOM     12  C   UNL     1      32.615 -33.914  36.158  1.00  0.00     0.021 A 
ATOM     13  C   UNL     1      32.589 -32.559  35.778  1.00  0.00     0.016 A 
ATOM     14  C   UNL     1      32.477 -31.554  36.743  1.00  0.00     0.051 A 
ATOM     15  C   UNL     1      32.395 -31.883  38.101  1.00  0.00     0.157 A 
ATOM     16  C   UNL     1      32.546 -34.235  37.526  1.00  0.00     0.062 A 
ATOM     17  C   UNL     1      32.433 -33.231  38.493  1.00  0.00     0.158 A 
BRANCH  15  18
ATOM     18  O   UNL     1      32.282 -30.877  39.060  1.00  0.00    -0.504 OA
ATOM     19  H   UNL     1      31.870 -29.979  38.841  1.00  0.00     0.293 HD
ENDBRANCH  15  18
BRANCH  17  20
ATOM     20  O   UNL     1      32.357 -33.592  39.839  1.00  0.00    -0.504 OA
ATOM     21  H   UNL     1      31.476 -33.808  40.288  1.00  0.00     0.293 HD
ENDBRANCH  17  20
ENDBRANCH   1  12
BRANCH   6  22
ATOM     22  O   UNL     1      32.530 -39.089  31.983  1.00  0.00    -0.507 OA
ATOM     23  H   UNL     1      32.768 -39.826  31.336  1.00  0.00     0.293 HD
ENDBRANCH   6  22
BRANCH   8  24
ATOM     24  O   UNL     1      35.793 -36.095  30.126  1.00  0.00    -0.508 OA
ATOM     25  H   UNL     1      36.683 -35.657  30.332  1.00  0.00     0.293 HD
ENDBRANCH   8  24
TORSDOF 5
ENDMDL
