MODEL 1
REMARK VINA RESULT:    -4.098      0.000      0.000
REMARK INTER + INTRA:         -10.568
REMARK INTER:                  -7.691
REMARK INTRA:                  -2.877
REMARK UNBOUND:                -2.877
REMARK SMILES CCCCCCCCC=CCCCCCCCC(=O)[O-]
REMARK SMILES IDX 10 1 9 2 11 3 12 4 13 5 14 6 15 7 16 8 17 9 18 10 19 11
REMARK SMILES IDX 20 12 8 13 7 14 6 15 5 16 4 17 3 18 2 19 1 20
REMARK H PARENT
REMARK Flexibility Score: inf
ROOT
ATOM      1  C   UNL     1    -102.358  24.824  14.226  1.00  0.00    -0.031 C 
ATOM      2  C   UNL     1    -101.944  24.642  15.494  1.00  0.00    -0.031 C 
ENDROOT
BRANCH   1   3
ATOM      3  C   UNL     1    -103.545  24.139  13.592  1.00  0.00     0.027 C 
BRANCH   3   4
ATOM      4  C   UNL     1    -103.103  23.149  12.507  1.00  0.00     0.004 C 
BRANCH   4   5
ATOM      5  C   UNL     1    -103.891  21.829  12.571  1.00  0.00     0.000 C 
BRANCH   5   6
ATOM      6  C   UNL     1    -104.737  21.717  13.856  1.00  0.00     0.000 C 
BRANCH   6   7
ATOM      7  C   UNL     1    -104.176  20.715  14.880  1.00  0.00     0.000 C 
BRANCH   7   8
ATOM      8  C   UNL     1    -105.005  19.424  14.966  1.00  0.00     0.006 C 
BRANCH   8   9
ATOM      9  C   UNL     1    -104.207  18.192  14.521  1.00  0.00     0.053 C 
BRANCH   9  10
ATOM     10  C   UNL     1    -103.395  17.618  15.643  1.00  0.00     0.041 C 
ATOM     11  O   UNL     1    -103.948  17.300  16.728  1.00  0.00    -0.550 OA
ATOM     12  O   UNL     1    -102.029  17.416  15.482  1.00  0.00    -0.550 OA
ENDBRANCH   9  10
ENDBRANCH   8   9
ENDBRANCH   7   8
ENDBRANCH   6   7
ENDBRANCH   5   6
ENDBRANCH   4   5
ENDBRANCH   3   4
ENDBRANCH   1   3
BRANCH   2  13
ATOM     13  C   UNL     1    -102.562  23.679  16.478  1.00  0.00     0.027 C 
BRANCH  13  14
ATOM     14  C   UNL     1    -103.681  24.330  17.306  1.00  0.00     0.004 C 
BRANCH  14  15
ATOM     15  C   UNL     1    -105.044  23.657  17.067  1.00  0.00     0.000 C 
BRANCH  15  16
ATOM     16  C   UNL     1    -106.022  24.565  16.304  1.00  0.00     0.000 C 
BRANCH  16  17
ATOM     17  C   UNL     1    -105.711  26.060  16.492  1.00  0.00    -0.000 C 
BRANCH  17  18
ATOM     18  C   UNL     1    -105.613  26.821  15.160  1.00  0.00    -0.000 C 
BRANCH  18  19
ATOM     19  C   UNL     1    -104.435  27.814  15.103  1.00  0.00    -0.003 C 
ATOM     20  C   UNL     1    -103.666  27.882  16.423  1.00  0.00     0.004 C 
ENDBRANCH  18  19
ENDBRANCH  17  18
ENDBRANCH  16  17
ENDBRANCH  15  16
ENDBRANCH  14  15
ENDBRANCH  13  14
ENDBRANCH   2  13
TORSDOF 15
ENDMDL
MODEL 2
REMARK VINA RESULT:    -3.991      1.857      3.168
REMARK INTER + INTRA:         -10.367
REMARK INTER:                  -7.446
REMARK INTRA:                  -2.921
REMARK UNBOUND:                -2.877
REMARK SMILES CCCCCCCCC=CCCCCCCCC(=O)[O-]
REMARK SMILES IDX 10 1 9 2 11 3 12 4 13 5 14 6 15 7 16 8 17 9 18 10 19 11
REMARK SMILES IDX 20 12 8 13 7 14 6 15 5 16 4 17 3 18 2 19 1 20
REMARK H PARENT
REMARK Flexibility Score: inf
ROOT
ATOM      1  C   UNL     1    -103.613  24.265  17.491  1.00  0.00    -0.031 C 
ATOM      2  C   UNL     1    -104.932  24.020  17.596  1.00  0.00    -0.031 C 
ENDROOT
BRANCH   1   3
ATOM      3  C   UNL     1    -102.696  23.662  16.453  1.00  0.00     0.027 C 
BRANCH   3   4
ATOM      4  C   UNL     1    -102.098  24.743  15.544  1.00  0.00     0.004 C 
BRANCH   4   5
ATOM      5  C   UNL     1    -102.518  24.563  14.074  1.00  0.00     0.000 C 
BRANCH   5   6
ATOM      6  C   UNL     1    -103.038  23.140  13.787  1.00  0.00     0.000 C 
BRANCH   6   7
ATOM      7  C   UNL     1    -103.486  22.928  12.331  1.00  0.00     0.000 C 
BRANCH   7   8
ATOM      8  C   UNL     1    -104.075  21.530  12.085  1.00  0.00     0.006 C 
BRANCH   8   9
ATOM      9  C   UNL     1    -104.686  20.927  13.357  1.00  0.00     0.053 C 
BRANCH   9  10
ATOM     10  C   UNL     1    -105.190  19.533  13.127  1.00  0.00     0.041 C 
ATOM     11  O   UNL     1    -104.522  18.724  12.432  1.00  0.00    -0.550 OA
ATOM     12  O   UNL     1    -106.389  19.124  13.697  1.00  0.00    -0.550 OA
ENDBRANCH   9  10
ENDBRANCH   8   9
ENDBRANCH   7   8
ENDBRANCH   6   7
ENDBRANCH   5   6
ENDBRANCH   4   5
ENDBRANCH   3   4
ENDBRANCH   1   3
BRANCH   2  13
ATOM     13  C   UNL     1    -105.708  23.058  16.731  1.00  0.00     0.027 C 
BRANCH  13  14
ATOM     14  C   UNL     1    -106.165  23.700  15.411  1.00  0.00     0.004 C 
BRANCH  14  15
ATOM     15  C   UNL     1    -107.367  24.640  15.611  1.00  0.00     0.000 C 
BRANCH  15  16
ATOM     16  C   UNL     1    -107.211  25.964  14.844  1.00  0.00     0.000 C 
BRANCH  16  17
ATOM     17  C   UNL     1    -105.840  26.093  14.160  1.00  0.00    -0.000 C 
BRANCH  17  18
ATOM     18  C   UNL     1    -105.049  27.323  14.638  1.00  0.00    -0.000 C 
BRANCH  18  19
ATOM     19  C   UNL     1    -104.910  27.408  16.172  1.00  0.00    -0.003 C 
ATOM     20  C   UNL     1    -103.546  27.948  16.604  1.00  0.00     0.004 C 
ENDBRANCH  18  19
ENDBRANCH  17  18
ENDBRANCH  16  17
ENDBRANCH  15  16
ENDBRANCH  14  15
ENDBRANCH  13  14
ENDBRANCH   2  13
TORSDOF 15
ENDMDL
MODEL 3
REMARK VINA RESULT:    -3.837      2.922      7.047
REMARK INTER + INTRA:         -10.078
REMARK INTER:                  -8.674
REMARK INTRA:                  -1.403
REMARK UNBOUND:                -2.877
REMARK SMILES CCCCCCCCC=CCCCCCCCC(=O)[O-]
REMARK SMILES IDX 10 1 9 2 11 3 12 4 13 5 14 6 15 7 16 8 17 9 18 10 19 11
REMARK SMILES IDX 20 12 8 13 7 14 6 15 5 16 4 17 3 18 2 19 1 20
REMARK H PARENT
REMARK Flexibility Score: inf
ROOT
ATOM      1  C   UNL     1    -103.986  21.996  13.516  1.00  0.00    -0.031 C 
ATOM      2  C   UNL     1    -104.632  20.833  13.720  1.00  0.00    -0.031 C 
ENDROOT
BRANCH   1   3
ATOM      3  C   UNL     1    -103.418  22.456  12.194  1.00  0.00     0.027 C 
BRANCH   3   4
ATOM      4  C   UNL     1    -102.599  23.742  12.357  1.00  0.00     0.004 C 
BRANCH   4   5
ATOM      5  C   UNL     1    -102.995  24.527  13.620  1.00  0.00     0.000 C 
BRANCH   5   6
ATOM      6  C   UNL     1    -101.783  24.824  14.526  1.00  0.00     0.000 C 
BRANCH   6   7
ATOM      7  C   UNL     1    -102.162  25.136  15.984  1.00  0.00     0.000 C 
BRANCH   7   8
ATOM      8  C   UNL     1    -102.645  23.895  16.752  1.00  0.00     0.006 C 
BRANCH   8   9
ATOM      9  C   UNL     1    -103.895  24.185  17.593  1.00  0.00     0.053 C 
BRANCH   9  10
ATOM     10  C   UNL     1    -105.082  24.507  16.735  1.00  0.00     0.041 C 
ATOM     11  O   UNL     1    -105.657  23.597  16.083  1.00  0.00    -0.550 OA
ATOM     12  O   UNL     1    -105.564  25.809  16.672  1.00  0.00    -0.550 OA
ENDBRANCH   9  10
ENDBRANCH   8   9
ENDBRANCH   7   8
ENDBRANCH   6   7
ENDBRANCH   5   6
ENDBRANCH   4   5
ENDBRANCH   3   4
ENDBRANCH   1   3
BRANCH   2  13
ATOM     13  C   UNL     1    -104.849  19.767  12.675  1.00  0.00     0.027 C 
BRANCH  13  14
ATOM     14  C   UNL     1    -104.828  18.351  13.273  1.00  0.00     0.004 C 
BRANCH  14  15
ATOM     15  C   UNL     1    -104.617  18.370  14.797  1.00  0.00     0.000 C 
BRANCH  15  16
ATOM     16  C   UNL     1    -103.302  17.692  15.217  1.00  0.00     0.000 C 
BRANCH  16  17
ATOM     17  C   UNL     1    -103.459  16.825  16.476  1.00  0.00    -0.000 C 
BRANCH  17  18
ATOM     18  C   UNL     1    -104.512  17.375  17.452  1.00  0.00    -0.000 C 
BRANCH  18  19
ATOM     19  C   UNL     1    -105.275  16.276  18.220  1.00  0.00    -0.003 C 
ATOM     20  C   UNL     1    -105.675  16.720  19.628  1.00  0.00     0.004 C 
ENDBRANCH  18  19
ENDBRANCH  17  18
ENDBRANCH  16  17
ENDBRANCH  15  16
ENDBRANCH  14  15
ENDBRANCH  13  14
ENDBRANCH   2  13
TORSDOF 15
ENDMDL
MODEL 4
REMARK VINA RESULT:    -3.774      3.714      7.282
REMARK INTER + INTRA:          -9.961
REMARK INTER:                  -8.373
REMARK INTRA:                  -1.588
REMARK UNBOUND:                -2.877
REMARK SMILES CCCCCCCCC=CCCCCCCCC(=O)[O-]
REMARK SMILES IDX 10 1 9 2 11 3 12 4 13 5 14 6 15 7 16 8 17 9 18 10 19 11
REMARK SMILES IDX 20 12 8 13 7 14 6 15 5 16 4 17 3 18 2 19 1 20
REMARK H PARENT
REMARK Flexibility Score: inf
ROOT
ATOM      1  C   UNL     1    -104.523  19.257  12.077  1.00  0.00    -0.031 C 
ATOM      2  C   UNL     1    -104.597  18.295  13.015  1.00  0.00    -0.031 C 
ENDROOT
BRANCH   1   3
ATOM      3  C   UNL     1    -105.040  20.668  12.234  1.00  0.00     0.027 C 
BRANCH   3   4
ATOM      4  C   UNL     1    -103.889  21.673  12.352  1.00  0.00     0.004 C 
BRANCH   4   5
ATOM      5  C   UNL     1    -104.211  22.812  13.336  1.00  0.00     0.000 C 
BRANCH   5   6
ATOM      6  C   UNL     1    -105.277  22.401  14.373  1.00  0.00     0.000 C 
BRANCH   6   7
ATOM      7  C   UNL     1    -104.837  22.621  15.831  1.00  0.00     0.000 C 
BRANCH   7   8
ATOM      8  C   UNL     1    -103.355  23.010  15.955  1.00  0.00     0.006 C 
BRANCH   8   9
ATOM      9  C   UNL     1    -103.152  24.248  16.837  1.00  0.00     0.053 C 
BRANCH   9  10
ATOM     10  C   UNL     1    -103.113  25.510  16.027  1.00  0.00     0.041 C 
ATOM     11  O   UNL     1    -102.878  25.462  14.792  1.00  0.00    -0.550 OA
ATOM     12  O   UNL     1    -103.356  26.736  16.635  1.00  0.00    -0.550 OA
ENDBRANCH   9  10
ENDBRANCH   8   9
ENDBRANCH   7   8
ENDBRANCH   6   7
ENDBRANCH   5   6
ENDBRANCH   4   5
ENDBRANCH   3   4
ENDBRANCH   1   3
BRANCH   2  13
ATOM     13  C   UNL     1    -105.261  18.446  14.361  1.00  0.00     0.027 C 
BRANCH  13  14
ATOM     14  C   UNL     1    -104.285  18.939  15.441  1.00  0.00     0.004 C 
BRANCH  14  15
ATOM     15  C   UNL     1    -103.391  17.806  15.975  1.00  0.00     0.000 C 
BRANCH  15  16
ATOM     16  C   UNL     1    -104.169  16.803  16.843  1.00  0.00     0.000 C 
BRANCH  16  17
ATOM     17  C   UNL     1    -104.882  17.475  18.028  1.00  0.00    -0.000 C 
BRANCH  17  18
ATOM     18  C   UNL     1    -105.576  16.465  18.957  1.00  0.00    -0.000 C 
BRANCH  18  19
ATOM     19  C   UNL     1    -106.808  17.041  19.684  1.00  0.00    -0.003 C 
ATOM     20  C   UNL     1    -106.521  17.362  21.152  1.00  0.00     0.004 C 
ENDBRANCH  18  19
ENDBRANCH  17  18
ENDBRANCH  16  17
ENDBRANCH  15  16
ENDBRANCH  14  15
ENDBRANCH  13  14
ENDBRANCH   2  13
TORSDOF 15
ENDMDL
MODEL 5
REMARK VINA RESULT:    -3.708      3.633      6.851
REMARK INTER + INTRA:          -9.836
REMARK INTER:                  -7.678
REMARK INTRA:                  -2.158
REMARK UNBOUND:                -2.877
REMARK SMILES CCCCCCCCC=CCCCCCCCC(=O)[O-]
REMARK SMILES IDX 10 1 9 2 11 3 12 4 13 5 14 6 15 7 16 8 17 9 18 10 19 11
REMARK SMILES IDX 20 12 8 13 7 14 6 15 5 16 4 17 3 18 2 19 1 20
REMARK H PARENT
REMARK Flexibility Score: inf
ROOT
ATOM      1  C   UNL     1    -102.650  24.919  16.355  1.00  0.00    -0.031 C 
ATOM      2  C   UNL     1    -102.465  24.776  15.030  1.00  0.00    -0.031 C 
ENDROOT
BRANCH   1   3
ATOM      3  C   UNL     1    -103.136  23.834  17.288  1.00  0.00     0.027 C 
BRANCH   3   4
ATOM      4  C   UNL     1    -104.626  24.001  17.607  1.00  0.00     0.004 C 
BRANCH   4   5
ATOM      5  C   UNL     1    -105.521  23.238  16.614  1.00  0.00     0.000 C 
BRANCH   5   6
ATOM      6  C   UNL     1    -106.621  24.137  16.014  1.00  0.00     0.000 C 
BRANCH   6   7
ATOM      7  C   UNL     1    -106.206  24.828  14.703  1.00  0.00     0.000 C 
BRANCH   7   8
ATOM      8  C   UNL     1    -106.377  26.355  14.754  1.00  0.00     0.006 C 
BRANCH   8   9
ATOM      9  C   UNL     1    -105.718  26.970  15.996  1.00  0.00     0.053 C 
BRANCH   9  10
ATOM     10  C   UNL     1    -104.518  27.795  15.639  1.00  0.00     0.041 C 
ATOM     11  O   UNL     1    -103.678  28.106  16.524  1.00  0.00    -0.550 OA
ATOM     12  O   UNL     1    -104.318  28.204  14.326  1.00  0.00    -0.550 OA
ENDBRANCH   9  10
ENDBRANCH   8   9
ENDBRANCH   7   8
ENDBRANCH   6   7
ENDBRANCH   5   6
ENDBRANCH   4   5
ENDBRANCH   3   4
ENDBRANCH   1   3
BRANCH   2  13
ATOM     13  C   UNL     1    -102.766  23.525  14.242  1.00  0.00     0.027 C 
BRANCH  13  14
ATOM     14  C   UNL     1    -102.580  23.730  12.730  1.00  0.00     0.004 C 
BRANCH  14  15
ATOM     15  C   UNL     1    -103.266  22.625  11.907  1.00  0.00     0.000 C 
BRANCH  15  16
ATOM     16  C   UNL     1    -104.660  22.270  12.449  1.00  0.00     0.000 C 
BRANCH  16  17
ATOM     17  C   UNL     1    -104.957  20.762  12.378  1.00  0.00    -0.000 C 
BRANCH  17  18
ATOM     18  C   UNL     1    -106.063  20.326  13.352  1.00  0.00    -0.000 C 
BRANCH  18  19
ATOM     19  C   UNL     1    -105.956  18.849  13.785  1.00  0.00    -0.003 C 
ATOM     20  C   UNL     1    -104.587  18.247  13.467  1.00  0.00     0.004 C 
ENDBRANCH  18  19
ENDBRANCH  17  18
ENDBRANCH  16  17
ENDBRANCH  15  16
ENDBRANCH  14  15
ENDBRANCH  13  14
ENDBRANCH   2  13
TORSDOF 15
ENDMDL
MODEL 6
REMARK VINA RESULT:    -3.695      2.505      6.802
REMARK INTER + INTRA:          -9.811
REMARK INTER:                  -8.568
REMARK INTRA:                  -1.244
REMARK UNBOUND:                -2.877
REMARK SMILES CCCCCCCCC=CCCCCCCCC(=O)[O-]
REMARK SMILES IDX 10 1 9 2 11 3 12 4 13 5 14 6 15 7 16 8 17 9 18 10 19 11
REMARK SMILES IDX 20 12 8 13 7 14 6 15 5 16 4 17 3 18 2 19 1 20
REMARK H PARENT
REMARK Flexibility Score: inf
ROOT
ATOM      1  C   UNL     1    -104.148  21.905  13.739  1.00  0.00    -0.031 C 
ATOM      2  C   UNL     1    -104.684  20.684  13.922  1.00  0.00    -0.031 C 
ENDROOT
BRANCH   1   3
ATOM      3  C   UNL     1    -103.756  22.491  12.403  1.00  0.00     0.027 C 
BRANCH   3   4
ATOM      4  C   UNL     1    -102.634  23.525  12.558  1.00  0.00     0.004 C 
BRANCH   4   5
ATOM      5  C   UNL     1    -102.977  24.601  13.604  1.00  0.00     0.000 C 
BRANCH   5   6
ATOM      6  C   UNL     1    -101.932  24.664  14.737  1.00  0.00     0.000 C 
BRANCH   6   7
ATOM      7  C   UNL     1    -102.503  24.318  16.123  1.00  0.00     0.000 C 
BRANCH   7   8
ATOM      8  C   UNL     1    -102.077  22.924  16.613  1.00  0.00     0.006 C 
BRANCH   8   9
ATOM      9  C   UNL     1    -100.846  22.983  17.527  1.00  0.00     0.053 C 
BRANCH   9  10
ATOM     10  C   UNL     1    -100.266  21.622  17.770  1.00  0.00     0.041 C 
ATOM     11  O   UNL     1     -99.358  21.464  18.627  1.00  0.00    -0.550 OA
ATOM     12  O   UNL     1    -100.743  20.525  17.062  1.00  0.00    -0.550 OA
ENDBRANCH   9  10
ENDBRANCH   8   9
ENDBRANCH   7   8
ENDBRANCH   6   7
ENDBRANCH   5   6
ENDBRANCH   4   5
ENDBRANCH   3   4
ENDBRANCH   1   3
BRANCH   2  13
ATOM     13  C   UNL     1    -104.929  19.671  12.830  1.00  0.00     0.027 C 
BRANCH  13  14
ATOM     14  C   UNL     1    -104.867  18.226  13.350  1.00  0.00     0.004 C 
BRANCH  14  15
ATOM     15  C   UNL     1    -104.124  18.126  14.694  1.00  0.00     0.000 C 
BRANCH  15  16
ATOM     16  C   UNL     1    -104.963  17.430  15.778  1.00  0.00     0.000 C 
BRANCH  16  17
ATOM     17  C   UNL     1    -104.197  17.261  17.101  1.00  0.00    -0.000 C 
BRANCH  17  18
ATOM     18  C   UNL     1    -105.102  17.403  18.336  1.00  0.00    -0.000 C 
BRANCH  18  19
ATOM     19  C   UNL     1    -105.787  16.086  18.753  1.00  0.00    -0.003 C 
ATOM     20  C   UNL     1    -104.906  14.863  18.494  1.00  0.00     0.004 C 
ENDBRANCH  18  19
ENDBRANCH  17  18
ENDBRANCH  16  17
ENDBRANCH  15  16
ENDBRANCH  14  15
ENDBRANCH  13  14
ENDBRANCH   2  13
TORSDOF 15
ENDMDL
MODEL 7
REMARK VINA RESULT:    -3.691      3.905      7.534
REMARK INTER + INTRA:          -9.804
REMARK INTER:                  -8.334
REMARK INTRA:                  -1.469
REMARK UNBOUND:                -2.877
REMARK SMILES CCCCCCCCC=CCCCCCCCC(=O)[O-]
REMARK SMILES IDX 10 1 9 2 11 3 12 4 13 5 14 6 15 7 16 8 17 9 18 10 19 11
REMARK SMILES IDX 20 12 8 13 7 14 6 15 5 16 4 17 3 18 2 19 1 20
REMARK H PARENT
REMARK Flexibility Score: inf
ROOT
ATOM      1  C   UNL     1    -105.671  19.382  13.791  1.00  0.00    -0.031 C 
ATOM      2  C   UNL     1    -105.278  19.178  15.062  1.00  0.00    -0.031 C 
ENDROOT
BRANCH   1   3
ATOM      3  C   UNL     1    -104.746  19.638  12.624  1.00  0.00     0.027 C 
BRANCH   3   4
ATOM      4  C   UNL     1    -105.019  21.006  11.988  1.00  0.00     0.004 C 
BRANCH   4   5
ATOM      5  C   UNL     1    -103.794  21.935  12.059  1.00  0.00     0.000 C 
BRANCH   5   6
ATOM      6  C   UNL     1    -103.640  22.590  13.447  1.00  0.00     0.000 C 
BRANCH   6   7
ATOM      7  C   UNL     1    -104.966  23.093  14.043  1.00  0.00     0.000 C 
BRANCH   7   8
ATOM      8  C   UNL     1    -105.094  24.625  14.007  1.00  0.00     0.006 C 
BRANCH   8   9
ATOM      9  C   UNL     1    -103.768  25.324  14.332  1.00  0.00     0.053 C 
BRANCH   9  10
ATOM     10  C   UNL     1    -103.776  25.925  15.705  1.00  0.00     0.041 C 
ATOM     11  O   UNL     1    -103.106  25.399  16.632  1.00  0.00    -0.550 OA
ATOM     12  O   UNL     1    -104.510  27.079  15.956  1.00  0.00    -0.550 OA
ENDBRANCH   9  10
ENDBRANCH   8   9
ENDBRANCH   7   8
ENDBRANCH   6   7
ENDBRANCH   5   6
ENDBRANCH   4   5
ENDBRANCH   3   4
ENDBRANCH   1   3
BRANCH   2  13
ATOM     13  C   UNL     1    -103.850  19.230  15.547  1.00  0.00     0.027 C 
BRANCH  13  14
ATOM     14  C   UNL     1    -103.290  17.833  15.859  1.00  0.00     0.004 C 
BRANCH  14  15
ATOM     15  C   UNL     1    -104.406  16.797  16.078  1.00  0.00     0.000 C 
BRANCH  15  16
ATOM     16  C   UNL     1    -104.230  16.012  17.388  1.00  0.00     0.000 C 
BRANCH  16  17
ATOM     17  C   UNL     1    -105.503  16.006  18.251  1.00  0.00    -0.000 C 
BRANCH  17  18
ATOM     18  C   UNL     1    -105.514  17.125  19.305  1.00  0.00    -0.000 C 
BRANCH  18  19
ATOM     19  C   UNL     1    -106.855  17.251  20.056  1.00  0.00    -0.003 C 
ATOM     20  C   UNL     1    -106.673  17.271  21.574  1.00  0.00     0.004 C 
ENDBRANCH  18  19
ENDBRANCH  17  18
ENDBRANCH  16  17
ENDBRANCH  15  16
ENDBRANCH  14  15
ENDBRANCH  13  14
ENDBRANCH   2  13
TORSDOF 15
ENDMDL
MODEL 8
REMARK VINA RESULT:    -3.629      1.248      2.396
REMARK INTER + INTRA:          -9.688
REMARK INTER:                  -7.378
REMARK INTRA:                  -2.311
REMARK UNBOUND:                -2.877
REMARK SMILES CCCCCCCCC=CCCCCCCCC(=O)[O-]
REMARK SMILES IDX 10 1 9 2 11 3 12 4 13 5 14 6 15 7 16 8 17 9 18 10 19 11
REMARK SMILES IDX 20 12 8 13 7 14 6 15 5 16 4 17 3 18 2 19 1 20
REMARK H PARENT
REMARK Flexibility Score: inf
ROOT
ATOM      1  C   UNL     1    -103.156  22.773  14.536  1.00  0.00    -0.031 C 
ATOM      2  C   UNL     1    -102.834  23.554  15.583  1.00  0.00    -0.031 C 
ENDROOT
BRANCH   1   3
ATOM      3  C   UNL     1    -103.269  23.241  13.104  1.00  0.00     0.027 C 
BRANCH   3   4
ATOM      4  C   UNL     1    -104.015  22.217  12.241  1.00  0.00     0.004 C 
BRANCH   4   5
ATOM      5  C   UNL     1    -104.822  21.220  13.091  1.00  0.00     0.000 C 
BRANCH   5   6
ATOM      6  C   UNL     1    -104.854  19.811  12.463  1.00  0.00     0.000 C 
BRANCH   6   7
ATOM      7  C   UNL     1    -104.639  18.677  13.480  1.00  0.00     0.000 C 
BRANCH   7   8
ATOM      8  C   UNL     1    -104.199  19.189  14.861  1.00  0.00     0.006 C 
BRANCH   8   9
ATOM      9  C   UNL     1    -104.535  18.196  15.981  1.00  0.00     0.053 C 
BRANCH   9  10
ATOM     10  C   UNL     1    -103.506  17.111  16.091  1.00  0.00     0.041 C 
ATOM     11  O   UNL     1    -103.780  16.035  16.685  1.00  0.00    -0.550 OA
ATOM     12  O   UNL     1    -102.250  17.281  15.519  1.00  0.00    -0.550 OA
ENDBRANCH   9  10
ENDBRANCH   8   9
ENDBRANCH   7   8
ENDBRANCH   6   7
ENDBRANCH   5   6
ENDBRANCH   4   5
ENDBRANCH   3   4
ENDBRANCH   1   3
BRANCH   2  13
ATOM     13  C   UNL     1    -102.588  25.041  15.514  1.00  0.00     0.027 C 
BRANCH  13  14
ATOM     14  C   UNL     1    -103.276  25.801  16.660  1.00  0.00     0.004 C 
BRANCH  14  15
ATOM     15  C   UNL     1    -103.959  27.090  16.171  1.00  0.00     0.000 C 
BRANCH  15  16
ATOM     16  C   UNL     1    -105.480  26.925  16.013  1.00  0.00     0.000 C 
BRANCH  16  17
ATOM     17  C   UNL     1    -105.900  26.689  14.552  1.00  0.00    -0.000 C 
BRANCH  17  18
ATOM     18  C   UNL     1    -106.232  25.217  14.258  1.00  0.00    -0.000 C 
BRANCH  18  19
ATOM     19  C   UNL     1    -106.459  24.371  15.528  1.00  0.00    -0.003 C 
ATOM     20  C   UNL     1    -107.190  23.060  15.232  1.00  0.00     0.004 C 
ENDBRANCH  18  19
ENDBRANCH  17  18
ENDBRANCH  16  17
ENDBRANCH  15  16
ENDBRANCH  14  15
ENDBRANCH  13  14
ENDBRANCH   2  13
TORSDOF 15
ENDMDL
MODEL 9
REMARK VINA RESULT:    -3.623      2.387      4.181
REMARK INTER + INTRA:          -9.677
REMARK INTER:                  -8.351
REMARK INTRA:                  -1.326
REMARK UNBOUND:                -2.877
REMARK SMILES CCCCCCCCC=CCCCCCCCC(=O)[O-]
REMARK SMILES IDX 10 1 9 2 11 3 12 4 13 5 14 6 15 7 16 8 17 9 18 10 19 11
REMARK SMILES IDX 20 12 8 13 7 14 6 15 5 16 4 17 3 18 2 19 1 20
REMARK H PARENT
REMARK Flexibility Score: inf
ROOT
ATOM      1  C   UNL     1    -104.570  20.474  12.025  1.00  0.00    -0.031 C 
ATOM      2  C   UNL     1    -104.142  21.746  11.933  1.00  0.00    -0.031 C 
ENDROOT
BRANCH   1   3
ATOM      3  C   UNL     1    -105.423  19.921  13.143  1.00  0.00     0.027 C 
BRANCH   3   4
ATOM      4  C   UNL     1    -104.825  18.629  13.712  1.00  0.00     0.004 C 
BRANCH   4   5
ATOM      5  C   UNL     1    -104.412  18.781  15.187  1.00  0.00     0.000 C 
BRANCH   5   6
ATOM      6  C   UNL     1    -103.395  17.706  15.621  1.00  0.00     0.000 C 
BRANCH   6   7
ATOM      7  C   UNL     1    -103.910  16.782  16.737  1.00  0.00     0.000 C 
BRANCH   7   8
ATOM      8  C   UNL     1    -104.763  17.524  17.779  1.00  0.00     0.006 C 
BRANCH   8   9
ATOM      9  C   UNL     1    -105.337  16.576  18.840  1.00  0.00     0.053 C 
BRANCH   9  10
ATOM     10  C   UNL     1    -106.392  17.242  19.672  1.00  0.00     0.041 C 
ATOM     11  O   UNL     1    -107.391  17.773  19.121  1.00  0.00    -0.550 OA
ATOM     12  O   UNL     1    -106.278  17.259  21.057  1.00  0.00    -0.550 OA
ENDBRANCH   9  10
ENDBRANCH   8   9
ENDBRANCH   7   8
ENDBRANCH   6   7
ENDBRANCH   5   6
ENDBRANCH   4   5
ENDBRANCH   3   4
ENDBRANCH   1   3
BRANCH   2  13
ATOM     13  C   UNL     1    -104.393  22.822  12.961  1.00  0.00     0.027 C 
BRANCH  13  14
ATOM     14  C   UNL     1    -103.158  23.095  13.834  1.00  0.00     0.004 C 
BRANCH  14  15
ATOM     15  C   UNL     1    -103.315  22.522  15.254  1.00  0.00     0.000 C 
BRANCH  15  16
ATOM     16  C   UNL     1    -103.936  23.534  16.230  1.00  0.00     0.000 C 
BRANCH  16  17
ATOM     17  C   UNL     1    -102.933  24.604  16.691  1.00  0.00    -0.000 C 
BRANCH  17  18
ATOM     18  C   UNL     1    -103.507  26.029  16.622  1.00  0.00    -0.000 C 
BRANCH  18  19
ATOM     19  C   UNL     1    -104.476  26.246  15.442  1.00  0.00    -0.003 C 
ATOM     20  C   UNL     1    -104.548  27.711  15.009  1.00  0.00     0.004 C 
ENDBRANCH  18  19
ENDBRANCH  17  18
ENDBRANCH  16  17
ENDBRANCH  15  16
ENDBRANCH  14  15
ENDBRANCH  13  14
ENDBRANCH   2  13
TORSDOF 15
ENDMDL
