MODEL 1
REMARK VINA RESULT:    -3.487      0.000      0.000
REMARK INTER + INTRA:          -4.405
REMARK INTER:                  -4.302
REMARK INTRA:                  -0.103
REMARK UNBOUND:                -0.103
REMARK SMILES CCCCCC(=O)[O-]
REMARK SMILES IDX 4 1 5 2 6 3 7 4 8 5 3 6 2 7 1 8
REMARK H PARENT
REMARK Flexibility Score: inf
ROOT
ATOM      1  C   UNL     1      28.412  21.107  25.432  1.00  0.00     0.006 C 
ENDROOT
BRANCH   1   2
ATOM      2  C   UNL     1      27.218  20.360  24.825  1.00  0.00     0.053 C 
BRANCH   2   3
ATOM      3  C   UNL     1      26.050  20.396  25.761  1.00  0.00     0.041 C 
ATOM      4  O   UNL     1      25.665  21.489  26.251  1.00  0.00    -0.550 OA
ATOM      5  O   UNL     1      25.358  19.227  26.054  1.00  0.00    -0.550 OA
ENDBRANCH   2   3
ENDBRANCH   1   2
BRANCH   1   6
ATOM      6  C   UNL     1      29.705  20.911  24.625  1.00  0.00     0.000 C 
BRANCH   6   7
ATOM      7  C   UNL     1      29.488  20.071  23.357  1.00  0.00    -0.003 C 
ATOM      8  C   UNL     1      30.506  20.434  22.279  1.00  0.00     0.004 C 
ENDBRANCH   6   7
ENDBRANCH   1   6
TORSDOF 4
ENDMDL
MODEL 2
REMARK VINA RESULT:    -3.449     21.450     22.182
REMARK INTER + INTRA:          -4.358
REMARK INTER:                  -4.245
REMARK INTRA:                  -0.114
REMARK UNBOUND:                -0.103
REMARK SMILES CCCCCC(=O)[O-]
REMARK SMILES IDX 4 1 5 2 6 3 7 4 8 5 3 6 2 7 1 8
REMARK H PARENT
REMARK Flexibility Score: inf
ROOT
ATOM      1  C   UNL     1      13.776  32.394  11.713  1.00  0.00     0.006 C 
ENDROOT
BRANCH   1   2
ATOM      2  C   UNL     1      15.270  32.127  11.487  1.00  0.00     0.053 C 
BRANCH   2   3
ATOM      3  C   UNL     1      15.966  33.384  11.068  1.00  0.00     0.041 C 
ATOM      4  O   UNL     1      17.176  33.567  11.363  1.00  0.00    -0.550 OA
ATOM      5  O   UNL     1      15.291  34.333  10.311  1.00  0.00    -0.550 OA
ENDBRANCH   2   3
ENDBRANCH   1   2
BRANCH   1   6
ATOM      6  C   UNL     1      13.007  31.130  12.127  1.00  0.00     0.000 C 
BRANCH   6   7
ATOM      7  C   UNL     1      13.866  29.860  12.043  1.00  0.00    -0.003 C 
ATOM      8  C   UNL     1      13.691  28.996  13.290  1.00  0.00     0.004 C 
ENDBRANCH   6   7
ENDBRANCH   1   6
TORSDOF 4
ENDMDL
MODEL 3
REMARK VINA RESULT:    -3.396     21.867     22.571
REMARK INTER + INTRA:          -4.293
REMARK INTER:                  -4.185
REMARK INTRA:                  -0.108
REMARK UNBOUND:                -0.103
REMARK SMILES CCCCCC(=O)[O-]
REMARK SMILES IDX 4 1 5 2 6 3 7 4 8 5 3 6 2 7 1 8
REMARK H PARENT
REMARK Flexibility Score: inf
ROOT
ATOM      1  C   UNL     1      14.501  32.204  11.534  1.00  0.00     0.006 C 
ENDROOT
BRANCH   1   2
ATOM      2  C   UNL     1      13.100  32.693  11.923  1.00  0.00     0.053 C 
BRANCH   2   3
ATOM      3  C   UNL     1      13.121  34.161  12.215  1.00  0.00     0.041 C 
ATOM      4  O   UNL     1      13.240  34.991  11.277  1.00  0.00    -0.550 OA
ATOM      5  O   UNL     1      12.963  34.612  13.519  1.00  0.00    -0.550 OA
ENDBRANCH   2   3
ENDBRANCH   1   2
BRANCH   1   6
ATOM      6  C   UNL     1      14.729  30.725  11.881  1.00  0.00     0.000 C 
BRANCH   6   7
ATOM      7  C   UNL     1      13.427  29.994  12.239  1.00  0.00    -0.003 C 
ATOM      8  C   UNL     1      13.664  28.950  13.327  1.00  0.00     0.004 C 
ENDBRANCH   6   7
ENDBRANCH   1   6
TORSDOF 4
ENDMDL
MODEL 4
REMARK VINA RESULT:    -3.373     20.948     21.381
REMARK INTER + INTRA:          -4.265
REMARK INTER:                  -4.222
REMARK INTRA:                  -0.043
REMARK UNBOUND:                -0.103
REMARK SMILES CCCCCC(=O)[O-]
REMARK SMILES IDX 4 1 5 2 6 3 7 4 8 5 3 6 2 7 1 8
REMARK H PARENT
REMARK Flexibility Score: inf
ROOT
ATOM      1  C   UNL     1      14.973  31.156  11.713  1.00  0.00     0.006 C 
ENDROOT
BRANCH   1   2
ATOM      2  C   UNL     1      13.518  30.739  11.967  1.00  0.00     0.053 C 
BRANCH   2   3
ATOM      3  C   UNL     1      13.454  29.309  12.404  1.00  0.00     0.041 C 
ATOM      4  O   UNL     1      13.585  29.012  13.620  1.00  0.00    -0.550 OA
ATOM      5  O   UNL     1      13.203  28.308  11.474  1.00  0.00    -0.550 OA
ENDBRANCH   2   3
ENDBRANCH   1   2
BRANCH   1   6
ATOM      6  C   UNL     1      15.115  32.657  11.419  1.00  0.00     0.000 C 
BRANCH   6   7
ATOM      7  C   UNL     1      16.537  33.178  11.672  1.00  0.00    -0.003 C 
ATOM      8  C   UNL     1      17.047  33.983  10.479  1.00  0.00     0.004 C 
ENDBRANCH   6   7
ENDBRANCH   1   6
TORSDOF 4
ENDMDL
MODEL 5
REMARK VINA RESULT:    -3.350      3.162      4.647
REMARK INTER + INTRA:          -4.236
REMARK INTER:                  -4.136
REMARK INTRA:                  -0.100
REMARK UNBOUND:                -0.103
REMARK SMILES CCCCCC(=O)[O-]
REMARK SMILES IDX 4 1 5 2 6 3 7 4 8 5 3 6 2 7 1 8
REMARK H PARENT
REMARK Flexibility Score: inf
ROOT
ATOM      1  C   UNL     1      28.706  21.104  24.981  1.00  0.00     0.006 C 
ENDROOT
BRANCH   1   2
ATOM      2  C   UNL     1      28.671  20.228  23.722  1.00  0.00     0.053 C 
BRANCH   2   3
ATOM      3  C   UNL     1      30.058  20.002  23.205  1.00  0.00     0.041 C 
ATOM      4  O   UNL     1      30.781  19.101  23.704  1.00  0.00    -0.550 OA
ATOM      5  O   UNL     1      30.534  20.757  22.140  1.00  0.00    -0.550 OA
ENDBRANCH   2   3
ENDBRANCH   1   2
BRANCH   1   6
ATOM      6  C   UNL     1      27.692  20.653  26.043  1.00  0.00     0.000 C 
BRANCH   6   7
ATOM      7  C   UNL     1      26.239  20.930  25.628  1.00  0.00    -0.003 C 
ATOM      8  C   UNL     1      25.332  19.757  25.990  1.00  0.00     0.004 C 
ENDBRANCH   6   7
ENDBRANCH   1   6
TORSDOF 4
ENDMDL
MODEL 6
REMARK VINA RESULT:    -3.349     17.822     18.194
REMARK INTER + INTRA:          -4.235
REMARK INTER:                  -4.130
REMARK INTRA:                  -0.106
REMARK UNBOUND:                -0.103
REMARK SMILES CCCCCC(=O)[O-]
REMARK SMILES IDX 4 1 5 2 6 3 7 4 8 5 3 6 2 7 1 8
REMARK H PARENT
REMARK Flexibility Score: inf
ROOT
ATOM      1  C   UNL     1      25.013  37.985  24.784  1.00  0.00     0.006 C 
ENDROOT
BRANCH   1   2
ATOM      2  C   UNL     1      25.748  38.060  26.129  1.00  0.00     0.053 C 
BRANCH   2   3
ATOM      3  C   UNL     1      24.786  38.379  27.231  1.00  0.00     0.041 C 
ATOM      4  O   UNL     1      25.152  38.302  28.433  1.00  0.00    -0.550 OA
ATOM      5  O   UNL     1      23.499  38.806  26.928  1.00  0.00    -0.550 OA
ENDBRANCH   2   3
ENDBRANCH   1   2
BRANCH   1   6
ATOM      6  C   UNL     1      25.488  39.058  23.791  1.00  0.00     0.000 C 
BRANCH   6   7
ATOM      7  C   UNL     1      25.643  38.515  22.363  1.00  0.00    -0.003 C 
ATOM      8  C   UNL     1      24.527  37.529  22.026  1.00  0.00     0.004 C 
ENDBRANCH   6   7
ENDBRANCH   1   6
TORSDOF 4
ENDMDL
MODEL 7
REMARK VINA RESULT:    -3.279     21.388     22.051
REMARK INTER + INTRA:          -4.148
REMARK INTER:                  -4.040
REMARK INTRA:                  -0.108
REMARK UNBOUND:                -0.103
REMARK SMILES CCCCCC(=O)[O-]
REMARK SMILES IDX 4 1 5 2 6 3 7 4 8 5 3 6 2 7 1 8
REMARK H PARENT
REMARK Flexibility Score: inf
ROOT
ATOM      1  C   UNL     1      14.626  31.476  11.749  1.00  0.00     0.006 C 
ENDROOT
BRANCH   1   2
ATOM      2  C   UNL     1      13.325  30.663  11.754  1.00  0.00     0.053 C 
BRANCH   2   3
ATOM      3  C   UNL     1      13.598  29.245  12.150  1.00  0.00     0.041 C 
ATOM      4  O   UNL     1      14.152  28.990  13.251  1.00  0.00    -0.550 OA
ATOM      5  O   UNL     1      13.197  28.203  11.322  1.00  0.00    -0.550 OA
ENDBRANCH   2   3
ENDBRANCH   1   2
BRANCH   1   6
ATOM      6  C   UNL     1      14.376  32.991  11.804  1.00  0.00     0.000 C 
BRANCH   6   7
ATOM      7  C   UNL     1      12.938  33.338  12.215  1.00  0.00    -0.003 C 
ATOM      8  C   UNL     1      12.906  34.580  13.102  1.00  0.00     0.004 C 
ENDBRANCH   6   7
ENDBRANCH   1   6
TORSDOF 4
ENDMDL
MODEL 8
REMARK VINA RESULT:    -3.166      1.680      2.599
REMARK INTER + INTRA:          -4.010
REMARK INTER:                  -3.940
REMARK INTRA:                  -0.069
REMARK UNBOUND:                -0.103
REMARK SMILES CCCCCC(=O)[O-]
REMARK SMILES IDX 4 1 5 2 6 3 7 4 8 5 3 6 2 7 1 8
REMARK H PARENT
REMARK Flexibility Score: inf
ROOT
ATOM      1  C   UNL     1      25.922  20.655  25.954  1.00  0.00     0.006 C 
ENDROOT
BRANCH   1   2
ATOM      2  C   UNL     1      25.197  19.317  26.147  1.00  0.00     0.053 C 
BRANCH   2   3
ATOM      3  C   UNL     1      23.753  19.448  25.773  1.00  0.00     0.041 C 
ATOM      4  O   UNL     1      22.969  20.112  26.499  1.00  0.00    -0.550 OA
ATOM      5  O   UNL     1      23.286  18.875  24.596  1.00  0.00    -0.550 OA
ENDBRANCH   2   3
ENDBRANCH   1   2
BRANCH   1   6
ATOM      6  C   UNL     1      26.932  20.619  24.797  1.00  0.00     0.000 C 
BRANCH   6   7
ATOM      7  C   UNL     1      28.363  20.943  25.250  1.00  0.00    -0.003 C 
ATOM      8  C   UNL     1      29.387  20.444  24.234  1.00  0.00     0.004 C 
ENDBRANCH   6   7
ENDBRANCH   1   6
TORSDOF 4
ENDMDL
MODEL 9
REMARK VINA RESULT:    -3.061     17.661     18.431
REMARK INTER + INTRA:          -3.880
REMARK INTER:                  -3.810
REMARK INTRA:                  -0.070
REMARK UNBOUND:                -0.103
REMARK SMILES CCCCCC(=O)[O-]
REMARK SMILES IDX 4 1 5 2 6 3 7 4 8 5 3 6 2 7 1 8
REMARK H PARENT
REMARK Flexibility Score: inf
ROOT
ATOM      1  C   UNL     1      25.493  38.662  24.779  1.00  0.00     0.006 C 
ENDROOT
BRANCH   1   2
ATOM      2  C   UNL     1      24.487  37.655  24.207  1.00  0.00     0.053 C 
BRANCH   2   3
ATOM      3  C   UNL     1      24.194  37.968  22.773  1.00  0.00     0.041 C 
ATOM      4  O   UNL     1      24.752  37.313  21.855  1.00  0.00    -0.550 OA
ATOM      5  O   UNL     1      23.268  38.952  22.451  1.00  0.00    -0.550 OA
ENDBRANCH   2   3
ENDBRANCH   1   2
BRANCH   1   6
ATOM      6  C   UNL     1      25.804  38.409  26.262  1.00  0.00     0.000 C 
BRANCH   6   7
ATOM      7  C   UNL     1      24.576  38.601  27.164  1.00  0.00    -0.003 C 
ATOM      8  C   UNL     1      24.905  38.265  28.617  1.00  0.00     0.004 C 
ENDBRANCH   6   7
ENDBRANCH   1   6
TORSDOF 4
ENDMDL
