MODEL 1
REMARK VINA RESULT:    -3.627      0.000      0.000
REMARK INTER + INTRA:          -6.177
REMARK INTER:                  -5.747
REMARK INTRA:                  -0.430
REMARK UNBOUND:                -0.430
REMARK SMILES CCCCCCCCCCCC(=O)[O-]
REMARK SMILES IDX 7 1 8 2 9 3 10 4 11 5 12 6 13 7 14 8 6 9 5 10 4 11 3 12 2 13
REMARK SMILES IDX 1 14
REMARK H PARENT
REMARK Flexibility Score: inf
ROOT
ATOM      1  C   UNL     1     158.571 146.214 150.656  1.00  0.00     0.000 C 
ENDROOT
BRANCH   1   2
ATOM      2  C   UNL     1     157.367 145.340 150.249  1.00  0.00     0.000 C 
BRANCH   2   3
ATOM      3  C   UNL     1     157.724 143.948 149.692  1.00  0.00     0.000 C 
BRANCH   3   4
ATOM      4  C   UNL     1     158.457 143.959 148.338  1.00  0.00     0.006 C 
BRANCH   4   5
ATOM      5  C   UNL     1     159.983 144.004 148.488  1.00  0.00     0.053 C 
BRANCH   5   6
ATOM      6  C   UNL     1     160.641 143.969 147.146  1.00  0.00     0.041 C 
ATOM      7  O   UNL     1     159.950 144.072 146.098  1.00  0.00    -0.550 OA
ATOM      8  O   UNL     1     162.024 143.875 147.052  1.00  0.00    -0.550 OA
ENDBRANCH   5   6
ENDBRANCH   4   5
ENDBRANCH   3   4
ENDBRANCH   2   3
ENDBRANCH   1   2
BRANCH   1   9
ATOM      9  C   UNL     1     159.379 145.685 151.855  1.00  0.00     0.000 C 
BRANCH   9  10
ATOM     10  C   UNL     1     159.042 146.409 153.167  1.00  0.00    -0.000 C 
BRANCH  10  11
ATOM     11  C   UNL     1     159.294 145.500 154.376  1.00  0.00    -0.000 C 
BRANCH  11  12
ATOM     12  C   UNL     1     160.418 146.057 155.258  1.00  0.00    -0.000 C 
BRANCH  12  13
ATOM     13  C   UNL     1     160.959 147.376 154.692  1.00  0.00    -0.003 C 
ATOM     14  C   UNL     1     160.842 148.502 155.714  1.00  0.00     0.004 C 
ENDBRANCH  12  13
ENDBRANCH  11  12
ENDBRANCH  10  11
ENDBRANCH   9  10
ENDBRANCH   1   9
TORSDOF 10
ENDMDL
MODEL 2
REMARK VINA RESULT:    -3.334      2.312      2.959
REMARK INTER + INTRA:          -5.713
REMARK INTER:                  -5.492
REMARK INTRA:                  -0.221
REMARK UNBOUND:                -0.430
REMARK SMILES CCCCCCCCCCCC(=O)[O-]
REMARK SMILES IDX 7 1 8 2 9 3 10 4 11 5 12 6 13 7 14 8 6 9 5 10 4 11 3 12 2 13
REMARK SMILES IDX 1 14
REMARK H PARENT
REMARK Flexibility Score: inf
ROOT
ATOM      1  C   UNL     1     159.718 144.962 151.724  1.00  0.00     0.000 C 
ENDROOT
BRANCH   1   2
ATOM      2  C   UNL     1     160.328 143.915 150.770  1.00  0.00     0.000 C 
BRANCH   2   3
ATOM      3  C   UNL     1     160.655 144.429 149.354  1.00  0.00     0.000 C 
BRANCH   3   4
ATOM      4  C   UNL     1     159.433 144.866 148.524  1.00  0.00     0.006 C 
BRANCH   4   5
ATOM      5  C   UNL     1     158.267 143.875 148.616  1.00  0.00     0.053 C 
BRANCH   5   6
ATOM      6  C   UNL     1     157.081 144.522 149.259  1.00  0.00     0.041 C 
ATOM      7  O   UNL     1     155.987 143.905 149.336  1.00  0.00    -0.550 OA
ATOM      8  O   UNL     1     157.199 145.787 149.820  1.00  0.00    -0.550 OA
ENDBRANCH   5   6
ENDBRANCH   4   5
ENDBRANCH   3   4
ENDBRANCH   2   3
ENDBRANCH   1   2
BRANCH   1   9
ATOM      9  C   UNL     1     160.407 145.067 153.097  1.00  0.00     0.000 C 
BRANCH   9  10
ATOM     10  C   UNL     1     159.426 145.391 154.233  1.00  0.00    -0.000 C 
BRANCH  10  11
ATOM     11  C   UNL     1     160.150 146.054 155.411  1.00  0.00    -0.000 C 
BRANCH  11  12
ATOM     12  C   UNL     1     161.140 147.116 154.922  1.00  0.00    -0.000 C 
BRANCH  12  13
ATOM     13  C   UNL     1     160.526 148.519 154.999  1.00  0.00    -0.003 C 
ATOM     14  C   UNL     1     159.165 148.563 154.311  1.00  0.00     0.004 C 
ENDBRANCH  12  13
ENDBRANCH  11  12
ENDBRANCH  10  11
ENDBRANCH   9  10
ENDBRANCH   1   9
TORSDOF 10
ENDMDL
MODEL 3
REMARK VINA RESULT:    -3.118     15.014     16.251
REMARK INTER + INTRA:          -5.371
REMARK INTER:                  -4.185
REMARK INTRA:                  -1.187
REMARK UNBOUND:                -0.430
REMARK SMILES CCCCCCCCCCCC(=O)[O-]
REMARK SMILES IDX 7 1 8 2 9 3 10 4 11 5 12 6 13 7 14 8 6 9 5 10 4 11 3 12 2 13
REMARK SMILES IDX 1 14
REMARK H PARENT
REMARK Flexibility Score: inf
ROOT
ATOM      1  C   UNL     1     145.125 151.351 154.037  1.00  0.00     0.000 C 
ENDROOT
BRANCH   1   2
ATOM      2  C   UNL     1     143.776 151.947 153.586  1.00  0.00     0.000 C 
BRANCH   2   3
ATOM      3  C   UNL     1     143.642 152.197 152.071  1.00  0.00     0.000 C 
BRANCH   3   4
ATOM      4  C   UNL     1     144.898 151.864 151.244  1.00  0.00     0.006 C 
BRANCH   4   5
ATOM      5  C   UNL     1     144.569 151.414 149.816  1.00  0.00     0.053 C 
BRANCH   5   6
ATOM      6  C   UNL     1     145.751 150.741 149.194  1.00  0.00     0.041 C 
ATOM      7  O   UNL     1     146.413 151.326 148.297  1.00  0.00    -0.550 OA
ATOM      8  O   UNL     1     146.152 149.489 149.641  1.00  0.00    -0.550 OA
ENDBRANCH   5   6
ENDBRANCH   4   5
ENDBRANCH   3   4
ENDBRANCH   2   3
ENDBRANCH   1   2
BRANCH   1   9
ATOM      9  C   UNL     1     145.898 152.201 155.061  1.00  0.00     0.000 C 
BRANCH   9  10
ATOM     10  C   UNL     1     145.822 153.706 154.766  1.00  0.00    -0.000 C 
BRANCH  10  11
ATOM     11  C   UNL     1     147.017 154.162 153.919  1.00  0.00    -0.000 C 
BRANCH  11  12
ATOM     12  C   UNL     1     146.549 154.793 152.603  1.00  0.00    -0.000 C 
BRANCH  12  13
ATOM     13  C   UNL     1     145.800 156.107 152.858  1.00  0.00    -0.003 C 
ATOM     14  C   UNL     1     144.353 156.016 152.385  1.00  0.00     0.004 C 
ENDBRANCH  12  13
ENDBRANCH  11  12
ENDBRANCH  10  11
ENDBRANCH   9  10
ENDBRANCH   1   9
TORSDOF 10
ENDMDL
MODEL 4
REMARK VINA RESULT:    -2.989     14.793     16.819
REMARK INTER + INTRA:          -5.166
REMARK INTER:                  -4.358
REMARK INTRA:                  -0.808
REMARK UNBOUND:                -0.430
REMARK SMILES CCCCCCCCCCCC(=O)[O-]
REMARK SMILES IDX 7 1 8 2 9 3 10 4 11 5 12 6 13 7 14 8 6 9 5 10 4 11 3 12 2 13
REMARK SMILES IDX 1 14
REMARK H PARENT
REMARK Flexibility Score: inf
ROOT
ATOM      1  C   UNL     1     145.041 149.898 143.369  1.00  0.00     0.000 C 
ENDROOT
BRANCH   1   2
ATOM      2  C   UNL     1     144.701 149.570 144.837  1.00  0.00     0.000 C 
BRANCH   2   3
ATOM      3  C   UNL     1     144.162 150.753 145.666  1.00  0.00     0.000 C 
BRANCH   3   4
ATOM      4  C   UNL     1     144.237 150.565 147.192  1.00  0.00     0.006 C 
BRANCH   4   5
ATOM      5  C   UNL     1     145.453 151.258 147.818  1.00  0.00     0.053 C 
BRANCH   5   6
ATOM      6  C   UNL     1     145.728 150.703 149.179  1.00  0.00     0.041 C 
ATOM      7  O   UNL     1     145.653 151.446 150.193  1.00  0.00    -0.550 OA
ATOM      8  O   UNL     1     146.016 149.354 149.335  1.00  0.00    -0.550 OA
ENDBRANCH   5   6
ENDBRANCH   4   5
ENDBRANCH   3   4
ENDBRANCH   2   3
ENDBRANCH   1   2
BRANCH   1   9
ATOM      9  C   UNL     1     146.541 149.853 143.026  1.00  0.00     0.000 C 
BRANCH   9  10
ATOM     10  C   UNL     1     146.822 149.204 141.663  1.00  0.00    -0.000 C 
BRANCH  10  11
ATOM     11  C   UNL     1     146.661 147.680 141.736  1.00  0.00    -0.000 C 
BRANCH  11  12
ATOM     12  C   UNL     1     147.605 147.078 142.784  1.00  0.00    -0.000 C 
BRANCH  12  13
ATOM     13  C   UNL     1     146.945 145.893 143.501  1.00  0.00    -0.003 C 
ATOM     14  C   UNL     1     145.447 146.119 143.674  1.00  0.00     0.004 C 
ENDBRANCH  12  13
ENDBRANCH  11  12
ENDBRANCH  10  11
ENDBRANCH   9  10
ENDBRANCH   1   9
TORSDOF 10
ENDMDL
MODEL 5
REMARK VINA RESULT:    -2.957     15.691     17.523
REMARK INTER + INTRA:          -5.115
REMARK INTER:                  -3.707
REMARK INTRA:                  -1.408
REMARK UNBOUND:                -0.430
REMARK SMILES CCCCCCCCCCCC(=O)[O-]
REMARK SMILES IDX 7 1 8 2 9 3 10 4 11 5 12 6 13 7 14 8 6 9 5 10 4 11 3 12 2 13
REMARK SMILES IDX 1 14
REMARK H PARENT
REMARK Flexibility Score: inf
ROOT
ATOM      1  C   UNL     1     144.658 147.205 144.208  1.00  0.00     0.000 C 
ENDROOT
BRANCH   1   2
ATOM      2  C   UNL     1     143.431 148.020 143.754  1.00  0.00     0.000 C 
BRANCH   2   3
ATOM      3  C   UNL     1     143.366 149.464 144.290  1.00  0.00     0.000 C 
BRANCH   3   4
ATOM      4  C   UNL     1     144.602 149.915 145.090  1.00  0.00     0.006 C 
BRANCH   4   5
ATOM      5  C   UNL     1     144.331 150.018 146.596  1.00  0.00     0.053 C 
BRANCH   5   6
ATOM      6  C   UNL     1     144.793 151.340 147.121  1.00  0.00     0.041 C 
ATOM      7  O   UNL     1     145.773 151.402 147.909  1.00  0.00    -0.550 OA
ATOM      8  O   UNL     1     144.174 152.510 146.700  1.00  0.00    -0.550 OA
ENDBRANCH   5   6
ENDBRANCH   4   5
ENDBRANCH   3   4
ENDBRANCH   2   3
ENDBRANCH   1   2
BRANCH   1   9
ATOM      9  C   UNL     1     145.396 146.461 143.080  1.00  0.00     0.000 C 
BRANCH   9  10
ATOM     10  C   UNL     1     146.915 146.682 143.114  1.00  0.00    -0.000 C 
BRANCH  10  11
ATOM     11  C   UNL     1     147.261 148.159 142.883  1.00  0.00    -0.000 C 
BRANCH  11  12
ATOM     12  C   UNL     1     146.761 148.633 141.513  1.00  0.00    -0.000 C 
BRANCH  12  13
ATOM     13  C   UNL     1     145.976 149.944 141.638  1.00  0.00    -0.003 C 
ATOM     14  C   UNL     1     144.711 149.912 140.787  1.00  0.00     0.004 C 
ENDBRANCH  12  13
ENDBRANCH  11  12
ENDBRANCH  10  11
ENDBRANCH   9  10
ENDBRANCH   1   9
TORSDOF 10
ENDMDL
MODEL 6
REMARK VINA RESULT:    -2.941     15.121     17.430
REMARK INTER + INTRA:          -5.091
REMARK INTER:                  -3.931
REMARK INTRA:                  -1.159
REMARK UNBOUND:                -0.430
REMARK SMILES CCCCCCCCCCCC(=O)[O-]
REMARK SMILES IDX 7 1 8 2 9 3 10 4 11 5 12 6 13 7 14 8 6 9 5 10 4 11 3 12 2 13
REMARK SMILES IDX 1 14
REMARK H PARENT
REMARK Flexibility Score: inf
ROOT
ATOM      1  C   UNL     1     146.576 149.774 141.513  1.00  0.00     0.000 C 
ENDROOT
BRANCH   1   2
ATOM      2  C   UNL     1     146.728 149.648 143.043  1.00  0.00     0.000 C 
BRANCH   2   3
ATOM      3  C   UNL     1     145.475 149.144 143.787  1.00  0.00     0.000 C 
BRANCH   3   4
ATOM      4  C   UNL     1     144.572 150.251 144.362  1.00  0.00     0.006 C 
BRANCH   4   5
ATOM      5  C   UNL     1     144.419 150.161 145.885  1.00  0.00     0.053 C 
BRANCH   5   6
ATOM      6  C   UNL     1     144.233 151.524 146.473  1.00  0.00     0.041 C 
ATOM      7  O   UNL     1     143.875 152.485 145.743  1.00  0.00    -0.550 OA
ATOM      8  O   UNL     1     144.406 151.723 147.836  1.00  0.00    -0.550 OA
ENDBRANCH   5   6
ENDBRANCH   4   5
ENDBRANCH   3   4
ENDBRANCH   2   3
ENDBRANCH   1   2
BRANCH   1   9
ATOM      9  C   UNL     1     145.593 148.776 140.875  1.00  0.00     0.000 C 
BRANCH   9  10
ATOM     10  C   UNL     1     146.275 147.813 139.891  1.00  0.00    -0.000 C 
BRANCH  10  11
ATOM     11  C   UNL     1     147.049 146.721 140.639  1.00  0.00    -0.000 C 
BRANCH  11  12
ATOM     12  C   UNL     1     146.149 146.007 141.655  1.00  0.00    -0.000 C 
BRANCH  12  13
ATOM     13  C   UNL     1     146.887 145.782 142.981  1.00  0.00    -0.003 C 
ATOM     14  C   UNL     1     148.341 146.234 142.886  1.00  0.00     0.004 C 
ENDBRANCH  12  13
ENDBRANCH  11  12
ENDBRANCH  10  11
ENDBRANCH   9  10
ENDBRANCH   1   9
TORSDOF 10
ENDMDL
MODEL 7
REMARK VINA RESULT:    -2.938     16.550     18.716
REMARK INTER + INTRA:          -5.085
REMARK INTER:                  -3.523
REMARK INTRA:                  -1.562
REMARK UNBOUND:                -0.430
REMARK SMILES CCCCCCCCCCCC(=O)[O-]
REMARK SMILES IDX 7 1 8 2 9 3 10 4 11 5 12 6 13 7 14 8 6 9 5 10 4 11 3 12 2 13
REMARK SMILES IDX 1 14
REMARK H PARENT
REMARK Flexibility Score: inf
ROOT
ATOM      1  C   UNL     1     145.646 149.870 143.390  1.00  0.00     0.000 C 
ENDROOT
BRANCH   1   2
ATOM      2  C   UNL     1     144.355 149.962 142.550  1.00  0.00     0.000 C 
BRANCH   2   3
ATOM      3  C   UNL     1     144.564 150.310 141.063  1.00  0.00     0.000 C 
BRANCH   3   4
ATOM      4  C   UNL     1     143.509 149.726 140.105  1.00  0.00     0.006 C 
BRANCH   4   5
ATOM      5  C   UNL     1     144.110 149.247 138.779  1.00  0.00     0.053 C 
BRANCH   5   6
ATOM      6  C   UNL     1     143.685 150.143 137.659  1.00  0.00     0.041 C 
ATOM      7  O   UNL     1     143.296 149.652 136.567  1.00  0.00    -0.550 OA
ATOM      8  O   UNL     1     143.671 151.520 137.837  1.00  0.00    -0.550 OA
ENDBRANCH   5   6
ENDBRANCH   4   5
ENDBRANCH   3   4
ENDBRANCH   2   3
ENDBRANCH   1   2
BRANCH   1   9
ATOM      9  C   UNL     1     146.903 149.457 142.604  1.00  0.00     0.000 C 
BRANCH   9  10
ATOM     10  C   UNL     1     147.165 147.944 142.649  1.00  0.00    -0.000 C 
BRANCH  10  11
ATOM     11  C   UNL     1     146.976 147.312 141.264  1.00  0.00    -0.000 C 
BRANCH  11  12
ATOM     12  C   UNL     1     145.577 146.703 141.123  1.00  0.00    -0.000 C 
BRANCH  12  13
ATOM     13  C   UNL     1     145.037 146.244 142.483  1.00  0.00    -0.003 C 
ATOM     14  C   UNL     1     143.517 146.353 142.538  1.00  0.00     0.004 C 
ENDBRANCH  12  13
ENDBRANCH  11  12
ENDBRANCH  10  11
ENDBRANCH   9  10
ENDBRANCH   1   9
TORSDOF 10
ENDMDL
