MODEL 1
REMARK VINA RESULT:    -4.259      0.000      0.000
REMARK INTER + INTRA:          -5.578
REMARK INTER:                  -5.753
REMARK INTRA:                   0.175
REMARK UNBOUND:                 0.175
REMARK SMILES C=C1CCC=C(C)CC[C@H]2[C@@H]1CC2(C)C
REMARK SMILES IDX 11 1 12 2 13 3 10 4 14 5 15 6 9 7 8 8 6 9 7 10 5 11 2 13
REMARK SMILES IDX 1 14 3 15 4 16
REMARK H PARENT
REMARK Flexibility Score: 70.00
ROOT
ATOM      1  C   UNL     1      -2.723   4.593  13.067  1.00  0.00     0.018 C 
ATOM      2  C   UNL     1      -3.250   5.845  12.343  1.00  0.00     0.015 C 
ATOM      3  C   UNL     1      -2.908   5.195  10.984  1.00  0.00    -0.031 C 
ATOM      4  C   UNL     1      -2.133   4.077  11.738  1.00  0.00     0.002 C 
ATOM      5  C   UNL     1      -2.142   6.102   9.993  1.00  0.00     0.011 C 
ATOM      6  C   UNL     1      -4.170   4.624  10.302  1.00  0.00     0.011 C 
ENDROOT
BRANCH   4   7
ATOM      7  C   UNL     1      -0.578   4.026  11.602  1.00  0.00     0.009 C 
BRANCH   7   8
ATOM      8  C   UNL     1       0.110   2.642  11.704  1.00  0.00     0.030 C 
BRANCH   8   9
ATOM      9  C   UNL     1      -0.757   1.584  12.367  1.00  0.00    -0.077 C 
ATOM     10  C   UNL     1      -1.366   0.509  11.507  1.00  0.00     0.039 C 
ATOM     11  C   UNL     1      -0.990   1.552  13.703  1.00  0.00    -0.028 CG0
ATOM     12  G   UNL     1      -0.448   2.554  14.702  1.00  0.00     0.000 G0
ENDBRANCH   8   9
ENDBRANCH   7   8
ENDBRANCH   4   7
BRANCH   1  13
ATOM     13  C   UNL     1      -1.791   4.718  14.262  1.00  0.00    -0.074 C 
ATOM     14  C   UNL     1      -1.067   5.846  14.375  1.00  0.00     0.008 C 
BRANCH  13  15
ATOM     15  C   UNL     1      -1.498   3.572  15.216  1.00  0.00     0.035 C 
BRANCH  15  16
ATOM     16  C   UNL     1      -0.450   2.556  14.707  1.00  0.00     0.032 CG0
ATOM     17  G   UNL     1      -0.984   1.549  13.709  1.00  0.00     0.000 G0
ENDBRANCH  15  16
ENDBRANCH  13  15
ENDBRANCH   1  13
TORSDOF 0
ENDMDL
MODEL 2
REMARK VINA RESULT:    -4.050      1.611      3.673
REMARK INTER + INTRA:          -5.295
REMARK INTER:                  -5.807
REMARK INTRA:                   0.513
REMARK UNBOUND:                 0.175
REMARK SMILES C=C1CCC=C(C)CC[C@H]2[C@@H]1CC2(C)C
REMARK SMILES IDX 11 1 12 2 13 3 10 4 14 5 15 6 9 7 8 8 6 9 7 10 5 11 2 13
REMARK SMILES IDX 1 14 3 15 4 16
REMARK H PARENT
REMARK Flexibility Score: 70.00
ROOT
ATOM      1  C   UNL     1      -0.418   4.340  12.035  1.00  0.00     0.018 C 
ATOM      2  C   UNL     1      -0.519   5.729  12.690  1.00  0.00     0.015 C 
ATOM      3  C   UNL     1       0.033   5.142  14.006  1.00  0.00    -0.031 C 
ATOM      4  C   UNL     1      -0.139   3.713  13.417  1.00  0.00     0.002 C 
ATOM      5  C   UNL     1      -0.753   5.528  15.282  1.00  0.00     0.011 C 
ATOM      6  C   UNL     1       1.528   5.484  14.190  1.00  0.00     0.011 C 
ENDROOT
BRANCH   4   7
ATOM      7  C   UNL     1      -1.232   2.781  14.030  1.00  0.00     0.009 C 
BRANCH   7   8
ATOM      8  C   UNL     1      -0.826   1.328  14.383  1.00  0.00     0.030 C 
BRANCH   8   9
ATOM      9  C   UNL     1      -1.465   0.286  13.480  1.00  0.00    -0.077 C 
ATOM     10  C   UNL     1      -2.244  -0.835  14.113  1.00  0.00     0.039 C 
ATOM     11  C   UNL     1      -1.382   0.331  12.127  1.00  0.00    -0.028 CG0
ATOM     12  G   UNL     1      -0.642   1.393  11.339  1.00  0.00     0.000 G0
ENDBRANCH   8   9
ENDBRANCH   7   8
ENDBRANCH   4   7
BRANCH   1  13
ATOM     13  C   UNL     1      -1.569   3.779  11.215  1.00  0.00    -0.074 C 
ATOM     14  C   UNL     1      -2.714   4.484  11.181  1.00  0.00     0.008 C 
BRANCH  13  15
ATOM     15  C   UNL     1      -1.557   2.390  10.599  1.00  0.00     0.035 C 
BRANCH  15  16
ATOM     16  C   UNL     1      -0.648   1.369  11.320  1.00  0.00     0.032 CG0
ATOM     17  G   UNL     1      -1.392   0.330  12.134  1.00  0.00     0.000 G0
ENDBRANCH  15  16
ENDBRANCH  13  15
ENDBRANCH   1  13
TORSDOF 0
ENDMDL
MODEL 3
REMARK VINA RESULT:    -3.962      2.215      4.460
REMARK INTER + INTRA:          -5.176
REMARK INTER:                  -5.348
REMARK INTRA:                   0.172
REMARK UNBOUND:                 0.175
REMARK SMILES C=C1CCC=C(C)CC[C@H]2[C@@H]1CC2(C)C
REMARK SMILES IDX 11 1 12 2 13 3 10 4 14 5 15 6 9 7 8 8 6 9 7 10 5 11 2 13
REMARK SMILES IDX 1 14 3 15 4 16
REMARK H PARENT
REMARK Flexibility Score: 70.00
ROOT
ATOM      1  C   UNL     1       0.013   3.712  12.752  1.00  0.00     0.018 C 
ATOM      2  C   UNL     1       0.379   2.460  13.567  1.00  0.00     0.015 C 
ATOM      3  C   UNL     1      -1.029   1.884  13.306  1.00  0.00    -0.031 C 
ATOM      4  C   UNL     1      -1.464   3.264  12.734  1.00  0.00     0.002 C 
ATOM      5  C   UNL     1      -1.756   1.326  14.552  1.00  0.00     0.011 C 
ATOM      6  C   UNL     1      -1.000   0.813  12.193  1.00  0.00     0.011 C 
ENDROOT
BRANCH   4   7
ATOM      7  C   UNL     1      -2.494   4.115  13.543  1.00  0.00     0.009 C 
BRANCH   7   8
ATOM      8  C   UNL     1      -3.503   4.977  12.743  1.00  0.00     0.030 C 
BRANCH   8   9
ATOM      9  C   UNL     1      -3.012   5.347  11.353  1.00  0.00    -0.077 C 
ATOM     10  C   UNL     1      -3.705   4.744  10.161  1.00  0.00     0.039 C 
ATOM     11  C   UNL     1      -1.991   6.213  11.137  1.00  0.00    -0.028 CG0
ATOM     12  G   UNL     1      -1.197   6.906  12.225  1.00  0.00     0.000 G0
ENDBRANCH   8   9
ENDBRANCH   7   8
ENDBRANCH   4   7
BRANCH   1  13
ATOM     13  C   UNL     1       0.330   5.105  13.274  1.00  0.00    -0.074 C 
ATOM     14  C   UNL     1       0.534   5.244  14.597  1.00  0.00     0.008 C 
BRANCH  13  15
ATOM     15  C   UNL     1       0.240   6.358  12.421  1.00  0.00     0.035 C 
BRANCH  15  16
ATOM     16  C   UNL     1      -1.190   6.910  12.226  1.00  0.00     0.032 CG0
ATOM     17  G   UNL     1      -1.986   6.225  11.134  1.00  0.00     0.000 G0
ENDBRANCH  15  16
ENDBRANCH  13  15
ENDBRANCH   1  13
TORSDOF 0
ENDMDL
MODEL 4
REMARK VINA RESULT:    -3.887      1.347      2.919
REMARK INTER + INTRA:          -5.075
REMARK INTER:                  -5.140
REMARK INTRA:                   0.064
REMARK UNBOUND:                 0.175
REMARK SMILES C=C1CCC=C(C)CC[C@H]2[C@@H]1CC2(C)C
REMARK SMILES IDX 11 1 12 2 13 3 10 4 14 5 15 6 9 7 8 8 6 9 7 10 5 11 2 13
REMARK SMILES IDX 1 14 3 15 4 16
REMARK H PARENT
REMARK Flexibility Score: 70.00
ROOT
ATOM      1  C   UNL     1      -1.279   5.138  11.819  1.00  0.00     0.018 C 
ATOM      2  C   UNL     1      -2.245   6.163  11.199  1.00  0.00     0.015 C 
ATOM      3  C   UNL     1      -2.862   6.414  12.591  1.00  0.00    -0.031 C 
ATOM      4  C   UNL     1      -2.080   5.185  13.137  1.00  0.00     0.002 C 
ATOM      5  C   UNL     1      -4.409   6.401  12.639  1.00  0.00     0.011 C 
ATOM      6  C   UNL     1      -2.330   7.724  13.214  1.00  0.00     0.011 C 
ENDROOT
BRANCH   4   7
ATOM      7  C   UNL     1      -2.885   3.912  13.548  1.00  0.00     0.009 C 
BRANCH   7   8
ATOM      8  C   UNL     1      -2.291   3.010  14.659  1.00  0.00     0.030 C 
BRANCH   8   9
ATOM      9  C   UNL     1      -1.889   1.630  14.165  1.00  0.00    -0.077 C 
ATOM     10  C   UNL     1      -2.776   0.459  14.497  1.00  0.00     0.039 C 
ATOM     11  C   UNL     1      -0.778   1.407  13.420  1.00  0.00    -0.028 CG0
ATOM     12  G   UNL     1       0.211   2.474  12.997  1.00  0.00     0.000 G0
ENDBRANCH   8   9
ENDBRANCH   7   8
ENDBRANCH   4   7
BRANCH   1  13
ATOM     13  C   UNL     1      -1.057   3.782  11.167  1.00  0.00    -0.074 C 
ATOM     14  C   UNL     1      -2.039   3.295  10.387  1.00  0.00     0.008 C 
BRANCH  13  15
ATOM     15  C   UNL     1       0.117   2.877  11.499  1.00  0.00     0.035 C 
BRANCH  15  16
ATOM     16  C   UNL     1       0.217   2.464  12.985  1.00  0.00     0.032 CG0
ATOM     17  G   UNL     1      -0.776   1.402  13.411  1.00  0.00     0.000 G0
ENDBRANCH  15  16
ENDBRANCH  13  15
ENDBRANCH   1  13
TORSDOF 0
ENDMDL
MODEL 5
REMARK VINA RESULT:    -3.824      1.781      3.411
REMARK INTER + INTRA:          -4.989
REMARK INTER:                  -5.063
REMARK INTRA:                   0.073
REMARK UNBOUND:                 0.175
REMARK SMILES C=C1CCC=C(C)CC[C@H]2[C@@H]1CC2(C)C
REMARK SMILES IDX 11 1 12 2 13 3 10 4 14 5 15 6 9 7 8 8 6 9 7 10 5 11 2 13
REMARK SMILES IDX 1 14 3 15 4 16
REMARK H PARENT
REMARK Flexibility Score: 70.00
ROOT
ATOM      1  C   UNL     1      -0.543   5.046  10.866  1.00  0.00     0.018 C 
ATOM      2  C   UNL     1      -0.819   6.508  10.473  1.00  0.00     0.015 C 
ATOM      3  C   UNL     1      -0.189   6.978  11.803  1.00  0.00    -0.031 C 
ATOM      4  C   UNL     1      -0.178   5.502  12.294  1.00  0.00     0.002 C 
ATOM      5  C   UNL     1      -1.012   8.024  12.590  1.00  0.00     0.011 C 
ATOM      6  C   UNL     1       1.250   7.496  11.590  1.00  0.00     0.011 C 
ENDROOT
BRANCH   4   7
ATOM      7  C   UNL     1      -1.138   5.096  13.457  1.00  0.00     0.009 C 
BRANCH   7   8
ATOM      8  C   UNL     1      -0.688   3.951  14.398  1.00  0.00     0.030 C 
BRANCH   8   9
ATOM      9  C   UNL     1      -1.557   2.709  14.297  1.00  0.00    -0.077 C 
ATOM     10  C   UNL     1      -2.531   2.418  15.408  1.00  0.00     0.039 C 
ATOM     11  C   UNL     1      -1.512   1.860  13.240  1.00  0.00    -0.028 CG0
ATOM     12  G   UNL     1      -0.595   2.013  12.044  1.00  0.00     0.000 G0
ENDBRANCH   8   9
ENDBRANCH   7   8
ENDBRANCH   4   7
BRANCH   1  13
ATOM     13  C   UNL     1      -1.615   3.980  10.708  1.00  0.00    -0.074 C 
ATOM     14  C   UNL     1      -2.899   4.382  10.699  1.00  0.00     0.008 C 
BRANCH  13  15
ATOM     15  C   UNL     1      -1.325   2.490  10.753  1.00  0.00     0.035 C 
BRANCH  15  16
ATOM     16  C   UNL     1      -0.600   2.008  12.030  1.00  0.00     0.032 CG0
ATOM     17  G   UNL     1      -1.496   1.863  13.244  1.00  0.00     0.000 G0
ENDBRANCH  15  16
ENDBRANCH  13  15
ENDBRANCH   1  13
TORSDOF 0
ENDMDL
MODEL 6
REMARK VINA RESULT:    -3.455      2.640      4.895
REMARK INTER + INTRA:          -4.491
REMARK INTER:                  -4.557
REMARK INTRA:                   0.066
REMARK UNBOUND:                 0.175
REMARK SMILES C=C1CCC=C(C)CC[C@H]2[C@@H]1CC2(C)C
REMARK SMILES IDX 11 1 12 2 13 3 10 4 14 5 15 6 9 7 8 8 6 9 7 10 5 11 2 13
REMARK SMILES IDX 1 14 3 15 4 16
REMARK H PARENT
REMARK Flexibility Score: 70.00
ROOT
ATOM      1  C   UNL     1      -2.006   4.758  13.247  1.00  0.00     0.018 C 
ATOM      2  C   UNL     1      -2.271   3.250  13.399  1.00  0.00     0.015 C 
ATOM      3  C   UNL     1      -1.019   2.950  12.547  1.00  0.00    -0.031 C 
ATOM      4  C   UNL     1      -0.935   4.458  12.177  1.00  0.00     0.002 C 
ATOM      5  C   UNL     1      -1.221   1.910  11.420  1.00  0.00     0.011 C 
ATOM      6  C   UNL     1       0.176   2.535  13.433  1.00  0.00     0.011 C 
ENDROOT
BRANCH   4   7
ATOM      7  C   UNL     1      -1.236   4.882  10.704  1.00  0.00     0.009 C 
BRANCH   7   8
ATOM      8  C   UNL     1      -0.503   6.128  10.148  1.00  0.00     0.030 C 
BRANCH   8   9
ATOM      9  C   UNL     1      -1.435   7.286   9.831  1.00  0.00    -0.077 C 
ATOM     10  C   UNL     1      -1.736   7.593   8.388  1.00  0.00     0.039 C 
ATOM     11  C   UNL     1      -2.025   8.043  10.789  1.00  0.00    -0.028 CG0
ATOM     12  G   UNL     1      -1.830   7.859  12.280  1.00  0.00     0.000 G0
ENDBRANCH   8   9
ENDBRANCH   7   8
ENDBRANCH   4   7
BRANCH   1  13
ATOM     13  C   UNL     1      -3.130   5.715  12.883  1.00  0.00    -0.074 C 
ATOM     14  C   UNL     1      -4.199   5.209  12.241  1.00  0.00     0.008 C 
BRANCH  13  15
ATOM     15  C   UNL     1      -3.025   7.223  13.034  1.00  0.00     0.035 C 
BRANCH  15  16
ATOM     16  C   UNL     1      -1.827   7.867  12.300  1.00  0.00     0.032 CG0
ATOM     17  G   UNL     1      -2.028   8.050  10.809  1.00  0.00     0.000 G0
ENDBRANCH  15  16
ENDBRANCH  13  15
ENDBRANCH   1  13
TORSDOF 0
ENDMDL
MODEL 7
REMARK VINA RESULT:    -3.353      2.635      5.051
REMARK INTER + INTRA:          -4.354
REMARK INTER:                  -4.437
REMARK INTRA:                   0.083
REMARK UNBOUND:                 0.175
REMARK SMILES C=C1CCC=C(C)CC[C@H]2[C@@H]1CC2(C)C
REMARK SMILES IDX 11 1 12 2 13 3 10 4 14 5 15 6 9 7 8 8 6 9 7 10 5 11 2 13
REMARK SMILES IDX 1 14 3 15 4 16
REMARK H PARENT
REMARK Flexibility Score: 70.00
ROOT
ATOM      1  C   UNL     1      -2.147   4.034  12.736  1.00  0.00     0.018 C 
ATOM      2  C   UNL     1      -1.609   2.904  13.632  1.00  0.00     0.015 C 
ATOM      3  C   UNL     1      -0.575   3.882  14.231  1.00  0.00    -0.031 C 
ATOM      4  C   UNL     1      -0.943   4.916  13.129  1.00  0.00     0.002 C 
ATOM      5  C   UNL     1       0.875   3.346  14.303  1.00  0.00     0.011 C 
ATOM      6  C   UNL     1      -1.017   4.382  15.624  1.00  0.00     0.011 C 
ENDROOT
BRANCH   4   7
ATOM      7  C   UNL     1       0.114   5.240  12.027  1.00  0.00     0.009 C 
BRANCH   7   8
ATOM      8  C   UNL     1       0.128   6.673  11.440  1.00  0.00     0.030 C 
BRANCH   8   9
ATOM      9  C   UNL     1      -0.258   6.729   9.971  1.00  0.00    -0.077 C 
ATOM     10  C   UNL     1       0.816   7.007   8.954  1.00  0.00     0.039 C 
ATOM     11  C   UNL     1      -1.524   6.517   9.532  1.00  0.00    -0.028 CG0
ATOM     12  G   UNL     1      -2.712   6.221  10.424  1.00  0.00     0.000 G0
ENDBRANCH   8   9
ENDBRANCH   7   8
ENDBRANCH   4   7
BRANCH   1  13
ATOM     13  C   UNL     1      -2.407   3.799  11.256  1.00  0.00    -0.074 C 
ATOM     14  C   UNL     1      -1.754   2.786  10.660  1.00  0.00     0.008 C 
BRANCH  13  15
ATOM     15  C   UNL     1      -3.208   4.753  10.387  1.00  0.00     0.035 C 
BRANCH  15  16
ATOM     16  C   UNL     1      -2.721   6.220  10.415  1.00  0.00     0.032 CG0
ATOM     17  G   UNL     1      -1.529   6.505   9.524  1.00  0.00     0.000 G0
ENDBRANCH  15  16
ENDBRANCH  13  15
ENDBRANCH   1  13
TORSDOF 0
ENDMDL
MODEL 8
REMARK VINA RESULT:    -3.346      2.708      5.224
REMARK INTER + INTRA:          -4.344
REMARK INTER:                  -4.397
REMARK INTRA:                   0.053
REMARK UNBOUND:                 0.175
REMARK SMILES C=C1CCC=C(C)CC[C@H]2[C@@H]1CC2(C)C
REMARK SMILES IDX 11 1 12 2 13 3 10 4 14 5 15 6 9 7 8 8 6 9 7 10 5 11 2 13
REMARK SMILES IDX 1 14 3 15 4 16
REMARK H PARENT
REMARK Flexibility Score: 70.00
ROOT
ATOM      1  C   UNL     1      -0.660   4.484  11.068  1.00  0.00     0.018 C 
ATOM      2  C   UNL     1       0.153   3.541  11.973  1.00  0.00     0.015 C 
ATOM      3  C   UNL     1      -1.091   2.643  12.145  1.00  0.00    -0.031 C 
ATOM      4  C   UNL     1      -1.955   3.747  11.469  1.00  0.00     0.002 C 
ATOM      5  C   UNL     1      -1.409   2.228  13.601  1.00  0.00     0.011 C 
ATOM      6  C   UNL     1      -1.006   1.387  11.250  1.00  0.00     0.011 C 
ENDROOT
BRANCH   4   7
ATOM      7  C   UNL     1      -2.994   4.519  12.342  1.00  0.00     0.009 C 
BRANCH   7   8
ATOM      8  C   UNL     1      -4.245   5.095  11.634  1.00  0.00     0.030 C 
BRANCH   8   9
ATOM      9  C   UNL     1      -4.299   6.614  11.644  1.00  0.00    -0.077 C 
ATOM     10  C   UNL     1      -5.221   7.295  12.620  1.00  0.00     0.039 C 
ATOM     11  C   UNL     1      -3.539   7.386  10.828  1.00  0.00    -0.028 CG0
ATOM     12  G   UNL     1      -2.562   6.856   9.797  1.00  0.00     0.000 G0
ENDBRANCH   8   9
ENDBRANCH   7   8
ENDBRANCH   4   7
BRANCH   1  13
ATOM     13  C   UNL     1      -0.606   5.991  11.264  1.00  0.00    -0.074 C 
ATOM     14  C   UNL     1      -0.304   6.451  12.492  1.00  0.00     0.008 C 
BRANCH  13  15
ATOM     15  C   UNL     1      -1.057   6.987  10.210  1.00  0.00     0.035 C 
BRANCH  15  16
ATOM     16  C   UNL     1      -2.542   6.868   9.798  1.00  0.00     0.032 CG0
ATOM     17  G   UNL     1      -3.524   7.385  10.830  1.00  0.00     0.000 G0
ENDBRANCH  15  16
ENDBRANCH  13  15
ENDBRANCH   1  13
TORSDOF 0
ENDMDL
MODEL 9
REMARK VINA RESULT:    -3.123     13.480     14.777
REMARK INTER + INTRA:          -4.044
REMARK INTER:                  -4.113
REMARK INTRA:                   0.069
REMARK UNBOUND:                 0.175
REMARK SMILES C=C1CCC=C(C)CC[C@H]2[C@@H]1CC2(C)C
REMARK SMILES IDX 11 1 12 2 13 3 10 4 14 5 15 6 9 7 8 8 6 9 7 10 5 11 2 13
REMARK SMILES IDX 1 14 3 15 4 16
REMARK H PARENT
REMARK Flexibility Score: 70.00
ROOT
ATOM      1  C   UNL     1       4.433  -8.907  13.092  1.00  0.00     0.018 C 
ATOM      2  C   UNL     1       4.245  -9.864  11.902  1.00  0.00     0.015 C 
ATOM      3  C   UNL     1       2.860 -10.268  12.452  1.00  0.00    -0.031 C 
ATOM      4  C   UNL     1       3.190  -9.518  13.774  1.00  0.00     0.002 C 
ATOM      5  C   UNL     1       2.587 -11.790  12.500  1.00  0.00     0.011 C 
ATOM      6  C   UNL     1       1.723  -9.556  11.686  1.00  0.00     0.011 C 
ENDROOT
BRANCH   4   7
ATOM      7  C   UNL     1       3.409 -10.357  15.072  1.00  0.00     0.009 C 
BRANCH   7   8
ATOM      8  C   UNL     1       3.074  -9.688  16.429  1.00  0.00     0.030 C 
BRANCH   8   9
ATOM      9  C   UNL     1       4.292  -9.472  17.313  1.00  0.00    -0.077 C 
ATOM     10  C   UNL     1       4.510 -10.400  18.478  1.00  0.00     0.039 C 
ATOM     11  C   UNL     1       5.204  -8.494  17.087  1.00  0.00    -0.028 CG0
ATOM     12  G   UNL     1       5.132  -7.485  15.959  1.00  0.00     0.000 G0
ENDBRANCH   8   9
ENDBRANCH   7   8
ENDBRANCH   4   7
BRANCH   1  13
ATOM     13  C   UNL     1       5.736  -8.881  13.875  1.00  0.00    -0.074 C 
ATOM     14  C   UNL     1       6.490  -9.996  13.870  1.00  0.00     0.008 C 
BRANCH  13  15
ATOM     15  C   UNL     1       6.131  -7.746  14.803  1.00  0.00     0.035 C 
BRANCH  15  16
ATOM     16  C   UNL     1       5.141  -7.480  15.960  1.00  0.00     0.032 CG0
ATOM     17  G   UNL     1       5.202  -8.493  17.085  1.00  0.00     0.000 G0
ENDBRANCH  15  16
ENDBRANCH  13  15
ENDBRANCH   1  13
TORSDOF 0
ENDMDL
