MODEL 1
REMARK VINA RESULT:    -5.182      0.000      0.000
REMARK INTER + INTRA:          -9.926
REMARK INTER:                  -7.908
REMARK INTRA:                  -2.018
REMARK UNBOUND:                -2.018
REMARK SMILES CC(=O)CCC=C(C)CCC=C(C)CCC=C(C)C
REMARK SMILES IDX 10 1 11 2 12 3 13 4 14 5 15 6 16 7 18 8 17 9 19 10 9 11 7 12
REMARK SMILES IDX 6 13 8 14 5 15 4 16 2 17 3 18 1 19
REMARK H PARENT
REMARK Flexibility Score: inf
ROOT
ATOM      1  C   UNL     1     102.647 113.081 124.614  1.00  0.00     0.032 C 
ENDROOT
BRANCH   1   2
ATOM      2  C   UNL     1     102.540 114.251 125.559  1.00  0.00    -0.028 C 
ATOM      3  C   UNL     1     102.997 115.494 125.288  1.00  0.00    -0.077 C 
ATOM      4  C   UNL     1     103.751 115.805 124.016  1.00  0.00     0.039 C 
BRANCH   3   5
ATOM      5  C   UNL     1     102.755 116.604 126.290  1.00  0.00     0.034 C 
BRANCH   5   6
ATOM      6  C   UNL     1     101.317 117.139 126.211  1.00  0.00     0.032 C 
BRANCH   6   7
ATOM      7  C   UNL     1     101.168 118.193 125.139  1.00  0.00    -0.028 C 
ATOM      8  C   UNL     1     100.039 116.643 123.528  1.00  0.00     0.039 C 
ATOM      9  C   UNL     1     100.571 117.994 123.944  1.00  0.00    -0.080 C 
ATOM     10  C   UNL     1     100.452 119.162 122.998  1.00  0.00     0.039 C 
ENDBRANCH   6   7
ENDBRANCH   5   6
ENDBRANCH   3   5
ENDBRANCH   1   2
BRANCH   1  11
ATOM     11  C   UNL     1     101.322 112.861 123.876  1.00  0.00     0.034 C 
BRANCH  11  12
ATOM     12  C   UNL     1     101.506 113.035 122.384  1.00  0.00    -0.077 C 
ATOM     13  C   UNL     1     101.629 114.283 121.881  1.00  0.00    -0.028 C 
ATOM     14  C   UNL     1     101.560 111.810 121.502  1.00  0.00     0.039 C 
BRANCH  13  15
ATOM     15  C   UNL     1     101.725 114.608 120.409  1.00  0.00     0.035 C 
BRANCH  15  16
ATOM     16  C   UNL     1     100.705 115.679 120.003  1.00  0.00     0.079 C 
BRANCH  16  17
ATOM     17  C   UNL     1     101.333 117.048 119.938  1.00  0.00     0.130 C 
ATOM     18  O   UNL     1     100.718 117.969 119.420  1.00  0.00    -0.300 OA
ATOM     19  C   UNL     1     102.704 117.303 120.491  1.00  0.00     0.087 C 
ENDBRANCH  16  17
ENDBRANCH  15  16
ENDBRANCH  13  15
ENDBRANCH  11  12
ENDBRANCH   1  11
TORSDOF 9
ENDMDL
MODEL 2
REMARK VINA RESULT:    -5.162      1.281      2.539
REMARK INTER + INTRA:          -9.895
REMARK INTER:                  -8.045
REMARK INTRA:                  -1.851
REMARK UNBOUND:                -2.018
REMARK SMILES CC(=O)CCC=C(C)CCC=C(C)CCC=C(C)C
REMARK SMILES IDX 10 1 11 2 12 3 13 4 14 5 15 6 16 7 18 8 17 9 19 10 9 11 7 12
REMARK SMILES IDX 6 13 8 14 5 15 4 16 2 17 3 18 1 19
REMARK H PARENT
REMARK Flexibility Score: inf
ROOT
ATOM      1  C   UNL     1     101.380 112.575 122.558  1.00  0.00     0.032 C 
ENDROOT
BRANCH   1   2
ATOM      2  C   UNL     1     101.555 113.352 123.838  1.00  0.00    -0.028 C 
ATOM      3  C   UNL     1     102.541 113.129 124.736  1.00  0.00    -0.077 C 
ATOM      4  C   UNL     1     103.528 111.996 124.571  1.00  0.00     0.039 C 
BRANCH   3   5
ATOM      5  C   UNL     1     102.656 114.035 125.946  1.00  0.00     0.034 C 
BRANCH   5   6
ATOM      6  C   UNL     1     103.171 115.431 125.565  1.00  0.00     0.032 C 
BRANCH   6   7
ATOM      7  C   UNL     1     102.373 116.526 126.232  1.00  0.00    -0.028 C 
ATOM      8  C   UNL     1     101.066 117.071 124.167  1.00  0.00     0.039 C 
ATOM      9  C   UNL     1     101.405 117.248 125.628  1.00  0.00    -0.080 C 
ATOM     10  C   UNL     1     100.659 118.273 126.444  1.00  0.00     0.039 C 
ENDBRANCH   6   7
ENDBRANCH   5   6
ENDBRANCH   3   5
ENDBRANCH   1   2
BRANCH   1  11
ATOM     11  C   UNL     1     102.331 113.098 121.475  1.00  0.00     0.034 C 
BRANCH  11  12
ATOM     12  C   UNL     1     102.146 114.587 121.275  1.00  0.00    -0.077 C 
ATOM     13  C   UNL     1     100.972 115.040 120.782  1.00  0.00    -0.028 C 
ATOM     14  C   UNL     1     103.272 115.523 121.643  1.00  0.00     0.039 C 
BRANCH  13  15
ATOM     15  C   UNL     1     100.685 116.484 120.446  1.00  0.00     0.035 C 
BRANCH  15  16
ATOM     16  C   UNL     1     100.664 116.715 118.930  1.00  0.00     0.079 C 
BRANCH  16  17
ATOM     17  C   UNL     1     101.983 117.249 118.432  1.00  0.00     0.130 C 
ATOM     18  O   UNL     1     102.451 118.259 118.936  1.00  0.00    -0.300 OA
ATOM     19  C   UNL     1     102.730 116.568 117.325  1.00  0.00     0.087 C 
ENDBRANCH  16  17
ENDBRANCH  15  16
ENDBRANCH  13  15
ENDBRANCH  11  12
ENDBRANCH   1  11
TORSDOF 9
ENDMDL
MODEL 3
REMARK VINA RESULT:    -5.147      1.766      4.358
REMARK INTER + INTRA:          -9.873
REMARK INTER:                  -8.449
REMARK INTRA:                  -1.424
REMARK UNBOUND:                -2.018
REMARK SMILES CC(=O)CCC=C(C)CCC=C(C)CCC=C(C)C
REMARK SMILES IDX 10 1 11 2 12 3 13 4 14 5 15 6 16 7 18 8 17 9 19 10 9 11 7 12
REMARK SMILES IDX 6 13 8 14 5 15 4 16 2 17 3 18 1 19
REMARK H PARENT
REMARK Flexibility Score: inf
ROOT
ATOM      1  C   UNL     1     100.064 118.288 123.608  1.00  0.00     0.032 C 
ENDROOT
BRANCH   1   2
ATOM      2  C   UNL     1     101.143 117.467 124.264  1.00  0.00    -0.028 C 
ATOM      3  C   UNL     1     101.362 117.421 125.598  1.00  0.00    -0.077 C 
ATOM      4  C   UNL     1     100.576 118.277 126.563  1.00  0.00     0.039 C 
BRANCH   3   5
ATOM      5  C   UNL     1     102.429 116.490 126.139  1.00  0.00     0.034 C 
BRANCH   5   6
ATOM      6  C   UNL     1     103.113 115.695 125.017  1.00  0.00     0.032 C 
BRANCH   6   7
ATOM      7  C   UNL     1     102.414 114.383 124.751  1.00  0.00    -0.028 C 
ATOM      8  C   UNL     1     102.313 114.739 122.275  1.00  0.00     0.039 C 
ATOM      9  C   UNL     1     102.076 113.927 123.526  1.00  0.00    -0.080 C 
ATOM     10  C   UNL     1     101.428 112.570 123.418  1.00  0.00     0.039 C 
ENDBRANCH   6   7
ENDBRANCH   5   6
ENDBRANCH   3   5
ENDBRANCH   1   2
BRANCH   1  11
ATOM     11  C   UNL     1     100.641 119.112 122.450  1.00  0.00     0.034 C 
BRANCH  11  12
ATOM     12  C   UNL     1     101.006 118.216 121.287  1.00  0.00    -0.077 C 
ATOM     13  C   UNL     1     100.043 117.458 120.717  1.00  0.00    -0.028 C 
ATOM     14  C   UNL     1     102.432 118.203 120.788  1.00  0.00     0.039 C 
BRANCH  13  15
ATOM     15  C   UNL     1     100.283 116.455 119.614  1.00  0.00     0.035 C 
BRANCH  15  16
ATOM     16  C   UNL     1      99.912 117.029 118.241  1.00  0.00     0.079 C 
BRANCH  16  17
ATOM     17  C   UNL     1     100.612 116.296 117.125  1.00  0.00     0.130 C 
ATOM     18  O   UNL     1     101.224 115.266 117.373  1.00  0.00    -0.300 OA
ATOM     19  C   UNL     1     100.578 116.806 115.716  1.00  0.00     0.087 C 
ENDBRANCH  16  17
ENDBRANCH  15  16
ENDBRANCH  13  15
ENDBRANCH  11  12
ENDBRANCH   1  11
TORSDOF 9
ENDMDL
MODEL 4
REMARK VINA RESULT:    -5.127      1.075      4.627
REMARK INTER + INTRA:          -9.843
REMARK INTER:                  -8.187
REMARK INTRA:                  -1.656
REMARK UNBOUND:                -2.018
REMARK SMILES CC(=O)CCC=C(C)CCC=C(C)CCC=C(C)C
REMARK SMILES IDX 10 1 11 2 12 3 13 4 14 5 15 6 16 7 18 8 17 9 19 10 9 11 7 12
REMARK SMILES IDX 6 13 8 14 5 15 4 16 2 17 3 18 1 19
REMARK H PARENT
REMARK Flexibility Score: inf
ROOT
ATOM      1  C   UNL     1     102.289 117.114 126.058  1.00  0.00     0.032 C 
ENDROOT
BRANCH   1   2
ATOM      2  C   UNL     1     102.185 115.645 125.739  1.00  0.00    -0.028 C 
ATOM      3  C   UNL     1     102.809 115.044 124.700  1.00  0.00    -0.077 C 
ATOM      4  C   UNL     1     103.618 115.831 123.695  1.00  0.00     0.039 C 
BRANCH   3   5
ATOM      5  C   UNL     1     102.689 113.543 124.536  1.00  0.00     0.034 C 
BRANCH   5   6
ATOM      6  C   UNL     1     101.363 113.147 123.868  1.00  0.00     0.032 C 
BRANCH   6   7
ATOM      7  C   UNL     1     101.581 112.248 122.674  1.00  0.00    -0.028 C 
ATOM      8  C   UNL     1     101.574 114.138 121.032  1.00  0.00     0.039 C 
ATOM      9  C   UNL     1     101.708 112.680 121.401  1.00  0.00    -0.080 C 
ATOM     10  C   UNL     1     101.976 111.662 120.322  1.00  0.00     0.039 C 
ENDBRANCH   6   7
ENDBRANCH   5   6
ENDBRANCH   3   5
ENDBRANCH   1   2
BRANCH   1  11
ATOM     11  C   UNL     1     100.895 117.749 126.138  1.00  0.00     0.034 C 
BRANCH  11  12
ATOM     12  C   UNL     1     100.490 118.321 124.797  1.00  0.00    -0.077 C 
ATOM     13  C   UNL     1     100.249 117.475 123.771  1.00  0.00    -0.028 C 
ATOM     14  C   UNL     1     100.354 119.817 124.647  1.00  0.00     0.039 C 
BRANCH  13  15
ATOM     15  C   UNL     1      99.928 117.908 122.360  1.00  0.00     0.035 C 
BRANCH  15  16
ATOM     16  C   UNL     1     101.145 117.763 121.438  1.00  0.00     0.079 C 
BRANCH  16  17
ATOM     17  C   UNL     1     100.771 117.961 119.991  1.00  0.00     0.130 C 
ATOM     18  O   UNL     1     101.532 118.567 119.250  1.00  0.00    -0.300 OA
ATOM     19  C   UNL     1      99.479 117.434 119.442  1.00  0.00     0.087 C 
ENDBRANCH  16  17
ENDBRANCH  15  16
ENDBRANCH  13  15
ENDBRANCH  11  12
ENDBRANCH   1  11
TORSDOF 9
ENDMDL
MODEL 5
REMARK VINA RESULT:    -5.120      2.251      4.514
REMARK INTER + INTRA:          -9.832
REMARK INTER:                  -8.344
REMARK INTRA:                  -1.488
REMARK UNBOUND:                -2.018
REMARK SMILES CC(=O)CCC=C(C)CCC=C(C)CCC=C(C)C
REMARK SMILES IDX 10 1 11 2 12 3 13 4 14 5 15 6 16 7 18 8 17 9 19 10 9 11 7 12
REMARK SMILES IDX 6 13 8 14 5 15 4 16 2 17 3 18 1 19
REMARK H PARENT
REMARK Flexibility Score: inf
ROOT
ATOM      1  C   UNL     1     102.163 116.751 126.008  1.00  0.00     0.032 C 
ENDROOT
BRANCH   1   2
ATOM      2  C   UNL     1     101.133 117.387 125.111  1.00  0.00    -0.028 C 
ATOM      3  C   UNL     1     100.600 118.614 125.311  1.00  0.00    -0.077 C 
ATOM      4  C   UNL     1     100.940 119.440 126.531  1.00  0.00     0.039 C 
BRANCH   3   5
ATOM      5  C   UNL     1      99.632 119.174 124.289  1.00  0.00     0.034 C 
BRANCH   5   6
ATOM      6  C   UNL     1     100.315 119.434 122.939  1.00  0.00     0.032 C 
BRANCH   6   7
ATOM      7  C   UNL     1      99.771 118.538 121.852  1.00  0.00    -0.028 C 
ATOM      8  C   UNL     1     101.898 117.236 121.620  1.00  0.00     0.039 C 
ATOM      9  C   UNL     1     100.457 117.529 121.273  1.00  0.00    -0.080 C 
ATOM     10  C   UNL     1      99.757 116.687 120.237  1.00  0.00     0.039 C 
ENDBRANCH   6   7
ENDBRANCH   5   6
ENDBRANCH   3   5
ENDBRANCH   1   2
BRANCH   1  11
ATOM     11  C   UNL     1     103.123 115.878 125.192  1.00  0.00     0.034 C 
BRANCH  11  12
ATOM     12  C   UNL     1     102.558 114.485 125.013  1.00  0.00    -0.077 C 
ATOM     13  C   UNL     1     101.955 114.169 123.845  1.00  0.00    -0.028 C 
ATOM     14  C   UNL     1     102.696 113.486 126.137  1.00  0.00     0.039 C 
BRANCH  13  15
ATOM     15  C   UNL     1     101.268 112.854 123.565  1.00  0.00     0.035 C 
BRANCH  15  16
ATOM     16  C   UNL     1     101.592 112.341 122.156  1.00  0.00     0.079 C 
BRANCH  16  17
ATOM     17  C   UNL     1     102.572 111.196 122.193  1.00  0.00     0.130 C 
ATOM     18  O   UNL     1     102.667 110.453 121.227  1.00  0.00    -0.300 OA
ATOM     19  C   UNL     1     103.430 110.945 123.397  1.00  0.00     0.087 C 
ENDBRANCH  16  17
ENDBRANCH  15  16
ENDBRANCH  13  15
ENDBRANCH  11  12
ENDBRANCH   1  11
TORSDOF 9
ENDMDL
MODEL 6
REMARK VINA RESULT:    -5.021      2.563      6.472
REMARK INTER + INTRA:          -9.680
REMARK INTER:                  -8.310
REMARK INTRA:                  -1.370
REMARK UNBOUND:                -2.018
REMARK SMILES CC(=O)CCC=C(C)CCC=C(C)CCC=C(C)C
REMARK SMILES IDX 10 1 11 2 12 3 13 4 14 5 15 6 16 7 18 8 17 9 19 10 9 11 7 12
REMARK SMILES IDX 6 13 8 14 5 15 4 16 2 17 3 18 1 19
REMARK H PARENT
REMARK Flexibility Score: inf
ROOT
ATOM      1  C   UNL     1      99.998 116.984 122.622  1.00  0.00     0.032 C 
ENDROOT
BRANCH   1   2
ATOM      2  C   UNL     1     100.440 117.517 121.284  1.00  0.00    -0.028 C 
ATOM      3  C   UNL     1     101.355 116.918 120.489  1.00  0.00    -0.077 C 
ATOM      4  C   UNL     1     102.095 115.674 120.923  1.00  0.00     0.039 C 
BRANCH   3   5
ATOM      5  C   UNL     1     101.653 117.514 119.127  1.00  0.00     0.034 C 
BRANCH   5   6
ATOM      6  C   UNL     1     100.472 117.343 118.160  1.00  0.00     0.032 C 
BRANCH   6   7
ATOM      7  C   UNL     1     100.496 115.997 117.475  1.00  0.00    -0.028 C 
ATOM      8  C   UNL     1     100.703 116.975 115.180  1.00  0.00     0.039 C 
ATOM      9  C   UNL     1     100.630 115.815 116.144  1.00  0.00    -0.080 C 
ATOM     10  C   UNL     1     100.690 114.405 115.615  1.00  0.00     0.039 C 
ENDBRANCH   6   7
ENDBRANCH   5   6
ENDBRANCH   3   5
ENDBRANCH   1   2
BRANCH   1  11
ATOM     11  C   UNL     1     100.207 118.036 123.718  1.00  0.00     0.034 C 
BRANCH  11  12
ATOM     12  C   UNL     1     101.101 117.497 124.813  1.00  0.00    -0.077 C 
ATOM     13  C   UNL     1     102.009 116.543 124.507  1.00  0.00    -0.028 C 
ATOM     14  C   UNL     1     100.964 118.048 126.213  1.00  0.00     0.039 C 
BRANCH  13  15
ATOM     15  C   UNL     1     102.898 115.852 125.513  1.00  0.00     0.035 C 
BRANCH  15  16
ATOM     16  C   UNL     1     102.543 114.366 125.648  1.00  0.00     0.079 C 
BRANCH  16  17
ATOM     17  C   UNL     1     102.484 113.685 124.304  1.00  0.00     0.130 C 
ATOM     18  O   UNL     1     103.482 113.658 123.599  1.00  0.00    -0.300 OA
ATOM     19  C   UNL     1     101.222 113.042 123.812  1.00  0.00     0.087 C 
ENDBRANCH  16  17
ENDBRANCH  15  16
ENDBRANCH  13  15
ENDBRANCH  11  12
ENDBRANCH   1  11
TORSDOF 9
ENDMDL
MODEL 7
REMARK VINA RESULT:    -5.011      1.785      4.739
REMARK INTER + INTRA:          -9.665
REMARK INTER:                  -7.517
REMARK INTRA:                  -2.148
REMARK UNBOUND:                -2.018
REMARK SMILES CC(=O)CCC=C(C)CCC=C(C)CCC=C(C)C
REMARK SMILES IDX 10 1 11 2 12 3 13 4 14 5 15 6 16 7 18 8 17 9 19 10 9 11 7 12
REMARK SMILES IDX 6 13 8 14 5 15 4 16 2 17 3 18 1 19
REMARK H PARENT
REMARK Flexibility Score: inf
ROOT
ATOM      1  C   UNL     1     101.192 117.357 126.071  1.00  0.00     0.032 C 
ENDROOT
BRANCH   1   2
ATOM      2  C   UNL     1     101.014 118.296 124.905  1.00  0.00    -0.028 C 
ATOM      3  C   UNL     1     100.441 117.952 123.730  1.00  0.00    -0.077 C 
ATOM      4  C   UNL     1      99.994 116.537 123.445  1.00  0.00     0.039 C 
BRANCH   3   5
ATOM      5  C   UNL     1     100.247 119.013 122.665  1.00  0.00     0.034 C 
BRANCH   5   6
ATOM      6  C   UNL     1     100.552 118.473 121.260  1.00  0.00     0.032 C 
BRANCH   6   7
ATOM      7  C   UNL     1     102.024 118.562 120.930  1.00  0.00    -0.028 C 
ATOM      8  C   UNL     1     102.274 116.094 120.590  1.00  0.00     0.039 C 
ATOM      9  C   UNL     1     102.802 117.509 120.598  1.00  0.00    -0.080 C 
ATOM     10  C   UNL     1     104.244 117.767 120.243  1.00  0.00     0.039 C 
ENDBRANCH   6   7
ENDBRANCH   5   6
ENDBRANCH   3   5
ENDBRANCH   1   2
BRANCH   1  11
ATOM     11  C   UNL     1     102.650 116.891 126.169  1.00  0.00     0.034 C 
BRANCH  11  12
ATOM     12  C   UNL     1     102.892 115.699 125.268  1.00  0.00    -0.077 C 
ATOM     13  C   UNL     1     102.425 114.488 125.645  1.00  0.00    -0.028 C 
ATOM     14  C   UNL     1     103.636 115.899 123.969  1.00  0.00     0.039 C 
BRANCH  13  15
ATOM     15  C   UNL     1     102.672 113.203 124.892  1.00  0.00     0.035 C 
BRANCH  15  16
ATOM     16  C   UNL     1     101.546 112.911 123.893  1.00  0.00     0.079 C 
BRANCH  16  17
ATOM     17  C   UNL     1     102.083 112.355 122.599  1.00  0.00     0.130 C 
ATOM     18  O   UNL     1     101.322 111.795 121.823  1.00  0.00    -0.300 OA
ATOM     19  C   UNL     1     103.536 112.470 122.245  1.00  0.00     0.087 C 
ENDBRANCH  16  17
ENDBRANCH  15  16
ENDBRANCH  13  15
ENDBRANCH  11  12
ENDBRANCH   1  11
TORSDOF 9
ENDMDL
MODEL 8
REMARK VINA RESULT:    -4.926      2.169      4.764
REMARK INTER + INTRA:          -9.536
REMARK INTER:                  -7.631
REMARK INTRA:                  -1.904
REMARK UNBOUND:                -2.018
REMARK SMILES CC(=O)CCC=C(C)CCC=C(C)CCC=C(C)C
REMARK SMILES IDX 10 1 11 2 12 3 13 4 14 5 15 6 16 7 18 8 17 9 19 10 9 11 7 12
REMARK SMILES IDX 6 13 8 14 5 15 4 16 2 17 3 18 1 19
REMARK H PARENT
REMARK Flexibility Score: inf
ROOT
ATOM      1  C   UNL     1     100.158 117.779 119.196  1.00  0.00     0.032 C 
ENDROOT
BRANCH   1   2
ATOM      2  C   UNL     1     100.197 118.029 120.682  1.00  0.00    -0.028 C 
ATOM      3  C   UNL     1     101.257 118.549 121.340  1.00  0.00    -0.077 C 
ATOM      4  C   UNL     1     102.559 118.855 120.637  1.00  0.00     0.039 C 
BRANCH   3   5
ATOM      5  C   UNL     1     101.139 118.828 122.825  1.00  0.00     0.034 C 
BRANCH   5   6
ATOM      6  C   UNL     1     100.444 117.677 123.568  1.00  0.00     0.032 C 
BRANCH   6   7
ATOM      7  C   UNL     1     101.413 116.889 124.418  1.00  0.00    -0.028 C 
ATOM      8  C   UNL     1     100.926 118.201 126.494  1.00  0.00     0.039 C 
ATOM      9  C   UNL     1     101.618 117.092 125.737  1.00  0.00    -0.080 C 
ATOM     10  C   UNL     1     102.582 116.187 126.461  1.00  0.00     0.039 C 
ENDBRANCH   6   7
ENDBRANCH   5   6
ENDBRANCH   3   5
ENDBRANCH   1   2
BRANCH   1  11
ATOM     11  C   UNL     1     100.054 116.277 118.904  1.00  0.00     0.034 C 
BRANCH  11  12
ATOM     12  C   UNL     1     101.356 115.578 119.231  1.00  0.00    -0.077 C 
ATOM     13  C   UNL     1     101.445 114.862 120.374  1.00  0.00    -0.028 C 
ATOM     14  C   UNL     1     102.512 115.688 118.266  1.00  0.00     0.039 C 
BRANCH  13  15
ATOM     15  C   UNL     1     102.705 114.193 120.869  1.00  0.00     0.035 C 
BRANCH  15  16
ATOM     16  C   UNL     1     102.988 114.543 122.336  1.00  0.00     0.079 C 
BRANCH  16  17
ATOM     17  C   UNL     1     102.728 113.370 123.246  1.00  0.00     0.130 C 
ATOM     18  O   UNL     1     103.614 112.549 123.438  1.00  0.00    -0.300 OA
ATOM     19  C   UNL     1     101.401 113.185 123.919  1.00  0.00     0.087 C 
ENDBRANCH  16  17
ENDBRANCH  15  16
ENDBRANCH  13  15
ENDBRANCH  11  12
ENDBRANCH   1  11
TORSDOF 9
ENDMDL
MODEL 9
REMARK VINA RESULT:    -4.890      1.350      4.341
REMARK INTER + INTRA:          -9.481
REMARK INTER:                  -7.035
REMARK INTRA:                  -2.446
REMARK UNBOUND:                -2.018
REMARK SMILES CC(=O)CCC=C(C)CCC=C(C)CCC=C(C)C
REMARK SMILES IDX 10 1 11 2 12 3 13 4 14 5 15 6 16 7 18 8 17 9 19 10 9 11 7 12
REMARK SMILES IDX 6 13 8 14 5 15 4 16 2 17 3 18 1 19
REMARK H PARENT
REMARK Flexibility Score: inf
ROOT
ATOM      1  C   UNL     1     102.494 114.414 125.966  1.00  0.00     0.032 C 
ENDROOT
BRANCH   1   2
ATOM      2  C   UNL     1     103.107 113.364 125.075  1.00  0.00    -0.028 C 
ATOM      3  C   UNL     1     102.444 112.719 124.089  1.00  0.00    -0.077 C 
ATOM      4  C   UNL     1     100.969 112.941 123.844  1.00  0.00     0.039 C 
BRANCH   3   5
ATOM      5  C   UNL     1     103.197 111.741 123.210  1.00  0.00     0.034 C 
BRANCH   5   6
ATOM      6  C   UNL     1     103.306 112.243 121.763  1.00  0.00     0.032 C 
BRANCH   6   7
ATOM      7  C   UNL     1     103.887 113.636 121.694  1.00  0.00    -0.028 C 
ATOM      8  C   UNL     1     101.833 114.629 120.663  1.00  0.00     0.039 C 
ATOM      9  C   UNL     1     103.229 114.721 121.232  1.00  0.00    -0.080 C 
ATOM     10  C   UNL     1     103.927 116.056 121.277  1.00  0.00     0.039 C 
ENDBRANCH   6   7
ENDBRANCH   5   6
ENDBRANCH   3   5
ENDBRANCH   1   2
BRANCH   1  11
ATOM     11  C   UNL     1     103.011 115.808 125.590  1.00  0.00     0.034 C 
BRANCH  11  12
ATOM     12  C   UNL     1     101.871 116.699 125.148  1.00  0.00    -0.077 C 
ATOM     13  C   UNL     1     101.357 116.538 123.908  1.00  0.00    -0.028 C 
ATOM     14  C   UNL     1     101.332 117.733 126.107  1.00  0.00     0.039 C 
BRANCH  13  15
ATOM     15  C   UNL     1     100.286 117.414 123.304  1.00  0.00     0.035 C 
BRANCH  15  16
ATOM     16  C   UNL     1     100.864 118.357 122.242  1.00  0.00     0.079 C 
BRANCH  16  17
ATOM     17  C   UNL     1     100.477 117.929 120.849  1.00  0.00     0.130 C 
ATOM     18  O   UNL     1      99.448 117.291 120.681  1.00  0.00    -0.300 OA
ATOM     19  C   UNL     1     101.333 118.265 119.665  1.00  0.00     0.087 C 
ENDBRANCH  16  17
ENDBRANCH  15  16
ENDBRANCH  13  15
ENDBRANCH  11  12
ENDBRANCH   1  11
TORSDOF 9
ENDMDL
