MODEL 1
REMARK VINA RESULT:    -5.796      0.000      0.000
REMARK INTER + INTRA:          -9.297
REMARK INTER:                  -8.846
REMARK INTRA:                  -0.451
REMARK UNBOUND:                -0.451
REMARK SMILES O=C([O-])CCCCCCCCC(=O)[O-]
REMARK SMILES IDX 7 1 6 2 5 3 4 4 2 5 1 6 3 7 8 8 9 9 10 10 11 11 12 12 13 13
REMARK SMILES IDX 14 14
REMARK H PARENT
REMARK Flexibility Score: inf
ROOT
ATOM      1  C   UNL     1      93.132 122.302 122.041  1.00  0.00     0.000 C 
ENDROOT
BRANCH   1   2
ATOM      2  C   UNL     1      94.204 122.303 120.929  1.00  0.00     0.000 C 
BRANCH   2   3
ATOM      3  C   UNL     1      94.096 121.106 119.969  1.00  0.00     0.006 C 
BRANCH   3   4
ATOM      4  C   UNL     1      94.059 121.524 118.494  1.00  0.00     0.053 C 
BRANCH   4   5
ATOM      5  C   UNL     1      92.840 122.346 118.215  1.00  0.00     0.041 C 
ATOM      6  O   UNL     1      91.710 121.797 118.137  1.00  0.00    -0.550 OA
ATOM      7  O   UNL     1      92.959 123.711 117.990  1.00  0.00    -0.550 OA
ENDBRANCH   4   5
ENDBRANCH   3   4
ENDBRANCH   2   3
ENDBRANCH   1   2
BRANCH   1   8
ATOM      8  C   UNL     1      93.421 123.355 123.125  1.00  0.00     0.000 C 
BRANCH   8   9
ATOM      9  C   UNL     1      93.334 122.782 124.548  1.00  0.00     0.000 C 
BRANCH   9  10
ATOM     10  C   UNL     1      94.643 122.946 125.333  1.00  0.00     0.006 C 
BRANCH  10  11
ATOM     11  C   UNL     1      95.661 123.765 124.535  1.00  0.00     0.053 C 
BRANCH  11  12
ATOM     12  C   UNL     1      96.858 124.079 125.376  1.00  0.00     0.041 C 
ATOM     13  O   UNL     1      97.450 123.161 126.003  1.00  0.00    -0.550 OA
ATOM     14  O   UNL     1      97.350 125.377 125.428  1.00  0.00    -0.550 OA
ENDBRANCH  11  12
ENDBRANCH  10  11
ENDBRANCH   9  10
ENDBRANCH   8   9
ENDBRANCH   1   8
TORSDOF 9
ENDMDL
MODEL 2
REMARK VINA RESULT:    -5.763      0.119      6.975
REMARK INTER + INTRA:          -9.245
REMARK INTER:                  -8.781
REMARK INTRA:                  -0.464
REMARK UNBOUND:                -0.451
REMARK SMILES O=C([O-])CCCCCCCCC(=O)[O-]
REMARK SMILES IDX 7 1 6 2 5 3 4 4 2 5 1 6 3 7 8 8 9 9 10 10 11 11 12 12 13 13
REMARK SMILES IDX 14 14
REMARK H PARENT
REMARK Flexibility Score: inf
ROOT
ATOM      1  C   UNL     1      93.320 123.343 123.169  1.00  0.00     0.000 C 
ENDROOT
BRANCH   1   2
ATOM      2  C   UNL     1      93.391 122.694 124.569  1.00  0.00     0.000 C 
BRANCH   2   3
ATOM      3  C   UNL     1      94.704 122.983 125.316  1.00  0.00     0.006 C 
BRANCH   3   4
ATOM      4  C   UNL     1      95.665 123.868 124.514  1.00  0.00     0.053 C 
BRANCH   4   5
ATOM      5  C   UNL     1      96.878 124.194 125.327  1.00  0.00     0.041 C 
ATOM      6  O   UNL     1      97.422 123.307 126.035  1.00  0.00    -0.550 OA
ATOM      7  O   UNL     1      97.378 125.489 125.341  1.00  0.00    -0.550 OA
ENDBRANCH   4   5
ENDBRANCH   3   4
ENDBRANCH   2   3
ENDBRANCH   1   2
BRANCH   1   8
ATOM      8  C   UNL     1      93.092 122.302 122.059  1.00  0.00     0.000 C 
BRANCH   8   9
ATOM      9  C   UNL     1      94.220 122.291 121.014  1.00  0.00     0.000 C 
BRANCH   9  10
ATOM     10  C   UNL     1      94.081 121.143 120.005  1.00  0.00     0.006 C 
BRANCH  10  11
ATOM     11  C   UNL     1      94.194 121.661 118.568  1.00  0.00     0.053 C 
BRANCH  11  12
ATOM     12  C   UNL     1      92.960 122.415 118.184  1.00  0.00     0.041 C 
ATOM     13  O   UNL     1      93.029 123.639 117.895  1.00  0.00    -0.550 OA
ATOM     14  O   UNL     1      91.740 121.754 118.095  1.00  0.00    -0.550 OA
ENDBRANCH  11  12
ENDBRANCH  10  11
ENDBRANCH   9  10
ENDBRANCH   8   9
ENDBRANCH   1   8
TORSDOF 9
ENDMDL
MODEL 3
REMARK VINA RESULT:    -5.724      1.066      7.342
REMARK INTER + INTRA:          -9.187
REMARK INTER:                  -8.848
REMARK INTRA:                  -0.339
REMARK UNBOUND:                -0.451
REMARK SMILES O=C([O-])CCCCCCCCC(=O)[O-]
REMARK SMILES IDX 7 1 6 2 5 3 4 4 2 5 1 6 3 7 8 8 9 9 10 10 11 11 12 12 13 13
REMARK SMILES IDX 14 14
REMARK H PARENT
REMARK Flexibility Score: inf
ROOT
ATOM      1  C   UNL     1      93.191 123.057 122.203  1.00  0.00     0.000 C 
ENDROOT
BRANCH   1   2
ATOM      2  C   UNL     1      93.435 122.596 123.657  1.00  0.00     0.000 C 
BRANCH   2   3
ATOM      3  C   UNL     1      94.226 123.612 124.500  1.00  0.00     0.006 C 
BRANCH   3   4
ATOM      4  C   UNL     1      95.262 122.950 125.415  1.00  0.00     0.053 C 
BRANCH   4   5
ATOM      5  C   UNL     1      96.544 123.720 125.395  1.00  0.00     0.041 C 
ATOM      6  O   UNL     1      96.606 124.833 124.809  1.00  0.00    -0.550 OA
ATOM      7  O   UNL     1      97.685 123.188 125.981  1.00  0.00    -0.550 OA
ENDBRANCH   4   5
ENDBRANCH   3   4
ENDBRANCH   2   3
ENDBRANCH   1   2
BRANCH   1   8
ATOM      8  C   UNL     1      93.474 121.939 121.185  1.00  0.00     0.000 C 
BRANCH   8   9
ATOM      9  C   UNL     1      94.712 122.224 120.320  1.00  0.00     0.000 C 
BRANCH   9  10
ATOM     10  C   UNL     1      94.361 122.463 118.844  1.00  0.00     0.006 C 
BRANCH  10  11
ATOM     11  C   UNL     1      93.930 121.160 118.166  1.00  0.00     0.053 C 
BRANCH  11  12
ATOM     12  C   UNL     1      92.682 121.371 117.368  1.00  0.00     0.041 C 
ATOM     13  O   UNL     1      91.614 121.715 117.941  1.00  0.00    -0.550 OA
ATOM     14  O   UNL     1      92.709 121.236 115.986  1.00  0.00    -0.550 OA
ENDBRANCH  11  12
ENDBRANCH  10  11
ENDBRANCH   9  10
ENDBRANCH   8   9
ENDBRANCH   1   8
TORSDOF 9
ENDMDL
MODEL 4
REMARK VINA RESULT:    -5.704      1.064      1.212
REMARK INTER + INTRA:          -9.156
REMARK INTER:                  -8.777
REMARK INTRA:                  -0.380
REMARK UNBOUND:                -0.451
REMARK SMILES O=C([O-])CCCCCCCCC(=O)[O-]
REMARK SMILES IDX 7 1 6 2 5 3 4 4 2 5 1 6 3 7 8 8 9 9 10 10 11 11 12 12 13 13
REMARK SMILES IDX 14 14
REMARK H PARENT
REMARK Flexibility Score: inf
ROOT
ATOM      1  C   UNL     1      93.462 121.860 121.253  1.00  0.00     0.000 C 
ENDROOT
BRANCH   1   2
ATOM      2  C   UNL     1      94.678 122.258 120.388  1.00  0.00     0.000 C 
BRANCH   2   3
ATOM      3  C   UNL     1      94.484 121.978 118.888  1.00  0.00     0.006 C 
BRANCH   3   4
ATOM      4  C   UNL     1      93.375 122.831 118.260  1.00  0.00     0.053 C 
BRANCH   4   5
ATOM      5  C   UNL     1      92.394 121.963 117.537  1.00  0.00     0.041 C 
ATOM      6  O   UNL     1      91.352 121.564 118.119  1.00  0.00    -0.550 OA
ATOM      7  O   UNL     1      92.655 121.553 116.236  1.00  0.00    -0.550 OA
ENDBRANCH   4   5
ENDBRANCH   3   4
ENDBRANCH   2   3
ENDBRANCH   1   2
BRANCH   1   8
ATOM      8  C   UNL     1      93.064 122.971 122.240  1.00  0.00     0.000 C 
BRANCH   8   9
ATOM      9  C   UNL     1      93.437 122.634 123.693  1.00  0.00     0.000 C 
BRANCH   9  10
ATOM     10  C   UNL     1      94.413 123.649 124.304  1.00  0.00     0.006 C 
BRANCH  10  11
ATOM     11  C   UNL     1      95.233 123.011 125.429  1.00  0.00     0.053 C 
BRANCH  11  12
ATOM     12  C   UNL     1      96.573 123.669 125.540  1.00  0.00     0.041 C 
ATOM     13  O   UNL     1      97.533 123.064 126.087  1.00  0.00    -0.550 OA
ATOM     14  O   UNL     1      96.775 124.932 124.996  1.00  0.00    -0.550 OA
ENDBRANCH  11  12
ENDBRANCH  10  11
ENDBRANCH   9  10
ENDBRANCH   8   9
ENDBRANCH   1   8
TORSDOF 9
ENDMDL
MODEL 5
REMARK VINA RESULT:    -5.489      1.508      2.337
REMARK INTER + INTRA:          -8.828
REMARK INTER:                  -8.317
REMARK INTRA:                  -0.510
REMARK UNBOUND:                -0.451
REMARK SMILES O=C([O-])CCCCCCCCC(=O)[O-]
REMARK SMILES IDX 7 1 6 2 5 3 4 4 2 5 1 6 3 7 8 8 9 9 10 10 11 11 12 12 13 13
REMARK SMILES IDX 14 14
REMARK H PARENT
REMARK Flexibility Score: inf
ROOT
ATOM      1  C   UNL     1      94.980 122.262 120.384  1.00  0.00     0.000 C 
ENDROOT
BRANCH   1   2
ATOM      2  C   UNL     1      94.599 122.289 118.888  1.00  0.00     0.000 C 
BRANCH   2   3
ATOM      3  C   UNL     1      93.651 121.150 118.474  1.00  0.00     0.006 C 
BRANCH   3   4
ATOM      4  C   UNL     1      92.282 121.655 118.004  1.00  0.00     0.053 C 
BRANCH   4   5
ATOM      5  C   UNL     1      92.343 122.070 116.568  1.00  0.00     0.041 C 
ATOM      6  O   UNL     1      92.024 123.240 116.232  1.00  0.00    -0.550 OA
ATOM      7  O   UNL     1      92.705 121.149 115.593  1.00  0.00    -0.550 OA
ENDBRANCH   4   5
ENDBRANCH   3   4
ENDBRANCH   2   3
ENDBRANCH   1   2
BRANCH   1   8
ATOM      8  C   UNL     1      93.839 121.720 121.263  1.00  0.00     0.000 C 
BRANCH   8   9
ATOM      9  C   UNL     1      93.111 122.828 122.041  1.00  0.00     0.000 C 
BRANCH   9  10
ATOM     10  C   UNL     1      93.232 122.662 123.562  1.00  0.00     0.006 C 
BRANCH  10  11
ATOM     11  C   UNL     1      93.997 123.834 124.182  1.00  0.00     0.053 C 
BRANCH  11  12
ATOM     12  C   UNL     1      95.347 123.390 124.650  1.00  0.00     0.041 C 
ATOM     13  O   UNL     1      96.316 123.348 123.846  1.00  0.00    -0.550 OA
ATOM     14  O   UNL     1      95.549 123.070 125.988  1.00  0.00    -0.550 OA
ENDBRANCH  11  12
ENDBRANCH  10  11
ENDBRANCH   9  10
ENDBRANCH   8   9
ENDBRANCH   1   8
TORSDOF 9
ENDMDL
MODEL 6
REMARK VINA RESULT:    -5.244      1.175      1.327
REMARK INTER + INTRA:          -8.453
REMARK INTER:                  -8.049
REMARK INTRA:                  -0.404
REMARK UNBOUND:                -0.451
REMARK SMILES O=C([O-])CCCCCCCCC(=O)[O-]
REMARK SMILES IDX 7 1 6 2 5 3 4 4 2 5 1 6 3 7 8 8 9 9 10 10 11 11 12 12 13 13
REMARK SMILES IDX 14 14
REMARK H PARENT
REMARK Flexibility Score: inf
ROOT
ATOM      1  C   UNL     1      93.549 122.786 122.194  1.00  0.00     0.000 C 
ENDROOT
BRANCH   1   2
ATOM      2  C   UNL     1      93.124 121.408 121.640  1.00  0.00     0.000 C 
BRANCH   2   3
ATOM      3  C   UNL     1      93.402 121.237 120.137  1.00  0.00     0.006 C 
BRANCH   3   4
ATOM      4  C   UNL     1      92.583 122.195 119.265  1.00  0.00     0.053 C 
BRANCH   4   5
ATOM      5  C   UNL     1      93.489 123.088 118.477  1.00  0.00     0.041 C 
ATOM      6  O   UNL     1      94.738 122.969 118.575  1.00  0.00    -0.550 OA
ATOM      7  O   UNL     1      92.954 124.084 117.672  1.00  0.00    -0.550 OA
ENDBRANCH   4   5
ENDBRANCH   3   4
ENDBRANCH   2   3
ENDBRANCH   1   2
BRANCH   1   8
ATOM      8  C   UNL     1      93.129 122.975 123.661  1.00  0.00     0.000 C 
BRANCH   8   9
ATOM      9  C   UNL     1      94.095 123.880 124.444  1.00  0.00     0.000 C 
BRANCH   9  10
ATOM     10  C   UNL     1      95.149 123.083 125.226  1.00  0.00     0.006 C 
BRANCH  10  11
ATOM     11  C   UNL     1      96.558 123.389 124.712  1.00  0.00     0.053 C 
BRANCH  11  12
ATOM     12  C   UNL     1      97.448 123.809 125.840  1.00  0.00     0.041 C 
ATOM     13  O   UNL     1      98.306 123.011 126.302  1.00  0.00    -0.550 OA
ATOM     14  O   UNL     1      97.364 125.100 126.348  1.00  0.00    -0.550 OA
ENDBRANCH  11  12
ENDBRANCH  10  11
ENDBRANCH   9  10
ENDBRANCH   8   9
ENDBRANCH   1   8
TORSDOF 9
ENDMDL
MODEL 7
REMARK VINA RESULT:    -5.141      1.482      7.209
REMARK INTER + INTRA:          -8.297
REMARK INTER:                  -7.822
REMARK INTRA:                  -0.474
REMARK UNBOUND:                -0.451
REMARK SMILES O=C([O-])CCCCCCCCC(=O)[O-]
REMARK SMILES IDX 7 1 6 2 5 3 4 4 2 5 1 6 3 7 8 8 9 9 10 10 11 11 12 12 13 13
REMARK SMILES IDX 14 14
REMARK H PARENT
REMARK Flexibility Score: inf
ROOT
ATOM      1  C   UNL     1      94.683 122.635 121.266  1.00  0.00     0.000 C 
ENDROOT
BRANCH   1   2
ATOM      2  C   UNL     1      93.254 122.324 121.763  1.00  0.00     0.000 C 
BRANCH   2   3
ATOM      3  C   UNL     1      93.072 122.524 123.277  1.00  0.00     0.006 C 
BRANCH   3   4
ATOM      4  C   UNL     1      93.655 123.851 123.778  1.00  0.00     0.053 C 
BRANCH   4   5
ATOM      5  C   UNL     1      94.724 123.601 124.794  1.00  0.00     0.041 C 
ATOM      6  O   UNL     1      94.591 122.679 125.640  1.00  0.00    -0.550 OA
ATOM      7  O   UNL     1      95.845 124.419 124.838  1.00  0.00    -0.550 OA
ENDBRANCH   4   5
ENDBRANCH   3   4
ENDBRANCH   2   3
ENDBRANCH   1   2
BRANCH   1   8
ATOM      8  C   UNL     1      94.925 122.117 119.837  1.00  0.00     0.000 C 
BRANCH   8   9
ATOM      9  C   UNL     1      94.075 120.880 119.502  1.00  0.00     0.000 C 
BRANCH   9  10
ATOM     10  C   UNL     1      93.524 120.912 118.070  1.00  0.00     0.006 C 
BRANCH  10  11
ATOM     11  C   UNL     1      92.318 121.851 117.968  1.00  0.00     0.053 C 
BRANCH  11  12
ATOM     12  C   UNL     1      92.276 122.506 116.623  1.00  0.00     0.041 C 
ATOM     13  O   UNL     1      92.244 121.806 115.577  1.00  0.00    -0.550 OA
ATOM     14  O   UNL     1      92.222 123.891 116.526  1.00  0.00    -0.550 OA
ENDBRANCH  11  12
ENDBRANCH  10  11
ENDBRANCH   9  10
ENDBRANCH   8   9
ENDBRANCH   1   8
TORSDOF 9
ENDMDL
MODEL 8
REMARK VINA RESULT:    -5.039      2.506      3.662
REMARK INTER + INTRA:          -8.141
REMARK INTER:                  -7.639
REMARK INTRA:                  -0.502
REMARK UNBOUND:                -0.451
REMARK SMILES O=C([O-])CCCCCCCCC(=O)[O-]
REMARK SMILES IDX 7 1 6 2 5 3 4 4 2 5 1 6 3 7 8 8 9 9 10 10 11 11 12 12 13 13
REMARK SMILES IDX 14 14
REMARK H PARENT
REMARK Flexibility Score: inf
ROOT
ATOM      1  C   UNL     1      94.513 120.763 118.961  1.00  0.00     0.000 C 
ENDROOT
BRANCH   1   2
ATOM      2  C   UNL     1      93.810 120.909 117.594  1.00  0.00     0.000 C 
BRANCH   2   3
ATOM      3  C   UNL     1      92.380 121.467 117.695  1.00  0.00     0.006 C 
BRANCH   3   4
ATOM      4  C   UNL     1      92.053 122.474 116.586  1.00  0.00     0.053 C 
BRANCH   4   5
ATOM      5  C   UNL     1      92.510 123.845 116.974  1.00  0.00     0.041 C 
ATOM      6  O   UNL     1      92.955 124.061 118.131  1.00  0.00    -0.550 OA
ATOM      7  O   UNL     1      92.398 124.895 116.073  1.00  0.00    -0.550 OA
ENDBRANCH   4   5
ENDBRANCH   3   4
ENDBRANCH   2   3
ENDBRANCH   1   2
BRANCH   1   8
ATOM      8  C   UNL     1      95.084 122.100 119.465  1.00  0.00     0.000 C 
BRANCH   8   9
ATOM      9  C   UNL     1      94.807 122.339 120.958  1.00  0.00     0.000 C 
BRANCH   9  10
ATOM     10  C   UNL     1      93.314 122.539 121.258  1.00  0.00     0.006 C 
BRANCH  10  11
ATOM     11  C   UNL     1      92.940 121.924 122.609  1.00  0.00     0.053 C 
BRANCH  11  12
ATOM     12  C   UNL     1      93.058 122.941 123.700  1.00  0.00     0.041 C 
ATOM     13  O   UNL     1      93.241 122.575 124.892  1.00  0.00    -0.550 OA
ATOM     14  O   UNL     1      93.016 124.296 123.395  1.00  0.00    -0.550 OA
ENDBRANCH  11  12
ENDBRANCH  10  11
ENDBRANCH   9  10
ENDBRANCH   8   9
ENDBRANCH   1   8
TORSDOF 9
ENDMDL
MODEL 9
REMARK VINA RESULT:    -4.305     10.577     11.545
REMARK INTER + INTRA:          -7.021
REMARK INTER:                  -6.140
REMARK INTRA:                  -0.881
REMARK UNBOUND:                -0.451
REMARK SMILES O=C([O-])CCCCCCCCC(=O)[O-]
REMARK SMILES IDX 7 1 6 2 5 3 4 4 2 5 1 6 3 7 8 8 9 9 10 10 11 11 12 12 13 13
REMARK SMILES IDX 14 14
REMARK H PARENT
REMARK Flexibility Score: inf
ROOT
ATOM      1  C   UNL     1      85.610 126.711 129.588  1.00  0.00     0.000 C 
ENDROOT
BRANCH   1   2
ATOM      2  C   UNL     1      85.551 126.100 128.171  1.00  0.00     0.000 C 
BRANCH   2   3
ATOM      3  C   UNL     1      84.402 125.095 127.982  1.00  0.00     0.006 C 
BRANCH   3   4
ATOM      4  C   UNL     1      84.832 123.830 127.230  1.00  0.00     0.053 C 
BRANCH   4   5
ATOM      5  C   UNL     1      84.061 123.692 125.956  1.00  0.00     0.041 C 
ATOM      6  O   UNL     1      84.407 122.841 125.095  1.00  0.00    -0.550 OA
ATOM      7  O   UNL     1      82.989 124.536 125.697  1.00  0.00    -0.550 OA
ENDBRANCH   4   5
ENDBRANCH   3   4
ENDBRANCH   2   3
ENDBRANCH   1   2
BRANCH   1   8
ATOM      8  C   UNL     1      84.632 126.024 130.557  1.00  0.00     0.000 C 
BRANCH   8   9
ATOM      9  C   UNL     1      85.325 125.489 131.820  1.00  0.00     0.000 C 
BRANCH   9  10
ATOM     10  C   UNL     1      86.635 124.751 131.508  1.00  0.00     0.006 C 
BRANCH  10  11
ATOM     11  C   UNL     1      86.374 123.272 131.212  1.00  0.00     0.053 C 
BRANCH  11  12
ATOM     12  C   UNL     1      87.357 122.756 130.210  1.00  0.00     0.041 C 
ATOM     13  O   UNL     1      87.629 123.431 129.182  1.00  0.00    -0.550 OA
ATOM     14  O   UNL     1      88.012 121.551 130.434  1.00  0.00    -0.550 OA
ENDBRANCH  11  12
ENDBRANCH  10  11
ENDBRANCH   9  10
ENDBRANCH   8   9
ENDBRANCH   1   8
TORSDOF 9
ENDMDL
