MODEL 1
REMARK VINA RESULT:    -6.407      0.000      0.000
REMARK INTER + INTRA:          -7.836
REMARK INTER:                  -7.531
REMARK INTRA:                  -0.305
REMARK UNBOUND:                -0.305
REMARK SMILES O=c1cc(-c2ccc(O)c(O)c2)oc2cc(O)cc(O)c12
REMARK SMILES IDX 4 1 3 2 2 3 1 4 21 5 19 6 18 7 16 8 15 9 14 10 13 11 5 12
REMARK SMILES IDX 6 13 7 14 8 15 12 16 10 17 9 18 11 20 20 22 17 24
REMARK H PARENT 9 19 11 21 20 23 17 25
REMARK Flexibility Score: inf
ROOT
ATOM      1  C   UNL     1      -5.339  -3.558  -1.105  1.00  0.00     0.138 A 
ATOM      2  C   UNL     1      -4.463  -2.628  -0.531  1.00  0.00     0.100 A 
ATOM      3  C   UNL     1      -3.609  -1.886  -1.350  1.00  0.00     0.197 A 
ATOM      4  O   UNL     1      -2.880  -1.014  -0.811  1.00  0.00    -0.289 OA
ATOM      5  C   UNL     1      -3.614  -2.102  -2.747  1.00  0.00     0.107 A 
ATOM      6  C   UNL     1      -2.760  -1.434  -3.676  1.00  0.00     0.134 A 
ATOM      7  C   UNL     1      -2.935  -1.645  -5.049  1.00  0.00     0.093 A 
ATOM      8  C   UNL     1      -3.891  -2.545  -5.524  1.00  0.00     0.123 A 
ATOM      9  C   UNL     1      -4.693  -3.242  -4.624  1.00  0.00     0.094 A 
ATOM     10  C   UNL     1      -4.567  -3.028  -3.250  1.00  0.00     0.146 A 
ATOM     11  O   UNL     1      -5.361  -3.703  -2.426  1.00  0.00    -0.456 OA
ENDROOT
BRANCH   1  12
ATOM     12  C   UNL     1      -6.266  -4.375  -0.281  1.00  0.00     0.021 A 
ATOM     13  C   UNL     1      -6.784  -3.901   0.937  1.00  0.00     0.016 A 
ATOM     14  C   UNL     1      -7.646  -4.695   1.696  1.00  0.00     0.051 A 
ATOM     15  C   UNL     1      -8.005  -5.975   1.265  1.00  0.00     0.157 A 
ATOM     16  C   UNL     1      -6.615  -5.668  -0.707  1.00  0.00     0.062 A 
ATOM     17  C   UNL     1      -7.481  -6.469   0.048  1.00  0.00     0.158 A 
BRANCH  15  18
ATOM     18  O   UNL     1      -8.873  -6.716   2.070  1.00  0.00    -0.504 OA
ATOM     19  H   UNL     1      -9.602  -6.309   2.639  1.00  0.00     0.293 HD
ENDBRANCH  15  18
BRANCH  17  20
ATOM     20  O   UNL     1      -7.789  -7.739  -0.445  1.00  0.00    -0.504 OA
ATOM     21  H   UNL     1      -7.781  -7.982  -1.425  1.00  0.00     0.293 HD
ENDBRANCH  17  20
ENDBRANCH   1  12
BRANCH   6  22
ATOM     22  O   UNL     1      -1.717  -0.581  -3.303  1.00  0.00    -0.507 OA
ATOM     23  H   UNL     1      -1.269  -0.578  -2.399  1.00  0.00     0.293 HD
ENDBRANCH   6  22
BRANCH   8  24
ATOM     24  O   UNL     1      -4.046  -2.760  -6.892  1.00  0.00    -0.508 OA
ATOM     25  H   UNL     1      -3.317  -2.518  -7.554  1.00  0.00     0.293 HD
ENDBRANCH   8  24
TORSDOF 5
ENDMDL
MODEL 2
REMARK VINA RESULT:    -6.392      8.132     13.138
REMARK INTER + INTRA:          -7.819
REMARK INTER:                  -7.510
REMARK INTRA:                  -0.308
REMARK UNBOUND:                -0.305
REMARK SMILES O=c1cc(-c2ccc(O)c(O)c2)oc2cc(O)cc(O)c12
REMARK SMILES IDX 4 1 3 2 2 3 1 4 21 5 19 6 18 7 16 8 15 9 14 10 13 11 5 12
REMARK SMILES IDX 6 13 7 14 8 15 12 16 10 17 9 18 11 20 20 22 17 24
REMARK H PARENT 9 19 11 21 20 23 17 25
REMARK Flexibility Score: inf
ROOT
ATOM      1  C   UNL     1      -2.116   3.626 -10.477  1.00  0.00     0.138 A 
ATOM      2  C   UNL     1      -1.047   2.720 -10.440  1.00  0.00     0.100 A 
ATOM      3  C   UNL     1      -0.803   1.988  -9.277  1.00  0.00     0.197 A 
ATOM      4  O   UNL     1       0.125   1.137  -9.295  1.00  0.00    -0.289 OA
ATOM      5  C   UNL     1      -1.615   2.188  -8.137  1.00  0.00     0.107 A 
ATOM      6  C   UNL     1      -1.435   1.528  -6.885  1.00  0.00     0.134 A 
ATOM      7  C   UNL     1      -2.373   1.719  -5.862  1.00  0.00     0.093 A 
ATOM      8  C   UNL     1      -3.449   2.594  -6.026  1.00  0.00     0.123 A 
ATOM      9  C   UNL     1      -3.604   3.284  -7.226  1.00  0.00     0.094 A 
ATOM     10  C   UNL     1      -2.705   3.088  -8.277  1.00  0.00     0.146 A 
ATOM     11  O   UNL     1      -2.897   3.755  -9.410  1.00  0.00    -0.456 OA
ENDROOT
BRANCH   1  12
ATOM     12  C   UNL     1      -2.419   4.431 -11.687  1.00  0.00     0.021 A 
ATOM     13  C   UNL     1      -2.054   3.999 -12.974  1.00  0.00     0.016 A 
ATOM     14  C   UNL     1      -2.343   4.782 -14.092  1.00  0.00     0.051 A 
ATOM     15  C   UNL     1      -2.994   6.012 -13.956  1.00  0.00     0.157 A 
ATOM     16  C   UNL     1      -3.060   5.675 -11.548  1.00  0.00     0.062 A 
ATOM     17  C   UNL     1      -3.355   6.466 -12.666  1.00  0.00     0.158 A 
BRANCH  15  18
ATOM     18  O   UNL     1      -3.256   6.744 -15.115  1.00  0.00    -0.504 OA
ATOM     19  H   UNL     1      -3.890   7.530 -15.156  1.00  0.00     0.293 HD
ENDBRANCH  15  18
BRANCH  17  20
ATOM     20  O   UNL     1      -4.002   7.684 -12.449  1.00  0.00    -0.504 OA
ATOM     21  H   UNL     1      -4.336   7.994 -11.548  1.00  0.00     0.293 HD
ENDBRANCH  17  20
ENDBRANCH   1  12
BRANCH   6  22
ATOM     22  O   UNL     1      -0.348   0.701  -6.587  1.00  0.00    -0.507 OA
ATOM     23  H   UNL     1       0.117   0.098  -7.249  1.00  0.00     0.293 HD
ENDBRANCH   6  22
BRANCH   8  24
ATOM     24  O   UNL     1      -4.368   2.790  -4.997  1.00  0.00    -0.508 OA
ATOM     25  H   UNL     1      -4.605   3.718  -4.667  1.00  0.00     0.293 HD
ENDBRANCH   8  24
TORSDOF 5
ENDMDL
MODEL 3
REMARK VINA RESULT:    -6.366      1.462      2.915
REMARK INTER + INTRA:          -7.788
REMARK INTER:                  -7.514
REMARK INTRA:                  -0.274
REMARK UNBOUND:                -0.305
REMARK SMILES O=c1cc(-c2ccc(O)c(O)c2)oc2cc(O)cc(O)c12
REMARK SMILES IDX 4 1 3 2 2 3 1 4 21 5 19 6 18 7 16 8 15 9 14 10 13 11 5 12
REMARK SMILES IDX 6 13 7 14 8 15 12 16 10 17 9 18 11 20 20 22 17 24
REMARK H PARENT 9 19 11 21 20 23 17 25
REMARK Flexibility Score: inf
ROOT
ATOM      1  C   UNL     1      -5.368  -3.360  -1.544  1.00  0.00     0.138 A 
ATOM      2  C   UNL     1      -4.998  -3.813  -2.818  1.00  0.00     0.100 A 
ATOM      3  C   UNL     1      -3.917  -3.221  -3.474  1.00  0.00     0.197 A 
ATOM      4  O   UNL     1      -3.570  -3.691  -4.588  1.00  0.00    -0.289 OA
ATOM      5  C   UNL     1      -3.226  -2.149  -2.863  1.00  0.00     0.107 A 
ATOM      6  C   UNL     1      -2.136  -1.443  -3.454  1.00  0.00     0.134 A 
ATOM      7  C   UNL     1      -1.453  -0.475  -2.707  1.00  0.00     0.093 A 
ATOM      8  C   UNL     1      -1.860  -0.146  -1.412  1.00  0.00     0.123 A 
ATOM      9  C   UNL     1      -2.956  -0.792  -0.845  1.00  0.00     0.094 A 
ATOM     10  C   UNL     1      -3.635  -1.786  -1.553  1.00  0.00     0.146 A 
ATOM     11  O   UNL     1      -4.667  -2.388  -0.970  1.00  0.00    -0.456 OA
ENDROOT
BRANCH   1  12
ATOM     12  C   UNL     1      -6.510  -3.953  -0.803  1.00  0.00     0.021 A 
ATOM     13  C   UNL     1      -7.477  -3.151  -0.171  1.00  0.00     0.016 A 
ATOM     14  C   UNL     1      -8.534  -3.736   0.528  1.00  0.00     0.051 A 
ATOM     15  C   UNL     1      -8.649  -5.126   0.620  1.00  0.00     0.157 A 
ATOM     16  C   UNL     1      -6.616  -5.350  -0.697  1.00  0.00     0.062 A 
ATOM     17  C   UNL     1      -7.675  -5.945   0.001  1.00  0.00     0.158 A 
BRANCH  15  18
ATOM     18  O   UNL     1      -9.732  -5.647   1.331  1.00  0.00    -0.504 OA
ATOM     19  H   UNL     1     -10.051  -5.287   2.219  1.00  0.00     0.293 HD
ENDBRANCH  15  18
BRANCH  17  20
ATOM     20  O   UNL     1      -7.719  -7.339   0.053  1.00  0.00    -0.504 OA
ATOM     21  H   UNL     1      -6.901  -7.929   0.100  1.00  0.00     0.293 HD
ENDBRANCH  17  20
ENDBRANCH   1  12
BRANCH   6  22
ATOM     22  O   UNL     1      -1.704  -1.634  -4.771  1.00  0.00    -0.507 OA
ATOM     23  H   UNL     1      -1.582  -0.899  -5.450  1.00  0.00     0.293 HD
ENDBRANCH   6  22
BRANCH   8  24
ATOM     24  O   UNL     1      -1.184   0.830  -0.682  1.00  0.00    -0.508 OA
ATOM     25  H   UNL     1      -1.368   1.817  -0.818  1.00  0.00     0.293 HD
ENDBRANCH   8  24
TORSDOF 5
ENDMDL
MODEL 4
REMARK VINA RESULT:    -6.040     17.467     19.291
REMARK INTER + INTRA:          -7.405
REMARK INTER:                  -7.091
REMARK INTRA:                  -0.314
REMARK UNBOUND:                -0.305
REMARK SMILES O=c1cc(-c2ccc(O)c(O)c2)oc2cc(O)cc(O)c12
REMARK SMILES IDX 4 1 3 2 2 3 1 4 21 5 19 6 18 7 16 8 15 9 14 10 13 11 5 12
REMARK SMILES IDX 6 13 7 14 8 15 12 16 10 17 9 18 11 20 20 22 17 24
REMARK H PARENT 9 19 11 21 20 23 17 25
REMARK Flexibility Score: inf
ROOT
ATOM      1  C   UNL     1     -16.575   3.381 -15.211  1.00  0.00     0.138 A 
ATOM      2  C   UNL     1     -17.816   4.030 -15.244  1.00  0.00     0.100 A 
ATOM      3  C   UNL     1     -17.866   5.424 -15.294  1.00  0.00     0.197 A 
ATOM      4  O   UNL     1     -18.994   5.974 -15.386  1.00  0.00    -0.289 OA
ATOM      5  C   UNL     1     -16.665   6.171 -15.279  1.00  0.00     0.107 A 
ATOM      6  C   UNL     1     -16.594   7.596 -15.286  1.00  0.00     0.134 A 
ATOM      7  C   UNL     1     -15.346   8.225 -15.387  1.00  0.00     0.093 A 
ATOM      8  C   UNL     1     -14.165   7.480 -15.420  1.00  0.00     0.123 A 
ATOM      9  C   UNL     1     -14.221   6.090 -15.360  1.00  0.00     0.094 A 
ATOM     10  C   UNL     1     -15.451   5.433 -15.294  1.00  0.00     0.146 A 
ATOM     11  O   UNL     1     -15.461   4.104 -15.252  1.00  0.00    -0.456 OA
ENDROOT
BRANCH   1  12
ATOM     12  C   UNL     1     -16.464   1.901 -15.155  1.00  0.00     0.021 A 
ATOM     13  C   UNL     1     -17.532   1.096 -14.721  1.00  0.00     0.016 A 
ATOM     14  C   UNL     1     -17.396  -0.292 -14.669  1.00  0.00     0.051 A 
ATOM     15  C   UNL     1     -16.198  -0.908 -15.041  1.00  0.00     0.157 A 
ATOM     16  C   UNL     1     -15.255   1.283 -15.515  1.00  0.00     0.062 A 
ATOM     17  C   UNL     1     -15.111  -0.109 -15.467  1.00  0.00     0.158 A 
BRANCH  15  18
ATOM     18  O   UNL     1     -16.129  -2.301 -14.970  1.00  0.00    -0.504 OA
ATOM     19  H   UNL     1     -16.387  -2.839 -14.154  1.00  0.00     0.293 HD
ENDBRANCH  15  18
BRANCH  17  20
ATOM     20  O   UNL     1     -13.882  -0.651 -15.849  1.00  0.00    -0.504 OA
ATOM     21  H   UNL     1     -13.778  -1.535 -16.326  1.00  0.00     0.293 HD
ENDBRANCH  17  20
ENDBRANCH   1  12
BRANCH   6  22
ATOM     22  O   UNL     1     -17.707   8.434 -15.170  1.00  0.00    -0.507 OA
ATOM     23  H   UNL     1     -18.390   8.590 -15.896  1.00  0.00     0.293 HD
ENDBRANCH   6  22
BRANCH   8  24
ATOM     24  O   UNL     1     -12.928   8.116 -15.506  1.00  0.00    -0.508 OA
ATOM     25  H   UNL     1     -12.292   7.938 -16.275  1.00  0.00     0.293 HD
ENDBRANCH   8  24
TORSDOF 5
ENDMDL
MODEL 5
REMARK VINA RESULT:    -6.003     15.426     16.617
REMARK INTER + INTRA:          -7.361
REMARK INTER:                  -7.068
REMARK INTRA:                  -0.293
REMARK UNBOUND:                -0.305
REMARK SMILES O=c1cc(-c2ccc(O)c(O)c2)oc2cc(O)cc(O)c12
REMARK SMILES IDX 4 1 3 2 2 3 1 4 21 5 19 6 18 7 16 8 15 9 14 10 13 11 5 12
REMARK SMILES IDX 6 13 7 14 8 15 12 16 10 17 9 18 11 20 20 22 17 24
REMARK H PARENT 9 19 11 21 20 23 17 25
REMARK Flexibility Score: inf
ROOT
ATOM      1  C   UNL     1     -17.701   0.515 -11.011  1.00  0.00     0.138 A 
ATOM      2  C   UNL     1     -16.964   1.031 -12.086  1.00  0.00     0.100 A 
ATOM      3  C   UNL     1     -16.563   0.182 -13.119  1.00  0.00     0.197 A 
ATOM      4  O   UNL     1     -15.958   0.686 -14.100  1.00  0.00    -0.289 OA
ATOM      5  C   UNL     1     -16.877  -1.196 -13.058  1.00  0.00     0.107 A 
ATOM      6  C   UNL     1     -16.487  -2.162 -14.033  1.00  0.00     0.134 A 
ATOM      7  C   UNL     1     -16.954  -3.478 -13.927  1.00  0.00     0.093 A 
ATOM      8  C   UNL     1     -17.748  -3.876 -12.848  1.00  0.00     0.123 A 
ATOM      9  C   UNL     1     -18.090  -2.953 -11.863  1.00  0.00     0.094 A 
ATOM     10  C   UNL     1     -17.668  -1.625 -11.959  1.00  0.00     0.146 A 
ATOM     11  O   UNL     1     -18.028  -0.773 -11.005  1.00  0.00    -0.456 OA
ENDROOT
BRANCH   1  12
ATOM     12  C   UNL     1     -18.150   1.372  -9.885  1.00  0.00     0.021 A 
ATOM     13  C   UNL     1     -18.709   2.644 -10.102  1.00  0.00     0.016 A 
ATOM     14  C   UNL     1     -19.113   3.432  -9.023  1.00  0.00     0.051 A 
ATOM     15  C   UNL     1     -18.965   2.978  -7.709  1.00  0.00     0.157 A 
ATOM     16  C   UNL     1     -17.986   0.922  -8.564  1.00  0.00     0.062 A 
ATOM     17  C   UNL     1     -18.391   1.706  -7.476  1.00  0.00     0.158 A 
BRANCH  15  18
ATOM     18  O   UNL     1     -19.392   3.814  -6.676  1.00  0.00    -0.504 OA
ATOM     19  H   UNL     1     -19.581   4.800  -6.788  1.00  0.00     0.293 HD
ENDBRANCH  15  18
BRANCH  17  20
ATOM     20  O   UNL     1     -18.205   1.186  -6.193  1.00  0.00    -0.504 OA
ATOM     21  H   UNL     1     -18.903   1.219  -5.465  1.00  0.00     0.293 HD
ENDBRANCH  17  20
ENDBRANCH   1  12
BRANCH   6  22
ATOM     22  O   UNL     1     -15.627  -1.890 -15.102  1.00  0.00    -0.507 OA
ATOM     23  H   UNL     1     -15.286  -2.576 -15.757  1.00  0.00     0.293 HD
ENDBRANCH   6  22
BRANCH   8  24
ATOM     24  O   UNL     1     -18.195  -5.191 -12.743  1.00  0.00    -0.508 OA
ATOM     25  H   UNL     1     -19.163  -5.408 -12.537  1.00  0.00     0.293 HD
ENDBRANCH   8  24
TORSDOF 5
ENDMDL
MODEL 6
REMARK VINA RESULT:    -5.931     15.513     17.280
REMARK INTER + INTRA:          -7.277
REMARK INTER:                  -6.985
REMARK INTRA:                  -0.292
REMARK UNBOUND:                -0.305
REMARK SMILES O=c1cc(-c2ccc(O)c(O)c2)oc2cc(O)cc(O)c12
REMARK SMILES IDX 4 1 3 2 2 3 1 4 21 5 19 6 18 7 16 8 15 9 14 10 13 11 5 12
REMARK SMILES IDX 6 13 7 14 8 15 12 16 10 17 9 18 11 20 20 22 17 24
REMARK H PARENT 9 19 11 21 20 23 17 25
REMARK Flexibility Score: inf
ROOT
ATOM      1  C   UNL     1     -18.047   0.872 -11.200  1.00  0.00     0.138 A 
ATOM      2  C   UNL     1     -18.404   2.175 -11.573  1.00  0.00     0.100 A 
ATOM      3  C   UNL     1     -18.853   3.072 -10.603  1.00  0.00     0.197 A 
ATOM      4  O   UNL     1     -19.106   4.252 -10.959  1.00  0.00    -0.289 OA
ATOM      5  C   UNL     1     -18.975   2.651  -9.258  1.00  0.00     0.107 A 
ATOM      6  C   UNL     1     -19.459   3.466  -8.192  1.00  0.00     0.134 A 
ATOM      7  C   UNL     1     -19.425   2.979  -6.880  1.00  0.00     0.093 A 
ATOM      8  C   UNL     1     -18.981   1.684  -6.604  1.00  0.00     0.123 A 
ATOM      9  C   UNL     1     -18.556   0.861  -7.644  1.00  0.00     0.094 A 
ATOM     10  C   UNL     1     -18.545   1.331  -8.959  1.00  0.00     0.146 A 
ATOM     11  O   UNL     1     -18.119   0.519  -9.921  1.00  0.00    -0.456 OA
ENDROOT
BRANCH   1  12
ATOM     12  C   UNL     1     -17.565  -0.123 -12.190  1.00  0.00     0.021 A 
ATOM     13  C   UNL     1     -18.243  -0.350 -13.401  1.00  0.00     0.016 A 
ATOM     14  C   UNL     1     -17.772  -1.300 -14.309  1.00  0.00     0.051 A 
ATOM     15  C   UNL     1     -16.624  -2.047 -14.032  1.00  0.00     0.157 A 
ATOM     16  C   UNL     1     -16.419  -0.885 -11.905  1.00  0.00     0.062 A 
ATOM     17  C   UNL     1     -15.939  -1.839 -12.812  1.00  0.00     0.158 A 
BRANCH  15  18
ATOM     18  O   UNL     1     -16.204  -2.978 -14.984  1.00  0.00    -0.504 OA
ATOM     19  H   UNL     1     -16.668  -3.859 -15.156  1.00  0.00     0.293 HD
ENDBRANCH  15  18
BRANCH  17  20
ATOM     20  O   UNL     1     -14.788  -2.549 -12.462  1.00  0.00    -0.504 OA
ATOM     21  H   UNL     1     -14.733  -3.185 -11.679  1.00  0.00     0.293 HD
ENDBRANCH  17  20
ENDBRANCH   1  12
BRANCH   6  22
ATOM     22  O   UNL     1     -20.004   4.742  -8.370  1.00  0.00    -0.507 OA
ATOM     23  H   UNL     1     -20.050   5.232  -9.250  1.00  0.00     0.293 HD
ENDBRANCH   6  22
BRANCH   8  24
ATOM     24  O   UNL     1     -18.966   1.202  -5.296  1.00  0.00    -0.508 OA
ATOM     25  H   UNL     1     -19.308   1.759  -4.521  1.00  0.00     0.293 HD
ENDBRANCH   8  24
TORSDOF 5
ENDMDL
MODEL 7
REMARK VINA RESULT:    -5.883     15.533     17.285
REMARK INTER + INTRA:          -7.220
REMARK INTER:                  -6.932
REMARK INTRA:                  -0.288
REMARK UNBOUND:                -0.305
REMARK SMILES O=c1cc(-c2ccc(O)c(O)c2)oc2cc(O)cc(O)c12
REMARK SMILES IDX 4 1 3 2 2 3 1 4 21 5 19 6 18 7 16 8 15 9 14 10 13 11 5 12
REMARK SMILES IDX 6 13 7 14 8 15 12 16 10 17 9 18 11 20 20 22 17 24
REMARK H PARENT 9 19 11 21 20 23 17 25
REMARK Flexibility Score: inf
ROOT
ATOM      1  C   UNL     1     -17.821   0.844 -10.633  1.00  0.00     0.138 A 
ATOM      2  C   UNL     1     -18.155   0.086  -9.502  1.00  0.00     0.100 A 
ATOM      3  C   UNL     1     -18.816   0.695  -8.434  1.00  0.00     0.197 A 
ATOM      4  O   UNL     1     -19.159  -0.025  -7.461  1.00  0.00    -0.289 OA
ATOM      5  C   UNL     1     -19.115   2.076  -8.488  1.00  0.00     0.107 A 
ATOM      6  C   UNL     1     -19.751   2.812  -7.443  1.00  0.00     0.134 A 
ATOM      7  C   UNL     1     -20.101   4.151  -7.655  1.00  0.00     0.093 A 
ATOM      8  C   UNL     1     -19.785   4.797  -8.853  1.00  0.00     0.123 A 
ATOM      9  C   UNL     1     -19.117   4.103  -9.859  1.00  0.00     0.094 A 
ATOM     10  C   UNL     1     -18.786   2.757  -9.690  1.00  0.00     0.146 A 
ATOM     11  O   UNL     1     -18.162   2.127 -10.680  1.00  0.00    -0.456 OA
ENDROOT
BRANCH   1  12
ATOM     12  C   UNL     1     -17.116   0.247 -11.796  1.00  0.00     0.021 A 
ATOM     13  C   UNL     1     -17.260   0.768 -13.094  1.00  0.00     0.016 A 
ATOM     14  C   UNL     1     -16.593   0.180 -14.170  1.00  0.00     0.051 A 
ATOM     15  C   UNL     1     -15.775  -0.938 -13.980  1.00  0.00     0.157 A 
ATOM     16  C   UNL     1     -16.306  -0.886 -11.608  1.00  0.00     0.062 A 
ATOM     17  C   UNL     1     -15.632  -1.480 -12.682  1.00  0.00     0.158 A 
BRANCH  15  18
ATOM     18  O   UNL     1     -15.134  -1.475 -15.098  1.00  0.00    -0.504 OA
ATOM     19  H   UNL     1     -14.892  -0.943 -15.922  1.00  0.00     0.293 HD
ENDBRANCH  15  18
BRANCH  17  20
ATOM     20  O   UNL     1     -14.838  -2.598 -12.415  1.00  0.00    -0.504 OA
ATOM     21  H   UNL     1     -14.207  -3.015 -13.084  1.00  0.00     0.293 HD
ENDBRANCH  17  20
ENDBRANCH   1  12
BRANCH   6  22
ATOM     22  O   UNL     1     -20.033   2.286  -6.178  1.00  0.00    -0.507 OA
ATOM     23  H   UNL     1     -20.196   2.835  -5.348  1.00  0.00     0.293 HD
ENDBRANCH   6  22
BRANCH   8  24
ATOM     24  O   UNL     1     -20.124   6.135  -9.049  1.00  0.00    -0.508 OA
ATOM     25  H   UNL     1     -20.448   6.474  -9.947  1.00  0.00     0.293 HD
ENDBRANCH   8  24
TORSDOF 5
ENDMDL
MODEL 8
REMARK VINA RESULT:    -5.878     15.443     16.430
REMARK INTER + INTRA:          -7.214
REMARK INTER:                  -6.938
REMARK INTRA:                  -0.276
REMARK UNBOUND:                -0.305
REMARK SMILES O=c1cc(-c2ccc(O)c(O)c2)oc2cc(O)cc(O)c12
REMARK SMILES IDX 4 1 3 2 2 3 1 4 21 5 19 6 18 7 16 8 15 9 14 10 13 11 5 12
REMARK SMILES IDX 6 13 7 14 8 15 12 16 10 17 9 18 11 20 20 22 17 24
REMARK H PARENT 9 19 11 21 20 23 17 25
REMARK Flexibility Score: inf
ROOT
ATOM      1  C   UNL     1     -18.225  -0.272 -10.218  1.00  0.00     0.138 A 
ATOM      2  C   UNL     1     -18.784  -1.552 -10.101  1.00  0.00     0.100 A 
ATOM      3  C   UNL     1     -18.474  -2.530 -11.049  1.00  0.00     0.197 A 
ATOM      4  O   UNL     1     -18.940  -3.686 -10.881  1.00  0.00    -0.289 OA
ATOM      5  C   UNL     1     -17.625  -2.212 -12.134  1.00  0.00     0.107 A 
ATOM      6  C   UNL     1     -17.272  -3.116 -13.181  1.00  0.00     0.134 A 
ATOM      7  C   UNL     1     -16.330  -2.726 -14.142  1.00  0.00     0.093 A 
ATOM      8  C   UNL     1     -15.776  -1.444 -14.127  1.00  0.00     0.123 A 
ATOM      9  C   UNL     1     -16.154  -0.536 -13.141  1.00  0.00     0.094 A 
ATOM     10  C   UNL     1     -17.064  -0.907 -12.149  1.00  0.00     0.146 A 
ATOM     11  O   UNL     1     -17.388  -0.016 -11.218  1.00  0.00    -0.456 OA
ENDROOT
BRANCH   1  12
ATOM     12  C   UNL     1     -18.523   0.805  -9.241  1.00  0.00     0.021 A 
ATOM     13  C   UNL     1     -18.786   2.124  -9.651  1.00  0.00     0.016 A 
ATOM     14  C   UNL     1     -19.053   3.118  -8.709  1.00  0.00     0.051 A 
ATOM     15  C   UNL     1     -19.056   2.826  -7.342  1.00  0.00     0.157 A 
ATOM     16  C   UNL     1     -18.511   0.515  -7.866  1.00  0.00     0.062 A 
ATOM     17  C   UNL     1     -18.779   1.507  -6.914  1.00  0.00     0.158 A 
BRANCH  15  18
ATOM     18  O   UNL     1     -19.333   3.866  -6.452  1.00  0.00    -0.504 OA
ATOM     19  H   UNL     1     -19.242   4.846  -6.681  1.00  0.00     0.293 HD
ENDBRANCH  15  18
BRANCH  17  20
ATOM     20  O   UNL     1     -18.759   1.140  -5.567  1.00  0.00    -0.504 OA
ATOM     21  H   UNL     1     -19.405   0.485  -5.150  1.00  0.00     0.293 HD
ENDBRANCH  17  20
ENDBRANCH   1  12
BRANCH   6  22
ATOM     22  O   UNL     1     -17.832  -4.387 -13.337  1.00  0.00    -0.507 OA
ATOM     23  H   UNL     1     -17.970  -4.853 -14.221  1.00  0.00     0.293 HD
ENDBRANCH   6  22
BRANCH   8  24
ATOM     24  O   UNL     1     -14.851  -1.060 -15.097  1.00  0.00    -0.508 OA
ATOM     25  H   UNL     1     -15.124  -0.915 -16.062  1.00  0.00     0.293 HD
ENDBRANCH   8  24
TORSDOF 5
ENDMDL
MODEL 9
REMARK VINA RESULT:    -5.857     16.753     19.601
REMARK INTER + INTRA:          -7.190
REMARK INTER:                  -6.927
REMARK INTRA:                  -0.263
REMARK UNBOUND:                -0.305
REMARK SMILES O=c1cc(-c2ccc(O)c(O)c2)oc2cc(O)cc(O)c12
REMARK SMILES IDX 4 1 3 2 2 3 1 4 21 5 19 6 18 7 16 8 15 9 14 10 13 11 5 12
REMARK SMILES IDX 6 13 7 14 8 15 12 16 10 17 9 18 11 20 20 22 17 24
REMARK H PARENT 9 19 11 21 20 23 17 25
REMARK Flexibility Score: inf
ROOT
ATOM      1  C   UNL     1     -16.373   3.765 -15.124  1.00  0.00     0.138 A 
ATOM      2  C   UNL     1     -15.800   2.980 -16.134  1.00  0.00     0.100 A 
ATOM      3  C   UNL     1     -15.610   1.613 -15.922  1.00  0.00     0.197 A 
ATOM      4  O   UNL     1     -15.153   0.924 -16.870  1.00  0.00    -0.289 OA
ATOM      5  C   UNL     1     -15.967   1.039 -14.680  1.00  0.00     0.107 A 
ATOM      6  C   UNL     1     -15.783  -0.334 -14.336  1.00  0.00     0.134 A 
ATOM      7  C   UNL     1     -16.282  -0.815 -13.119  1.00  0.00     0.093 A 
ATOM      8  C   UNL     1     -16.904   0.042 -12.208  1.00  0.00     0.123 A 
ATOM      9  C   UNL     1     -17.042   1.394 -12.510  1.00  0.00     0.094 A 
ATOM     10  C   UNL     1     -16.586   1.896 -13.731  1.00  0.00     0.146 A 
ATOM     11  O   UNL     1     -16.749   3.190 -13.987  1.00  0.00    -0.456 OA
ENDROOT
BRANCH   1  12
ATOM     12  C   UNL     1     -16.595   5.223 -15.296  1.00  0.00     0.021 A 
ATOM     13  C   UNL     1     -17.800   5.731 -15.811  1.00  0.00     0.016 A 
ATOM     14  C   UNL     1     -17.978   7.107 -15.972  1.00  0.00     0.051 A 
ATOM     15  C   UNL     1     -16.962   8.004 -15.630  1.00  0.00     0.157 A 
ATOM     16  C   UNL     1     -15.568   6.124 -14.966  1.00  0.00     0.062 A 
ATOM     17  C   UNL     1     -15.739   7.505 -15.122  1.00  0.00     0.158 A 
BRANCH  15  18
ATOM     18  O   UNL     1     -17.204   9.366 -15.811  1.00  0.00    -0.504 OA
ATOM     19  H   UNL     1     -16.811   9.916 -16.562  1.00  0.00     0.293 HD
ENDBRANCH  15  18
BRANCH  17  20
ATOM     20  O   UNL     1     -14.676   8.338 -14.764  1.00  0.00    -0.504 OA
ATOM     21  H   UNL     1     -13.831   8.440 -15.307  1.00  0.00     0.293 HD
ENDBRANCH  17  20
ENDBRANCH   1  12
BRANCH   6  22
ATOM     22  O   UNL     1     -15.099  -1.254 -15.137  1.00  0.00    -0.507 OA
ATOM     23  H   UNL     1     -15.517  -1.802 -15.873  1.00  0.00     0.293 HD
ENDBRANCH   6  22
BRANCH   8  24
ATOM     24  O   UNL     1     -17.384  -0.443 -10.992  1.00  0.00    -0.508 OA
ATOM     25  H   UNL     1     -18.098  -1.161 -10.952  1.00  0.00     0.293 HD
ENDBRANCH   8  24
TORSDOF 5
ENDMDL
