MODEL 1
REMARK VINA RESULT:    -5.123      0.000      0.000
REMARK INTER + INTRA:          -7.183
REMARK INTER:                  -6.919
REMARK INTRA:                  -0.264
REMARK UNBOUND:                -0.264
REMARK SMILES O=C[C@@H](O)[C@@H](O)[C@H](O)CO
REMARK SMILES IDX 7 1 9 2 10 3 5 5 3 6 2 7 1 8 4 9 6 11 8 13
REMARK H PARENT 10 4 4 10 6 12 8 14
REMARK Flexibility Score: inf
ROOT
ATOM      1  C   UNL     1     -22.075  12.642 -18.120  1.00  0.00     0.171 C 
ENDROOT
BRANCH   1   2
ATOM      2  C   UNL     1     -23.218  12.505 -19.142  1.00  0.00     0.190 C 
BRANCH   2   3
ATOM      3  O   UNL     1     -23.608  13.760 -19.635  1.00  0.00    -0.394 OA
ATOM      4  H   UNL     1     -24.581  13.701 -19.823  1.00  0.00     0.210 HD
ENDBRANCH   2   3
ENDBRANCH   1   2
BRANCH   1   5
ATOM      5  C   UNL     1     -21.454  11.262 -17.768  1.00  0.00     0.181 C 
BRANCH   5   6
ATOM      6  C   UNL     1     -20.096  11.007 -18.480  1.00  0.00     0.209 C 
BRANCH   6   7
ATOM      7  C   UNL     1     -18.984  10.596 -17.548  1.00  0.00     0.258 C 
ATOM      8  O   UNL     1     -18.302  11.431 -16.974  1.00  0.00    -0.300 OA
ENDBRANCH   6   7
BRANCH   6   9
ATOM      9  O   UNL     1     -20.241  10.066 -19.514  1.00  0.00    -0.383 OA
ATOM     10  H   UNL     1     -19.397   9.547 -19.575  1.00  0.00     0.211 HD
ENDBRANCH   6   9
ENDBRANCH   5   6
BRANCH   5  11
ATOM     11  O   UNL     1     -21.359  11.060 -16.377  1.00  0.00    -0.387 OA
ATOM     12  H   UNL     1     -20.708  10.331 -16.212  1.00  0.00     0.211 HD
ENDBRANCH   5  11
ENDBRANCH   1   5
BRANCH   1  13
ATOM     13  O   UNL     1     -22.563  13.267 -16.959  1.00  0.00    -0.388 OA
ATOM     14  H   UNL     1     -22.067  14.120 -16.859  1.00  0.00     0.211 HD
ENDBRANCH   1  13
TORSDOF 8
ENDMDL
MODEL 2
REMARK VINA RESULT:    -4.978      1.171      2.156
REMARK INTER + INTRA:          -6.987
REMARK INTER:                  -6.613
REMARK INTRA:                  -0.374
REMARK UNBOUND:                -0.264
REMARK SMILES O=C[C@@H](O)[C@@H](O)[C@H](O)CO
REMARK SMILES IDX 7 1 9 2 10 3 5 5 3 6 2 7 1 8 4 9 6 11 8 13
REMARK H PARENT 10 4 4 10 6 12 8 14
REMARK Flexibility Score: inf
ROOT
ATOM      1  C   UNL     1     -22.115  13.325 -17.999  1.00  0.00     0.171 C 
ENDROOT
BRANCH   1   2
ATOM      2  C   UNL     1     -23.032  12.718 -19.077  1.00  0.00     0.190 C 
BRANCH   2   3
ATOM      3  O   UNL     1     -23.698  13.722 -19.796  1.00  0.00    -0.394 OA
ATOM      4  H   UNL     1     -23.374  14.590 -19.437  1.00  0.00     0.210 HD
ENDBRANCH   2   3
ENDBRANCH   1   2
BRANCH   1   5
ATOM      5  C   UNL     1     -20.972  12.348 -17.605  1.00  0.00     0.181 C 
BRANCH   5   6
ATOM      6  C   UNL     1     -21.475  10.903 -17.331  1.00  0.00     0.209 C 
BRANCH   6   7
ATOM      7  C   UNL     1     -20.741   9.841 -18.112  1.00  0.00     0.258 C 
ATOM      8  O   UNL     1     -20.760   9.832 -19.333  1.00  0.00    -0.300 OA
ENDBRANCH   6   7
BRANCH   6   9
ATOM      9  O   UNL     1     -21.439  10.612 -15.957  1.00  0.00    -0.383 OA
ATOM     10  H   UNL     1     -20.490  10.631 -15.665  1.00  0.00     0.211 HD
ENDBRANCH   6   9
ENDBRANCH   5   6
BRANCH   5  11
ATOM     11  O   UNL     1     -19.914  12.364 -18.534  1.00  0.00    -0.387 OA
ATOM     12  H   UNL     1     -19.829  13.284 -18.894  1.00  0.00     0.211 HD
ENDBRANCH   5  11
ENDBRANCH   1   5
BRANCH   1  13
ATOM     13  O   UNL     1     -22.882  13.658 -16.870  1.00  0.00    -0.388 OA
ATOM     14  H   UNL     1     -23.748  13.181 -16.958  1.00  0.00     0.211 HD
ENDBRANCH   1  13
TORSDOF 8
ENDMDL
MODEL 3
REMARK VINA RESULT:    -4.951      1.272      3.775
REMARK INTER + INTRA:          -6.951
REMARK INTER:                  -6.117
REMARK INTRA:                  -0.834
REMARK UNBOUND:                -0.264
REMARK SMILES O=C[C@@H](O)[C@@H](O)[C@H](O)CO
REMARK SMILES IDX 7 1 9 2 10 3 5 5 3 6 2 7 1 8 4 9 6 11 8 13
REMARK H PARENT 10 4 4 10 6 12 8 14
REMARK Flexibility Score: inf
ROOT
ATOM      1  C   UNL     1     -19.650  11.770 -17.543  1.00  0.00     0.171 C 
ENDROOT
BRANCH   1   2
ATOM      2  C   UNL     1     -19.250  10.429 -18.187  1.00  0.00     0.190 C 
BRANCH   2   3
ATOM      3  O   UNL     1     -19.793  10.306 -19.475  1.00  0.00    -0.394 OA
ATOM      4  H   UNL     1     -19.194  10.810 -20.085  1.00  0.00     0.210 HD
ENDBRANCH   2   3
ENDBRANCH   1   2
BRANCH   1   5
ATOM      5  C   UNL     1     -21.134  11.762 -17.083  1.00  0.00     0.181 C 
BRANCH   5   6
ATOM      6  C   UNL     1     -22.059  12.616 -17.995  1.00  0.00     0.209 C 
BRANCH   6   7
ATOM      7  C   UNL     1     -22.972  11.800 -18.876  1.00  0.00     0.258 C 
ATOM      8  O   UNL     1     -22.572  10.787 -19.431  1.00  0.00    -0.300 OA
ENDBRANCH   6   7
BRANCH   6   9
ATOM      9  O   UNL     1     -22.804  13.534 -17.235  1.00  0.00    -0.383 OA
ATOM     10  H   UNL     1     -22.446  13.525 -16.309  1.00  0.00     0.211 HD
ENDBRANCH   6   9
ENDBRANCH   5   6
BRANCH   5  11
ATOM     11  O   UNL     1     -21.632  10.455 -16.913  1.00  0.00    -0.387 OA
ATOM     12  H   UNL     1     -22.618  10.506 -16.831  1.00  0.00     0.211 HD
ENDBRANCH   5  11
ENDBRANCH   1   5
BRANCH   1  13
ATOM     13  O   UNL     1     -19.431  12.810 -18.463  1.00  0.00    -0.388 OA
ATOM     14  H   UNL     1     -19.195  12.386 -19.328  1.00  0.00     0.211 HD
ENDBRANCH   1  13
TORSDOF 8
ENDMDL
MODEL 4
REMARK VINA RESULT:    -4.908      1.623      2.116
REMARK INTER + INTRA:          -6.894
REMARK INTER:                  -6.559
REMARK INTRA:                  -0.334
REMARK UNBOUND:                -0.264
REMARK SMILES O=C[C@@H](O)[C@@H](O)[C@H](O)CO
REMARK SMILES IDX 7 1 9 2 10 3 5 5 3 6 2 7 1 8 4 9 6 11 8 13
REMARK H PARENT 10 4 4 10 6 12 8 14
REMARK Flexibility Score: inf
ROOT
ATOM      1  C   UNL     1     -21.905  11.999 -17.845  1.00  0.00     0.171 C 
ENDROOT
BRANCH   1   2
ATOM      2  C   UNL     1     -22.464  13.434 -17.860  1.00  0.00     0.190 C 
BRANCH   2   3
ATOM      3  O   UNL     1     -23.304  13.635 -18.966  1.00  0.00    -0.394 OA
ATOM      4  H   UNL     1     -24.226  13.729 -18.609  1.00  0.00     0.210 HD
ENDBRANCH   2   3
ENDBRANCH   1   2
BRANCH   1   5
ATOM      5  C   UNL     1     -20.352  11.992 -17.799  1.00  0.00     0.181 C 
BRANCH   5   6
ATOM      6  C   UNL     1     -19.739  10.614 -18.176  1.00  0.00     0.209 C 
BRANCH   6   7
ATOM      7  C   UNL     1     -20.297   9.458 -17.383  1.00  0.00     0.258 C 
ATOM      8  O   UNL     1     -21.050   8.647 -17.899  1.00  0.00    -0.300 OA
ENDBRANCH   6   7
BRANCH   6   9
ATOM      9  O   UNL     1     -19.866  10.369 -19.554  1.00  0.00    -0.383 OA
ATOM     10  H   UNL     1     -19.406  11.104 -20.038  1.00  0.00     0.211 HD
ENDBRANCH   6   9
ENDBRANCH   5   6
BRANCH   5  11
ATOM     11  O   UNL     1     -19.792  13.037 -18.561  1.00  0.00    -0.387 OA
ATOM     12  H   UNL     1     -19.275  12.636 -19.305  1.00  0.00     0.211 HD
ENDBRANCH   5  11
ENDBRANCH   1   5
BRANCH   1  13
ATOM     13  O   UNL     1     -22.362  11.310 -18.981  1.00  0.00    -0.388 OA
ATOM     14  H   UNL     1     -21.805  11.609 -19.745  1.00  0.00     0.211 HD
ENDBRANCH   1  13
TORSDOF 8
ENDMDL
MODEL 5
REMARK VINA RESULT:    -4.874      1.532      3.629
REMARK INTER + INTRA:          -6.846
REMARK INTER:                  -6.547
REMARK INTRA:                  -0.299
REMARK UNBOUND:                -0.264
REMARK SMILES O=C[C@@H](O)[C@@H](O)[C@H](O)CO
REMARK SMILES IDX 7 1 9 2 10 3 5 5 3 6 2 7 1 8 4 9 6 11 8 13
REMARK H PARENT 10 4 4 10 6 12 8 14
REMARK Flexibility Score: inf
ROOT
ATOM      1  C   UNL     1     -20.850  10.031 -17.902  1.00  0.00     0.171 C 
ENDROOT
BRANCH   1   2
ATOM      2  C   UNL     1     -21.168  10.070 -19.408  1.00  0.00     0.190 C 
BRANCH   2   3
ATOM      3  O   UNL     1     -19.992  10.052 -20.172  1.00  0.00    -0.394 OA
ATOM      4  H   UNL     1     -20.213  10.472 -21.044  1.00  0.00     0.210 HD
ENDBRANCH   2   3
ENDBRANCH   1   2
BRANCH   1   5
ATOM      5  C   UNL     1     -20.854  11.455 -17.280  1.00  0.00     0.181 C 
BRANCH   5   6
ATOM      6  C   UNL     1     -20.782  12.584 -18.345  1.00  0.00     0.209 C 
BRANCH   6   7
ATOM      7  C   UNL     1     -21.831  13.654 -18.175  1.00  0.00     0.258 C 
ATOM      8  O   UNL     1     -23.000  13.441 -18.459  1.00  0.00    -0.300 OA
ENDBRANCH   6   7
BRANCH   6   9
ATOM      9  O   UNL     1     -19.499  13.158 -18.382  1.00  0.00    -0.383 OA
ATOM     10  H   UNL     1     -19.478  13.900 -17.721  1.00  0.00     0.211 HD
ENDBRANCH   6   9
ENDBRANCH   5   6
BRANCH   5  11
ATOM     11  O   UNL     1     -21.930  11.644 -16.391  1.00  0.00    -0.387 OA
ATOM     12  H   UNL     1     -22.712  11.959 -16.912  1.00  0.00     0.211 HD
ENDBRANCH   5  11
ENDBRANCH   1   5
BRANCH   1  13
ATOM     13  O   UNL     1     -19.601   9.417 -17.707  1.00  0.00    -0.388 OA
ATOM     14  H   UNL     1     -18.953  10.138 -17.496  1.00  0.00     0.211 HD
ENDBRANCH   1  13
TORSDOF 8
ENDMDL
MODEL 6
REMARK VINA RESULT:    -4.772      1.587      3.634
REMARK INTER + INTRA:          -6.709
REMARK INTER:                  -6.248
REMARK INTRA:                  -0.461
REMARK UNBOUND:                -0.264
REMARK SMILES O=C[C@@H](O)[C@@H](O)[C@H](O)CO
REMARK SMILES IDX 7 1 9 2 10 3 5 5 3 6 2 7 1 8 4 9 6 11 8 13
REMARK H PARENT 10 4 4 10 6 12 8 14
REMARK Flexibility Score: inf
ROOT
ATOM      1  C   UNL     1     -20.018  10.723 -17.869  1.00  0.00     0.171 C 
ENDROOT
BRANCH   1   2
ATOM      2  C   UNL     1     -18.677  11.465 -17.719  1.00  0.00     0.190 C 
BRANCH   2   3
ATOM      3  O   UNL     1     -18.726  12.726 -18.333  1.00  0.00    -0.394 OA
ATOM      4  H   UNL     1     -19.205  13.328 -17.706  1.00  0.00     0.210 HD
ENDBRANCH   2   3
ENDBRANCH   1   2
BRANCH   1   5
ATOM      5  C   UNL     1     -21.134  11.381 -17.011  1.00  0.00     0.181 C 
BRANCH   5   6
ATOM      6  C   UNL     1     -22.322  11.911 -17.862  1.00  0.00     0.209 C 
BRANCH   6   7
ATOM      7  C   UNL     1     -22.302  13.404 -18.079  1.00  0.00     0.258 C 
ATOM      8  O   UNL     1     -21.346  13.950 -18.607  1.00  0.00    -0.300 OA
ENDBRANCH   6   7
BRANCH   6   9
ATOM      9  O   UNL     1     -22.396  11.238 -19.094  1.00  0.00    -0.383 OA
ATOM     10  H   UNL     1     -22.952  10.426 -18.966  1.00  0.00     0.211 HD
ENDBRANCH   6   9
ENDBRANCH   5   6
BRANCH   5  11
ATOM     11  O   UNL     1     -21.573  10.537 -15.972  1.00  0.00    -0.387 OA
ATOM     12  H   UNL     1     -20.922   9.796 -15.877  1.00  0.00     0.211 HD
ENDBRANCH   5  11
ENDBRANCH   1   5
BRANCH   1  13
ATOM     13  O   UNL     1     -19.848   9.378 -17.500  1.00  0.00    -0.388 OA
ATOM     14  H   UNL     1     -18.901   9.271 -17.223  1.00  0.00     0.211 HD
ENDBRANCH   1  13
TORSDOF 8
ENDMDL
MODEL 7
REMARK VINA RESULT:    -4.406      9.926     10.856
REMARK INTER + INTRA:          -6.215
REMARK INTER:                  -5.473
REMARK INTRA:                  -0.742
REMARK UNBOUND:                -0.264
REMARK SMILES O=C[C@@H](O)[C@@H](O)[C@H](O)CO
REMARK SMILES IDX 7 1 9 2 10 3 5 5 3 6 2 7 1 8 4 9 6 11 8 13
REMARK H PARENT 10 4 4 10 6 12 8 14
REMARK Flexibility Score: inf
ROOT
ATOM      1  C   UNL     1     -16.362   5.103 -25.447  1.00  0.00     0.171 C 
ENDROOT
BRANCH   1   2
ATOM      2  C   UNL     1     -17.896   5.069 -25.321  1.00  0.00     0.190 C 
BRANCH   2   3
ATOM      3  O   UNL     1     -18.387   6.279 -24.807  1.00  0.00    -0.394 OA
ATOM      4  H   UNL     1     -19.358   6.301 -25.012  1.00  0.00     0.210 HD
ENDBRANCH   2   3
ENDBRANCH   1   2
BRANCH   1   5
ATOM      5  C   UNL     1     -15.674   5.106 -24.054  1.00  0.00     0.181 C 
BRANCH   5   6
ATOM      6  C   UNL     1     -14.202   4.609 -24.102  1.00  0.00     0.209 C 
BRANCH   6   7
ATOM      7  C   UNL     1     -13.181   5.719 -24.123  1.00  0.00     0.258 C 
ATOM      8  O   UNL     1     -13.259   6.630 -24.932  1.00  0.00    -0.300 OA
ENDBRANCH   6   7
BRANCH   6   9
ATOM      9  O   UNL     1     -13.938   3.721 -23.045  1.00  0.00    -0.383 OA
ATOM     10  H   UNL     1     -14.805   3.473 -22.631  1.00  0.00     0.211 HD
ENDBRANCH   6   9
ENDBRANCH   5   6
BRANCH   5  11
ATOM     11  O   UNL     1     -15.782   6.354 -23.410  1.00  0.00    -0.387 OA
ATOM     12  H   UNL     1     -14.967   6.880 -23.614  1.00  0.00     0.211 HD
ENDBRANCH   5  11
ENDBRANCH   1   5
BRANCH   1  13
ATOM     13  O   UNL     1     -15.982   6.240 -26.181  1.00  0.00    -0.388 OA
ATOM     14  H   UNL     1     -16.298   7.031 -25.673  1.00  0.00     0.211 HD
ENDBRANCH   1  13
TORSDOF 8
ENDMDL
MODEL 8
REMARK VINA RESULT:    -4.380     13.981     15.142
REMARK INTER + INTRA:          -6.180
REMARK INTER:                  -6.037
REMARK INTRA:                  -0.143
REMARK UNBOUND:                -0.264
REMARK SMILES O=C[C@@H](O)[C@@H](O)[C@H](O)CO
REMARK SMILES IDX 7 1 9 2 10 3 5 5 3 6 2 7 1 8 4 9 6 11 8 13
REMARK H PARENT 10 4 4 10 6 12 8 14
REMARK Flexibility Score: inf
ROOT
ATOM      1  C   UNL     1     -26.555   0.147 -12.613  1.00  0.00     0.171 C 
ENDROOT
BRANCH   1   2
ATOM      2  C   UNL     1     -26.474   1.678 -12.476  1.00  0.00     0.190 C 
BRANCH   2   3
ATOM      3  O   UNL     1     -27.302   2.136 -11.439  1.00  0.00    -0.394 OA
ATOM      4  H   UNL     1     -26.728   2.680 -10.838  1.00  0.00     0.210 HD
ENDBRANCH   2   3
ENDBRANCH   1   2
BRANCH   1   5
ATOM      5  C   UNL     1     -27.646  -0.454 -11.683  1.00  0.00     0.181 C 
BRANCH   5   6
ATOM      6  C   UNL     1     -28.911  -0.923 -12.453  1.00  0.00     0.209 C 
BRANCH   6   7
ATOM      7  C   UNL     1     -28.964  -0.455 -13.886  1.00  0.00     0.258 C 
ATOM      8  O   UNL     1     -30.003  -0.035 -14.373  1.00  0.00    -0.300 OA
ENDBRANCH   6   7
BRANCH   6   9
ATOM      9  O   UNL     1     -29.046  -2.321 -12.391  1.00  0.00    -0.383 OA
ATOM     10  H   UNL     1     -29.092  -2.666 -13.321  1.00  0.00     0.211 HD
ENDBRANCH   6   9
ENDBRANCH   5   6
BRANCH   5  11
ATOM     11  O   UNL     1     -27.135  -1.469 -10.851  1.00  0.00    -0.387 OA
ATOM     12  H   UNL     1     -26.997  -1.090  -9.946  1.00  0.00     0.211 HD
ENDBRANCH   5  11
ENDBRANCH   1   5
BRANCH   1  13
ATOM     13  O   UNL     1     -25.301  -0.413 -12.317  1.00  0.00    -0.388 OA
ATOM     14  H   UNL     1     -25.441  -1.067 -11.584  1.00  0.00     0.211 HD
ENDBRANCH   1  13
TORSDOF 8
ENDMDL
MODEL 9
REMARK VINA RESULT:    -4.313     14.324     15.267
REMARK INTER + INTRA:          -6.090
REMARK INTER:                  -5.150
REMARK INTRA:                  -0.939
REMARK UNBOUND:                -0.264
REMARK SMILES O=C[C@@H](O)[C@@H](O)[C@H](O)CO
REMARK SMILES IDX 7 1 9 2 10 3 5 5 3 6 2 7 1 8 4 9 6 11 8 13
REMARK H PARENT 10 4 4 10 6 12 8 14
REMARK Flexibility Score: inf
ROOT
ATOM      1  C   UNL     1     -29.154  -1.083 -12.163  1.00  0.00     0.171 C 
ENDROOT
BRANCH   1   2
ATOM      2  C   UNL     1     -29.720  -0.587 -10.821  1.00  0.00     0.190 C 
BRANCH   2   3
ATOM      3  O   UNL     1     -29.089   0.598 -10.414  1.00  0.00    -0.394 OA
ATOM      4  H   UNL     1     -28.295   0.712 -11.001  1.00  0.00     0.210 HD
ENDBRANCH   2   3
ENDBRANCH   1   2
BRANCH   1   5
ATOM      5  C   UNL     1     -27.666  -1.509 -12.034  1.00  0.00     0.181 C 
BRANCH   5   6
ATOM      6  C   UNL     1     -26.726  -0.738 -13.003  1.00  0.00     0.209 C 
BRANCH   6   7
ATOM      7  C   UNL     1     -26.005   0.422 -12.363  1.00  0.00     0.258 C 
ATOM      8  O   UNL     1     -26.623   1.354 -11.871  1.00  0.00    -0.300 OA
ENDBRANCH   6   7
BRANCH   6   9
ATOM      9  O   UNL     1     -25.806  -1.611 -13.610  1.00  0.00    -0.383 OA
ATOM     10  H   UNL     1     -25.339  -1.110 -14.329  1.00  0.00     0.211 HD
ENDBRANCH   6   9
ENDBRANCH   5   6
BRANCH   5  11
ATOM     11  O   UNL     1     -27.208  -1.445 -10.703  1.00  0.00    -0.387 OA
ATOM     12  H   UNL     1     -27.759  -2.060 -10.155  1.00  0.00     0.211 HD
ENDBRANCH   5  11
ENDBRANCH   1   5
BRANCH   1  13
ATOM     13  O   UNL     1     -29.289  -0.069 -13.127  1.00  0.00    -0.388 OA
ATOM     14  H   UNL     1     -30.092   0.460 -12.881  1.00  0.00     0.211 HD
ENDBRANCH   1  13
TORSDOF 8
ENDMDL
