MODEL 1
REMARK VINA RESULT:    -5.626      0.000      0.000
REMARK INTER + INTRA:         -10.279
REMARK INTER:                  -9.572
REMARK INTRA:                  -0.707
REMARK UNBOUND:                -0.707
REMARK SMILES CCCCCCCCCCCCCC(=O)[O-]
REMARK SMILES IDX 8 1 9 2 10 3 11 4 12 5 13 6 14 7 15 8 16 9 7 10 6 11 5 12
REMARK SMILES IDX 4 13 3 14 2 15 1 16
REMARK H PARENT
REMARK Flexibility Score: inf
ROOT
ATOM      1  C   UNL     1     104.085 311.557 194.966  1.00  0.00     0.000 C 
ENDROOT
BRANCH   1   2
ATOM      2  C   UNL     1     103.898 311.627 196.492  1.00  0.00     0.000 C 
BRANCH   2   3
ATOM      3  C   UNL     1     103.563 313.044 196.982  1.00  0.00     0.000 C 
BRANCH   3   4
ATOM      4  C   UNL     1     103.270 313.098 198.489  1.00  0.00     0.000 C 
BRANCH   4   5
ATOM      5  C   UNL     1     103.519 311.736 199.146  1.00  0.00     0.006 C 
BRANCH   5   6
ATOM      6  C   UNL     1     104.173 311.899 200.521  1.00  0.00     0.053 C 
BRANCH   6   7
ATOM      7  C   UNL     1     103.309 311.304 201.587  1.00  0.00     0.041 C 
ATOM      8  O   UNL     1     103.830 310.793 202.614  1.00  0.00    -0.550 OA
ATOM      9  O   UNL     1     101.926 311.356 201.471  1.00  0.00    -0.550 OA
ENDBRANCH   6   7
ENDBRANCH   5   6
ENDBRANCH   4   5
ENDBRANCH   3   4
ENDBRANCH   2   3
ENDBRANCH   1   2
BRANCH   1  10
ATOM     10  C   UNL     1     105.554 311.724 194.545  1.00  0.00     0.000 C 
BRANCH  10  11
ATOM     11  C   UNL     1     105.699 312.230 193.100  1.00  0.00    -0.000 C 
BRANCH  11  12
ATOM     12  C   UNL     1     104.349 312.359 192.374  1.00  0.00    -0.000 C 
BRANCH  12  13
ATOM     13  C   UNL     1     103.999 313.807 191.971  1.00  0.00    -0.000 C 
BRANCH  13  14
ATOM     14  C   UNL     1     103.613 313.918 190.485  1.00  0.00    -0.000 C 
BRANCH  14  15
ATOM     15  C   UNL     1     104.517 314.891 189.713  1.00  0.00    -0.003 C 
ATOM     16  C   UNL     1     105.959 314.884 190.220  1.00  0.00     0.004 C 
ENDBRANCH  14  15
ENDBRANCH  13  14
ENDBRANCH  12  13
ENDBRANCH  11  12
ENDBRANCH  10  11
ENDBRANCH   1  10
TORSDOF 12
ENDMDL
MODEL 2
REMARK VINA RESULT:    -5.600      4.286      5.172
REMARK INTER + INTRA:         -10.236
REMARK INTER:                  -8.619
REMARK INTRA:                  -1.617
REMARK UNBOUND:                -0.707
REMARK SMILES CCCCCCCCCCCCCC(=O)[O-]
REMARK SMILES IDX 8 1 9 2 10 3 11 4 12 5 13 6 14 7 15 8 16 9 7 10 6 11 5 12
REMARK SMILES IDX 4 13 3 14 2 15 1 16
REMARK H PARENT
REMARK Flexibility Score: inf
ROOT
ATOM      1  C   UNL     1     105.703 311.499 193.596  1.00  0.00     0.000 C 
ENDROOT
BRANCH   1   2
ATOM      2  C   UNL     1     105.549 311.923 195.067  1.00  0.00     0.000 C 
BRANCH   2   3
ATOM      3  C   UNL     1     104.090 311.872 195.548  1.00  0.00     0.000 C 
BRANCH   3   4
ATOM      4  C   UNL     1     103.567 313.241 196.009  1.00  0.00     0.000 C 
BRANCH   4   5
ATOM      5  C   UNL     1     104.423 314.377 195.437  1.00  0.00     0.006 C 
BRANCH   5   6
ATOM      6  C   UNL     1     103.648 315.176 194.386  1.00  0.00     0.053 C 
BRANCH   6   7
ATOM      7  C   UNL     1     104.495 316.277 193.834  1.00  0.00     0.041 C 
ATOM      8  O   UNL     1     103.973 317.376 193.508  1.00  0.00    -0.550 OA
ATOM      9  O   UNL     1     105.870 316.109 193.725  1.00  0.00    -0.550 OA
ENDBRANCH   6   7
ENDBRANCH   5   6
ENDBRANCH   4   5
ENDBRANCH   3   4
ENDBRANCH   2   3
ENDBRANCH   1   2
BRANCH   1  10
ATOM     10  C   UNL     1     104.350 311.364 192.879  1.00  0.00     0.000 C 
BRANCH  10  11
ATOM     11  C   UNL     1     104.043 312.565 191.969  1.00  0.00    -0.000 C 
BRANCH  11  12
ATOM     12  C   UNL     1     105.309 313.329 191.542  1.00  0.00    -0.000 C 
BRANCH  12  13
ATOM     13  C   UNL     1     105.027 314.507 190.585  1.00  0.00    -0.000 C 
BRANCH  13  14
ATOM     14  C   UNL     1     103.524 314.826 190.485  1.00  0.00    -0.000 C 
BRANCH  14  15
ATOM     15  C   UNL     1     102.987 314.688 189.053  1.00  0.00    -0.003 C 
ATOM     16  C   UNL     1     103.845 315.430 188.028  1.00  0.00     0.004 C 
ENDBRANCH  14  15
ENDBRANCH  13  14
ENDBRANCH  12  13
ENDBRANCH  11  12
ENDBRANCH  10  11
ENDBRANCH   1  10
TORSDOF 12
ENDMDL
MODEL 3
REMARK VINA RESULT:    -5.587      5.441      8.530
REMARK INTER + INTRA:         -10.213
REMARK INTER:                  -8.860
REMARK INTRA:                  -1.354
REMARK UNBOUND:                -0.707
REMARK SMILES CCCCCCCCCCCCCC(=O)[O-]
REMARK SMILES IDX 8 1 9 2 10 3 11 4 12 5 13 6 14 7 15 8 16 9 7 10 6 11 5 12
REMARK SMILES IDX 4 13 3 14 2 15 1 16
REMARK H PARENT
REMARK Flexibility Score: inf
ROOT
ATOM      1  C   UNL     1     104.258 312.257 192.445  1.00  0.00     0.000 C 
ENDROOT
BRANCH   1   2
ATOM      2  C   UNL     1     104.837 313.335 191.512  1.00  0.00     0.000 C 
BRANCH   2   3
ATOM      3  C   UNL     1     103.786 313.913 190.551  1.00  0.00     0.000 C 
BRANCH   3   4
ATOM      4  C   UNL     1     104.365 314.975 189.605  1.00  0.00     0.000 C 
BRANCH   4   5
ATOM      5  C   UNL     1     103.508 315.111 188.341  1.00  0.00     0.006 C 
BRANCH   5   6
ATOM      6  C   UNL     1     102.174 314.375 188.498  1.00  0.00     0.053 C 
BRANCH   6   7
ATOM      7  C   UNL     1     101.035 315.343 188.478  1.00  0.00     0.041 C 
ATOM      8  O   UNL     1     100.025 315.119 187.759  1.00  0.00    -0.550 OA
ATOM      9  O   UNL     1     101.065 316.470 189.290  1.00  0.00    -0.550 OA
ENDBRANCH   6   7
ENDBRANCH   5   6
ENDBRANCH   4   5
ENDBRANCH   3   4
ENDBRANCH   2   3
ENDBRANCH   1   2
BRANCH   1  10
ATOM     10  C   UNL     1     105.350 311.505 193.223  1.00  0.00     0.000 C 
BRANCH  10  11
ATOM     11  C   UNL     1     105.344 311.844 194.723  1.00  0.00    -0.000 C 
BRANCH  11  12
ATOM     12  C   UNL     1     103.924 311.958 195.305  1.00  0.00    -0.000 C 
BRANCH  12  13
ATOM     13  C   UNL     1     103.683 313.261 196.096  1.00  0.00    -0.000 C 
BRANCH  13  14
ATOM     14  C   UNL     1     104.393 314.468 195.457  1.00  0.00    -0.000 C 
BRANCH  14  15
ATOM     15  C   UNL     1     103.483 315.243 194.491  1.00  0.00    -0.003 C 
ATOM     16  C   UNL     1     104.244 316.288 193.676  1.00  0.00     0.004 C 
ENDBRANCH  14  15
ENDBRANCH  13  14
ENDBRANCH  12  13
ENDBRANCH  11  12
ENDBRANCH  10  11
ENDBRANCH   1  10
TORSDOF 12
ENDMDL
MODEL 4
REMARK VINA RESULT:    -5.575      1.007      1.577
REMARK INTER + INTRA:         -10.193
REMARK INTER:                  -9.674
REMARK INTRA:                  -0.518
REMARK UNBOUND:                -0.707
REMARK SMILES CCCCCCCCCCCCCC(=O)[O-]
REMARK SMILES IDX 8 1 9 2 10 3 11 4 12 5 13 6 14 7 15 8 16 9 7 10 6 11 5 12
REMARK SMILES IDX 4 13 3 14 2 15 1 16
REMARK H PARENT
REMARK Flexibility Score: inf
ROOT
ATOM      1  C   UNL     1     105.562 311.691 194.715  1.00  0.00     0.000 C 
ENDROOT
BRANCH   1   2
ATOM      2  C   UNL     1     104.197 312.090 195.304  1.00  0.00     0.000 C 
BRANCH   2   3
ATOM      3  C   UNL     1     103.872 311.339 196.605  1.00  0.00     0.000 C 
BRANCH   3   4
ATOM      4  C   UNL     1     103.687 312.280 197.805  1.00  0.00     0.000 C 
BRANCH   4   5
ATOM      5  C   UNL     1     103.307 311.495 199.065  1.00  0.00     0.006 C 
BRANCH   5   6
ATOM      6  C   UNL     1     104.161 311.927 200.261  1.00  0.00     0.053 C 
BRANCH   6   7
ATOM      7  C   UNL     1     103.513 311.512 201.544  1.00  0.00     0.041 C 
ATOM      8  O   UNL     1     104.153 311.580 202.628  1.00  0.00    -0.550 OA
ATOM      9  O   UNL     1     102.188 311.098 201.552  1.00  0.00    -0.550 OA
ENDBRANCH   6   7
ENDBRANCH   5   6
ENDBRANCH   4   5
ENDBRANCH   3   4
ENDBRANCH   2   3
ENDBRANCH   1   2
BRANCH   1  10
ATOM     10  C   UNL     1     105.635 311.916 193.196  1.00  0.00     0.000 C 
BRANCH  10  11
ATOM     11  C   UNL     1     104.265 312.257 192.585  1.00  0.00    -0.000 C 
BRANCH  11  12
ATOM     12  C   UNL     1     104.351 313.332 191.488  1.00  0.00    -0.000 C 
BRANCH  12  13
ATOM     13  C   UNL     1     103.526 314.599 191.797  1.00  0.00    -0.000 C 
BRANCH  13  14
ATOM     14  C   UNL     1     103.138 315.365 190.520  1.00  0.00    -0.000 C 
BRANCH  14  15
ATOM     15  C   UNL     1     103.259 314.501 189.256  1.00  0.00    -0.003 C 
ATOM     16  C   UNL     1     102.000 314.543 188.390  1.00  0.00     0.004 C 
ENDBRANCH  14  15
ENDBRANCH  13  14
ENDBRANCH  12  13
ENDBRANCH  11  12
ENDBRANCH  10  11
ENDBRANCH   1  10
TORSDOF 12
ENDMDL
MODEL 5
REMARK VINA RESULT:    -5.570      1.407      2.841
REMARK INTER + INTRA:         -10.184
REMARK INTER:                  -9.616
REMARK INTRA:                  -0.568
REMARK UNBOUND:                -0.707
REMARK SMILES CCCCCCCCCCCCCC(=O)[O-]
REMARK SMILES IDX 8 1 9 2 10 3 11 4 12 5 13 6 14 7 15 8 16 9 7 10 6 11 5 12
REMARK SMILES IDX 4 13 3 14 2 15 1 16
REMARK H PARENT
REMARK Flexibility Score: inf
ROOT
ATOM      1  C   UNL     1     103.482 313.118 197.649  1.00  0.00     0.000 C 
ENDROOT
BRANCH   1   2
ATOM      2  C   UNL     1     103.572 311.688 198.210  1.00  0.00     0.000 C 
BRANCH   2   3
ATOM      3  C   UNL     1     103.084 311.591 199.665  1.00  0.00     0.000 C 
BRANCH   3   4
ATOM      4  C   UNL     1     104.219 311.767 200.685  1.00  0.00     0.000 C 
BRANCH   4   5
ATOM      5  C   UNL     1     103.663 311.896 202.108  1.00  0.00     0.006 C 
BRANCH   5   6
ATOM      6  C   UNL     1     104.069 310.696 202.969  1.00  0.00     0.053 C 
BRANCH   6   7
ATOM      7  C   UNL     1     103.428 310.778 204.317  1.00  0.00     0.041 C 
ATOM      8  O   UNL     1     104.132 310.988 205.342  1.00  0.00    -0.550 OA
ATOM      9  O   UNL     1     102.049 310.672 204.440  1.00  0.00    -0.550 OA
ENDBRANCH   6   7
ENDBRANCH   5   6
ENDBRANCH   4   5
ENDBRANCH   3   4
ENDBRANCH   2   3
ENDBRANCH   1   2
BRANCH   1  10
ATOM     10  C   UNL     1     103.797 313.180 196.146  1.00  0.00     0.000 C 
BRANCH  10  11
ATOM     11  C   UNL     1     104.220 311.816 195.576  1.00  0.00    -0.000 C 
BRANCH  11  12
ATOM     12  C   UNL     1     105.535 311.882 194.780  1.00  0.00    -0.000 C 
BRANCH  12  13
ATOM     13  C   UNL     1     105.416 311.336 193.342  1.00  0.00    -0.000 C 
BRANCH  13  14
ATOM     14  C   UNL     1     104.155 311.854 192.627  1.00  0.00    -0.000 C 
BRANCH  14  15
ATOM     15  C   UNL     1     104.280 313.324 192.201  1.00  0.00    -0.003 C 
ATOM     16  C   UNL     1     103.826 313.560 190.761  1.00  0.00     0.004 C 
ENDBRANCH  14  15
ENDBRANCH  13  14
ENDBRANCH  12  13
ENDBRANCH  11  12
ENDBRANCH  10  11
ENDBRANCH   1  10
TORSDOF 12
ENDMDL
MODEL 6
REMARK VINA RESULT:    -5.567     19.473     21.245
REMARK INTER + INTRA:         -10.180
REMARK INTER:                  -8.434
REMARK INTRA:                  -1.747
REMARK UNBOUND:                -0.707
REMARK SMILES CCCCCCCCCCCCCC(=O)[O-]
REMARK SMILES IDX 8 1 9 2 10 3 11 4 12 5 13 6 14 7 15 8 16 9 7 10 6 11 5 12
REMARK SMILES IDX 4 13 3 14 2 15 1 16
REMARK H PARENT
REMARK Flexibility Score: inf
ROOT
ATOM      1  C   UNL     1      87.029 326.532 194.285  1.00  0.00     0.000 C 
ENDROOT
BRANCH   1   2
ATOM      2  C   UNL     1      85.921 325.620 193.729  1.00  0.00     0.000 C 
BRANCH   2   3
ATOM      3  C   UNL     1      86.470 324.504 192.826  1.00  0.00     0.000 C 
BRANCH   3   4
ATOM      4  C   UNL     1      87.880 324.808 192.296  1.00  0.00     0.000 C 
BRANCH   4   5
ATOM      5  C   UNL     1      88.254 323.856 191.154  1.00  0.00     0.006 C 
BRANCH   5   6
ATOM      6  C   UNL     1      87.085 322.932 190.801  1.00  0.00     0.053 C 
BRANCH   6   7
ATOM      7  C   UNL     1      87.456 322.027 189.670  1.00  0.00     0.041 C 
ATOM      8  O   UNL     1      87.346 322.424 188.479  1.00  0.00    -0.550 OA
ATOM      9  O   UNL     1      87.969 320.763 189.929  1.00  0.00    -0.550 OA
ENDBRANCH   6   7
ENDBRANCH   5   6
ENDBRANCH   4   5
ENDBRANCH   3   4
ENDBRANCH   2   3
ENDBRANCH   1   2
BRANCH   1  10
ATOM     10  C   UNL     1      87.185 326.404 195.809  1.00  0.00     0.000 C 
BRANCH  10  11
ATOM     11  C   UNL     1      88.634 326.106 196.229  1.00  0.00    -0.000 C 
BRANCH  11  12
ATOM     12  C   UNL     1      88.780 324.759 196.958  1.00  0.00    -0.000 C 
BRANCH  12  13
ATOM     13  C   UNL     1      87.977 323.613 196.307  1.00  0.00    -0.000 C 
BRANCH  13  14
ATOM     14  C   UNL     1      88.777 322.898 195.204  1.00  0.00    -0.000 C 
BRANCH  14  15
ATOM     15  C   UNL     1      88.141 321.564 194.786  1.00  0.00    -0.003 C 
ATOM     16  C   UNL     1      88.759 320.990 193.510  1.00  0.00     0.004 C 
ENDBRANCH  14  15
ENDBRANCH  13  14
ENDBRANCH  12  13
ENDBRANCH  11  12
ENDBRANCH  10  11
ENDBRANCH   1  10
TORSDOF 12
ENDMDL
MODEL 7
REMARK VINA RESULT:    -5.519      2.773      4.720
REMARK INTER + INTRA:         -10.098
REMARK INTER:                  -8.674
REMARK INTRA:                  -1.424
REMARK UNBOUND:                -0.707
REMARK SMILES CCCCCCCCCCCCCC(=O)[O-]
REMARK SMILES IDX 8 1 9 2 10 3 11 4 12 5 13 6 14 7 15 8 16 9 7 10 6 11 5 12
REMARK SMILES IDX 4 13 3 14 2 15 1 16
REMARK H PARENT
REMARK Flexibility Score: inf
ROOT
ATOM      1  C   UNL     1     103.955 314.293 192.363  1.00  0.00     0.000 C 
ENDROOT
BRANCH   1   2
ATOM      2  C   UNL     1     104.155 312.928 191.681  1.00  0.00     0.000 C 
BRANCH   2   3
ATOM      3  C   UNL     1     104.234 311.770 192.689  1.00  0.00     0.000 C 
BRANCH   3   4
ATOM      4  C   UNL     1     105.587 311.704 193.414  1.00  0.00     0.000 C 
BRANCH   4   5
ATOM      5  C   UNL     1     105.406 311.851 194.929  1.00  0.00     0.006 C 
BRANCH   5   6
ATOM      6  C   UNL     1     103.922 311.878 195.306  1.00  0.00     0.053 C 
BRANCH   6   7
ATOM      7  C   UNL     1     103.643 312.997 196.259  1.00  0.00     0.041 C 
ATOM      8  O   UNL     1     103.417 314.158 195.824  1.00  0.00    -0.550 OA
ATOM      9  O   UNL     1     103.582 312.750 197.624  1.00  0.00    -0.550 OA
ENDBRANCH   6   7
ENDBRANCH   5   6
ENDBRANCH   4   5
ENDBRANCH   3   4
ENDBRANCH   2   3
ENDBRANCH   1   2
BRANCH   1  10
ATOM     10  C   UNL     1     104.864 315.383 191.772  1.00  0.00     0.000 C 
BRANCH  10  11
ATOM     11  C   UNL     1     105.960 314.806 190.860  1.00  0.00    -0.000 C 
BRANCH  11  12
ATOM     12  C   UNL     1     105.936 315.406 189.443  1.00  0.00    -0.000 C 
BRANCH  12  13
ATOM     13  C   UNL     1     104.605 316.099 189.087  1.00  0.00    -0.000 C 
BRANCH  13  14
ATOM     14  C   UNL     1     103.758 315.264 188.110  1.00  0.00    -0.000 C 
BRANCH  14  15
ATOM     15  C   UNL     1     102.566 314.583 188.797  1.00  0.00    -0.003 C 
ATOM     16  C   UNL     1     101.241 314.855 188.084  1.00  0.00     0.004 C 
ENDBRANCH  14  15
ENDBRANCH  13  14
ENDBRANCH  12  13
ENDBRANCH  11  12
ENDBRANCH  10  11
ENDBRANCH   1  10
TORSDOF 12
ENDMDL
MODEL 8
REMARK VINA RESULT:    -5.517     19.236     21.337
REMARK INTER + INTRA:         -10.095
REMARK INTER:                  -8.961
REMARK INTRA:                  -1.134
REMARK UNBOUND:                -0.707
REMARK SMILES CCCCCCCCCCCCCC(=O)[O-]
REMARK SMILES IDX 8 1 9 2 10 3 11 4 12 5 13 6 14 7 15 8 16 9 7 10 6 11 5 12
REMARK SMILES IDX 4 13 3 14 2 15 1 16
REMARK H PARENT
REMARK Flexibility Score: inf
ROOT
ATOM      1  C   UNL     1      86.370 324.646 192.736  1.00  0.00     0.000 C 
ENDROOT
BRANCH   1   2
ATOM      2  C   UNL     1      86.215 323.529 191.688  1.00  0.00     0.000 C 
BRANCH   2   3
ATOM      3  C   UNL     1      87.497 323.303 190.871  1.00  0.00     0.000 C 
BRANCH   3   4
ATOM      4  C   UNL     1      87.271 322.401 189.648  1.00  0.00     0.000 C 
BRANCH   4   5
ATOM      5  C   UNL     1      88.222 322.777 188.505  1.00  0.00     0.006 C 
BRANCH   5   6
ATOM      6  C   UNL     1      89.451 323.521 189.035  1.00  0.00     0.053 C 
BRANCH   6   7
ATOM      7  C   UNL     1      90.665 322.651 188.954  1.00  0.00     0.041 C 
ATOM      8  O   UNL     1      91.629 322.974 188.209  1.00  0.00    -0.550 OA
ATOM      9  O   UNL     1      90.756 321.508 189.739  1.00  0.00    -0.550 OA
ENDBRANCH   6   7
ENDBRANCH   5   6
ENDBRANCH   4   5
ENDBRANCH   3   4
ENDBRANCH   2   3
ENDBRANCH   1   2
BRANCH   1  10
ATOM     10  C   UNL     1      87.827 325.116 192.882  1.00  0.00     0.000 C 
BRANCH  10  11
ATOM     11  C   UNL     1      87.942 326.445 193.646  1.00  0.00    -0.000 C 
BRANCH  11  12
ATOM     12  C   UNL     1      86.760 326.691 194.600  1.00  0.00    -0.000 C 
BRANCH  12  13
ATOM     13  C   UNL     1      86.993 326.149 196.027  1.00  0.00    -0.000 C 
BRANCH  13  14
ATOM     14  C   UNL     1      88.486 326.121 196.400  1.00  0.00    -0.000 C 
BRANCH  14  15
ATOM     15  C   UNL     1      88.929 324.759 196.953  1.00  0.00    -0.003 C 
ATOM     16  C   UNL     1      88.228 323.587 196.266  1.00  0.00     0.004 C 
ENDBRANCH  14  15
ENDBRANCH  13  14
ENDBRANCH  12  13
ENDBRANCH  11  12
ENDBRANCH  10  11
ENDBRANCH   1  10
TORSDOF 12
ENDMDL
MODEL 9
REMARK VINA RESULT:    -5.501     19.068     21.083
REMARK INTER + INTRA:         -10.068
REMARK INTER:                  -8.707
REMARK INTRA:                  -1.361
REMARK UNBOUND:                -0.707
REMARK SMILES CCCCCCCCCCCCCC(=O)[O-]
REMARK SMILES IDX 8 1 9 2 10 3 11 4 12 5 13 6 14 7 15 8 16 9 7 10 6 11 5 12
REMARK SMILES IDX 4 13 3 14 2 15 1 16
REMARK H PARENT
REMARK Flexibility Score: inf
ROOT
ATOM      1  C   UNL     1      87.789 325.784 193.271  1.00  0.00     0.000 C 
ENDROOT
BRANCH   1   2
ATOM      2  C   UNL     1      86.597 324.844 193.017  1.00  0.00     0.000 C 
BRANCH   2   3
ATOM      3  C   UNL     1      86.826 323.910 191.818  1.00  0.00     0.000 C 
BRANCH   3   4
ATOM      4  C   UNL     1      88.227 324.059 191.207  1.00  0.00     0.000 C 
BRANCH   4   5
ATOM      5  C   UNL     1      88.571 322.857 190.320  1.00  0.00     0.006 C 
BRANCH   5   6
ATOM      6  C   UNL     1      89.079 323.312 188.949  1.00  0.00     0.053 C 
BRANCH   6   7
ATOM      7  C   UNL     1      90.197 322.433 188.487  1.00  0.00     0.041 C 
ATOM      8  O   UNL     1      90.015 321.617 187.544  1.00  0.00    -0.550 OA
ATOM      9  O   UNL     1      91.456 322.548 189.062  1.00  0.00    -0.550 OA
ENDBRANCH   6   7
ENDBRANCH   5   6
ENDBRANCH   4   5
ENDBRANCH   3   4
ENDBRANCH   2   3
ENDBRANCH   1   2
BRANCH   1  10
ATOM     10  C   UNL     1      87.515 326.786 194.405  1.00  0.00     0.000 C 
BRANCH  10  11
ATOM     11  C   UNL     1      87.246 326.093 195.751  1.00  0.00    -0.000 C 
BRANCH  11  12
ATOM     12  C   UNL     1      88.463 326.121 196.692  1.00  0.00    -0.000 C 
BRANCH  12  13
ATOM     13  C   UNL     1      88.952 324.719 197.113  1.00  0.00    -0.000 C 
BRANCH  13  14
ATOM     14  C   UNL     1      88.124 323.596 196.462  1.00  0.00    -0.000 C 
BRANCH  14  15
ATOM     15  C   UNL     1      88.906 322.842 195.376  1.00  0.00    -0.003 C 
ATOM     16  C   UNL     1      88.028 321.872 194.585  1.00  0.00     0.004 C 
ENDBRANCH  14  15
ENDBRANCH  13  14
ENDBRANCH  12  13
ENDBRANCH  11  12
ENDBRANCH  10  11
ENDBRANCH   1  10
TORSDOF 12
ENDMDL
