MODEL 1
REMARK VINA RESULT:    -5.379      0.000      0.000
REMARK INTER + INTRA:          -6.240
REMARK INTER:                  -6.165
REMARK INTRA:                  -0.075
REMARK UNBOUND:                -0.075
REMARK SMILES COc1cc(C=O)ccc1O
REMARK SMILES IDX 3 1 10 2 9 3 8 4 5 5 4 6 2 7 1 8 11 9 6 11 7 12
REMARK H PARENT 11 10
REMARK Flexibility Score: inf
ROOT
ATOM      1  C   UNL     1       4.191  -7.249  88.236  1.00  0.00     0.161 A 
ATOM      2  C   UNL     1       3.473  -7.627  87.092  1.00  0.00     0.157 A 
ATOM      3  C   UNL     1       2.530  -8.660  87.164  1.00  0.00     0.051 A 
ATOM      4  C   UNL     1       2.296  -9.319  88.372  1.00  0.00     0.015 A 
ATOM      5  C   UNL     1       3.007  -8.953  89.527  1.00  0.00     0.018 A 
ATOM      6  C   UNL     1       3.952  -7.917  89.454  1.00  0.00     0.062 A 
ENDROOT
BRANCH   1   7
ATOM      7  O   UNL     1       5.127  -6.210  88.124  1.00  0.00    -0.493 OA
ATOM      8  C   UNL     1       6.538  -6.396  88.080  1.00  0.00     0.278 C 
ENDBRANCH   1   7
BRANCH   2   9
ATOM      9  O   UNL     1       3.704  -6.970  85.886  1.00  0.00    -0.504 OA
ATOM     10  H   UNL     1       3.677  -5.959  85.818  1.00  0.00     0.293 HD
ENDBRANCH   2   9
BRANCH   5  11
ATOM     11  C   UNL     1       2.774  -9.638  90.812  1.00  0.00     0.260 C 
ATOM     12  O   UNL     1       1.609  -9.795  91.265  1.00  0.00    -0.298 OA
ENDBRANCH   5  11
TORSDOF 3
ENDMDL
MODEL 2
REMARK VINA RESULT:    -4.831      1.531      3.050
REMARK INTER + INTRA:          -5.612
REMARK INTER:                  -5.541
REMARK INTRA:                  -0.071
REMARK UNBOUND:                -0.075
REMARK SMILES COc1cc(C=O)ccc1O
REMARK SMILES IDX 3 1 10 2 9 3 8 4 5 5 4 6 2 7 1 8 11 9 6 11 7 12
REMARK H PARENT 11 10
REMARK Flexibility Score: inf
ROOT
ATOM      1  C   UNL     1       2.820  -8.625  87.584  1.00  0.00     0.161 A 
ATOM      2  C   UNL     1       3.619  -7.499  87.337  1.00  0.00     0.157 A 
ATOM      3  C   UNL     1       4.501  -7.034  88.321  1.00  0.00     0.051 A 
ATOM      4  C   UNL     1       4.592  -7.687  89.551  1.00  0.00     0.015 A 
ATOM      5  C   UNL     1       3.798  -8.815  89.814  1.00  0.00     0.018 A 
ATOM      6  C   UNL     1       2.915  -9.280  88.828  1.00  0.00     0.062 A 
ENDROOT
BRANCH   1   7
ATOM      7  O   UNL     1       1.948  -9.060  86.574  1.00  0.00    -0.493 OA
ATOM      8  C   UNL     1       0.527  -9.016  86.660  1.00  0.00     0.278 C 
ENDBRANCH   1   7
BRANCH   2   9
ATOM      9  O   UNL     1       3.529  -6.847  86.109  1.00  0.00    -0.504 OA
ATOM     10  H   UNL     1       2.634  -6.648  85.678  1.00  0.00     0.293 HD
ENDBRANCH   2   9
BRANCH   5  11
ATOM     11  C   UNL     1       3.882  -9.517  91.109  1.00  0.00     0.260 C 
ATOM     12  O   UNL     1       4.645 -10.506  91.266  1.00  0.00    -0.298 OA
ENDBRANCH   5  11
TORSDOF 3
ENDMDL
MODEL 3
REMARK VINA RESULT:    -4.662      1.471      3.939
REMARK INTER + INTRA:          -5.418
REMARK INTER:                  -5.352
REMARK INTRA:                  -0.066
REMARK UNBOUND:                -0.075
REMARK SMILES COc1cc(C=O)ccc1O
REMARK SMILES IDX 3 1 10 2 9 3 8 4 5 5 4 6 2 7 1 8 11 9 6 11 7 12
REMARK H PARENT 11 10
REMARK Flexibility Score: inf
ROOT
ATOM      1  C   UNL     1       3.417  -8.872  89.500  1.00  0.00     0.161 A 
ATOM      2  C   UNL     1       2.604  -9.363  88.468  1.00  0.00     0.157 A 
ATOM      3  C   UNL     1       2.570  -8.710  87.229  1.00  0.00     0.051 A 
ATOM      4  C   UNL     1       3.344  -7.568  87.013  1.00  0.00     0.015 A 
ATOM      5  C   UNL     1       4.163  -7.064  88.036  1.00  0.00     0.018 A 
ATOM      6  C   UNL     1       4.197  -7.719  89.276  1.00  0.00     0.062 A 
ENDROOT
BRANCH   1   7
ATOM      7  O   UNL     1       3.424  -9.554  90.727  1.00  0.00    -0.493 OA
ATOM      8  C   UNL     1       4.593 -10.068  91.357  1.00  0.00     0.278 C 
ENDBRANCH   1   7
BRANCH   2   9
ATOM      9  O   UNL     1       1.832 -10.502  88.682  1.00  0.00    -0.504 OA
ATOM     10  H   UNL     1       1.480 -11.058  87.912  1.00  0.00     0.293 HD
ENDBRANCH   2   9
BRANCH   5  11
ATOM     11  C   UNL     1       4.987  -5.859  87.824  1.00  0.00     0.260 C 
ATOM     12  O   UNL     1       6.187  -5.815  88.205  1.00  0.00    -0.298 OA
ENDBRANCH   5  11
TORSDOF 3
ENDMDL
MODEL 4
REMARK VINA RESULT:    -4.552      1.743      3.031
REMARK INTER + INTRA:          -5.293
REMARK INTER:                  -5.221
REMARK INTRA:                  -0.072
REMARK UNBOUND:                -0.075
REMARK SMILES COc1cc(C=O)ccc1O
REMARK SMILES IDX 3 1 10 2 9 3 8 4 5 5 4 6 2 7 1 8 11 9 6 11 7 12
REMARK H PARENT 11 10
REMARK Flexibility Score: inf
ROOT
ATOM      1  C   UNL     1       4.335  -7.624  88.973  1.00  0.00     0.161 A 
ATOM      2  C   UNL     1       4.360  -8.411  90.134  1.00  0.00     0.157 A 
ATOM      3  C   UNL     1       3.478  -9.491  90.270  1.00  0.00     0.051 A 
ATOM      4  C   UNL     1       2.571  -9.793  89.253  1.00  0.00     0.015 A 
ATOM      5  C   UNL     1       2.533  -9.014  88.085  1.00  0.00     0.018 A 
ATOM      6  C   UNL     1       3.417  -7.933  87.949  1.00  0.00     0.062 A 
ENDROOT
BRANCH   1   7
ATOM      7  O   UNL     1       5.234  -6.551  88.874  1.00  0.00    -0.493 OA
ATOM      8  C   UNL     1       6.334  -6.500  87.971  1.00  0.00     0.278 C 
ENDBRANCH   1   7
BRANCH   2   9
ATOM      9  O   UNL     1       5.266  -8.112  91.150  1.00  0.00    -0.504 OA
ATOM     10  H   UNL     1       4.958  -7.757  92.047  1.00  0.00     0.293 HD
ENDBRANCH   2   9
BRANCH   5  11
ATOM     11  C   UNL     1       1.581  -9.318  87.000  1.00  0.00     0.260 C 
ATOM     12  O   UNL     1       0.749  -8.460  86.604  1.00  0.00    -0.298 OA
ENDBRANCH   5  11
TORSDOF 3
ENDMDL
MODEL 5
REMARK VINA RESULT:    -4.543      1.450      1.549
REMARK INTER + INTRA:          -5.282
REMARK INTER:                  -5.227
REMARK INTRA:                  -0.055
REMARK UNBOUND:                -0.075
REMARK SMILES COc1cc(C=O)ccc1O
REMARK SMILES IDX 3 1 10 2 9 3 8 4 5 5 4 6 2 7 1 8 11 9 6 11 7 12
REMARK H PARENT 11 10
REMARK Flexibility Score: inf
ROOT
ATOM      1  C   UNL     1       3.817  -7.676  88.472  1.00  0.00     0.161 A 
ATOM      2  C   UNL     1       2.853  -8.367  87.724  1.00  0.00     0.157 A 
ATOM      3  C   UNL     1       2.298  -9.553  88.218  1.00  0.00     0.051 A 
ATOM      4  C   UNL     1       2.697 -10.056  89.458  1.00  0.00     0.015 A 
ATOM      5  C   UNL     1       3.662  -9.376  90.219  1.00  0.00     0.018 A 
ATOM      6  C   UNL     1       4.218  -8.187  89.723  1.00  0.00     0.062 A 
ENDROOT
BRANCH   1   7
ATOM      7  O   UNL     1       4.351  -6.490  87.942  1.00  0.00    -0.493 OA
ATOM      8  C   UNL     1       5.684  -6.039  88.158  1.00  0.00     0.278 C 
ENDBRANCH   1   7
BRANCH   2   9
ATOM      9  O   UNL     1       2.453  -7.866  86.486  1.00  0.00    -0.504 OA
ATOM     10  H   UNL     1       1.495  -7.584  86.313  1.00  0.00     0.293 HD
ENDBRANCH   2   9
BRANCH   5  11
ATOM     11  C   UNL     1       4.096  -9.892  91.531  1.00  0.00     0.260 C 
ATOM     12  O   UNL     1       5.070 -10.684  91.630  1.00  0.00    -0.298 OA
ENDBRANCH   5  11
TORSDOF 3
ENDMDL
MODEL 6
REMARK VINA RESULT:    -4.456      1.470      4.317
REMARK INTER + INTRA:          -5.182
REMARK INTER:                  -5.226
REMARK INTRA:                   0.043
REMARK UNBOUND:                -0.075
REMARK SMILES COc1cc(C=O)ccc1O
REMARK SMILES IDX 3 1 10 2 9 3 8 4 5 5 4 6 2 7 1 8 11 9 6 11 7 12
REMARK H PARENT 11 10
REMARK Flexibility Score: inf
ROOT
ATOM      1  C   UNL     1       2.833  -8.719  87.611  1.00  0.00     0.161 A 
ATOM      2  C   UNL     1       2.787  -9.350  88.862  1.00  0.00     0.157 A 
ATOM      3  C   UNL     1       3.638  -8.932  89.892  1.00  0.00     0.051 A 
ATOM      4  C   UNL     1       4.536  -7.884  89.683  1.00  0.00     0.015 A 
ATOM      5  C   UNL     1       4.595  -7.241  88.435  1.00  0.00     0.018 A 
ATOM      6  C   UNL     1       3.741  -7.661  87.404  1.00  0.00     0.062 A 
ENDROOT
BRANCH   1   7
ATOM      7  O   UNL     1       1.964  -9.167  86.604  1.00  0.00    -0.493 OA
ATOM      8  C   UNL     1       0.577  -8.851  86.535  1.00  0.00     0.278 C 
ENDBRANCH   1   7
BRANCH   2   9
ATOM      9  O   UNL     1       1.890 -10.396  89.073  1.00  0.00    -0.504 OA
ATOM     10  H   UNL     1       2.184 -11.270  89.492  1.00  0.00     0.293 HD
ENDBRANCH   2   9
BRANCH   5  11
ATOM     11  C   UNL     1       5.538  -6.133  88.196  1.00  0.00     0.260 C 
ATOM     12  O   UNL     1       6.778  -6.337  88.119  1.00  0.00    -0.298 OA
ENDBRANCH   5  11
TORSDOF 3
ENDMDL
MODEL 7
REMARK VINA RESULT:    -4.321      8.761      9.335
REMARK INTER + INTRA:          -5.028
REMARK INTER:                  -4.950
REMARK INTRA:                  -0.078
REMARK UNBOUND:                -0.075
REMARK SMILES COc1cc(C=O)ccc1O
REMARK SMILES IDX 3 1 10 2 9 3 8 4 5 5 4 6 2 7 1 8 11 9 6 11 7 12
REMARK H PARENT 11 10
REMARK Flexibility Score: inf
ROOT
ATOM      1  C   UNL     1      10.397 -14.527  89.127  1.00  0.00     0.161 A 
ATOM      2  C   UNL     1      10.840 -15.361  90.164  1.00  0.00     0.157 A 
ATOM      3  C   UNL     1       9.985 -15.670  91.230  1.00  0.00     0.051 A 
ATOM      4  C   UNL     1       8.689 -15.154  91.267  1.00  0.00     0.015 A 
ATOM      5  C   UNL     1       8.231 -14.317  90.237  1.00  0.00     0.018 A 
ATOM      6  C   UNL     1       9.088 -14.008  89.169  1.00  0.00     0.062 A 
ENDROOT
BRANCH   1   7
ATOM      7  O   UNL     1      11.283 -14.240  88.076  1.00  0.00    -0.493 OA
ATOM      8  C   UNL     1      12.012 -13.023  87.946  1.00  0.00     0.278 C 
ENDBRANCH   1   7
BRANCH   2   9
ATOM      9  O   UNL     1      12.133 -15.878  90.128  1.00  0.00    -0.504 OA
ATOM     10  H   UNL     1      12.347 -16.798  90.495  1.00  0.00     0.293 HD
ENDBRANCH   2   9
BRANCH   5  11
ATOM     11  C   UNL     1       6.865 -13.762  90.260  1.00  0.00     0.260 C 
ATOM     12  O   UNL     1       5.954 -14.301  90.942  1.00  0.00    -0.298 OA
ENDBRANCH   5  11
TORSDOF 3
ENDMDL
MODEL 8
REMARK VINA RESULT:    -4.072      6.673      8.553
REMARK INTER + INTRA:          -4.743
REMARK INTER:                  -4.691
REMARK INTRA:                  -0.052
REMARK UNBOUND:                -0.075
REMARK SMILES COc1cc(C=O)ccc1O
REMARK SMILES IDX 3 1 10 2 9 3 8 4 5 5 4 6 2 7 1 8 11 9 6 11 7 12
REMARK H PARENT 11 10
REMARK Flexibility Score: inf
ROOT
ATOM      1  C   UNL     1       9.862  -3.264  87.345  1.00  0.00     0.161 A 
ATOM      2  C   UNL     1       9.194  -4.267  88.064  1.00  0.00     0.157 A 
ATOM      3  C   UNL     1       9.058  -5.550  87.519  1.00  0.00     0.051 A 
ATOM      4  C   UNL     1       9.586  -5.841  86.260  1.00  0.00     0.015 A 
ATOM      5  C   UNL     1      10.256  -4.849  85.527  1.00  0.00     0.018 A 
ATOM      6  C   UNL     1      10.392  -3.563  86.074  1.00  0.00     0.062 A 
ENDROOT
BRANCH   1   7
ATOM      7  O   UNL     1       9.978  -1.991  87.924  1.00  0.00    -0.493 OA
ATOM      8  C   UNL     1      10.673  -0.897  87.335  1.00  0.00     0.278 C 
ENDBRANCH   1   7
BRANCH   2   9
ATOM      9  O   UNL     1       8.668  -3.978  89.321  1.00  0.00    -0.504 OA
ATOM     10  H   UNL     1       7.957  -3.267  89.449  1.00  0.00     0.293 HD
ENDBRANCH   2   9
BRANCH   5  11
ATOM     11  C   UNL     1      10.820  -5.139  84.195  1.00  0.00     0.260 C 
ATOM     12  O   UNL     1      10.316  -4.643  83.153  1.00  0.00    -0.298 OA
ENDBRANCH   5  11
TORSDOF 3
ENDMDL
MODEL 9
REMARK VINA RESULT:    -3.984     10.421     12.501
REMARK INTER + INTRA:          -4.642
REMARK INTER:                  -4.566
REMARK INTRA:                  -0.076
REMARK UNBOUND:                -0.075
REMARK SMILES COc1cc(C=O)ccc1O
REMARK SMILES IDX 3 1 10 2 9 3 8 4 5 5 4 6 2 7 1 8 11 9 6 11 7 12
REMARK H PARENT 11 10
REMARK Flexibility Score: inf
ROOT
ATOM      1  C   UNL     1       7.504  -0.802  79.624  1.00  0.00     0.161 A 
ATOM      2  C   UNL     1       7.055  -1.727  80.578  1.00  0.00     0.157 A 
ATOM      3  C   UNL     1       7.892  -2.769  80.995  1.00  0.00     0.051 A 
ATOM      4  C   UNL     1       9.178  -2.895  80.467  1.00  0.00     0.015 A 
ATOM      5  C   UNL     1       9.643  -1.977  79.511  1.00  0.00     0.018 A 
ATOM      6  C   UNL     1       8.803  -0.933  79.094  1.00  0.00     0.062 A 
ENDROOT
BRANCH   1   7
ATOM      7  O   UNL     1       6.635   0.228  79.231  1.00  0.00    -0.493 OA
ATOM      8  C   UNL     1       6.826   1.605  79.538  1.00  0.00     0.278 C 
ENDBRANCH   1   7
BRANCH   2   9
ATOM      9  O   UNL     1       5.771  -1.603  81.106  1.00  0.00    -0.504 OA
ATOM     10  H   UNL     1       5.105  -0.938  80.731  1.00  0.00     0.293 HD
ENDBRANCH   2   9
BRANCH   5  11
ATOM     11  C   UNL     1      10.999  -2.094  78.942  1.00  0.00     0.260 C 
ATOM     12  O   UNL     1      11.601  -3.200  78.915  1.00  0.00    -0.298 OA
ENDBRANCH   5  11
TORSDOF 3
ENDMDL
