MODEL 1
REMARK VINA RESULT:    -3.537      0.000      0.000
REMARK INTER + INTRA:          -5.193
REMARK INTER:                  -4.777
REMARK INTRA:                  -0.415
REMARK UNBOUND:                -0.415
REMARK SMILES CCCCCCCC(=O)[O-]
REMARK SMILES IDX 5 1 6 2 7 3 8 4 9 5 10 6 4 7 3 8 2 9 1 10
REMARK H PARENT
REMARK Flexibility Score: inf
ROOT
ATOM      1  C   UNL     1      31.560  49.948  24.121  1.00  0.00     0.000 C 
ENDROOT
BRANCH   1   2
ATOM      2  C   UNL     1      32.267  50.038  25.485  1.00  0.00     0.006 C 
BRANCH   2   3
ATOM      3  C   UNL     1      32.549  48.653  26.082  1.00  0.00     0.053 C 
BRANCH   3   4
ATOM      4  C   UNL     1      33.456  47.844  25.207  1.00  0.00     0.041 C 
ATOM      5  O   UNL     1      33.074  46.735  24.748  1.00  0.00    -0.550 OA
ATOM      6  O   UNL     1      34.737  48.301  24.920  1.00  0.00    -0.550 OA
ENDBRANCH   3   4
ENDBRANCH   2   3
ENDBRANCH   1   2
BRANCH   1   7
ATOM      7  C   UNL     1      30.549  51.085  23.904  1.00  0.00     0.000 C 
BRANCH   7   8
ATOM      8  C   UNL     1      29.316  50.963  24.812  1.00  0.00    -0.000 C 
BRANCH   8   9
ATOM      9  C   UNL     1      29.184  52.191  25.722  1.00  0.00    -0.003 C 
ATOM     10  C   UNL     1      30.228  53.249  25.378  1.00  0.00     0.004 C 
ENDBRANCH   8   9
ENDBRANCH   7   8
ENDBRANCH   1   7
TORSDOF 6
ENDMDL
MODEL 2
REMARK VINA RESULT:    -3.490      3.537      4.805
REMARK INTER + INTRA:          -5.130
REMARK INTER:                  -4.542
REMARK INTRA:                  -0.588
REMARK UNBOUND:                -0.415
REMARK SMILES CCCCCCCC(=O)[O-]
REMARK SMILES IDX 5 1 6 2 7 3 8 4 9 5 10 6 4 7 3 8 2 9 1 10
REMARK H PARENT
REMARK Flexibility Score: inf
ROOT
ATOM      1  C   UNL     1      33.130  50.970  26.316  1.00  0.00     0.000 C 
ENDROOT
BRANCH   1   2
ATOM      2  C   UNL     1      33.008  52.495  26.473  1.00  0.00     0.006 C 
BRANCH   2   3
ATOM      3  C   UNL     1      31.564  52.934  26.751  1.00  0.00     0.053 C 
BRANCH   3   4
ATOM      4  C   UNL     1      31.140  54.053  25.850  1.00  0.00     0.041 C 
ATOM      5  O   UNL     1      30.618  55.093  26.331  1.00  0.00    -0.550 OA
ATOM      6  O   UNL     1      31.295  53.935  24.474  1.00  0.00    -0.550 OA
ENDBRANCH   3   4
ENDBRANCH   2   3
ENDBRANCH   1   2
BRANCH   1   7
ATOM      7  C   UNL     1      31.796  50.306  25.938  1.00  0.00     0.000 C 
BRANCH   7   8
ATOM      8  C   UNL     1      31.728  49.915  24.454  1.00  0.00    -0.000 C 
BRANCH   8   9
ATOM      9  C   UNL     1      30.621  50.694  23.733  1.00  0.00    -0.003 C 
ATOM     10  C   UNL     1      29.384  50.838  24.615  1.00  0.00     0.004 C 
ENDBRANCH   8   9
ENDBRANCH   7   8
ENDBRANCH   1   7
TORSDOF 6
ENDMDL
MODEL 3
REMARK VINA RESULT:    -3.394      1.620      2.476
REMARK INTER + INTRA:          -4.999
REMARK INTER:                  -4.636
REMARK INTRA:                  -0.364
REMARK UNBOUND:                -0.415
REMARK SMILES CCCCCCCC(=O)[O-]
REMARK SMILES IDX 5 1 6 2 7 3 8 4 9 5 10 6 4 7 3 8 2 9 1 10
REMARK H PARENT
REMARK Flexibility Score: inf
ROOT
ATOM      1  C   UNL     1      33.368  52.008  26.350  1.00  0.00     0.000 C 
ENDROOT
BRANCH   1   2
ATOM      2  C   UNL     1      33.269  50.489  26.576  1.00  0.00     0.006 C 
BRANCH   2   3
ATOM      3  C   UNL     1      34.623  49.789  26.398  1.00  0.00     0.053 C 
BRANCH   3   4
ATOM      4  C   UNL     1      34.509  48.569  25.536  1.00  0.00     0.041 C 
ATOM      5  O   UNL     1      35.380  47.662  25.602  1.00  0.00    -0.550 OA
ATOM      6  O   UNL     1      33.455  48.447  24.639  1.00  0.00    -0.550 OA
ENDBRANCH   3   4
ENDBRANCH   2   3
ENDBRANCH   1   2
BRANCH   1   7
ATOM      7  C   UNL     1      31.998  52.703  26.400  1.00  0.00     0.000 C 
BRANCH   7   8
ATOM      8  C   UNL     1      31.371  52.877  25.008  1.00  0.00    -0.000 C 
BRANCH   8   9
ATOM      9  C   UNL     1      30.304  51.806  24.750  1.00  0.00    -0.003 C 
ATOM     10  C   UNL     1      30.798  50.764  23.750  1.00  0.00     0.004 C 
ENDBRANCH   8   9
ENDBRANCH   7   8
ENDBRANCH   1   7
TORSDOF 6
ENDMDL
MODEL 4
REMARK VINA RESULT:    -3.388      2.767      4.800
REMARK INTER + INTRA:          -4.992
REMARK INTER:                  -4.626
REMARK INTRA:                  -0.365
REMARK UNBOUND:                -0.415
REMARK SMILES CCCCCCCC(=O)[O-]
REMARK SMILES IDX 5 1 6 2 7 3 8 4 9 5 10 6 4 7 3 8 2 9 1 10
REMARK H PARENT
REMARK Flexibility Score: inf
ROOT
ATOM      1  C   UNL     1      31.612  49.960  24.125  1.00  0.00     0.000 C 
ENDROOT
BRANCH   1   2
ATOM      2  C   UNL     1      30.456  50.869  24.580  1.00  0.00     0.006 C 
BRANCH   2   3
ATOM      3  C   UNL     1      30.812  51.671  25.838  1.00  0.00     0.053 C 
BRANCH   3   4
ATOM      4  C   UNL     1      31.812  52.748  25.547  1.00  0.00     0.041 C 
ATOM      5  O   UNL     1      31.478  53.762  24.880  1.00  0.00    -0.550 OA
ATOM      6  O   UNL     1      33.123  52.618  25.990  1.00  0.00    -0.550 OA
ENDBRANCH   3   4
ENDBRANCH   2   3
ENDBRANCH   1   2
BRANCH   1   7
ATOM      7  C   UNL     1      32.199  49.130  25.278  1.00  0.00     0.000 C 
BRANCH   7   8
ATOM      8  C   UNL     1      33.128  48.009  24.788  1.00  0.00    -0.000 C 
BRANCH   8   9
ATOM      9  C   UNL     1      34.584  48.296  25.173  1.00  0.00    -0.003 C 
ATOM     10  C   UNL     1      34.665  49.324  26.298  1.00  0.00     0.004 C 
ENDBRANCH   8   9
ENDBRANCH   7   8
ENDBRANCH   1   7
TORSDOF 6
ENDMDL
MODEL 5
REMARK VINA RESULT:    -3.386      2.879      4.880
REMARK INTER + INTRA:          -4.989
REMARK INTER:                  -4.520
REMARK INTRA:                  -0.469
REMARK UNBOUND:                -0.415
REMARK SMILES CCCCCCCC(=O)[O-]
REMARK SMILES IDX 5 1 6 2 7 3 8 4 9 5 10 6 4 7 3 8 2 9 1 10
REMARK H PARENT
REMARK Flexibility Score: inf
ROOT
ATOM      1  C   UNL     1      33.338  51.645  26.383  1.00  0.00     0.000 C 
ENDROOT
BRANCH   1   2
ATOM      2  C   UNL     1      31.964  52.124  25.885  1.00  0.00     0.006 C 
BRANCH   2   3
ATOM      3  C   UNL     1      30.916  51.004  25.915  1.00  0.00     0.053 C 
BRANCH   3   4
ATOM      4  C   UNL     1      30.159  50.916  24.625  1.00  0.00     0.041 C 
ATOM      5  O   UNL     1      30.775  50.797  23.534  1.00  0.00    -0.550 OA
ATOM      6  O   UNL     1      28.771  50.993  24.627  1.00  0.00    -0.550 OA
ENDBRANCH   3   4
ENDBRANCH   2   3
ENDBRANCH   1   2
BRANCH   1   7
ATOM      7  C   UNL     1      33.376  50.132  26.651  1.00  0.00     0.000 C 
BRANCH   7   8
ATOM      8  C   UNL     1      34.737  49.505  26.317  1.00  0.00    -0.000 C 
BRANCH   8   9
ATOM      9  C   UNL     1      34.586  48.392  25.272  1.00  0.00    -0.003 C 
ATOM     10  C   UNL     1      33.154  48.319  24.748  1.00  0.00     0.004 C 
ENDBRANCH   8   9
ENDBRANCH   7   8
ENDBRANCH   1   7
TORSDOF 6
ENDMDL
MODEL 6
REMARK VINA RESULT:    -3.335      1.730      2.340
REMARK INTER + INTRA:          -4.920
REMARK INTER:                  -4.410
REMARK INTRA:                  -0.510
REMARK UNBOUND:                -0.415
REMARK SMILES CCCCCCCC(=O)[O-]
REMARK SMILES IDX 5 1 6 2 7 3 8 4 9 5 10 6 4 7 3 8 2 9 1 10
REMARK H PARENT
REMARK Flexibility Score: inf
ROOT
ATOM      1  C   UNL     1      31.710  49.938  24.478  1.00  0.00     0.000 C 
ENDROOT
BRANCH   1   2
ATOM      2  C   UNL     1      31.648  49.499  25.951  1.00  0.00     0.006 C 
BRANCH   2   3
ATOM      3  C   UNL     1      32.209  50.569  26.897  1.00  0.00     0.053 C 
BRANCH   3   4
ATOM      4  C   UNL     1      33.613  50.949  26.537  1.00  0.00     0.041 C 
ATOM      5  O   UNL     1      33.909  52.154  26.324  1.00  0.00    -0.550 OA
ATOM      6  O   UNL     1      34.588  49.968  26.407  1.00  0.00    -0.550 OA
ENDBRANCH   3   4
ENDBRANCH   2   3
ENDBRANCH   1   2
BRANCH   1   7
ATOM      7  C   UNL     1      30.776  51.120  24.173  1.00  0.00     0.000 C 
BRANCH   7   8
ATOM      8  C   UNL     1      29.371  50.932  24.764  1.00  0.00    -0.000 C 
BRANCH   8   9
ATOM      9  C   UNL     1      28.984  52.124  25.648  1.00  0.00    -0.003 C 
ATOM     10  C   UNL     1      30.002  53.255  25.525  1.00  0.00     0.004 C 
ENDBRANCH   8   9
ENDBRANCH   7   8
ENDBRANCH   1   7
TORSDOF 6
ENDMDL
MODEL 7
REMARK VINA RESULT:    -3.217      1.466      2.379
REMARK INTER + INTRA:          -4.760
REMARK INTER:                  -4.317
REMARK INTRA:                  -0.443
REMARK UNBOUND:                -0.415
REMARK SMILES CCCCCCCC(=O)[O-]
REMARK SMILES IDX 5 1 6 2 7 3 8 4 9 5 10 6 4 7 3 8 2 9 1 10
REMARK H PARENT
REMARK Flexibility Score: inf
ROOT
ATOM      1  C   UNL     1      29.573  50.727  24.497  1.00  0.00     0.000 C 
ENDROOT
BRANCH   1   2
ATOM      2  C   UNL     1      31.073  50.887  24.191  1.00  0.00     0.006 C 
BRANCH   2   3
ATOM      3  C   UNL     1      31.850  49.582  24.408  1.00  0.00     0.053 C 
BRANCH   3   4
ATOM      4  C   UNL     1      32.571  49.575  25.720  1.00  0.00     0.041 C 
ATOM      5  O   UNL     1      33.145  50.617  26.135  1.00  0.00    -0.550 OA
ATOM      6  O   UNL     1      32.635  48.409  26.473  1.00  0.00    -0.550 OA
ENDBRANCH   3   4
ENDBRANCH   2   3
ENDBRANCH   1   2
BRANCH   1   7
ATOM      7  C   UNL     1      29.036  51.836  25.415  1.00  0.00     0.000 C 
BRANCH   7   8
ATOM      8  C   UNL     1      30.073  52.309  26.444  1.00  0.00    -0.000 C 
BRANCH   8   9
ATOM      9  C   UNL     1      30.114  53.840  26.517  1.00  0.00    -0.003 C 
ATOM     10  C   UNL     1      30.692  54.438  25.237  1.00  0.00     0.004 C 
ENDBRANCH   8   9
ENDBRANCH   7   8
ENDBRANCH   1   7
TORSDOF 6
ENDMDL
MODEL 8
REMARK VINA RESULT:    -3.071      1.500      2.108
REMARK INTER + INTRA:          -4.564
REMARK INTER:                  -4.201
REMARK INTRA:                  -0.363
REMARK UNBOUND:                -0.415
REMARK SMILES CCCCCCCC(=O)[O-]
REMARK SMILES IDX 5 1 6 2 7 3 8 4 9 5 10 6 4 7 3 8 2 9 1 10
REMARK H PARENT
REMARK Flexibility Score: inf
ROOT
ATOM      1  C   UNL     1      31.383  50.646  26.697  1.00  0.00     0.000 C 
ENDROOT
BRANCH   1   2
ATOM      2  C   UNL     1      31.713  49.198  26.296  1.00  0.00     0.006 C 
BRANCH   2   3
ATOM      3  C   UNL     1      32.391  49.119  24.922  1.00  0.00     0.053 C 
BRANCH   3   4
ATOM      4  C   UNL     1      33.442  48.053  24.880  1.00  0.00     0.041 C 
ATOM      5  O   UNL     1      33.124  46.855  24.656  1.00  0.00    -0.550 OA
ATOM      6  O   UNL     1      34.772  48.378  25.117  1.00  0.00    -0.550 OA
ENDBRANCH   3   4
ENDBRANCH   2   3
ENDBRANCH   1   2
BRANCH   1   7
ATOM      7  C   UNL     1      32.630  51.541  26.761  1.00  0.00     0.000 C 
BRANCH   7   8
ATOM      8  C   UNL     1      32.443  52.873  26.020  1.00  0.00    -0.000 C 
BRANCH   8   9
ATOM      9  C   UNL     1      31.187  52.839  25.141  1.00  0.00    -0.003 C 
ATOM     10  C   UNL     1      30.660  54.246  24.874  1.00  0.00     0.004 C 
ENDBRANCH   8   9
ENDBRANCH   7   8
ENDBRANCH   1   7
TORSDOF 6
ENDMDL
