MODEL 1
REMARK VINA RESULT:    -4.677      0.000      0.000
REMARK INTER + INTRA:         -16.217
REMARK INTER:                 -11.785
REMARK INTRA:                  -4.432
REMARK UNBOUND:                -4.432
REMARK SMILES CCCCCCCCCCCCCCCCCCCCCCCCCCCC(=O)[O-]
REMARK SMILES IDX 15 1 16 2 17 3 18 4 19 5 20 6 21 7 22 8 23 9 24 10 25 11
REMARK SMILES IDX 26 12 27 13 28 14 29 15 30 16 14 17 13 18 12 19 11 20 10 21
REMARK SMILES IDX 9 22 8 23 7 24 6 25 5 26 4 27 3 28 2 29 1 30
REMARK H PARENT
REMARK Flexibility Score: inf
ROOT
ATOM      1  C   UNL     1      43.388  -0.528  21.457  1.00  0.00     0.000 C 
ENDROOT
BRANCH   1   2
ATOM      2  C   UNL     1      43.900  -0.379  22.903  1.00  0.00     0.000 C 
BRANCH   2   3
ATOM      3  C   UNL     1      42.803  -0.230  23.972  1.00  0.00     0.000 C 
BRANCH   3   4
ATOM      4  C   UNL     1      43.305   0.176  25.374  1.00  0.00     0.000 C 
BRANCH   4   5
ATOM      5  C   UNL     1      44.449   1.205  25.386  1.00  0.00     0.000 C 
BRANCH   5   6
ATOM      6  C   UNL     1      44.219   2.344  26.391  1.00  0.00     0.000 C 
BRANCH   6   7
ATOM      7  C   UNL     1      44.134   3.699  25.673  1.00  0.00     0.000 C 
BRANCH   7   8
ATOM      8  C   UNL     1      44.871   3.698  24.324  1.00  0.00     0.000 C 
BRANCH   8   9
ATOM      9  C   UNL     1      43.989   4.213  23.174  1.00  0.00     0.000 C 
BRANCH   9  10
ATOM     10  C   UNL     1      43.238   3.082  22.452  1.00  0.00     0.000 C 
BRANCH  10  11
ATOM     11  C   UNL     1      41.718   3.312  22.402  1.00  0.00     0.000 C 
BRANCH  11  12
ATOM     12  C   UNL     1      41.049   3.149  23.776  1.00  0.00     0.006 C 
BRANCH  12  13
ATOM     13  C   UNL     1      39.737   3.937  23.892  1.00  0.00     0.053 C 
BRANCH  13  14
ATOM     14  C   UNL     1      39.779   4.849  25.076  1.00  0.00     0.041 C 
ATOM     15  O   UNL     1      40.858   5.028  25.702  1.00  0.00    -0.550 OA
ATOM     16  O   UNL     1      38.615   5.462  25.523  1.00  0.00    -0.550 OA
ENDBRANCH  13  14
ENDBRANCH  12  13
ENDBRANCH  11  12
ENDBRANCH  10  11
ENDBRANCH   9  10
ENDBRANCH   8   9
ENDBRANCH   7   8
ENDBRANCH   6   7
ENDBRANCH   5   6
ENDBRANCH   4   5
ENDBRANCH   3   4
ENDBRANCH   2   3
ENDBRANCH   1   2
BRANCH   1  17
ATOM     17  C   UNL     1      41.895  -0.177  21.280  1.00  0.00     0.000 C 
BRANCH  17  18
ATOM     18  C   UNL     1      41.294  -0.789  20.002  1.00  0.00     0.000 C 
BRANCH  18  19
ATOM     19  C   UNL     1      41.929  -0.230  18.717  1.00  0.00     0.000 C 
BRANCH  19  20
ATOM     20  C   UNL     1      41.374   1.155  18.341  1.00  0.00     0.000 C 
BRANCH  20  21
ATOM     21  C   UNL     1      42.476   2.139  17.916  1.00  0.00     0.000 C 
BRANCH  21  22
ATOM     22  C   UNL     1      43.577   2.291  18.978  1.00  0.00    -0.000 C 
BRANCH  22  23
ATOM     23  C   UNL     1      44.895   2.756  18.342  1.00  0.00    -0.000 C 
BRANCH  23  24
ATOM     24  C   UNL     1      46.133   2.378  19.178  1.00  0.00    -0.000 C 
BRANCH  24  25
ATOM     25  C   UNL     1      45.877   2.231  20.689  1.00  0.00    -0.000 C 
BRANCH  25  26
ATOM     26  C   UNL     1      47.162   2.000  21.497  1.00  0.00    -0.000 C 
BRANCH  26  27
ATOM     27  C   UNL     1      47.456   0.500  21.638  1.00  0.00    -0.000 C 
BRANCH  27  28
ATOM     28  C   UNL     1      48.646   0.044  20.779  1.00  0.00    -0.000 C 
BRANCH  28  29
ATOM     29  C   UNL     1      49.860  -0.372  21.623  1.00  0.00    -0.003 C 
ATOM     30  C   UNL     1      51.040  -0.754  20.735  1.00  0.00     0.004 C 
ENDBRANCH  28  29
ENDBRANCH  27  28
ENDBRANCH  26  27
ENDBRANCH  25  26
ENDBRANCH  24  25
ENDBRANCH  23  24
ENDBRANCH  22  23
ENDBRANCH  21  22
ENDBRANCH  20  21
ENDBRANCH  19  20
ENDBRANCH  18  19
ENDBRANCH  17  18
ENDBRANCH   1  17
TORSDOF 26
ENDMDL
MODEL 2
REMARK VINA RESULT:    -4.589      3.470      5.711
REMARK INTER + INTRA:         -15.997
REMARK INTER:                 -11.454
REMARK INTRA:                  -4.543
REMARK UNBOUND:                -4.432
REMARK SMILES CCCCCCCCCCCCCCCCCCCCCCCCCCCC(=O)[O-]
REMARK SMILES IDX 15 1 16 2 17 3 18 4 19 5 20 6 21 7 22 8 23 9 24 10 25 11
REMARK SMILES IDX 26 12 27 13 28 14 29 15 30 16 14 17 13 18 12 19 11 20 10 21
REMARK SMILES IDX 9 22 8 23 7 24 6 25 5 26 4 27 3 28 2 29 1 30
REMARK H PARENT
REMARK Flexibility Score: inf
ROOT
ATOM      1  C   UNL     1      44.210   2.743  24.732  1.00  0.00     0.000 C 
ENDROOT
BRANCH   1   2
ATOM      2  C   UNL     1      44.748   1.479  25.429  1.00  0.00     0.000 C 
BRANCH   2   3
ATOM      3  C   UNL     1      45.241   0.370  24.482  1.00  0.00     0.000 C 
BRANCH   3   4
ATOM      4  C   UNL     1      45.314   0.766  22.991  1.00  0.00     0.000 C 
BRANCH   4   5
ATOM      5  C   UNL     1      44.553  -0.163  22.030  1.00  0.00     0.000 C 
BRANCH   5   6
ATOM      6  C   UNL     1      43.097  -0.403  22.457  1.00  0.00     0.000 C 
BRANCH   6   7
ATOM      7  C   UNL     1      42.123   0.060  21.362  1.00  0.00     0.000 C 
BRANCH   7   8
ATOM      8  C   UNL     1      41.586  -1.110  20.520  1.00  0.00     0.000 C 
BRANCH   8   9
ATOM      9  C   UNL     1      41.463  -0.749  19.030  1.00  0.00     0.000 C 
BRANCH   9  10
ATOM     10  C   UNL     1      42.127   0.596  18.690  1.00  0.00     0.000 C 
BRANCH  10  11
ATOM     11  C   UNL     1      41.358   1.387  17.618  1.00  0.00     0.000 C 
BRANCH  11  12
ATOM     12  C   UNL     1      42.269   2.318  16.802  1.00  0.00     0.006 C 
BRANCH  12  13
ATOM     13  C   UNL     1      43.686   1.757  16.631  1.00  0.00     0.053 C 
BRANCH  13  14
ATOM     14  C   UNL     1      43.796   1.000  15.345  1.00  0.00     0.041 C 
ATOM     15  O   UNL     1      42.864   1.048  14.500  1.00  0.00    -0.550 OA
ATOM     16  O   UNL     1      44.906   0.200  15.102  1.00  0.00    -0.550 OA
ENDBRANCH  13  14
ENDBRANCH  12  13
ENDBRANCH  11  12
ENDBRANCH  10  11
ENDBRANCH   9  10
ENDBRANCH   8   9
ENDBRANCH   7   8
ENDBRANCH   6   7
ENDBRANCH   5   6
ENDBRANCH   4   5
ENDBRANCH   3   4
ENDBRANCH   2   3
ENDBRANCH   1   2
BRANCH   1  17
ATOM     17  C   UNL     1      42.671   2.793  24.621  1.00  0.00     0.000 C 
BRANCH  17  18
ATOM     18  C   UNL     1      42.196   3.271  23.237  1.00  0.00     0.000 C 
BRANCH  18  19
ATOM     19  C   UNL     1      43.351   3.759  22.346  1.00  0.00     0.000 C 
BRANCH  19  20
ATOM     20  C   UNL     1      43.109   3.464  20.856  1.00  0.00     0.000 C 
BRANCH  20  21
ATOM     21  C   UNL     1      44.398   3.074  20.113  1.00  0.00     0.000 C 
BRANCH  21  22
ATOM     22  C   UNL     1      45.189   4.296  19.619  1.00  0.00    -0.000 C 
BRANCH  22  23
ATOM     23  C   UNL     1      46.700   4.021  19.642  1.00  0.00    -0.000 C 
BRANCH  23  24
ATOM     24  C   UNL     1      47.208   3.563  21.022  1.00  0.00    -0.000 C 
BRANCH  24  25
ATOM     25  C   UNL     1      48.544   2.799  21.003  1.00  0.00    -0.000 C 
BRANCH  25  26
ATOM     26  C   UNL     1      48.500   1.533  20.135  1.00  0.00    -0.000 C 
BRANCH  26  27
ATOM     27  C   UNL     1      48.314   0.281  21.005  1.00  0.00    -0.000 C 
BRANCH  27  28
ATOM     28  C   UNL     1      49.648  -0.320  21.473  1.00  0.00    -0.000 C 
BRANCH  28  29
ATOM     29  C   UNL     1      50.804  -0.017  20.508  1.00  0.00    -0.003 C 
ATOM     30  C   UNL     1      51.566  -1.289  20.148  1.00  0.00     0.004 C 
ENDBRANCH  28  29
ENDBRANCH  27  28
ENDBRANCH  26  27
ENDBRANCH  25  26
ENDBRANCH  24  25
ENDBRANCH  23  24
ENDBRANCH  22  23
ENDBRANCH  21  22
ENDBRANCH  20  21
ENDBRANCH  19  20
ENDBRANCH  18  19
ENDBRANCH  17  18
ENDBRANCH   1  17
TORSDOF 26
ENDMDL
MODEL 3
REMARK VINA RESULT:    -4.553      4.115      6.959
REMARK INTER + INTRA:         -15.906
REMARK INTER:                 -11.522
REMARK INTRA:                  -4.383
REMARK UNBOUND:                -4.432
REMARK SMILES CCCCCCCCCCCCCCCCCCCCCCCCCCCC(=O)[O-]
REMARK SMILES IDX 15 1 16 2 17 3 18 4 19 5 20 6 21 7 22 8 23 9 24 10 25 11
REMARK SMILES IDX 26 12 27 13 28 14 29 15 30 16 14 17 13 18 12 19 11 20 10 21
REMARK SMILES IDX 9 22 8 23 7 24 6 25 5 26 4 27 3 28 2 29 1 30
REMARK H PARENT
REMARK Flexibility Score: inf
ROOT
ATOM      1  C   UNL     1      44.564  -0.625  24.524  1.00  0.00     0.000 C 
ENDROOT
BRANCH   1   2
ATOM      2  C   UNL     1      43.266  -0.645  23.696  1.00  0.00     0.000 C 
BRANCH   2   3
ATOM      3  C   UNL     1      43.463  -0.615  22.169  1.00  0.00     0.000 C 
BRANCH   3   4
ATOM      4  C   UNL     1      42.215  -0.214  21.355  1.00  0.00     0.000 C 
BRANCH   4   5
ATOM      5  C   UNL     1      41.624  -1.328  20.473  1.00  0.00     0.000 C 
BRANCH   5   6
ATOM      6  C   UNL     1      41.059  -0.804  19.145  1.00  0.00     0.000 C 
BRANCH   6   7
ATOM      7  C   UNL     1      42.042   0.171  18.478  1.00  0.00     0.000 C 
BRANCH   7   8
ATOM      8  C   UNL     1      41.419   1.554  18.225  1.00  0.00     0.000 C 
BRANCH   8   9
ATOM      9  C   UNL     1      42.085   2.290  17.050  1.00  0.00     0.000 C 
BRANCH   9  10
ATOM     10  C   UNL     1      43.085   1.404  16.289  1.00  0.00     0.000 C 
BRANCH  10  11
ATOM     11  C   UNL     1      44.529   1.929  16.372  1.00  0.00     0.000 C 
BRANCH  11  12
ATOM     12  C   UNL     1      45.446   1.312  15.304  1.00  0.00     0.006 C 
BRANCH  12  13
ATOM     13  C   UNL     1      45.119  -0.160  15.023  1.00  0.00     0.053 C 
BRANCH  13  14
ATOM     14  C   UNL     1      44.798  -0.356  13.575  1.00  0.00     0.041 C 
ATOM     15  O   UNL     1      45.716  -0.330  12.713  1.00  0.00    -0.550 OA
ATOM     16  O   UNL     1      43.479  -0.516  13.171  1.00  0.00    -0.550 OA
ENDBRANCH  13  14
ENDBRANCH  12  13
ENDBRANCH  11  12
ENDBRANCH  10  11
ENDBRANCH   9  10
ENDBRANCH   8   9
ENDBRANCH   7   8
ENDBRANCH   6   7
ENDBRANCH   5   6
ENDBRANCH   4   5
ENDBRANCH   3   4
ENDBRANCH   2   3
ENDBRANCH   1   2
BRANCH   1  17
ATOM     17  C   UNL     1      45.027   0.790  24.934  1.00  0.00     0.000 C 
BRANCH  17  18
ATOM     18  C   UNL     1      43.850   1.709  25.309  1.00  0.00     0.000 C 
BRANCH  18  19
ATOM     19  C   UNL     1      44.153   3.196  25.063  1.00  0.00     0.000 C 
BRANCH  19  20
ATOM     20  C   UNL     1      43.976   3.597  23.589  1.00  0.00     0.000 C 
BRANCH  20  21
ATOM     21  C   UNL     1      42.673   3.053  22.979  1.00  0.00     0.000 C 
BRANCH  21  22
ATOM     22  C   UNL     1      42.484   3.476  21.513  1.00  0.00    -0.000 C 
BRANCH  22  23
ATOM     23  C   UNL     1      43.839   3.722  20.831  1.00  0.00    -0.000 C 
BRANCH  23  24
ATOM     24  C   UNL     1      44.394   2.470  20.126  1.00  0.00    -0.000 C 
BRANCH  24  25
ATOM     25  C   UNL     1      45.930   2.373  20.087  1.00  0.00    -0.000 C 
BRANCH  25  26
ATOM     26  C   UNL     1      46.557   2.190  21.477  1.00  0.00    -0.000 C 
BRANCH  26  27
ATOM     27  C   UNL     1      46.896   0.714  21.732  1.00  0.00    -0.000 C 
BRANCH  27  28
ATOM     28  C   UNL     1      48.409   0.453  21.779  1.00  0.00    -0.000 C 
BRANCH  28  29
ATOM     29  C   UNL     1      48.952  -0.113  20.458  1.00  0.00    -0.003 C 
ATOM     30  C   UNL     1      50.148   0.696  19.965  1.00  0.00     0.004 C 
ENDBRANCH  28  29
ENDBRANCH  27  28
ENDBRANCH  26  27
ENDBRANCH  25  26
ENDBRANCH  24  25
ENDBRANCH  23  24
ENDBRANCH  22  23
ENDBRANCH  21  22
ENDBRANCH  20  21
ENDBRANCH  19  20
ENDBRANCH  18  19
ENDBRANCH  17  18
ENDBRANCH   1  17
TORSDOF 26
ENDMDL
MODEL 4
REMARK VINA RESULT:    -4.537      3.109      6.233
REMARK INTER + INTRA:         -15.865
REMARK INTER:                 -11.396
REMARK INTRA:                  -4.469
REMARK UNBOUND:                -4.432
REMARK SMILES CCCCCCCCCCCCCCCCCCCCCCCCCCCC(=O)[O-]
REMARK SMILES IDX 15 1 16 2 17 3 18 4 19 5 20 6 21 7 22 8 23 9 24 10 25 11
REMARK SMILES IDX 26 12 27 13 28 14 29 15 30 16 14 17 13 18 12 19 11 20 10 21
REMARK SMILES IDX 9 22 8 23 7 24 6 25 5 26 4 27 3 28 2 29 1 30
REMARK H PARENT
REMARK Flexibility Score: inf
ROOT
ATOM      1  C   UNL     1      47.590   0.510  21.010  1.00  0.00     0.000 C 
ENDROOT
BRANCH   1   2
ATOM      2  C   UNL     1      46.669   1.086  22.102  1.00  0.00     0.000 C 
BRANCH   2   3
ATOM      3  C   UNL     1      45.954   2.397  21.729  1.00  0.00     0.000 C 
BRANCH   3   4
ATOM      4  C   UNL     1      46.105   3.541  22.755  1.00  0.00     0.000 C 
BRANCH   4   5
ATOM      5  C   UNL     1      45.127   3.486  23.942  1.00  0.00     0.000 C 
BRANCH   5   6
ATOM      6  C   UNL     1      43.805   2.786  23.596  1.00  0.00     0.000 C 
BRANCH   6   7
ATOM      7  C   UNL     1      43.388   1.820  24.716  1.00  0.00     0.000 C 
BRANCH   7   8
ATOM      8  C   UNL     1      44.556   0.947  25.204  1.00  0.00     0.000 C 
BRANCH   8   9
ATOM      9  C   UNL     1      44.604  -0.416  24.493  1.00  0.00     0.000 C 
BRANCH   9  10
ATOM     10  C   UNL     1      43.340  -0.696  23.664  1.00  0.00     0.000 C 
BRANCH  10  11
ATOM     11  C   UNL     1      43.604  -0.672  22.148  1.00  0.00     0.000 C 
BRANCH  11  12
ATOM     12  C   UNL     1      42.342  -0.350  21.333  1.00  0.00     0.006 C 
BRANCH  12  13
ATOM     13  C   UNL     1      42.461   0.967  20.554  1.00  0.00     0.053 C 
BRANCH  13  14
ATOM     14  C   UNL     1      41.944   0.798  19.161  1.00  0.00     0.041 C 
ATOM     15  O   UNL     1      41.614  -0.342  18.741  1.00  0.00    -0.550 OA
ATOM     16  O   UNL     1      41.875   1.893  18.308  1.00  0.00    -0.550 OA
ENDBRANCH  13  14
ENDBRANCH  12  13
ENDBRANCH  11  12
ENDBRANCH  10  11
ENDBRANCH   9  10
ENDBRANCH   8   9
ENDBRANCH   7   8
ENDBRANCH   6   7
ENDBRANCH   5   6
ENDBRANCH   4   5
ENDBRANCH   3   4
ENDBRANCH   2   3
ENDBRANCH   1   2
BRANCH   1  17
ATOM     17  C   UNL     1      48.972   0.054  21.528  1.00  0.00     0.000 C 
BRANCH  17  18
ATOM     18  C   UNL     1      49.922  -0.355  20.389  1.00  0.00     0.000 C 
BRANCH  18  19
ATOM     19  C   UNL     1      51.333  -0.711  20.888  1.00  0.00     0.000 C 
BRANCH  19  20
ATOM     20  C   UNL     1      52.287  -1.082  19.740  1.00  0.00     0.000 C 
BRANCH  20  21
ATOM     21  C   UNL     1      51.595  -1.071  18.367  1.00  0.00     0.000 C 
BRANCH  21  22
ATOM     22  C   UNL     1      52.551  -0.693  17.225  1.00  0.00    -0.000 C 
BRANCH  22  23
ATOM     23  C   UNL     1      52.122   0.624  16.560  1.00  0.00    -0.000 C 
BRANCH  23  24
ATOM     24  C   UNL     1      51.169   1.459  17.436  1.00  0.00    -0.000 C 
BRANCH  24  25
ATOM     25  C   UNL     1      49.782   1.720  16.821  1.00  0.00    -0.000 C 
BRANCH  25  26
ATOM     26  C   UNL     1      48.719   2.085  17.868  1.00  0.00    -0.000 C 
BRANCH  26  27
ATOM     27  C   UNL     1      48.775   3.582  18.205  1.00  0.00    -0.000 C 
BRANCH  27  28
ATOM     28  C   UNL     1      48.657   3.856  19.712  1.00  0.00    -0.000 C 
BRANCH  28  29
ATOM     29  C   UNL     1      49.917   3.445  20.488  1.00  0.00    -0.003 C 
ATOM     30  C   UNL     1      49.743   3.689  21.984  1.00  0.00     0.004 C 
ENDBRANCH  28  29
ENDBRANCH  27  28
ENDBRANCH  26  27
ENDBRANCH  25  26
ENDBRANCH  24  25
ENDBRANCH  23  24
ENDBRANCH  22  23
ENDBRANCH  21  22
ENDBRANCH  20  21
ENDBRANCH  19  20
ENDBRANCH  18  19
ENDBRANCH  17  18
ENDBRANCH   1  17
TORSDOF 26
ENDMDL
MODEL 5
REMARK VINA RESULT:    -4.536      3.280      8.303
REMARK INTER + INTRA:         -15.863
REMARK INTER:                 -11.837
REMARK INTRA:                  -4.026
REMARK UNBOUND:                -4.432
REMARK SMILES CCCCCCCCCCCCCCCCCCCCCCCCCCCC(=O)[O-]
REMARK SMILES IDX 15 1 16 2 17 3 18 4 19 5 20 6 21 7 22 8 23 9 24 10 25 11
REMARK SMILES IDX 26 12 27 13 28 14 29 15 30 16 14 17 13 18 12 19 11 20 10 21
REMARK SMILES IDX 9 22 8 23 7 24 6 25 5 26 4 27 3 28 2 29 1 30
REMARK H PARENT
REMARK Flexibility Score: inf
ROOT
ATOM      1  C   UNL     1      48.220   0.538  20.505  1.00  0.00     0.000 C 
ENDROOT
BRANCH   1   2
ATOM      2  C   UNL     1      49.686   0.712  20.945  1.00  0.00     0.000 C 
BRANCH   2   3
ATOM      3  C   UNL     1      50.386  -0.577  21.412  1.00  0.00     0.000 C 
BRANCH   3   4
ATOM      4  C   UNL     1      51.235  -1.288  20.337  1.00  0.00     0.000 C 
BRANCH   4   5
ATOM      5  C   UNL     1      52.628  -0.680  20.096  1.00  0.00     0.000 C 
BRANCH   5   6
ATOM      6  C   UNL     1      52.864  -0.285  18.631  1.00  0.00     0.000 C 
BRANCH   6   7
ATOM      7  C   UNL     1      51.556  -0.353  17.828  1.00  0.00     0.000 C 
BRANCH   7   8
ATOM      8  C   UNL     1      50.999   1.040  17.489  1.00  0.00     0.000 C 
BRANCH   8   9
ATOM      9  C   UNL     1      51.929   2.171  17.959  1.00  0.00     0.000 C 
BRANCH   9  10
ATOM     10  C   UNL     1      51.289   3.049  19.047  1.00  0.00     0.000 C 
BRANCH  10  11
ATOM     11  C   UNL     1      52.325   3.660  20.007  1.00  0.00     0.000 C 
BRANCH  11  12
ATOM     12  C   UNL     1      51.676   4.345  21.221  1.00  0.00     0.006 C 
BRANCH  12  13
ATOM     13  C   UNL     1      50.144   4.348  21.149  1.00  0.00     0.053 C 
BRANCH  13  14
ATOM     14  C   UNL     1      49.560   4.706  22.478  1.00  0.00     0.041 C 
ATOM     15  O   UNL     1      50.308   4.864  23.478  1.00  0.00    -0.550 OA
ATOM     16  O   UNL     1      48.182   4.816  22.625  1.00  0.00    -0.550 OA
ENDBRANCH  13  14
ENDBRANCH  12  13
ENDBRANCH  11  12
ENDBRANCH  10  11
ENDBRANCH   9  10
ENDBRANCH   8   9
ENDBRANCH   7   8
ENDBRANCH   6   7
ENDBRANCH   5   6
ENDBRANCH   4   5
ENDBRANCH   3   4
ENDBRANCH   2   3
ENDBRANCH   1   2
BRANCH   1  17
ATOM     17  C   UNL     1      47.403   1.848  20.508  1.00  0.00     0.000 C 
BRANCH  17  18
ATOM     18  C   UNL     1      46.457   1.950  21.717  1.00  0.00     0.000 C 
BRANCH  18  19
ATOM     19  C   UNL     1      46.387   0.646  22.530  1.00  0.00     0.000 C 
BRANCH  19  20
ATOM     20  C   UNL     1      45.053   0.491  23.281  1.00  0.00     0.000 C 
BRANCH  20  21
ATOM     21  C   UNL     1      44.065  -0.432  22.548  1.00  0.00     0.000 C 
BRANCH  21  22
ATOM     22  C   UNL     1      42.607  -0.195  22.973  1.00  0.00    -0.000 C 
BRANCH  22  23
ATOM     23  C   UNL     1      42.451   1.162  23.675  1.00  0.00    -0.000 C 
BRANCH  23  24
ATOM     24  C   UNL     1      41.720   2.207  22.810  1.00  0.00    -0.000 C 
BRANCH  24  25
ATOM     25  C   UNL     1      42.608   2.943  21.790  1.00  0.00    -0.000 C 
BRANCH  25  26
ATOM     26  C   UNL     1      42.113   2.794  20.344  1.00  0.00    -0.000 C 
BRANCH  26  27
ATOM     27  C   UNL     1      42.783   1.595  19.659  1.00  0.00    -0.000 C 
BRANCH  27  28
ATOM     28  C   UNL     1      41.807   0.785  18.792  1.00  0.00    -0.000 C 
BRANCH  28  29
ATOM     29  C   UNL     1      41.900  -0.726  19.051  1.00  0.00    -0.003 C 
ATOM     30  C   UNL     1      40.836  -1.179  20.047  1.00  0.00     0.004 C 
ENDBRANCH  28  29
ENDBRANCH  27  28
ENDBRANCH  26  27
ENDBRANCH  25  26
ENDBRANCH  24  25
ENDBRANCH  23  24
ENDBRANCH  22  23
ENDBRANCH  21  22
ENDBRANCH  20  21
ENDBRANCH  19  20
ENDBRANCH  18  19
ENDBRANCH  17  18
ENDBRANCH   1  17
TORSDOF 26
ENDMDL
MODEL 6
REMARK VINA RESULT:    -4.524      2.930      6.599
REMARK INTER + INTRA:         -15.831
REMARK INTER:                 -11.359
REMARK INTRA:                  -4.472
REMARK UNBOUND:                -4.432
REMARK SMILES CCCCCCCCCCCCCCCCCCCCCCCCCCCC(=O)[O-]
REMARK SMILES IDX 15 1 16 2 17 3 18 4 19 5 20 6 21 7 22 8 23 9 24 10 25 11
REMARK SMILES IDX 26 12 27 13 28 14 29 15 30 16 14 17 13 18 12 19 11 20 10 21
REMARK SMILES IDX 9 22 8 23 7 24 6 25 5 26 4 27 3 28 2 29 1 30
REMARK H PARENT
REMARK Flexibility Score: inf
ROOT
ATOM      1  C   UNL     1      47.324   0.501  21.576  1.00  0.00     0.000 C 
ENDROOT
BRANCH   1   2
ATOM      2  C   UNL     1      46.936   1.987  21.694  1.00  0.00     0.000 C 
BRANCH   2   3
ATOM      3  C   UNL     1      46.459   2.645  20.387  1.00  0.00     0.000 C 
BRANCH   3   4
ATOM      4  C   UNL     1      45.037   2.248  19.935  1.00  0.00     0.000 C 
BRANCH   4   5
ATOM      5  C   UNL     1      43.911   3.169  20.435  1.00  0.00     0.000 C 
BRANCH   5   6
ATOM      6  C   UNL     1      42.519   2.720  19.969  1.00  0.00     0.000 C 
BRANCH   6   7
ATOM      7  C   UNL     1      42.623   1.789  18.750  1.00  0.00     0.000 C 
BRANCH   7   8
ATOM      8  C   UNL     1      41.474   0.768  18.690  1.00  0.00     0.000 C 
BRANCH   8   9
ATOM      9  C   UNL     1      41.903  -0.625  19.181  1.00  0.00     0.000 C 
BRANCH   9  10
ATOM     10  C   UNL     1      41.622  -0.836  20.678  1.00  0.00     0.000 C 
BRANCH  10  11
ATOM     11  C   UNL     1      42.877  -0.662  21.551  1.00  0.00     0.000 C 
BRANCH  11  12
ATOM     12  C   UNL     1      42.677   0.364  22.678  1.00  0.00     0.006 C 
BRANCH  12  13
ATOM     13  C   UNL     1      43.965   0.634  23.467  1.00  0.00     0.053 C 
BRANCH  13  14
ATOM     14  C   UNL     1      44.111  -0.355  24.580  1.00  0.00     0.041 C 
ATOM     15  O   UNL     1      43.097  -0.755  25.210  1.00  0.00    -0.550 OA
ATOM     16  O   UNL     1      45.374  -0.795  24.957  1.00  0.00    -0.550 OA
ENDBRANCH  13  14
ENDBRANCH  12  13
ENDBRANCH  11  12
ENDBRANCH  10  11
ENDBRANCH   9  10
ENDBRANCH   8   9
ENDBRANCH   7   8
ENDBRANCH   6   7
ENDBRANCH   5   6
ENDBRANCH   4   5
ENDBRANCH   3   4
ENDBRANCH   2   3
ENDBRANCH   1   2
BRANCH   1  17
ATOM     17  C   UNL     1      48.525   0.237  20.641  1.00  0.00     0.000 C 
BRANCH  17  18
ATOM     18  C   UNL     1      49.780  -0.213  21.409  1.00  0.00     0.000 C 
BRANCH  18  19
ATOM     19  C   UNL     1      50.720  -1.082  20.557  1.00  0.00     0.000 C 
BRANCH  19  20
ATOM     20  C   UNL     1      52.156  -0.532  20.517  1.00  0.00     0.000 C 
BRANCH  20  21
ATOM     21  C   UNL     1      52.727  -0.470  19.090  1.00  0.00     0.000 C 
BRANCH  21  22
ATOM     22  C   UNL     1      51.632  -0.512  18.012  1.00  0.00    -0.000 C 
BRANCH  22  23
ATOM     23  C   UNL     1      51.931   0.487  16.884  1.00  0.00    -0.000 C 
BRANCH  23  24
ATOM     24  C   UNL     1      50.734   1.398  16.553  1.00  0.00    -0.000 C 
BRANCH  24  25
ATOM     25  C   UNL     1      49.704   1.556  17.687  1.00  0.00    -0.000 C 
BRANCH  25  26
ATOM     26  C   UNL     1      49.572   3.004  18.181  1.00  0.00    -0.000 C 
BRANCH  26  27
ATOM     27  C   UNL     1      50.913   3.521  18.722  1.00  0.00    -0.000 C 
BRANCH  27  28
ATOM     28  C   UNL     1      51.232   2.987  20.127  1.00  0.00    -0.000 C 
BRANCH  28  29
ATOM     29  C   UNL     1      50.248   3.498  21.191  1.00  0.00    -0.003 C 
ATOM     30  C   UNL     1      50.844   4.663  21.974  1.00  0.00     0.004 C 
ENDBRANCH  28  29
ENDBRANCH  27  28
ENDBRANCH  26  27
ENDBRANCH  25  26
ENDBRANCH  24  25
ENDBRANCH  23  24
ENDBRANCH  22  23
ENDBRANCH  21  22
ENDBRANCH  20  21
ENDBRANCH  19  20
ENDBRANCH  18  19
ENDBRANCH  17  18
ENDBRANCH   1  17
TORSDOF 26
ENDMDL
MODEL 7
REMARK VINA RESULT:    -4.517      4.273      7.930
REMARK INTER + INTRA:         -15.815
REMARK INTER:                 -11.748
REMARK INTRA:                  -4.067
REMARK UNBOUND:                -4.432
REMARK SMILES CCCCCCCCCCCCCCCCCCCCCCCCCCCC(=O)[O-]
REMARK SMILES IDX 15 1 16 2 17 3 18 4 19 5 20 6 21 7 22 8 23 9 24 10 25 11
REMARK SMILES IDX 26 12 27 13 28 14 29 15 30 16 14 17 13 18 12 19 11 20 10 21
REMARK SMILES IDX 9 22 8 23 7 24 6 25 5 26 4 27 3 28 2 29 1 30
REMARK H PARENT
REMARK Flexibility Score: inf
ROOT
ATOM      1  C   UNL     1      44.609   3.276  24.595  1.00  0.00     0.000 C 
ENDROOT
BRANCH   1   2
ATOM      2  C   UNL     1      43.714   4.211  23.760  1.00  0.00     0.000 C 
BRANCH   2   3
ATOM      3  C   UNL     1      42.639   3.504  22.914  1.00  0.00     0.000 C 
BRANCH   3   4
ATOM      4  C   UNL     1      42.915   3.476  21.396  1.00  0.00     0.000 C 
BRANCH   4   5
ATOM      5  C   UNL     1      44.181   4.225  20.947  1.00  0.00     0.000 C 
BRANCH   5   6
ATOM      6  C   UNL     1      44.896   3.542  19.772  1.00  0.00     0.000 C 
BRANCH   6   7
ATOM      7  C   UNL     1      45.477   2.185  20.198  1.00  0.00     0.000 C 
BRANCH   7   8
ATOM      8  C   UNL     1      46.422   2.302  21.405  1.00  0.00     0.000 C 
BRANCH   8   9
ATOM      9  C   UNL     1      46.830   0.928  21.964  1.00  0.00     0.000 C 
BRANCH   9  10
ATOM     10  C   UNL     1      47.871   0.217  21.083  1.00  0.00     0.000 C 
BRANCH  10  11
ATOM     11  C   UNL     1      49.297   0.308  21.653  1.00  0.00     0.000 C 
BRANCH  11  12
ATOM     12  C   UNL     1      50.369   0.391  20.554  1.00  0.00     0.006 C 
BRANCH  12  13
ATOM     13  C   UNL     1      50.558  -0.937  19.811  1.00  0.00     0.053 C 
BRANCH  13  14
ATOM     14  C   UNL     1      51.904  -0.984  19.161  1.00  0.00     0.041 C 
ATOM     15  O   UNL     1      52.003  -1.162  17.918  1.00  0.00    -0.550 OA
ATOM     16  O   UNL     1      53.054  -0.884  19.935  1.00  0.00    -0.550 OA
ENDBRANCH  13  14
ENDBRANCH  12  13
ENDBRANCH  11  12
ENDBRANCH  10  11
ENDBRANCH   9  10
ENDBRANCH   8   9
ENDBRANCH   7   8
ENDBRANCH   6   7
ENDBRANCH   5   6
ENDBRANCH   4   5
ENDBRANCH   3   4
ENDBRANCH   2   3
ENDBRANCH   1   2
BRANCH   1  17
ATOM     17  C   UNL     1      43.924   2.712  25.859  1.00  0.00     0.000 C 
BRANCH  17  18
ATOM     18  C   UNL     1      43.767   1.182  25.811  1.00  0.00     0.000 C 
BRANCH  18  19
ATOM     19  C   UNL     1      44.761   0.511  24.848  1.00  0.00     0.000 C 
BRANCH  19  20
ATOM     20  C   UNL     1      44.117  -0.625  24.034  1.00  0.00     0.000 C 
BRANCH  20  21
ATOM     21  C   UNL     1      42.904  -0.153  23.216  1.00  0.00     0.000 C 
BRANCH  21  22
ATOM     22  C   UNL     1      43.116  -0.304  21.702  1.00  0.00    -0.000 C 
BRANCH  22  23
ATOM     23  C   UNL     1      41.796  -0.638  20.991  1.00  0.00    -0.000 C 
BRANCH  23  24
ATOM     24  C   UNL     1      41.835  -0.347  19.479  1.00  0.00    -0.000 C 
BRANCH  24  25
ATOM     25  C   UNL     1      42.171   1.108  19.105  1.00  0.00    -0.000 C 
BRANCH  25  26
ATOM     26  C   UNL     1      41.478   1.573  17.816  1.00  0.00    -0.000 C 
BRANCH  26  27
ATOM     27  C   UNL     1      42.493   2.185  16.840  1.00  0.00    -0.000 C 
BRANCH  27  28
ATOM     28  C   UNL     1      42.824   1.251  15.665  1.00  0.00    -0.000 C 
BRANCH  28  29
ATOM     29  C   UNL     1      44.336   1.060  15.470  1.00  0.00    -0.003 C 
ATOM     30  C   UNL     1      45.128   1.926  16.445  1.00  0.00     0.004 C 
ENDBRANCH  28  29
ENDBRANCH  27  28
ENDBRANCH  26  27
ENDBRANCH  25  26
ENDBRANCH  24  25
ENDBRANCH  23  24
ENDBRANCH  22  23
ENDBRANCH  21  22
ENDBRANCH  20  21
ENDBRANCH  19  20
ENDBRANCH  18  19
ENDBRANCH  17  18
ENDBRANCH   1  17
TORSDOF 26
ENDMDL
MODEL 8
REMARK VINA RESULT:    -4.515      3.860      6.599
REMARK INTER + INTRA:         -15.811
REMARK INTER:                 -12.235
REMARK INTRA:                  -3.575
REMARK UNBOUND:                -4.432
REMARK SMILES CCCCCCCCCCCCCCCCCCCCCCCCCCCC(=O)[O-]
REMARK SMILES IDX 15 1 16 2 17 3 18 4 19 5 20 6 21 7 22 8 23 9 24 10 25 11
REMARK SMILES IDX 26 12 27 13 28 14 29 15 30 16 14 17 13 18 12 19 11 20 10 21
REMARK SMILES IDX 9 22 8 23 7 24 6 25 5 26 4 27 3 28 2 29 1 30
REMARK H PARENT
REMARK Flexibility Score: inf
ROOT
ATOM      1  C   UNL     1      44.876   1.066  25.082  1.00  0.00     0.000 C 
ENDROOT
BRANCH   1   2
ATOM      2  C   UNL     1      44.840  -0.258  24.295  1.00  0.00     0.000 C 
BRANCH   2   3
ATOM      3  C   UNL     1      43.486  -0.595  23.645  1.00  0.00     0.000 C 
BRANCH   3   4
ATOM      4  C   UNL     1      43.490  -0.631  22.102  1.00  0.00     0.000 C 
BRANCH   4   5
ATOM      5  C   UNL     1      42.234  -0.048  21.431  1.00  0.00     0.000 C 
BRANCH   5   6
ATOM      6  C   UNL     1      41.540  -1.046  20.493  1.00  0.00     0.000 C 
BRANCH   6   7
ATOM      7  C   UNL     1      41.495  -0.506  19.055  1.00  0.00     0.000 C 
BRANCH   7   8
ATOM      8  C   UNL     1      42.375   0.741  18.867  1.00  0.00     0.000 C 
BRANCH   8   9
ATOM      9  C   UNL     1      41.634   1.876  18.140  1.00  0.00     0.000 C 
BRANCH   9  10
ATOM     10  C   UNL     1      41.998   1.961  16.649  1.00  0.00     0.000 C 
BRANCH  10  11
ATOM     11  C   UNL     1      43.245   2.824  16.388  1.00  0.00     0.000 C 
BRANCH  11  12
ATOM     12  C   UNL     1      44.492   1.983  16.073  1.00  0.00     0.006 C 
BRANCH  12  13
ATOM     13  C   UNL     1      44.147   0.557  15.627  1.00  0.00     0.053 C 
BRANCH  13  14
ATOM     14  C   UNL     1      44.259   0.433  14.141  1.00  0.00     0.041 C 
ATOM     15  O   UNL     1      43.566   1.168  13.389  1.00  0.00    -0.550 OA
ATOM     16  O   UNL     1      45.091  -0.531  13.585  1.00  0.00    -0.550 OA
ENDBRANCH  13  14
ENDBRANCH  12  13
ENDBRANCH  11  12
ENDBRANCH  10  11
ENDBRANCH   9  10
ENDBRANCH   8   9
ENDBRANCH   7   8
ENDBRANCH   6   7
ENDBRANCH   5   6
ENDBRANCH   4   5
ENDBRANCH   3   4
ENDBRANCH   2   3
ENDBRANCH   1   2
BRANCH   1  17
ATOM     17  C   UNL     1      43.550   1.857  25.044  1.00  0.00     0.000 C 
BRANCH  17  18
ATOM     18  C   UNL     1      43.624   3.086  24.121  1.00  0.00     0.000 C 
BRANCH  18  19
ATOM     19  C   UNL     1      45.033   3.699  24.056  1.00  0.00     0.000 C 
BRANCH  19  20
ATOM     20  C   UNL     1      45.533   3.874  22.612  1.00  0.00     0.000 C 
BRANCH  20  21
ATOM     21  C   UNL     1      44.534   3.340  21.571  1.00  0.00     0.000 C 
BRANCH  21  22
ATOM     22  C   UNL     1      45.134   2.238  20.685  1.00  0.00    -0.000 C 
BRANCH  22  23
ATOM     23  C   UNL     1      46.635   2.063  20.963  1.00  0.00    -0.000 C 
BRANCH  23  24
ATOM     24  C   UNL     1      46.968   0.723  21.647  1.00  0.00    -0.000 C 
BRANCH  24  25
ATOM     25  C   UNL     1      48.406   0.219  21.425  1.00  0.00    -0.000 C 
BRANCH  25  26
ATOM     26  C   UNL     1      49.398   1.350  21.115  1.00  0.00    -0.000 C 
BRANCH  26  27
ATOM     27  C   UNL     1      50.605   0.817  20.329  1.00  0.00    -0.000 C 
BRANCH  27  28
ATOM     28  C   UNL     1      51.051  -0.576  20.798  1.00  0.00    -0.000 C 
BRANCH  28  29
ATOM     29  C   UNL     1      51.916  -1.302  19.757  1.00  0.00    -0.003 C 
ATOM     30  C   UNL     1      51.484  -0.941  18.338  1.00  0.00     0.004 C 
ENDBRANCH  28  29
ENDBRANCH  27  28
ENDBRANCH  26  27
ENDBRANCH  25  26
ENDBRANCH  24  25
ENDBRANCH  23  24
ENDBRANCH  22  23
ENDBRANCH  21  22
ENDBRANCH  20  21
ENDBRANCH  19  20
ENDBRANCH  18  19
ENDBRANCH  17  18
ENDBRANCH   1  17
TORSDOF 26
ENDMDL
MODEL 9
REMARK VINA RESULT:    -4.481      1.019      2.076
REMARK INTER + INTRA:         -15.724
REMARK INTER:                 -11.998
REMARK INTRA:                  -3.726
REMARK UNBOUND:                -4.432
REMARK SMILES CCCCCCCCCCCCCCCCCCCCCCCCCCCC(=O)[O-]
REMARK SMILES IDX 15 1 16 2 17 3 18 4 19 5 20 6 21 7 22 8 23 9 24 10 25 11
REMARK SMILES IDX 26 12 27 13 28 14 29 15 30 16 14 17 13 18 12 19 11 20 10 21
REMARK SMILES IDX 9 22 8 23 7 24 6 25 5 26 4 27 3 28 2 29 1 30
REMARK H PARENT
REMARK Flexibility Score: inf
ROOT
ATOM      1  C   UNL     1      41.617  -0.978  20.471  1.00  0.00     0.000 C 
ENDROOT
BRANCH   1   2
ATOM      2  C   UNL     1      42.242  -0.021  21.504  1.00  0.00     0.000 C 
BRANCH   2   3
ATOM      3  C   UNL     1      43.367  -0.630  22.361  1.00  0.00     0.000 C 
BRANCH   3   4
ATOM      4  C   UNL     1      43.087  -0.670  23.878  1.00  0.00     0.000 C 
BRANCH   4   5
ATOM      5  C   UNL     1      44.321  -0.905  24.765  1.00  0.00     0.000 C 
BRANCH   5   6
ATOM      6  C   UNL     1      45.282   0.293  24.784  1.00  0.00     0.000 C 
BRANCH   6   7
ATOM      7  C   UNL     1      44.576   1.553  25.308  1.00  0.00     0.000 C 
BRANCH   7   8
ATOM      8  C   UNL     1      44.856   2.790  24.439  1.00  0.00     0.000 C 
BRANCH   8   9
ATOM      9  C   UNL     1      43.648   3.181  23.571  1.00  0.00     0.000 C 
BRANCH   9  10
ATOM     10  C   UNL     1      42.306   2.930  24.278  1.00  0.00     0.000 C 
BRANCH  10  11
ATOM     11  C   UNL     1      41.120   2.857  23.299  1.00  0.00     0.000 C 
BRANCH  11  12
ATOM     12  C   UNL     1      39.924   3.710  23.754  1.00  0.00     0.006 C 
BRANCH  12  13
ATOM     13  C   UNL     1      40.352   5.050  24.366  1.00  0.00     0.053 C 
BRANCH  13  14
ATOM     14  C   UNL     1      39.724   5.233  25.711  1.00  0.00     0.041 C 
ATOM     15  O   UNL     1      38.482   5.418  25.811  1.00  0.00    -0.550 OA
ATOM     16  O   UNL     1      40.517   5.254  26.851  1.00  0.00    -0.550 OA
ENDBRANCH  13  14
ENDBRANCH  12  13
ENDBRANCH  11  12
ENDBRANCH  10  11
ENDBRANCH   9  10
ENDBRANCH   8   9
ENDBRANCH   7   8
ENDBRANCH   6   7
ENDBRANCH   5   6
ENDBRANCH   4   5
ENDBRANCH   3   4
ENDBRANCH   2   3
ENDBRANCH   1   2
BRANCH   1  17
ATOM     17  C   UNL     1      41.894  -0.587  19.003  1.00  0.00     0.000 C 
BRANCH  17  18
ATOM     18  C   UNL     1      41.234   0.748  18.615  1.00  0.00     0.000 C 
BRANCH  18  19
ATOM     19  C   UNL     1      42.254   1.884  18.427  1.00  0.00     0.000 C 
BRANCH  19  20
ATOM     20  C   UNL     1      42.349   2.800  19.660  1.00  0.00     0.000 C 
BRANCH  20  21
ATOM     21  C   UNL     1      43.800   3.148  20.029  1.00  0.00     0.000 C 
BRANCH  21  22
ATOM     22  C   UNL     1      44.762   1.967  19.827  1.00  0.00    -0.000 C 
BRANCH  22  23
ATOM     23  C   UNL     1      46.209   2.374  20.142  1.00  0.00    -0.000 C 
BRANCH  23  24
ATOM     24  C   UNL     1      46.669   1.928  21.543  1.00  0.00    -0.000 C 
BRANCH  24  25
ATOM     25  C   UNL     1      48.167   1.594  21.661  1.00  0.00    -0.000 C 
BRANCH  25  26
ATOM     26  C   UNL     1      48.721   0.870  20.425  1.00  0.00    -0.000 C 
BRANCH  26  27
ATOM     27  C   UNL     1      49.441  -0.425  20.826  1.00  0.00    -0.000 C 
BRANCH  27  28
ATOM     28  C   UNL     1      50.509  -0.851  19.807  1.00  0.00    -0.000 C 
BRANCH  28  29
ATOM     29  C   UNL     1      51.934  -0.765  20.374  1.00  0.00    -0.003 C 
ATOM     30  C   UNL     1      52.670   0.454  19.826  1.00  0.00     0.004 C 
ENDBRANCH  28  29
ENDBRANCH  27  28
ENDBRANCH  26  27
ENDBRANCH  25  26
ENDBRANCH  24  25
ENDBRANCH  23  24
ENDBRANCH  22  23
ENDBRANCH  21  22
ENDBRANCH  20  21
ENDBRANCH  19  20
ENDBRANCH  18  19
ENDBRANCH  17  18
ENDBRANCH   1  17
TORSDOF 26
ENDMDL
