MODEL 1
REMARK VINA RESULT:    -3.836      0.000      0.000
REMARK INTER + INTRA:          -5.413
REMARK INTER:                  -4.957
REMARK INTRA:                  -0.456
REMARK UNBOUND:                -0.456
REMARK SMILES CCO[C@@H]1O[C@@H](CO)[C@H](O)[C@@H](O)[C@@H]1O
REMARK SMILES IDX 4 1 13 2 11 3 9 4 6 5 5 6 3 7 2 8 1 9 14 10 12 12 7 14 8 15
REMARK SMILES IDX 10 17
REMARK H PARENT 14 11 12 13 8 16 10 18
REMARK Flexibility Score: inf
ROOT
ATOM      1  C   UNL     1     -18.707  -7.585  17.235  1.00  0.00     0.281 C 
ATOM      2  C   UNL     1     -19.013  -6.246  16.537  1.00  0.00     0.202 C 
ATOM      3  C   UNL     1     -18.226  -5.098  17.192  1.00  0.00     0.179 C 
ATOM      4  C   UNL     1     -16.736  -5.471  17.271  1.00  0.00     0.177 C 
ATOM      5  C   UNL     1     -16.579  -6.862  17.935  1.00  0.00     0.178 C 
ATOM      6  O   UNL     1     -17.310  -7.846  17.217  1.00  0.00    -0.341 OA
ENDROOT
BRANCH   1   7
ATOM      7  O   UNL     1     -19.216  -7.586  18.561  1.00  0.00    -0.350 OA
BRANCH   7   8
ATOM      8  C   UNL     1     -19.842  -8.818  18.867  1.00  0.00     0.160 C 
ATOM      9  C   UNL     1     -20.533  -9.378  17.629  1.00  0.00     0.035 C 
ENDBRANCH   7   8
ENDBRANCH   1   7
BRANCH   2  10
ATOM     10  O   UNL     1     -20.395  -5.981  16.527  1.00  0.00    -0.385 OA
ATOM     11  H   UNL     1     -20.850  -6.709  17.025  1.00  0.00     0.211 HD
ENDBRANCH   2  10
BRANCH   3  12
ATOM     12  O   UNL     1     -18.392  -3.931  16.428  1.00  0.00    -0.387 OA
ATOM     13  H   UNL     1     -17.483  -3.611  16.190  1.00  0.00     0.211 HD
ENDBRANCH   3  12
BRANCH   5  14
ATOM     14  C   UNL     1     -15.107  -7.308  17.968  1.00  0.00     0.191 C 
BRANCH  14  15
ATOM     15  O   UNL     1     -14.373  -6.720  16.926  1.00  0.00    -0.394 OA
ATOM     16  H   UNL     1     -15.005  -6.142  16.423  1.00  0.00     0.210 HD
ENDBRANCH  14  15
ENDBRANCH   5  14
BRANCH   4  17
ATOM     17  O   UNL     1     -16.066  -4.492  18.026  1.00  0.00    -0.387 OA
ATOM     18  H   UNL     1     -16.572  -4.377  18.873  1.00  0.00     0.211 HD
ENDBRANCH   4  17
TORSDOF 7
ENDMDL
MODEL 2
REMARK VINA RESULT:    -3.610      1.250      4.120
REMARK INTER + INTRA:          -5.121
REMARK INTER:                  -4.781
REMARK INTRA:                  -0.340
REMARK UNBOUND:                -0.456
REMARK SMILES CCO[C@@H]1O[C@@H](CO)[C@H](O)[C@@H](O)[C@@H]1O
REMARK SMILES IDX 4 1 13 2 11 3 9 4 6 5 5 6 3 7 2 8 1 9 14 10 12 12 7 14 8 15
REMARK SMILES IDX 10 17
REMARK H PARENT 14 11 12 13 8 16 10 18
REMARK Flexibility Score: inf
ROOT
ATOM      1  C   UNL     1     -16.176  -6.805  18.203  1.00  0.00     0.281 C 
ATOM      2  C   UNL     1     -16.677  -5.359  18.024  1.00  0.00     0.202 C 
ATOM      3  C   UNL     1     -17.783  -5.295  16.956  1.00  0.00     0.179 C 
ATOM      4  C   UNL     1     -18.872  -6.332  17.276  1.00  0.00     0.177 C 
ATOM      5  C   UNL     1     -18.225  -7.723  17.494  1.00  0.00     0.178 C 
ATOM      6  O   UNL     1     -17.256  -7.668  18.532  1.00  0.00    -0.341 OA
ENDROOT
BRANCH   1   7
ATOM      7  O   UNL     1     -15.497  -7.248  17.037  1.00  0.00    -0.350 OA
BRANCH   7   8
ATOM      8  C   UNL     1     -14.228  -7.787  17.358  1.00  0.00     0.160 C 
ATOM      9  C   UNL     1     -13.511  -8.231  16.089  1.00  0.00     0.035 C 
ENDBRANCH   7   8
ENDBRANCH   1   7
BRANCH   2  10
ATOM     10  O   UNL     1     -15.617  -4.487  17.718  1.00  0.00    -0.385 OA
ATOM     11  H   UNL     1     -14.772  -5.007  17.754  1.00  0.00     0.211 HD
ENDBRANCH   2  10
BRANCH   3  12
ATOM     12  O   UNL     1     -18.335  -4.004  16.942  1.00  0.00    -0.387 OA
ATOM     13  H   UNL     1     -17.860  -3.495  16.234  1.00  0.00     0.211 HD
ENDBRANCH   3  12
BRANCH   5  14
ATOM     14  C   UNL     1     -19.273  -8.777  17.890  1.00  0.00     0.191 C 
BRANCH  14  15
ATOM     15  O   UNL     1     -20.219  -8.963  16.871  1.00  0.00    -0.394 OA
ATOM     16  H   UNL     1     -21.001  -8.398  17.101  1.00  0.00     0.210 HD
ENDBRANCH  14  15
ENDBRANCH   5  14
BRANCH   4  17
ATOM     17  O   UNL     1     -19.779  -6.380  16.202  1.00  0.00    -0.387 OA
ATOM     18  H   UNL     1     -20.686  -6.234  16.576  1.00  0.00     0.211 HD
ENDBRANCH   4  17
TORSDOF 7
ENDMDL
MODEL 3
REMARK VINA RESULT:    -3.557      1.549      3.804
REMARK INTER + INTRA:          -5.053
REMARK INTER:                  -4.688
REMARK INTRA:                  -0.366
REMARK UNBOUND:                -0.456
REMARK SMILES CCO[C@@H]1O[C@@H](CO)[C@H](O)[C@@H](O)[C@@H]1O
REMARK SMILES IDX 4 1 13 2 11 3 9 4 6 5 5 6 3 7 2 8 1 9 14 10 12 12 7 14 8 15
REMARK SMILES IDX 10 17
REMARK H PARENT 14 11 12 13 8 16 10 18
REMARK Flexibility Score: inf
ROOT
ATOM      1  C   UNL     1     -17.320  -7.723  18.117  1.00  0.00     0.281 C 
ATOM      2  C   UNL     1     -16.329  -6.586  18.432  1.00  0.00     0.202 C 
ATOM      3  C   UNL     1     -16.537  -5.401  17.473  1.00  0.00     0.179 C 
ATOM      4  C   UNL     1     -18.020  -4.995  17.466  1.00  0.00     0.177 C 
ATOM      5  C   UNL     1     -18.904  -6.240  17.201  1.00  0.00     0.178 C 
ATOM      6  O   UNL     1     -18.658  -7.246  18.174  1.00  0.00    -0.341 OA
ENDROOT
BRANCH   1   7
ATOM      7  O   UNL     1     -17.032  -8.301  16.852  1.00  0.00    -0.350 OA
BRANCH   7   8
ATOM      8  C   UNL     1     -16.644  -9.656  16.987  1.00  0.00     0.160 C 
ATOM      9  C   UNL     1     -15.717 -10.052  15.844  1.00  0.00     0.035 C 
ENDBRANCH   7   8
ENDBRANCH   1   7
BRANCH   2  10
ATOM     10  O   UNL     1     -15.000  -7.045  18.400  1.00  0.00    -0.385 OA
ATOM     11  H   UNL     1     -14.800  -7.339  17.473  1.00  0.00     0.211 HD
ENDBRANCH   2  10
BRANCH   3  12
ATOM     12  O   UNL     1     -15.743  -4.321  17.895  1.00  0.00    -0.387 OA
ATOM     13  H   UNL     1     -16.328  -3.728  18.435  1.00  0.00     0.211 HD
ENDBRANCH   3  12
BRANCH   5  14
ATOM     14  C   UNL     1     -20.401  -5.892  17.259  1.00  0.00     0.191 C 
BRANCH  14  15
ATOM     15  O   UNL     1     -20.620  -4.699  17.963  1.00  0.00    -0.394 OA
ATOM     16  H   UNL     1     -20.020  -4.720  18.754  1.00  0.00     0.210 HD
ENDBRANCH  14  15
ENDBRANCH   5  14
BRANCH   4  17
ATOM     17  O   UNL     1     -18.220  -4.033  16.459  1.00  0.00    -0.387 OA
ATOM     18  H   UNL     1     -17.604  -3.278  16.648  1.00  0.00     0.211 HD
ENDBRANCH   4  17
TORSDOF 7
ENDMDL
MODEL 4
REMARK VINA RESULT:    -3.402      1.907      3.525
REMARK INTER + INTRA:          -4.853
REMARK INTER:                  -4.634
REMARK INTRA:                  -0.219
REMARK UNBOUND:                -0.456
REMARK SMILES CCO[C@@H]1O[C@@H](CO)[C@H](O)[C@@H](O)[C@@H]1O
REMARK SMILES IDX 4 1 13 2 11 3 9 4 6 5 5 6 3 7 2 8 1 9 14 10 12 12 7 14 8 15
REMARK SMILES IDX 10 17
REMARK H PARENT 14 11 12 13 8 16 10 18
REMARK Flexibility Score: inf
ROOT
ATOM      1  C   UNL     1     -19.887  -5.885  16.898  1.00  0.00     0.281 C 
ATOM      2  C   UNL     1     -18.484  -5.486  16.401  1.00  0.00     0.202 C 
ATOM      3  C   UNL     1     -17.394  -6.216  17.204  1.00  0.00     0.179 C 
ATOM      4  C   UNL     1     -17.681  -7.727  17.212  1.00  0.00     0.177 C 
ATOM      5  C   UNL     1     -19.140  -7.981  17.669  1.00  0.00     0.178 C 
ATOM      6  O   UNL     1     -20.056  -7.295  16.827  1.00  0.00    -0.341 OA
ENDROOT
BRANCH   1   7
ATOM      7  O   UNL     1     -20.107  -5.405  18.216  1.00  0.00    -0.350 OA
BRANCH   7   8
ATOM      8  C   UNL     1     -21.426  -4.913  18.366  1.00  0.00     0.160 C 
ATOM      9  C   UNL     1     -22.279  -5.922  19.125  1.00  0.00     0.035 C 
ENDBRANCH   7   8
ENDBRANCH   1   7
BRANCH   2  10
ATOM     10  O   UNL     1     -18.307  -4.091  16.445  1.00  0.00    -0.385 OA
ATOM     11  H   UNL     1     -18.101  -3.837  17.382  1.00  0.00     0.211 HD
ENDBRANCH   2  10
BRANCH   3  12
ATOM     12  O   UNL     1     -16.143  -5.965  16.616  1.00  0.00    -0.387 OA
ATOM     13  H   UNL     1     -15.455  -6.292  17.253  1.00  0.00     0.211 HD
ENDBRANCH   3  12
BRANCH   5  14
ATOM     14  C   UNL     1     -19.493  -9.477  17.620  1.00  0.00     0.191 C 
BRANCH  14  15
ATOM     15  O   UNL     1     -20.558  -9.722  16.741  1.00  0.00    -0.394 OA
ATOM     16  H   UNL     1     -20.962 -10.586  17.016  1.00  0.00     0.210 HD
ENDBRANCH  14  15
ENDBRANCH   5  14
BRANCH   4  17
ATOM     17  O   UNL     1     -16.779  -8.352  18.091  1.00  0.00    -0.387 OA
ATOM     18  H   UNL     1     -16.882  -7.916  18.977  1.00  0.00     0.211 HD
ENDBRANCH   4  17
TORSDOF 7
ENDMDL
MODEL 5
REMARK VINA RESULT:    -3.336      1.757      4.740
REMARK INTER + INTRA:          -4.768
REMARK INTER:                  -4.428
REMARK INTRA:                  -0.340
REMARK UNBOUND:                -0.456
REMARK SMILES CCO[C@@H]1O[C@@H](CO)[C@H](O)[C@@H](O)[C@@H]1O
REMARK SMILES IDX 4 1 13 2 11 3 9 4 6 5 5 6 3 7 2 8 1 9 14 10 12 12 7 14 8 15
REMARK SMILES IDX 10 17
REMARK H PARENT 14 11 12 13 8 16 10 18
REMARK Flexibility Score: inf
ROOT
ATOM      1  C   UNL     1     -15.627  -6.450  17.459  1.00  0.00     0.281 C 
ATOM      2  C   UNL     1     -16.036  -7.933  17.385  1.00  0.00     0.202 C 
ATOM      3  C   UNL     1     -17.497  -8.118  17.829  1.00  0.00     0.179 C 
ATOM      4  C   UNL     1     -18.402  -7.149  17.048  1.00  0.00     0.177 C 
ATOM      5  C   UNL     1     -17.841  -5.708  17.154  1.00  0.00     0.178 C 
ATOM      6  O   UNL     1     -16.505  -5.653  16.674  1.00  0.00    -0.341 OA
ENDROOT
BRANCH   1   7
ATOM      7  O   UNL     1     -15.593  -6.006  18.807  1.00  0.00    -0.350 OA
BRANCH   7   8
ATOM      8  C   UNL     1     -14.830  -4.820  18.936  1.00  0.00     0.160 C 
ATOM      9  C   UNL     1     -13.451  -5.015  18.319  1.00  0.00     0.035 C 
ENDBRANCH   7   8
ENDBRANCH   1   7
BRANCH   2  10
ATOM     10  O   UNL     1     -15.165  -8.740  18.140  1.00  0.00    -0.385 OA
ATOM     11  H   UNL     1     -15.698  -9.189  18.846  1.00  0.00     0.211 HD
ENDBRANCH   2  10
BRANCH   3  12
ATOM     12  O   UNL     1     -17.889  -9.445  17.586  1.00  0.00    -0.387 OA
ATOM     13  H   UNL     1     -17.687  -9.960  18.410  1.00  0.00     0.211 HD
ENDBRANCH   3  12
BRANCH   5  14
ATOM     14  C   UNL     1     -18.675  -4.717  16.326  1.00  0.00     0.191 C 
BRANCH  14  15
ATOM     15  O   UNL     1     -19.066  -5.278  15.101  1.00  0.00    -0.394 OA
ATOM     16  H   UNL     1     -18.324  -5.870  14.809  1.00  0.00     0.210 HD
ENDBRANCH  14  15
ENDBRANCH   5  14
BRANCH   4  17
ATOM     17  O   UNL     1     -19.698  -7.208  17.590  1.00  0.00    -0.387 OA
ATOM     18  H   UNL     1     -20.328  -6.931  16.874  1.00  0.00     0.211 HD
ENDBRANCH   4  17
TORSDOF 7
ENDMDL
MODEL 6
REMARK VINA RESULT:    -3.275      1.804      3.809
REMARK INTER + INTRA:          -4.689
REMARK INTER:                  -4.279
REMARK INTRA:                  -0.410
REMARK UNBOUND:                -0.456
REMARK SMILES CCO[C@@H]1O[C@@H](CO)[C@H](O)[C@@H](O)[C@@H]1O
REMARK SMILES IDX 4 1 13 2 11 3 9 4 6 5 5 6 3 7 2 8 1 9 14 10 12 12 7 14 8 15
REMARK SMILES IDX 10 17
REMARK H PARENT 14 11 12 13 8 16 10 18
REMARK Flexibility Score: inf
ROOT
ATOM      1  C   UNL     1     -19.711  -8.182  18.324  1.00  0.00     0.281 C 
ATOM      2  C   UNL     1     -18.305  -7.816  17.810  1.00  0.00     0.202 C 
ATOM      3  C   UNL     1     -18.362  -6.565  16.916  1.00  0.00     0.179 C 
ATOM      4  C   UNL     1     -19.106  -5.437  17.650  1.00  0.00     0.177 C 
ATOM      5  C   UNL     1     -20.470  -5.959  18.167  1.00  0.00     0.178 C 
ATOM      6  O   UNL     1     -20.288  -7.083  19.017  1.00  0.00    -0.341 OA
ENDROOT
BRANCH   1   7
ATOM      7  O   UNL     1     -20.539  -8.611  17.254  1.00  0.00    -0.350 OA
BRANCH   7   8
ATOM      8  C   UNL     1     -21.125  -9.869  17.534  1.00  0.00     0.160 C 
ATOM      9  C   UNL     1     -22.534  -9.681  18.083  1.00  0.00     0.035 C 
ENDBRANCH   7   8
ENDBRANCH   1   7
BRANCH   2  10
ATOM     10  O   UNL     1     -17.710  -8.900  17.140  1.00  0.00    -0.385 OA
ATOM     11  H   UNL     1     -16.920  -9.189  17.666  1.00  0.00     0.211 HD
ENDBRANCH   2  10
BRANCH   3  12
ATOM     12  O   UNL     1     -17.052  -6.159  16.608  1.00  0.00    -0.387 OA
ATOM     13  H   UNL     1     -17.042  -5.930  15.642  1.00  0.00     0.211 HD
ENDBRANCH   3  12
BRANCH   5  14
ATOM     14  C   UNL     1     -21.217  -4.882  18.972  1.00  0.00     0.191 C 
BRANCH  14  15
ATOM     15  O   UNL     1     -22.005  -4.076  18.137  1.00  0.00    -0.394 OA
ATOM     16  H   UNL     1     -21.461  -3.274  17.920  1.00  0.00     0.210 HD
ENDBRANCH  14  15
ENDBRANCH   5  14
BRANCH   4  17
ATOM     17  O   UNL     1     -19.300  -4.369  16.755  1.00  0.00    -0.387 OA
ATOM     18  H   UNL     1     -19.358  -3.539  17.297  1.00  0.00     0.211 HD
ENDBRANCH   4  17
TORSDOF 7
ENDMDL
MODEL 7
REMARK VINA RESULT:    -3.268      1.775      2.556
REMARK INTER + INTRA:          -4.679
REMARK INTER:                  -4.272
REMARK INTRA:                  -0.407
REMARK UNBOUND:                -0.456
REMARK SMILES CCO[C@@H]1O[C@@H](CO)[C@H](O)[C@@H](O)[C@@H]1O
REMARK SMILES IDX 4 1 13 2 11 3 9 4 6 5 5 6 3 7 2 8 1 9 14 10 12 12 7 14 8 15
REMARK SMILES IDX 10 17
REMARK H PARENT 14 11 12 13 8 16 10 18
REMARK Flexibility Score: inf
ROOT
ATOM      1  C   UNL     1     -19.141  -6.333  16.820  1.00  0.00     0.281 C 
ATOM      2  C   UNL     1     -18.035  -5.269  16.683  1.00  0.00     0.202 C 
ATOM      3  C   UNL     1     -17.028  -5.378  17.840  1.00  0.00     0.179 C 
ATOM      4  C   UNL     1     -16.531  -6.829  17.960  1.00  0.00     0.177 C 
ATOM      5  C   UNL     1     -17.742  -7.794  18.025  1.00  0.00     0.178 C 
ATOM      6  O   UNL     1     -18.573  -7.634  16.884  1.00  0.00    -0.341 OA
ENDROOT
BRANCH   1   7
ATOM      7  O   UNL     1     -19.952  -6.067  17.955  1.00  0.00    -0.350 OA
BRANCH   7   8
ATOM      8  C   UNL     1     -21.319  -5.974  17.595  1.00  0.00     0.160 C 
ATOM      9  C   UNL     1     -22.001  -4.881  18.408  1.00  0.00     0.035 C 
ENDBRANCH   7   8
ENDBRANCH   1   7
BRANCH   2  10
ATOM     10  O   UNL     1     -18.580  -3.975  16.597  1.00  0.00    -0.385 OA
ATOM     11  H   UNL     1     -18.708  -3.760  15.637  1.00  0.00     0.211 HD
ENDBRANCH   2  10
BRANCH   3  12
ATOM     12  O   UNL     1     -15.946  -4.517  17.593  1.00  0.00    -0.387 OA
ATOM     13  H   UNL     1     -15.265  -4.701  18.291  1.00  0.00     0.211 HD
ENDBRANCH   3  12
BRANCH   5  14
ATOM     14  C   UNL     1     -17.290  -9.263  18.071  1.00  0.00     0.191 C 
BRANCH  14  15
ATOM     15  O   UNL     1     -16.005  -9.419  17.529  1.00  0.00    -0.394 OA
ATOM     16  H   UNL     1     -16.098  -9.324  16.545  1.00  0.00     0.210 HD
ENDBRANCH  14  15
ENDBRANCH   5  14
BRANCH   4  17
ATOM     17  O   UNL     1     -15.752  -6.944  19.125  1.00  0.00    -0.387 OA
ATOM     18  H   UNL     1     -14.881  -6.504  18.941  1.00  0.00     0.211 HD
ENDBRANCH   4  17
TORSDOF 7
ENDMDL
MODEL 8
REMARK VINA RESULT:    -3.232      1.839      3.676
REMARK INTER + INTRA:          -4.634
REMARK INTER:                  -4.398
REMARK INTRA:                  -0.236
REMARK UNBOUND:                -0.456
REMARK SMILES CCO[C@@H]1O[C@@H](CO)[C@H](O)[C@@H](O)[C@@H]1O
REMARK SMILES IDX 4 1 13 2 11 3 9 4 6 5 5 6 3 7 2 8 1 9 14 10 12 12 7 14 8 15
REMARK SMILES IDX 10 17
REMARK H PARENT 14 11 12 13 8 16 10 18
REMARK Flexibility Score: inf
ROOT
ATOM      1  C   UNL     1     -20.768  -6.958  18.132  1.00  0.00     0.281 C 
ATOM      2  C   UNL     1     -19.909  -8.150  18.596  1.00  0.00     0.202 C 
ATOM      3  C   UNL     1     -18.697  -8.342  17.669  1.00  0.00     0.179 C 
ATOM      4  C   UNL     1     -17.943  -7.010  17.519  1.00  0.00     0.177 C 
ATOM      5  C   UNL     1     -18.934  -5.890  17.113  1.00  0.00     0.178 C 
ATOM      6  O   UNL     1     -19.981  -5.776  18.066  1.00  0.00    -0.341 OA
ENDROOT
BRANCH   1   7
ATOM      7  O   UNL     1     -21.383  -7.240  16.884  1.00  0.00    -0.350 OA
BRANCH   7   8
ATOM      8  C   UNL     1     -22.727  -6.796  16.865  1.00  0.00     0.160 C 
ATOM      9  C   UNL     1     -23.624  -7.812  17.562  1.00  0.00     0.035 C 
ENDBRANCH   7   8
ENDBRANCH   1   7
BRANCH   2  10
ATOM     10  O   UNL     1     -20.677  -9.325  18.688  1.00  0.00    -0.385 OA
ATOM     11  H   UNL     1     -20.072 -10.067  18.947  1.00  0.00     0.211 HD
ENDBRANCH   2  10
BRANCH   3  12
ATOM     12  O   UNL     1     -17.848  -9.319  18.216  1.00  0.00    -0.387 OA
ATOM     13  H   UNL     1     -18.100 -10.184  17.800  1.00  0.00     0.211 HD
ENDBRANCH   3  12
BRANCH   5  14
ATOM     14  C   UNL     1     -18.233  -4.523  17.024  1.00  0.00     0.191 C 
BRANCH  14  15
ATOM     15  O   UNL     1     -18.651  -3.809  15.891  1.00  0.00    -0.394 OA
ATOM     16  H   UNL     1     -17.982  -3.090  15.745  1.00  0.00     0.210 HD
ENDBRANCH  14  15
ENDBRANCH   5  14
BRANCH   4  17
ATOM     17  O   UNL     1     -16.950  -7.163  16.536  1.00  0.00    -0.387 OA
ATOM     18  H   UNL     1     -16.584  -6.260  16.345  1.00  0.00     0.211 HD
ENDBRANCH   4  17
TORSDOF 7
ENDMDL
MODEL 9
REMARK VINA RESULT:    -3.190      1.800      4.359
REMARK INTER + INTRA:          -4.579
REMARK INTER:                  -4.160
REMARK INTRA:                  -0.419
REMARK UNBOUND:                -0.456
REMARK SMILES CCO[C@@H]1O[C@@H](CO)[C@H](O)[C@@H](O)[C@@H]1O
REMARK SMILES IDX 4 1 13 2 11 3 9 4 6 5 5 6 3 7 2 8 1 9 14 10 12 12 7 14 8 15
REMARK SMILES IDX 10 17
REMARK H PARENT 14 11 12 13 8 16 10 18
REMARK Flexibility Score: inf
ROOT
ATOM      1  C   UNL     1     -18.216  -6.926  18.227  1.00  0.00     0.281 C 
ATOM      2  C   UNL     1     -19.068  -5.691  18.574  1.00  0.00     0.202 C 
ATOM      3  C   UNL     1     -20.252  -5.555  17.602  1.00  0.00     0.179 C 
ATOM      4  C   UNL     1     -21.022  -6.884  17.534  1.00  0.00     0.177 C 
ATOM      5  C   UNL     1     -20.038  -8.045  17.242  1.00  0.00     0.178 C 
ATOM      6  O   UNL     1     -19.018  -8.100  18.230  1.00  0.00    -0.341 OA
ENDROOT
BRANCH   1   7
ATOM      7  O   UNL     1     -17.564  -6.749  16.978  1.00  0.00    -0.350 OA
BRANCH   7   8
ATOM      8  C   UNL     1     -16.163  -6.916  17.105  1.00  0.00     0.160 C 
ATOM      9  C   UNL     1     -15.777  -8.359  16.800  1.00  0.00     0.035 C 
ENDBRANCH   7   8
ENDBRANCH   1   7
BRANCH   2  10
ATOM     10  O   UNL     1     -18.285  -4.522  18.597  1.00  0.00    -0.385 OA
ATOM     11  H   UNL     1     -18.273  -4.179  19.528  1.00  0.00     0.211 HD
ENDBRANCH   2  10
BRANCH   3  12
ATOM     12  O   UNL     1     -21.100  -4.528  18.049  1.00  0.00    -0.387 OA
ATOM     13  H   UNL     1     -20.919  -3.736  17.478  1.00  0.00     0.211 HD
ENDBRANCH   3  12
BRANCH   5  14
ATOM     14  C   UNL     1     -20.757  -9.406  17.239  1.00  0.00     0.191 C 
BRANCH  14  15
ATOM     15  O   UNL     1     -22.005  -9.324  17.874  1.00  0.00    -0.394 OA
ATOM     16  H   UNL     1     -21.972  -9.945  18.648  1.00  0.00     0.210 HD
ENDBRANCH  14  15
ENDBRANCH   5  14
BRANCH   4  17
ATOM     17  O   UNL     1     -21.987  -6.795  16.515  1.00  0.00    -0.387 OA
ATOM     18  H   UNL     1     -22.629  -6.086  16.780  1.00  0.00     0.211 HD
ENDBRANCH   4  17
TORSDOF 7
ENDMDL
