MODEL 1
REMARK VINA RESULT:    -3.836      0.000      0.000
REMARK INTER + INTRA:          -4.484
REMARK INTER:                  -4.172
REMARK INTRA:                  -0.312
REMARK UNBOUND:                -0.312
REMARK SMILES CC1=CC[C@@](O)(C(C)C)CC1
REMARK SMILES IDX 1 1 2 2 3 3 4 4 5 5 10 6 11 7 7 8 8 9 9 10 6 11
REMARK H PARENT 6 12
REMARK Flexibility Score: inf
ROOT
ATOM      1  C   UNL     1     128.732 137.864 149.681  1.00  0.00     0.039 C 
ATOM      2  C   UNL     1     128.248 137.668 148.272  1.00  0.00    -0.077 C 
ATOM      3  C   UNL     1     128.199 136.437 147.740  1.00  0.00    -0.025 C 
ATOM      4  C   UNL     1     127.685 136.249 146.337  1.00  0.00     0.062 C 
ATOM      5  C   UNL     1     126.388 137.089 146.052  1.00  0.00     0.071 C 
ATOM      6  C   UNL     1     126.368 138.448 146.853  1.00  0.00     0.040 C 
ATOM      7  C   UNL     1     127.730 138.823 147.451  1.00  0.00     0.033 C 
ENDROOT
BRANCH   5   8
ATOM      8  C   UNL     1     125.085 136.269 146.379  1.00  0.00     0.015 C 
ATOM      9  C   UNL     1     125.311 134.745 146.371  1.00  0.00     0.010 C 
ATOM     10  C   UNL     1     124.408 136.676 147.704  1.00  0.00     0.010 C 
ENDBRANCH   5   8
BRANCH   5  11
ATOM     11  O   UNL     1     126.361 137.396 144.675  1.00  0.00    -0.389 OA
ATOM     12  H   UNL     1     125.681 138.105 144.526  1.00  0.00     0.211 HD
ENDBRANCH   5  11
TORSDOF 2
ENDMDL
MODEL 2
REMARK VINA RESULT:    -3.805      1.409      3.255
REMARK INTER + INTRA:          -4.451
REMARK INTER:                  -4.124
REMARK INTRA:                  -0.327
REMARK UNBOUND:                -0.312
REMARK SMILES CC1=CC[C@@](O)(C(C)C)CC1
REMARK SMILES IDX 1 1 2 2 3 3 4 4 5 5 10 6 11 7 7 8 8 9 9 10 6 11
REMARK H PARENT 6 12
REMARK Flexibility Score: inf
ROOT
ATOM      1  C   UNL     1     124.383 136.587 149.747  1.00  0.00     0.039 C 
ATOM      2  C   UNL     1     124.878 136.961 148.378  1.00  0.00    -0.077 C 
ATOM      3  C   UNL     1     125.912 137.806 148.242  1.00  0.00    -0.025 C 
ATOM      4  C   UNL     1     126.418 138.151 146.866  1.00  0.00     0.062 C 
ATOM      5  C   UNL     1     126.530 136.894 145.930  1.00  0.00     0.071 C 
ATOM      6  C   UNL     1     125.425 135.812 146.248  1.00  0.00     0.040 C 
ATOM      7  C   UNL     1     124.290 136.342 147.135  1.00  0.00     0.033 C 
ENDROOT
BRANCH   5   8
ATOM      8  C   UNL     1     127.954 136.230 146.022  1.00  0.00     0.015 C 
ATOM      9  C   UNL     1     129.064 137.229 146.402  1.00  0.00     0.010 C 
ATOM     10  C   UNL     1     128.016 135.014 146.970  1.00  0.00     0.010 C 
ENDBRANCH   5   8
BRANCH   5  11
ATOM     11  O   UNL     1     126.347 137.322 144.598  1.00  0.00    -0.389 OA
ATOM     12  H   UNL     1     127.098 137.925 144.358  1.00  0.00     0.211 HD
ENDBRANCH   5  11
TORSDOF 2
ENDMDL
MODEL 3
REMARK VINA RESULT:    -3.707     11.416     12.825
REMARK INTER + INTRA:          -4.344
REMARK INTER:                  -4.022
REMARK INTRA:                  -0.322
REMARK UNBOUND:                -0.312
REMARK SMILES CC1=CC[C@@](O)(C(C)C)CC1
REMARK SMILES IDX 1 1 2 2 3 3 4 4 5 5 10 6 11 7 7 8 8 9 9 10 6 11
REMARK H PARENT 6 12
REMARK Flexibility Score: inf
ROOT
ATOM      1  C   UNL     1     135.886 135.817 141.070  1.00  0.00     0.039 C 
ATOM      2  C   UNL     1     136.662 136.021 142.341  1.00  0.00    -0.077 C 
ATOM      3  C   UNL     1     137.668 135.192 142.658  1.00  0.00    -0.025 C 
ATOM      4  C   UNL     1     138.457 135.424 143.920  1.00  0.00     0.062 C 
ATOM      5  C   UNL     1     138.823 136.937 144.135  1.00  0.00     0.071 C 
ATOM      6  C   UNL     1     137.716 137.906 143.564  1.00  0.00     0.040 C 
ATOM      7  C   UNL     1     136.392 137.198 143.245  1.00  0.00     0.033 C 
ENDROOT
BRANCH   5   8
ATOM      8  C   UNL     1     140.213 137.292 143.489  1.00  0.00     0.015 C 
ATOM      9  C   UNL     1     141.148 136.074 143.356  1.00  0.00     0.010 C 
ATOM     10  C   UNL     1     140.104 138.003 142.124  1.00  0.00     0.010 C 
ENDBRANCH   5   8
BRANCH   5  11
ATOM     11  O   UNL     1     138.928 137.168 145.523  1.00  0.00    -0.389 OA
ATOM     12  H   UNL     1     139.565 136.508 145.903  1.00  0.00     0.211 HD
ENDBRANCH   5  11
TORSDOF 2
ENDMDL
MODEL 4
REMARK VINA RESULT:    -3.668     10.737     11.825
REMARK INTER + INTRA:          -4.301
REMARK INTER:                  -4.038
REMARK INTRA:                  -0.263
REMARK UNBOUND:                -0.312
REMARK SMILES CC1=CC[C@@](O)(C(C)C)CC1
REMARK SMILES IDX 1 1 2 2 3 3 4 4 5 5 10 6 11 7 7 8 8 9 9 10 6 11
REMARK H PARENT 6 12
REMARK Flexibility Score: inf
ROOT
ATOM      1  C   UNL     1     135.587 135.760 140.910  1.00  0.00     0.039 C 
ATOM      2  C   UNL     1     136.561 136.440 141.831  1.00  0.00    -0.077 C 
ATOM      3  C   UNL     1     136.137 137.381 142.689  1.00  0.00    -0.025 C 
ATOM      4  C   UNL     1     137.117 138.033 143.627  1.00  0.00     0.062 C 
ATOM      5  C   UNL     1     138.097 137.001 144.291  1.00  0.00     0.071 C 
ATOM      6  C   UNL     1     138.423 135.787 143.337  1.00  0.00     0.040 C 
ATOM      7  C   UNL     1     138.013 136.031 141.878  1.00  0.00     0.033 C 
ENDROOT
BRANCH   5   8
ATOM      8  C   UNL     1     137.527 136.457 145.654  1.00  0.00     0.015 C 
ATOM      9  C   UNL     1     136.895 135.057 145.530  1.00  0.00     0.010 C 
ATOM     10  C   UNL     1     138.556 136.452 146.803  1.00  0.00     0.010 C 
ENDBRANCH   5   8
BRANCH   5  11
ATOM     11  O   UNL     1     139.309 137.667 144.574  1.00  0.00    -0.389 OA
ATOM     12  H   UNL     1     139.758 137.876 143.713  1.00  0.00     0.211 HD
ENDBRANCH   5  11
TORSDOF 2
ENDMDL
MODEL 5
REMARK VINA RESULT:    -3.658      1.224      3.604
REMARK INTER + INTRA:          -4.291
REMARK INTER:                  -3.968
REMARK INTRA:                  -0.322
REMARK UNBOUND:                -0.312
REMARK SMILES CC1=CC[C@@](O)(C(C)C)CC1
REMARK SMILES IDX 1 1 2 2 3 3 4 4 5 5 10 6 11 7 7 8 8 9 9 10 6 11
REMARK H PARENT 6 12
REMARK Flexibility Score: inf
ROOT
ATOM      1  C   UNL     1     125.190 134.036 149.181  1.00  0.00     0.039 C 
ATOM      2  C   UNL     1     125.308 134.958 148.000  1.00  0.00    -0.077 C 
ATOM      3  C   UNL     1     124.799 136.198 148.057  1.00  0.00    -0.025 C 
ATOM      4  C   UNL     1     124.950 137.123 146.879  1.00  0.00     0.062 C 
ATOM      5  C   UNL     1     126.394 137.085 146.262  1.00  0.00     0.071 C 
ATOM      6  C   UNL     1     127.062 135.661 146.391  1.00  0.00     0.040 C 
ATOM      7  C   UNL     1     126.068 134.552 146.761  1.00  0.00     0.033 C 
ENDROOT
BRANCH   5   8
ATOM      8  C   UNL     1     127.332 138.165 146.920  1.00  0.00     0.015 C 
ATOM      9  C   UNL     1     126.557 139.358 147.513  1.00  0.00     0.010 C 
ATOM     10  C   UNL     1     128.286 137.594 147.989  1.00  0.00     0.010 C 
ENDBRANCH   5   8
BRANCH   5  11
ATOM     11  O   UNL     1     126.291 137.393 144.888  1.00  0.00    -0.389 OA
ATOM     12  H   UNL     1     126.422 136.556 144.370  1.00  0.00     0.211 HD
ENDBRANCH   5  11
TORSDOF 2
ENDMDL
MODEL 6
REMARK VINA RESULT:    -3.643     10.769     12.210
REMARK INTER + INTRA:          -4.274
REMARK INTER:                  -4.100
REMARK INTRA:                  -0.174
REMARK UNBOUND:                -0.312
REMARK SMILES CC1=CC[C@@](O)(C(C)C)CC1
REMARK SMILES IDX 1 1 2 2 3 3 4 4 5 5 10 6 11 7 7 8 8 9 9 10 6 11
REMARK H PARENT 6 12
REMARK Flexibility Score: inf
ROOT
ATOM      1  C   UNL     1     135.533 136.653 141.752  1.00  0.00     0.039 C 
ATOM      2  C   UNL     1     136.270 136.812 143.053  1.00  0.00    -0.077 C 
ATOM      3  C   UNL     1     136.219 135.844 143.981  1.00  0.00    -0.025 C 
ATOM      4  C   UNL     1     136.985 136.002 145.267  1.00  0.00     0.062 C 
ATOM      5  C   UNL     1     138.439 136.552 145.041  1.00  0.00     0.071 C 
ATOM      6  C   UNL     1     138.521 137.533 143.808  1.00  0.00     0.040 C 
ATOM      7  C   UNL     1     137.148 138.010 143.316  1.00  0.00     0.033 C 
ENDROOT
BRANCH   5   8
ATOM      8  C   UNL     1     139.476 135.383 144.850  1.00  0.00     0.015 C 
ATOM      9  C   UNL     1     140.665 135.771 143.951  1.00  0.00     0.010 C 
ATOM     10  C   UNL     1     140.007 134.798 146.175  1.00  0.00     0.010 C 
ENDBRANCH   5   8
BRANCH   5  11
ATOM     11  O   UNL     1     138.818 137.271 146.194  1.00  0.00    -0.389 OA
ATOM     12  H   UNL     1     139.809 137.335 146.211  1.00  0.00     0.211 HD
ENDBRANCH   5  11
TORSDOF 2
ENDMDL
MODEL 7
REMARK VINA RESULT:    -3.628     13.191     14.284
REMARK INTER + INTRA:          -4.258
REMARK INTER:                  -4.007
REMARK INTRA:                  -0.251
REMARK UNBOUND:                -0.312
REMARK SMILES CC1=CC[C@@](O)(C(C)C)CC1
REMARK SMILES IDX 1 1 2 2 3 3 4 4 5 5 10 6 11 7 7 8 8 9 9 10 6 11
REMARK H PARENT 6 12
REMARK Flexibility Score: inf
ROOT
ATOM      1  C   UNL     1     142.683 135.319 140.830  1.00  0.00     0.039 C 
ATOM      2  C   UNL     1     141.924 136.135 141.839  1.00  0.00    -0.077 C 
ATOM      3  C   UNL     1     141.520 137.378 141.537  1.00  0.00    -0.025 C 
ATOM      4  C   UNL     1     140.736 138.174 142.546  1.00  0.00     0.062 C 
ATOM      5  C   UNL     1     139.617 137.324 143.250  1.00  0.00     0.071 C 
ATOM      6  C   UNL     1     140.031 135.809 143.410  1.00  0.00     0.040 C 
ATOM      7  C   UNL     1     141.526 135.557 143.175  1.00  0.00     0.033 C 
ENDROOT
BRANCH   5   8
ATOM      8  C   UNL     1     138.250 137.414 142.476  1.00  0.00     0.015 C 
ATOM      9  C   UNL     1     137.844 136.086 141.808  1.00  0.00     0.010 C 
ATOM     10  C   UNL     1     137.079 137.931 143.337  1.00  0.00     0.010 C 
ENDBRANCH   5   8
BRANCH   5  11
ATOM     11  O   UNL     1     139.411 137.856 144.540  1.00  0.00    -0.389 OA
ATOM     12  H   UNL     1     138.445 138.063 144.642  1.00  0.00     0.211 HD
ENDBRANCH   5  11
TORSDOF 2
ENDMDL
MODEL 8
REMARK VINA RESULT:    -3.627     11.772     13.169
REMARK INTER + INTRA:          -4.257
REMARK INTER:                  -4.059
REMARK INTRA:                  -0.197
REMARK UNBOUND:                -0.312
REMARK SMILES CC1=CC[C@@](O)(C(C)C)CC1
REMARK SMILES IDX 1 1 2 2 3 3 4 4 5 5 10 6 11 7 7 8 8 9 9 10 6 11
REMARK H PARENT 6 12
REMARK Flexibility Score: inf
ROOT
ATOM      1  C   UNL     1     135.446 136.768 141.500  1.00  0.00     0.039 C 
ATOM      2  C   UNL     1     136.562 136.503 142.471  1.00  0.00    -0.077 C 
ATOM      3  C   UNL     1     137.391 135.465 142.280  1.00  0.00    -0.025 C 
ATOM      4  C   UNL     1     138.524 135.227 143.243  1.00  0.00     0.062 C 
ATOM      5  C   UNL     1     139.282 136.549 143.623  1.00  0.00     0.071 C 
ATOM      6  C   UNL     1     138.324 137.803 143.638  1.00  0.00     0.040 C 
ATOM      7  C   UNL     1     136.835 137.434 143.626  1.00  0.00     0.033 C 
ENDROOT
BRANCH   5   8
ATOM      8  C   UNL     1     140.488 136.823 142.650  1.00  0.00     0.015 C 
ATOM      9  C   UNL     1     140.588 138.297 142.211  1.00  0.00     0.010 C 
ATOM     10  C   UNL     1     141.852 136.361 143.202  1.00  0.00     0.010 C 
ENDBRANCH   5   8
BRANCH   5  11
ATOM     11  O   UNL     1     139.811 136.392 144.921  1.00  0.00    -0.389 OA
ATOM     12  H   UNL     1     140.686 136.861 144.961  1.00  0.00     0.211 HD
ENDBRANCH   5  11
TORSDOF 2
ENDMDL
MODEL 9
REMARK VINA RESULT:    -3.486      1.636      3.437
REMARK INTER + INTRA:          -4.104
REMARK INTER:                  -3.843
REMARK INTRA:                  -0.261
REMARK UNBOUND:                -0.312
REMARK SMILES CC1=CC[C@@](O)(C(C)C)CC1
REMARK SMILES IDX 1 1 2 2 3 3 4 4 5 5 10 6 11 7 7 8 8 9 9 10 6 11
REMARK H PARENT 6 12
REMARK Flexibility Score: inf
ROOT
ATOM      1  C   UNL     1     125.999 133.135 147.045  1.00  0.00     0.039 C 
ATOM      2  C   UNL     1     126.079 134.602 146.726  1.00  0.00    -0.077 C 
ATOM      3  C   UNL     1     124.983 135.267 146.329  1.00  0.00    -0.025 C 
ATOM      4  C   UNL     1     125.069 136.742 146.040  1.00  0.00     0.062 C 
ATOM      5  C   UNL     1     125.898 137.523 147.123  1.00  0.00     0.071 C 
ATOM      6  C   UNL     1     127.060 136.647 147.732  1.00  0.00     0.040 C 
ATOM      7  C   UNL     1     127.357 135.379 146.920  1.00  0.00     0.033 C 
ENDROOT
BRANCH   5   8
ATOM      8  C   UNL     1     124.977 138.051 148.285  1.00  0.00     0.015 C 
ATOM      9  C   UNL     1     125.012 137.157 149.539  1.00  0.00     0.010 C 
ATOM     10  C   UNL     1     125.262 139.512 148.692  1.00  0.00     0.010 C 
ENDBRANCH   5   8
BRANCH   5  11
ATOM     11  O   UNL     1     126.482 138.647 146.500  1.00  0.00    -0.389 OA
ATOM     12  H   UNL     1     127.167 138.326 145.856  1.00  0.00     0.211 HD
ENDBRANCH   5  11
TORSDOF 2
ENDMDL
