MODEL 1
REMARK VINA RESULT:    -3.688      0.000      0.000
REMARK INTER + INTRA:          -3.918
REMARK INTER:                  -4.550
REMARK INTRA:                   0.632
REMARK UNBOUND:                 0.632
REMARK SMILES C=C1[C@@H]2CC[C@H]3[C@@H]2C(C)(C)CCC[C@@]13C
REMARK SMILES IDX 14 1 6 2 7 3 3 4 2 5 1 6 4 7 5 8 15 9 8 10 9 11 10 12 11 13
REMARK SMILES IDX 13 15 12 16
REMARK H PARENT
REMARK Flexibility Score: 80.00
ROOT
ATOM      1  C   UNL     1      48.749  33.519  29.194  1.00  0.00    -0.008 C 
ATOM      2  C   UNL     1      50.279  33.903  29.125  1.00  0.00     0.003 C 
ATOM      3  C   UNL     1      50.988  32.604  28.683  1.00  0.00     0.006 C 
ATOM      4  C   UNL     1      50.338  31.761  29.782  1.00  0.00     0.019 C 
ATOM      5  C   UNL     1      48.880  32.072  29.597  1.00  0.00    -0.068 C 
ATOM      6  C   UNL     1      47.875  31.222  29.843  1.00  0.00     0.009 C 
ATOM      7  C   UNL     1      50.796  32.525  31.048  1.00  0.00     0.008 C 
ATOM      8  C   UNL     1      50.856  33.996  30.564  1.00  0.00     0.005 C 
ATOM      9  C   UNL     1      47.958  34.318  30.267  1.00  0.00     0.016 C 
ENDROOT
BRANCH   3  10
ATOM     10  C   UNL     1      50.903  32.131  27.169  1.00  0.00    -0.032 C 
ATOM     11  C   UNL     1      50.695  30.599  27.062  1.00  0.00     0.011 C 
ATOM     12  C   UNL     1      52.274  32.429  26.501  1.00  0.00     0.011 C 
BRANCH  10  13
ATOM     13  C   UNL     1      49.854  32.886  26.303  1.00  0.00     0.007 CG0
ATOM     14  G   UNL     1      48.399  32.739  26.743  1.00  0.00     0.000 G0
ENDBRANCH  10  13
ENDBRANCH   3  10
BRANCH   1  15
ATOM     15  C   UNL     1      48.018  33.715  27.839  1.00  0.00     0.011 C 
BRANCH  15  16
ATOM     16  C   UNL     1      48.399  32.740  26.728  1.00  0.00     0.001 CG0
ATOM     17  G   UNL     1      49.858  32.883  26.302  1.00  0.00     0.000 G0
ENDBRANCH  15  16
ENDBRANCH   1  15
TORSDOF 0
ENDMDL
MODEL 2
REMARK VINA RESULT:    -3.430      1.125      2.304
REMARK INTER + INTRA:          -3.600
REMARK INTER:                  -4.235
REMARK INTRA:                   0.635
REMARK UNBOUND:                 0.632
REMARK SMILES C=C1[C@@H]2CC[C@H]3[C@@H]2C(C)(C)CCC[C@@]13C
REMARK SMILES IDX 14 1 6 2 7 3 3 4 2 5 1 6 4 7 5 8 15 9 8 10 9 11 10 12 11 13
REMARK SMILES IDX 13 15 12 16
REMARK H PARENT
REMARK Flexibility Score: 80.00
ROOT
ATOM      1  C   UNL     1      50.315  33.410  29.398  1.00  0.00    -0.008 C 
ATOM      2  C   UNL     1      50.653  31.870  29.331  1.00  0.00     0.003 C 
ATOM      3  C   UNL     1      49.461  31.241  28.578  1.00  0.00     0.006 C 
ATOM      4  C   UNL     1      48.418  31.875  29.500  1.00  0.00     0.019 C 
ATOM      5  C   UNL     1      48.810  33.326  29.467  1.00  0.00    -0.068 C 
ATOM      6  C   UNL     1      47.961  34.355  29.576  1.00  0.00     0.009 C 
ATOM      7  C   UNL     1      48.869  31.327  30.875  1.00  0.00     0.008 C 
ATOM      8  C   UNL     1      50.408  31.224  30.722  1.00  0.00     0.005 C 
ATOM      9  C   UNL     1      50.883  34.115  30.660  1.00  0.00     0.016 C 
ENDROOT
BRANCH   3  10
ATOM     10  C   UNL     1      49.337  31.416  27.003  1.00  0.00    -0.032 C 
ATOM     11  C   UNL     1      47.875  31.704  26.577  1.00  0.00     0.011 C 
ATOM     12  C   UNL     1      49.720  30.062  26.343  1.00  0.00     0.011 C 
BRANCH  10  13
ATOM     13  C   UNL     1      50.304  32.463  26.381  1.00  0.00     0.007 CG0
ATOM     14  G   UNL     1      50.111  33.905  26.846  1.00  0.00     0.000 G0
ENDBRANCH  10  13
ENDBRANCH   3  10
BRANCH   1  15
ATOM     15  C   UNL     1      50.828  34.194  28.160  1.00  0.00     0.011 C 
BRANCH  15  16
ATOM     16  C   UNL     1      50.112  33.906  26.844  1.00  0.00     0.001 CG0
ATOM     17  G   UNL     1      50.307  32.466  26.376  1.00  0.00     0.000 G0
ENDBRANCH  15  16
ENDBRANCH   1  15
TORSDOF 0
ENDMDL
MODEL 3
REMARK VINA RESULT:    -3.202      5.304      7.593
REMARK INTER + INTRA:          -3.319
REMARK INTER:                  -3.954
REMARK INTRA:                   0.635
REMARK UNBOUND:                 0.632
REMARK SMILES C=C1[C@@H]2CC[C@H]3[C@@H]2C(C)(C)CCC[C@@]13C
REMARK SMILES IDX 14 1 6 2 7 3 3 4 2 5 1 6 4 7 5 8 15 9 8 10 9 11 10 12 11 13
REMARK SMILES IDX 13 15 12 16
REMARK H PARENT
REMARK Flexibility Score: 80.00
ROOT
ATOM      1  C   UNL     1      55.633  29.673  25.118  1.00  0.00    -0.008 C 
ATOM      2  C   UNL     1      55.098  28.323  24.500  1.00  0.00     0.003 C 
ATOM      3  C   UNL     1      54.525  27.543  25.703  1.00  0.00     0.006 C 
ATOM      4  C   UNL     1      55.803  27.688  26.530  1.00  0.00     0.019 C 
ATOM      5  C   UNL     1      56.045  29.171  26.480  1.00  0.00    -0.068 C 
ATOM      6  C   UNL     1      56.614  29.891  27.453  1.00  0.00     0.009 C 
ATOM      7  C   UNL     1      56.841  27.040  25.584  1.00  0.00     0.008 C 
ATOM      8  C   UNL     1      56.296  27.389  24.176  1.00  0.00     0.005 C 
ATOM      9  C   UNL     1      56.855  30.261  24.359  1.00  0.00     0.016 C 
ENDROOT
BRANCH   3  10
ATOM     10  C   UNL     1      53.126  27.965  26.327  1.00  0.00    -0.032 C 
ATOM     11  C   UNL     1      53.157  27.919  27.876  1.00  0.00     0.011 C 
ATOM     12  C   UNL     1      52.072  26.913  25.885  1.00  0.00     0.011 C 
BRANCH  10  13
ATOM     13  C   UNL     1      52.572  29.332  25.833  1.00  0.00     0.007 CG0
ATOM     14  G   UNL     1      53.422  30.555  26.171  1.00  0.00     0.000 G0
ENDBRANCH  10  13
ENDBRANCH   3  10
BRANCH   1  15
ATOM     15  C   UNL     1      54.548  30.781  25.176  1.00  0.00     0.011 C 
BRANCH  15  16
ATOM     16  C   UNL     1      53.415  30.554  26.173  1.00  0.00     0.001 CG0
ATOM     17  G   UNL     1      52.573  29.328  25.829  1.00  0.00     0.000 G0
ENDBRANCH  15  16
ENDBRANCH   1  15
TORSDOF 0
ENDMDL
MODEL 4
REMARK VINA RESULT:    -3.043      1.732      2.986
REMARK INTER + INTRA:          -3.123
REMARK INTER:                  -3.747
REMARK INTRA:                   0.625
REMARK UNBOUND:                 0.632
REMARK SMILES C=C1[C@@H]2CC[C@H]3[C@@H]2C(C)(C)CCC[C@@]13C
REMARK SMILES IDX 14 1 6 2 7 3 3 4 2 5 1 6 4 7 5 8 15 9 8 10 9 11 10 12 11 13
REMARK SMILES IDX 13 15 12 16
REMARK H PARENT
REMARK Flexibility Score: 80.00
ROOT
ATOM      1  C   UNL     1      48.783  32.919  29.650  1.00  0.00    -0.008 C 
ATOM      2  C   UNL     1      48.729  32.878  28.073  1.00  0.00     0.003 C 
ATOM      3  C   UNL     1      49.826  31.870  27.671  1.00  0.00     0.006 C 
ATOM      4  C   UNL     1      50.907  32.567  28.499  1.00  0.00     0.019 C 
ATOM      5  C   UNL     1      50.256  32.663  29.850  1.00  0.00    -0.068 C 
ATOM      6  C   UNL     1      50.903  32.619  31.021  1.00  0.00     0.009 C 
ATOM      7  C   UNL     1      50.872  33.989  27.890  1.00  0.00     0.008 C 
ATOM      8  C   UNL     1      49.383  34.165  27.499  1.00  0.00     0.005 C 
ATOM      9  C   UNL     1      48.379  34.294  30.249  1.00  0.00     0.016 C 
ENDROOT
BRANCH   3  10
ATOM     10  C   UNL     1      49.574  30.311  27.850  1.00  0.00    -0.032 C 
ATOM     11  C   UNL     1      50.835  29.590  28.391  1.00  0.00     0.011 C 
ATOM     12  C   UNL     1      49.303  29.709  26.444  1.00  0.00     0.011 C 
BRANCH  10  13
ATOM     13  C   UNL     1      48.326  29.942  28.702  1.00  0.00     0.007 CG0
ATOM     14  G   UNL     1      48.351  30.408  30.155  1.00  0.00     0.000 G0
ENDBRANCH  10  13
ENDBRANCH   3  10
BRANCH   1  15
ATOM     15  C   UNL     1      47.879  31.844  30.311  1.00  0.00     0.011 C 
BRANCH  15  16
ATOM     16  C   UNL     1      48.345  30.398  30.163  1.00  0.00     0.001 CG0
ATOM     17  G   UNL     1      48.338  29.929  28.711  1.00  0.00     0.000 G0
ENDBRANCH  15  16
ENDBRANCH   1  15
TORSDOF 0
ENDMDL
MODEL 5
REMARK VINA RESULT:    -2.952      1.417      2.683
REMARK INTER + INTRA:          -3.011
REMARK INTER:                  -3.639
REMARK INTRA:                   0.628
REMARK UNBOUND:                 0.632
REMARK SMILES C=C1[C@@H]2CC[C@H]3[C@@H]2C(C)(C)CCC[C@@]13C
REMARK SMILES IDX 14 1 6 2 7 3 3 4 2 5 1 6 4 7 5 8 15 9 8 10 9 11 10 12 11 13
REMARK SMILES IDX 13 15 12 16
REMARK H PARENT
REMARK Flexibility Score: 80.00
ROOT
ATOM      1  C   UNL     1      48.916  31.284  29.926  1.00  0.00    -0.008 C 
ATOM      2  C   UNL     1      48.309  32.418  29.011  1.00  0.00     0.003 C 
ATOM      3  C   UNL     1      49.533  33.070  28.332  1.00  0.00     0.006 C 
ATOM      4  C   UNL     1      50.266  33.301  29.655  1.00  0.00     0.019 C 
ATOM      5  C   UNL     1      50.231  31.934  30.278  1.00  0.00    -0.068 C 
ATOM      6  C   UNL     1      51.176  31.430  31.081  1.00  0.00     0.009 C 
ATOM      7  C   UNL     1      49.229  34.160  30.418  1.00  0.00     0.008 C 
ATOM      8  C   UNL     1      47.875  33.620  29.894  1.00  0.00     0.005 C 
ATOM      9  C   UNL     1      48.082  31.008  31.207  1.00  0.00     0.016 C 
ENDROOT
BRANCH   3  10
ATOM     10  C   UNL     1      50.269  32.320  27.140  1.00  0.00    -0.032 C 
ATOM     11  C   UNL     1      51.810  32.448  27.253  1.00  0.00     0.011 C 
ATOM     12  C   UNL     1      49.873  33.031  25.816  1.00  0.00     0.011 C 
BRANCH  10  13
ATOM     13  C   UNL     1      49.858  30.833  26.946  1.00  0.00     0.007 CG0
ATOM     14  G   UNL     1      50.155  29.902  28.119  1.00  0.00     0.000 G0
ENDBRANCH  10  13
ENDBRANCH   3  10
BRANCH   1  15
ATOM     15  C   UNL     1      49.080  29.933  29.180  1.00  0.00     0.011 C 
BRANCH  15  16
ATOM     16  C   UNL     1      50.155  29.894  28.098  1.00  0.00     0.001 CG0
ATOM     17  G   UNL     1      49.850  30.841  26.940  1.00  0.00     0.000 G0
ENDBRANCH  15  16
ENDBRANCH   1  15
TORSDOF 0
ENDMDL
MODEL 6
REMARK VINA RESULT:    -2.943      1.506      3.027
REMARK INTER + INTRA:          -2.999
REMARK INTER:                  -3.627
REMARK INTRA:                   0.627
REMARK UNBOUND:                 0.632
REMARK SMILES C=C1[C@@H]2CC[C@H]3[C@@H]2C(C)(C)CCC[C@@]13C
REMARK SMILES IDX 14 1 6 2 7 3 3 4 2 5 1 6 4 7 5 8 15 9 8 10 9 11 10 12 11 13
REMARK SMILES IDX 13 15 12 16
REMARK H PARENT
REMARK Flexibility Score: 80.00
ROOT
ATOM      1  C   UNL     1      50.863  33.405  28.053  1.00  0.00    -0.008 C 
ATOM      2  C   UNL     1      50.674  32.564  29.376  1.00  0.00     0.003 C 
ATOM      3  C   UNL     1      49.313  31.857  29.199  1.00  0.00     0.006 C 
ATOM      4  C   UNL     1      48.573  33.153  28.864  1.00  0.00     0.019 C 
ATOM      5  C   UNL     1      49.418  33.722  27.759  1.00  0.00    -0.068 C 
ATOM      6  C   UNL     1      48.958  34.462  26.743  1.00  0.00     0.009 C 
ATOM      7  C   UNL     1      48.872  33.996  30.127  1.00  0.00     0.008 C 
ATOM      8  C   UNL     1      50.284  33.513  30.543  1.00  0.00     0.005 C 
ATOM      9  C   UNL     1      51.679  34.711  28.260  1.00  0.00     0.016 C 
ENDROOT
BRANCH   3  10
ATOM     10  C   UNL     1      49.193  30.604  28.229  1.00  0.00    -0.032 C 
ATOM     11  C   UNL     1      47.892  30.659  27.388  1.00  0.00     0.011 C 
ATOM     12  C   UNL     1      49.082  29.330  29.111  1.00  0.00     0.011 C 
BRANCH  10  13
ATOM     13  C   UNL     1      50.425  30.362  27.312  1.00  0.00     0.007 CG0
ATOM     14  G   UNL     1      50.736  31.470  26.309  1.00  0.00     0.000 G0
ENDBRANCH  10  13
ENDBRANCH   3  10
BRANCH   1  15
ATOM     15  C   UNL     1      51.556  32.600  26.922  1.00  0.00     0.011 C 
BRANCH  15  16
ATOM     16  C   UNL     1      50.735  31.471  26.307  1.00  0.00     0.001 CG0
ATOM     17  G   UNL     1      50.426  30.361  27.309  1.00  0.00     0.000 G0
ENDBRANCH  15  16
ENDBRANCH   1  15
TORSDOF 0
ENDMDL
MODEL 7
REMARK VINA RESULT:    -2.941      4.344      6.815
REMARK INTER + INTRA:          -2.997
REMARK INTER:                  -3.637
REMARK INTRA:                   0.641
REMARK UNBOUND:                 0.632
REMARK SMILES C=C1[C@@H]2CC[C@H]3[C@@H]2C(C)(C)CCC[C@@]13C
REMARK SMILES IDX 14 1 6 2 7 3 3 4 2 5 1 6 4 7 5 8 15 9 8 10 9 11 10 12 11 13
REMARK SMILES IDX 13 15 12 16
REMARK H PARENT
REMARK Flexibility Score: 80.00
ROOT
ATOM      1  C   UNL     1      54.539  28.134  26.377  1.00  0.00    -0.008 C 
ATOM      2  C   UNL     1      55.058  29.471  27.038  1.00  0.00     0.003 C 
ATOM      3  C   UNL     1      54.727  30.571  26.006  1.00  0.00     0.006 C 
ATOM      4  C   UNL     1      55.411  29.833  24.854  1.00  0.00     0.019 C 
ATOM      5  C   UNL     1      54.771  28.475  24.926  1.00  0.00    -0.068 C 
ATOM      6  C   UNL     1      54.538  27.677  23.877  1.00  0.00     0.009 C 
ATOM      7  C   UNL     1      56.844  29.675  25.416  1.00  0.00     0.008 C 
ATOM      8  C   UNL     1      56.608  29.530  26.940  1.00  0.00     0.005 C 
ATOM      9  C   UNL     1      55.362  26.881  26.785  1.00  0.00     0.016 C 
ENDROOT
BRANCH   3  10
ATOM     10  C   UNL     1      53.230  31.078  25.843  1.00  0.00    -0.032 C 
ATOM     11  C   UNL     1      52.856  31.275  24.352  1.00  0.00     0.011 C 
ATOM     12  C   UNL     1      53.130  32.482  26.502  1.00  0.00     0.011 C 
BRANCH  10  13
ATOM     13  C   UNL     1      52.160  30.210  26.565  1.00  0.00     0.007 CG0
ATOM     14  G   UNL     1      52.035  28.768  26.079  1.00  0.00     0.000 G0
ENDBRANCH  10  13
ENDBRANCH   3  10
BRANCH   1  15
ATOM     15  C   UNL     1      53.052  27.838  26.708  1.00  0.00     0.011 C 
BRANCH  15  16
ATOM     16  C   UNL     1      52.028  28.771  26.068  1.00  0.00     0.001 CG0
ATOM     17  G   UNL     1      52.167  30.212  26.555  1.00  0.00     0.000 G0
ENDBRANCH  15  16
ENDBRANCH   1  15
TORSDOF 0
ENDMDL
MODEL 8
REMARK VINA RESULT:    -2.645      1.844      4.119
REMARK INTER + INTRA:          -2.632
REMARK INTER:                  -3.262
REMARK INTRA:                   0.629
REMARK UNBOUND:                 0.632
REMARK SMILES C=C1[C@@H]2CC[C@H]3[C@@H]2C(C)(C)CCC[C@@]13C
REMARK SMILES IDX 14 1 6 2 7 3 3 4 2 5 1 6 4 7 5 8 15 9 8 10 9 11 10 12 11 13
REMARK SMILES IDX 13 15 12 16
REMARK H PARENT
REMARK Flexibility Score: 80.00
ROOT
ATOM      1  C   UNL     1      50.415  30.581  27.373  1.00  0.00    -0.008 C 
ATOM      2  C   UNL     1      51.310  31.877  27.474  1.00  0.00     0.003 C 
ATOM      3  C   UNL     1      50.390  32.939  28.113  1.00  0.00     0.006 C 
ATOM      4  C   UNL     1      49.268  32.719  27.097  1.00  0.00     0.019 C 
ATOM      5  C   UNL     1      49.070  31.231  27.163  1.00  0.00    -0.068 C 
ATOM      6  C   UNL     1      47.904  30.601  26.974  1.00  0.00     0.009 C 
ATOM      7  C   UNL     1      50.013  33.006  25.771  1.00  0.00     0.008 C 
ATOM      8  C   UNL     1      51.453  32.520  26.067  1.00  0.00     0.005 C 
ATOM      9  C   UNL     1      50.777  29.670  26.168  1.00  0.00     0.016 C 
ENDROOT
BRANCH   3  10
ATOM     10  C   UNL     1      50.071  32.879  29.669  1.00  0.00    -0.032 C 
ATOM     11  C   UNL     1      48.580  33.190  29.956  1.00  0.00     0.011 C 
ATOM     12  C   UNL     1      50.888  34.002  30.365  1.00  0.00     0.011 C 
BRANCH  10  13
ATOM     13  C   UNL     1      50.501  31.562  30.376  1.00  0.00     0.007 CG0
ATOM     14  G   UNL     1      49.814  30.289  29.885  1.00  0.00     0.000 G0
ENDBRANCH  10  13
ENDBRANCH   3  10
BRANCH   1  15
ATOM     15  C   UNL     1      50.479  29.704  28.652  1.00  0.00     0.011 C 
BRANCH  15  16
ATOM     16  C   UNL     1      49.814  30.287  29.895  1.00  0.00     0.001 CG0
ATOM     17  G   UNL     1      50.498  31.565  30.377  1.00  0.00     0.000 G0
ENDBRANCH  15  16
ENDBRANCH   1  15
TORSDOF 0
ENDMDL
MODEL 9
REMARK VINA RESULT:    -2.426      1.331      3.688
REMARK INTER + INTRA:          -2.362
REMARK INTER:                  -3.000
REMARK INTRA:                   0.638
REMARK UNBOUND:                 0.632
REMARK SMILES C=C1[C@@H]2CC[C@H]3[C@@H]2C(C)(C)CCC[C@@]13C
REMARK SMILES IDX 14 1 6 2 7 3 3 4 2 5 1 6 4 7 5 8 15 9 8 10 9 11 10 12 11 13
REMARK SMILES IDX 13 15 12 16
REMARK H PARENT
REMARK Flexibility Score: 80.00
ROOT
ATOM      1  C   UNL     1      49.165  31.248  26.651  1.00  0.00    -0.008 C 
ATOM      2  C   UNL     1      49.830  30.768  28.000  1.00  0.00     0.003 C 
ATOM      3  C   UNL     1      50.906  31.832  28.305  1.00  0.00     0.006 C 
ATOM      4  C   UNL     1      51.545  31.725  26.919  1.00  0.00     0.019 C 
ATOM      5  C   UNL     1      50.361  31.908  26.011  1.00  0.00    -0.068 C 
ATOM      6  C   UNL     1      50.400  32.482  24.803  1.00  0.00     0.009 C 
ATOM      7  C   UNL     1      51.904  30.220  26.877  1.00  0.00     0.008 C 
ATOM      8  C   UNL     1      50.774  29.568  27.713  1.00  0.00     0.005 C 
ATOM      9  C   UNL     1      48.645  30.082  25.766  1.00  0.00     0.016 C 
ENDROOT
BRANCH   3  10
ATOM     10  C   UNL     1      50.476  33.254  28.870  1.00  0.00    -0.032 C 
ATOM     11  C   UNL     1      51.277  34.398  28.200  1.00  0.00     0.011 C 
ATOM     12  C   UNL     1      50.845  33.296  30.379  1.00  0.00     0.011 C 
BRANCH  10  13
ATOM     13  C   UNL     1      48.950  33.549  28.813  1.00  0.00     0.007 CG0
ATOM     14  G   UNL     1      48.335  33.604  27.417  1.00  0.00     0.000 G0
ENDBRANCH  10  13
ENDBRANCH   3  10
BRANCH   1  15
ATOM     15  C   UNL     1      47.977  32.221  26.879  1.00  0.00     0.011 C 
BRANCH  15  16
ATOM     16  C   UNL     1      48.339  33.602  27.418  1.00  0.00     0.001 CG0
ATOM     17  G   UNL     1      48.956  33.540  28.813  1.00  0.00     0.000 G0
ENDBRANCH  15  16
ENDBRANCH   1  15
TORSDOF 0
ENDMDL
