MODEL 1
REMARK VINA RESULT:    -2.397      0.000      0.000
REMARK INTER + INTRA:          -2.397
REMARK INTER:                  -2.397
REMARK INTRA:                   0.000
REMARK UNBOUND:                 0.000
REMARK SMILES CC(=O)[O-]
REMARK SMILES IDX 1 1 2 2 3 3 4 4
REMARK H PARENT
REMARK Flexibility Score: inf
ROOT
ATOM      1  C   UNL     1      -8.125 -15.191  26.591  1.00  0.00     0.063 C 
ATOM      2  C   UNL     1      -9.370 -14.520  26.121  1.00  0.00     0.038 C 
ATOM      3  O   UNL     1     -10.491 -15.059  26.316  1.00  0.00    -0.550 OA
ATOM      4  O   UNL     1      -9.301 -13.273  25.513  1.00  0.00    -0.550 OA
ENDROOT
TORSDOF 0
ENDMDL
MODEL 2
REMARK VINA RESULT:    -2.355      2.305      2.655
REMARK INTER + INTRA:          -2.355
REMARK INTER:                  -2.355
REMARK INTRA:                   0.000
REMARK UNBOUND:                 0.000
REMARK SMILES CC(=O)[O-]
REMARK SMILES IDX 1 1 2 2 3 3 4 4
REMARK H PARENT
REMARK Flexibility Score: inf
ROOT
ATOM      1  C   UNL     1      -9.869 -14.907  26.165  1.00  0.00     0.063 C 
ATOM      2  C   UNL     1     -10.918 -15.629  26.941  1.00  0.00     0.038 C 
ATOM      3  O   UNL     1     -12.108 -15.646  26.530  1.00  0.00    -0.550 OA
ATOM      4  O   UNL     1     -10.575 -16.327  28.091  1.00  0.00    -0.550 OA
ENDROOT
TORSDOF 0
ENDMDL
MODEL 3
REMARK VINA RESULT:    -2.339      3.208      3.793
REMARK INTER + INTRA:          -2.339
REMARK INTER:                  -2.339
REMARK INTRA:                   0.000
REMARK UNBOUND:                 0.000
REMARK SMILES CC(=O)[O-]
REMARK SMILES IDX 1 1 2 2 3 3 4 4
REMARK H PARENT
REMARK Flexibility Score: inf
ROOT
ATOM      1  C   UNL     1     -12.918 -16.326  28.456  1.00  0.00     0.063 C 
ATOM      2  C   UNL     1     -11.532 -16.248  27.910  1.00  0.00     0.038 C 
ATOM      3  O   UNL     1     -10.573 -16.754  28.548  1.00  0.00    -0.550 OA
ATOM      4  O   UNL     1     -11.305 -15.663  26.671  1.00  0.00    -0.550 OA
ENDROOT
TORSDOF 0
ENDMDL
MODEL 4
REMARK VINA RESULT:    -2.336     10.547     10.968
REMARK INTER + INTRA:          -2.336
REMARK INTER:                  -2.336
REMARK INTRA:                   0.000
REMARK UNBOUND:                 0.000
REMARK SMILES CC(=O)[O-]
REMARK SMILES IDX 1 1 2 2 3 3 4 4
REMARK H PARENT
REMARK Flexibility Score: inf
ROOT
ATOM      1  C   UNL     1     -13.156 -22.305  34.778  1.00  0.00     0.063 C 
ATOM      2  C   UNL     1     -12.946 -21.186  33.815  1.00  0.00     0.038 C 
ATOM      3  O   UNL     1     -11.926 -20.456  33.909  1.00  0.00    -0.550 OA
ATOM      4  O   UNL     1     -13.850 -20.980  32.782  1.00  0.00    -0.550 OA
ENDROOT
TORSDOF 0
ENDMDL
MODEL 5
REMARK VINA RESULT:    -2.322      1.444      1.787
REMARK INTER + INTRA:          -2.322
REMARK INTER:                  -2.322
REMARK INTRA:                   0.000
REMARK UNBOUND:                 0.000
REMARK SMILES CC(=O)[O-]
REMARK SMILES IDX 1 1 2 2 3 3 4 4
REMARK H PARENT
REMARK Flexibility Score: inf
ROOT
ATOM      1  C   UNL     1     -10.992 -15.516  26.640  1.00  0.00     0.063 C 
ATOM      2  C   UNL     1      -9.711 -14.876  26.227  1.00  0.00     0.038 C 
ATOM      3  O   UNL     1      -8.614 -15.337  26.638  1.00  0.00    -0.550 OA
ATOM      4  O   UNL     1      -9.723 -13.801  25.348  1.00  0.00    -0.550 OA
ENDROOT
TORSDOF 0
ENDMDL
MODEL 6
REMARK VINA RESULT:    -2.310      5.169      5.557
REMARK INTER + INTRA:          -2.310
REMARK INTER:                  -2.310
REMARK INTRA:                   0.000
REMARK UNBOUND:                 0.000
REMARK SMILES CC(=O)[O-]
REMARK SMILES IDX 1 1 2 2 3 3 4 4
REMARK H PARENT
REMARK Flexibility Score: inf
ROOT
ATOM      1  C   UNL     1     -11.750 -17.138  28.047  1.00  0.00     0.063 C 
ATOM      2  C   UNL     1     -11.729 -18.237  29.054  1.00  0.00     0.038 C 
ATOM      3  O   UNL     1     -12.799 -18.616  29.599  1.00  0.00    -0.550 OA
ATOM      4  O   UNL     1     -10.536 -18.882  29.355  1.00  0.00    -0.550 OA
ENDROOT
TORSDOF 0
ENDMDL
MODEL 7
REMARK VINA RESULT:    -2.295     10.508     11.158
REMARK INTER + INTRA:          -2.295
REMARK INTER:                  -2.295
REMARK INTRA:                   0.000
REMARK UNBOUND:                 0.000
REMARK SMILES CC(=O)[O-]
REMARK SMILES IDX 1 1 2 2 3 3 4 4
REMARK H PARENT
REMARK Flexibility Score: inf
ROOT
ATOM      1  C   UNL     1     -11.990 -20.505  33.760  1.00  0.00     0.063 C 
ATOM      2  C   UNL     1     -13.208 -21.360  33.867  1.00  0.00     0.038 C 
ATOM      3  O   UNL     1     -14.119 -21.270  33.004  1.00  0.00    -0.550 OA
ATOM      4  O   UNL     1     -13.314 -22.293  34.890  1.00  0.00    -0.550 OA
ENDROOT
TORSDOF 0
ENDMDL
MODEL 8
REMARK VINA RESULT:    -2.245      5.042      5.392
REMARK INTER + INTRA:          -2.245
REMARK INTER:                  -2.245
REMARK INTRA:                   0.000
REMARK UNBOUND:                 0.000
REMARK SMILES CC(=O)[O-]
REMARK SMILES IDX 1 1 2 2 3 3 4 4
REMARK H PARENT
REMARK Flexibility Score: inf
ROOT
ATOM      1  C   UNL     1     -10.575 -16.777  28.851  1.00  0.00     0.063 C 
ATOM      2  C   UNL     1     -11.030 -18.137  29.259  1.00  0.00     0.038 C 
ATOM      3  O   UNL     1     -10.192 -18.994  29.644  1.00  0.00    -0.550 OA
ATOM      4  O   UNL     1     -12.384 -18.444  29.266  1.00  0.00    -0.550 OA
ENDROOT
TORSDOF 0
ENDMDL
MODEL 9
REMARK VINA RESULT:    -2.208      3.888      4.322
REMARK INTER + INTRA:          -2.208
REMARK INTER:                  -2.208
REMARK INTRA:                   0.000
REMARK UNBOUND:                 0.000
REMARK SMILES CC(=O)[O-]
REMARK SMILES IDX 1 1 2 2 3 3 4 4
REMARK H PARENT
REMARK Flexibility Score: inf
ROOT
ATOM      1  C   UNL     1     -11.489 -15.886  27.037  1.00  0.00     0.063 C 
ATOM      2  C   UNL     1     -11.773 -16.636  28.294  1.00  0.00     0.038 C 
ATOM      3  O   UNL     1     -10.854 -17.276  28.870  1.00  0.00    -0.550 OA
ATOM      4  O   UNL     1     -13.039 -16.588  28.861  1.00  0.00    -0.550 OA
ENDROOT
TORSDOF 0
ENDMDL
