MODEL 1
REMARK VINA RESULT:    -4.624      0.000      0.000
REMARK INTER + INTRA:          -4.624
REMARK INTER:                  -4.624
REMARK INTRA:                   0.000
REMARK UNBOUND:                 0.000
REMARK SMILES CC1(C)O[C@]2(C)CC[C@H]1CC2
REMARK SMILES IDX 1 1 2 2 9 3 10 4 11 5 5 6 4 7 7 8 8 9 6 10 3 11
REMARK H PARENT
REMARK Flexibility Score: inf
ROOT
ATOM      1  C   UNL     1      18.532  47.110  44.976  1.00  0.00     0.042 C 
ATOM      2  C   UNL     1      20.018  47.523  44.918  1.00  0.00     0.066 C 
ATOM      3  C   UNL     1      20.289  48.460  43.678  1.00  0.00     0.021 C 
ATOM      4  C   UNL     1      19.470  49.760  43.857  1.00  0.00     0.009 C 
ATOM      5  C   UNL     1      19.760  50.354  45.257  1.00  0.00     0.035 C 
ATOM      6  C   UNL     1      20.842  49.500  45.978  1.00  0.00     0.066 C 
ATOM      7  O   UNL     1      20.349  48.171  46.156  1.00  0.00    -0.369 OA
ATOM      8  C   UNL     1      22.123  49.456  45.095  1.00  0.00     0.035 C 
ATOM      9  C   UNL     1      21.777  48.883  43.699  1.00  0.00     0.009 C 
ATOM     10  C   UNL     1      21.163  50.096  47.353  1.00  0.00     0.042 C 
ATOM     11  C   UNL     1      20.852  46.228  44.817  1.00  0.00     0.042 C 
ENDROOT
TORSDOF 0
ENDMDL
MODEL 2
REMARK VINA RESULT:    -4.607      1.629      2.879
REMARK INTER + INTRA:          -4.607
REMARK INTER:                  -4.607
REMARK INTRA:                   0.000
REMARK UNBOUND:                 0.000
REMARK SMILES CC1(C)O[C@]2(C)CC[C@H]1CC2
REMARK SMILES IDX 1 1 2 2 9 3 10 4 11 5 5 6 4 7 7 8 8 9 6 10 3 11
REMARK H PARENT
REMARK Flexibility Score: inf
ROOT
ATOM      1  C   UNL     1      21.278  45.247  44.061  1.00  0.00     0.042 C 
ATOM      2  C   UNL     1      20.499  46.471  43.533  1.00  0.00     0.066 C 
ATOM      3  C   UNL     1      19.420  46.939  44.584  1.00  0.00     0.021 C 
ATOM      4  C   UNL     1      20.151  47.395  45.869  1.00  0.00     0.009 C 
ATOM      5  C   UNL     1      21.250  48.418  45.494  1.00  0.00     0.035 C 
ATOM      6  C   UNL     1      21.193  48.716  43.968  1.00  0.00     0.066 C 
ATOM      7  O   UNL     1      21.446  47.511  43.244  1.00  0.00    -0.369 OA
ATOM      8  C   UNL     1      19.772  49.239  43.608  1.00  0.00     0.035 C 
ATOM      9  C   UNL     1      18.708  48.196  44.027  1.00  0.00     0.009 C 
ATOM     10  C   UNL     1      22.254  49.754  43.587  1.00  0.00     0.042 C 
ATOM     11  C   UNL     1      19.827  46.053  42.208  1.00  0.00     0.042 C 
ENDROOT
TORSDOF 0
ENDMDL
MODEL 3
REMARK VINA RESULT:    -4.602      1.482      3.520
REMARK INTER + INTRA:          -4.602
REMARK INTER:                  -4.602
REMARK INTRA:                   0.000
REMARK UNBOUND:                 0.000
REMARK SMILES CC1(C)O[C@]2(C)CC[C@H]1CC2
REMARK SMILES IDX 1 1 2 2 9 3 10 4 11 5 5 6 4 7 7 8 8 9 6 10 3 11
REMARK H PARENT
REMARK Flexibility Score: inf
ROOT
ATOM      1  C   UNL     1      20.889  49.478  45.898  1.00  0.00     0.042 C 
ATOM      2  C   UNL     1      20.962  48.672  44.583  1.00  0.00     0.066 C 
ATOM      3  C   UNL     1      21.230  47.145  44.879  1.00  0.00     0.021 C 
ATOM      4  C   UNL     1      20.033  46.584  45.682  1.00  0.00     0.009 C 
ATOM      5  C   UNL     1      18.718  46.931  44.944  1.00  0.00     0.035 C 
ATOM      6  C   UNL     1      19.041  47.646  43.600  1.00  0.00     0.066 C 
ATOM      7  O   UNL     1      19.730  48.868  43.872  1.00  0.00    -0.369 OA
ATOM      8  C   UNL     1      19.955  46.722  42.744  1.00  0.00     0.035 C 
ATOM      9  C   UNL     1      21.242  46.380  43.534  1.00  0.00     0.009 C 
ATOM     10  C   UNL     1      17.748  47.966  42.842  1.00  0.00     0.042 C 
ATOM     11  C   UNL     1      22.105  49.273  43.737  1.00  0.00     0.042 C 
ENDROOT
TORSDOF 0
ENDMDL
MODEL 4
REMARK VINA RESULT:    -4.529      1.451      3.114
REMARK INTER + INTRA:          -4.529
REMARK INTER:                  -4.529
REMARK INTRA:                   0.000
REMARK UNBOUND:                 0.000
REMARK SMILES CC1(C)O[C@]2(C)CC[C@H]1CC2
REMARK SMILES IDX 1 1 2 2 9 3 10 4 11 5 5 6 4 7 7 8 8 9 6 10 3 11
REMARK H PARENT
REMARK Flexibility Score: inf
ROOT
ATOM      1  C   UNL     1      22.505  49.781  44.046  1.00  0.00     0.042 C 
ATOM      2  C   UNL     1      21.179  49.001  44.180  1.00  0.00     0.066 C 
ATOM      3  C   UNL     1      20.927  48.584  45.680  1.00  0.00     0.021 C 
ATOM      4  C   UNL     1      20.776  49.870  46.528  1.00  0.00     0.009 C 
ATOM      5  C   UNL     1      19.720  50.791  45.872  1.00  0.00     0.035 C 
ATOM      6  C   UNL     1      19.096  50.081  44.635  1.00  0.00     0.066 C 
ATOM      7  O   UNL     1      20.122  49.829  43.672  1.00  0.00    -0.369 OA
ATOM      8  C   UNL     1      18.478  48.727  45.089  1.00  0.00     0.035 C 
ATOM      9  C   UNL     1      19.564  47.854  45.763  1.00  0.00     0.009 C 
ATOM     10  C   UNL     1      18.024  50.969  43.995  1.00  0.00     0.042 C 
ATOM     11  C   UNL     1      21.286  47.753  43.276  1.00  0.00     0.042 C 
ENDROOT
TORSDOF 0
ENDMDL
MODEL 5
REMARK VINA RESULT:    -4.484      1.414      2.610
REMARK INTER + INTRA:          -4.484
REMARK INTER:                  -4.484
REMARK INTRA:                   0.000
REMARK UNBOUND:                 0.000
REMARK SMILES CC1(C)O[C@]2(C)CC[C@H]1CC2
REMARK SMILES IDX 1 1 2 2 9 3 10 4 11 5 5 6 4 7 7 8 8 9 6 10 3 11
REMARK H PARENT
REMARK Flexibility Score: inf
ROOT
ATOM      1  C   UNL     1      18.698  49.539  43.282  1.00  0.00     0.042 C 
ATOM      2  C   UNL     1      19.157  48.091  43.558  1.00  0.00     0.066 C 
ATOM      3  C   UNL     1      20.700  47.931  43.269  1.00  0.00     0.021 C 
ATOM      4  C   UNL     1      21.479  48.841  44.248  1.00  0.00     0.009 C 
ATOM      5  C   UNL     1      21.006  48.556  45.693  1.00  0.00     0.035 C 
ATOM      6  C   UNL     1      19.976  47.389  45.690  1.00  0.00     0.066 C 
ATOM      7  O   UNL     1      18.835  47.773  44.920  1.00  0.00    -0.369 OA
ATOM      8  C   UNL     1      20.633  46.137  45.041  1.00  0.00     0.035 C 
ATOM      9  C   UNL     1      21.114  46.479  43.610  1.00  0.00     0.009 C 
ATOM     10  C   UNL     1      19.524  47.074  47.120  1.00  0.00     0.042 C 
ATOM     11  C   UNL     1      18.330  47.163  42.641  1.00  0.00     0.042 C 
ENDROOT
TORSDOF 0
ENDMDL
MODEL 6
REMARK VINA RESULT:    -4.420      1.648      3.389
REMARK INTER + INTRA:          -4.420
REMARK INTER:                  -4.420
REMARK INTRA:                   0.000
REMARK UNBOUND:                 0.000
REMARK SMILES CC1(C)O[C@]2(C)CC[C@H]1CC2
REMARK SMILES IDX 1 1 2 2 9 3 10 4 11 5 5 6 4 7 7 8 8 9 6 10 3 11
REMARK H PARENT
REMARK Flexibility Score: inf
ROOT
ATOM      1  C   UNL     1      19.832  48.257  46.649  1.00  0.00     0.042 C 
ATOM      2  C   UNL     1      19.312  47.365  45.501  1.00  0.00     0.066 C 
ATOM      3  C   UNL     1      19.164  48.199  44.171  1.00  0.00     0.021 C 
ATOM      4  C   UNL     1      20.565  48.701  43.747  1.00  0.00     0.009 C 
ATOM      5  C   UNL     1      21.545  47.504  43.715  1.00  0.00     0.035 C 
ATOM      6  C   UNL     1      20.779  46.186  44.028  1.00  0.00     0.066 C 
ATOM      7  O   UNL     1      20.224  46.267  45.342  1.00  0.00    -0.369 OA
ATOM      8  C   UNL     1      19.626  46.015  42.996  1.00  0.00     0.035 C 
ATOM      9  C   UNL     1      18.691  47.247  43.046  1.00  0.00     0.009 C 
ATOM     10  C   UNL     1      21.732  44.988  43.967  1.00  0.00     0.042 C 
ATOM     11  C   UNL     1      17.948  46.794  45.944  1.00  0.00     0.042 C 
ENDROOT
TORSDOF 0
ENDMDL
MODEL 7
REMARK VINA RESULT:    -4.401      1.453      2.952
REMARK INTER + INTRA:          -4.401
REMARK INTER:                  -4.401
REMARK INTRA:                   0.000
REMARK UNBOUND:                 0.000
REMARK SMILES CC1(C)O[C@]2(C)CC[C@H]1CC2
REMARK SMILES IDX 1 1 2 2 9 3 10 4 11 5 5 6 4 7 7 8 8 9 6 10 3 11
REMARK H PARENT
REMARK Flexibility Score: inf
ROOT
ATOM      1  C   UNL     1      18.161  48.246  43.672  1.00  0.00     0.042 C 
ATOM      2  C   UNL     1      18.966  49.124  44.654  1.00  0.00     0.066 C 
ATOM      3  C   UNL     1      19.381  48.295  45.931  1.00  0.00     0.021 C 
ATOM      4  C   UNL     1      20.318  47.146  45.487  1.00  0.00     0.009 C 
ATOM      5  C   UNL     1      21.467  47.729  44.630  1.00  0.00     0.035 C 
ATOM      6  C   UNL     1      21.350  49.280  44.576  1.00  0.00     0.066 C 
ATOM      7  O   UNL     1      20.112  49.636  43.957  1.00  0.00    -0.369 OA
ATOM      8  C   UNL     1      21.374  49.839  46.028  1.00  0.00     0.035 C 
ATOM      9  C   UNL     1      20.226  49.207  46.853  1.00  0.00     0.009 C 
ATOM     10  C   UNL     1      22.501  49.874  43.757  1.00  0.00     0.042 C 
ATOM     11  C   UNL     1      18.069  50.318  45.045  1.00  0.00     0.042 C 
ENDROOT
TORSDOF 0
ENDMDL
MODEL 8
REMARK VINA RESULT:    -4.386      1.278      3.422
REMARK INTER + INTRA:          -4.386
REMARK INTER:                  -4.386
REMARK INTRA:                   0.000
REMARK UNBOUND:                 0.000
REMARK SMILES CC1(C)O[C@]2(C)CC[C@H]1CC2
REMARK SMILES IDX 1 1 2 2 9 3 10 4 11 5 5 6 4 7 7 8 8 9 6 10 3 11
REMARK H PARENT
REMARK Flexibility Score: inf
ROOT
ATOM      1  C   UNL     1      22.215  49.819  43.759  1.00  0.00     0.042 C 
ATOM      2  C   UNL     1      21.508  49.010  44.868  1.00  0.00     0.066 C 
ATOM      3  C   UNL     1      19.941  49.112  44.719  1.00  0.00     0.021 C 
ATOM      4  C   UNL     1      19.533  48.472  43.371  1.00  0.00     0.009 C 
ATOM      5  C   UNL     1      20.153  47.058  43.271  1.00  0.00     0.035 C 
ATOM      6  C   UNL     1      20.900  46.715  44.593  1.00  0.00     0.066 C 
ATOM      7  O   UNL     1      21.963  47.651  44.787  1.00  0.00    -0.369 OA
ATOM      8  C   UNL     1      19.901  46.824  45.780  1.00  0.00     0.035 C 
ATOM      9  C   UNL     1      19.287  48.244  45.821  1.00  0.00     0.009 C 
ATOM     10  C   UNL     1      21.491  45.304  44.521  1.00  0.00     0.042 C 
ATOM     11  C   UNL     1      21.968  49.589  46.224  1.00  0.00     0.042 C 
ENDROOT
TORSDOF 0
ENDMDL
MODEL 9
REMARK VINA RESULT:    -4.352      1.646      3.446
REMARK INTER + INTRA:          -4.352
REMARK INTER:                  -4.352
REMARK INTRA:                   0.000
REMARK UNBOUND:                 0.000
REMARK SMILES CC1(C)O[C@]2(C)CC[C@H]1CC2
REMARK SMILES IDX 1 1 2 2 9 3 10 4 11 5 5 6 4 7 7 8 8 9 6 10 3 11
REMARK H PARENT
REMARK Flexibility Score: inf
ROOT
ATOM      1  C   UNL     1      17.560  48.863  45.117  1.00  0.00     0.042 C 
ATOM      2  C   UNL     1      18.849  48.901  44.268  1.00  0.00     0.066 C 
ATOM      3  C   UNL     1      20.125  48.946  45.194  1.00  0.00     0.021 C 
ATOM      4  C   UNL     1      20.175  47.642  46.024  1.00  0.00     0.009 C 
ATOM      5  C   UNL     1      20.045  46.428  45.072  1.00  0.00     0.035 C 
ATOM      6  C   UNL     1      20.000  46.918  43.596  1.00  0.00     0.066 C 
ATOM      7  O   UNL     1      18.852  47.749  43.412  1.00  0.00    -0.369 OA
ATOM      8  C   UNL     1      21.284  47.748  43.301  1.00  0.00     0.035 C 
ATOM      9  C   UNL     1      21.384  48.931  44.294  1.00  0.00     0.009 C 
ATOM     10  C   UNL     1      19.905  45.724  42.641  1.00  0.00     0.042 C 
ATOM     11  C   UNL     1      18.776  50.160  43.376  1.00  0.00     0.042 C 
ENDROOT
TORSDOF 0
ENDMDL
