MODEL 1
REMARK VINA RESULT:    -4.060      0.000      0.000
REMARK INTER + INTRA:          -6.370
REMARK INTER:                  -5.722
REMARK INTRA:                  -0.648
REMARK UNBOUND:                -0.648
REMARK SMILES C=CCCCCCCC(=O)[O-]
REMARK SMILES IDX 6 1 7 2 8 3 9 4 10 5 11 6 5 7 4 8 3 9 2 10 1 11
REMARK H PARENT
REMARK Flexibility Score: inf
ROOT
ATOM      1  C   UNL     1     -30.646 -23.886  16.474  1.00  0.00     0.000 C 
ENDROOT
BRANCH   1   2
ATOM      2  C   UNL     1     -30.222 -23.189  17.776  1.00  0.00     0.006 C 
BRANCH   2   3
ATOM      3  C   UNL     1     -29.204 -22.064  17.541  1.00  0.00     0.053 C 
BRANCH   3   4
ATOM      4  C   UNL     1     -29.881 -20.730  17.591  1.00  0.00     0.041 C 
ATOM      5  O   UNL     1     -29.795 -20.014  18.623  1.00  0.00    -0.550 OA
ATOM      6  O   UNL     1     -30.649 -20.299  16.516  1.00  0.00    -0.550 OA
ENDBRANCH   3   4
ENDBRANCH   2   3
ENDBRANCH   1   2
BRANCH   1   7
ATOM      7  C   UNL     1     -29.589 -23.753  15.362  1.00  0.00     0.000 C 
BRANCH   7   8
ATOM      8  C   UNL     1     -29.387 -25.061  14.581  1.00  0.00     0.004 C 
BRANCH   8   9
ATOM      9  C   UNL     1     -27.956 -25.607  14.700  1.00  0.00     0.027 C 
BRANCH   9  10
ATOM     10  C   UNL     1     -27.356 -25.273  16.038  1.00  0.00    -0.035 C 
ATOM     11  C   UNL     1     -27.330 -26.159  17.038  1.00  0.00     0.004 C 
ENDBRANCH   9  10
ENDBRANCH   8   9
ENDBRANCH   7   8
ENDBRANCH   1   7
TORSDOF 7
ENDMDL
MODEL 2
REMARK VINA RESULT:    -4.014      3.155      5.242
REMARK INTER + INTRA:          -6.304
REMARK INTER:                  -5.811
REMARK INTRA:                  -0.493
REMARK UNBOUND:                -0.648
REMARK SMILES C=CCCCCCCC(=O)[O-]
REMARK SMILES IDX 6 1 7 2 8 3 9 4 10 5 11 6 5 7 4 8 3 9 2 10 1 11
REMARK H PARENT
REMARK Flexibility Score: inf
ROOT
ATOM      1  C   UNL     1     -28.424 -23.191  16.657  1.00  0.00     0.000 C 
ENDROOT
BRANCH   1   2
ATOM      2  C   UNL     1     -28.351 -23.938  15.316  1.00  0.00     0.006 C 
BRANCH   2   3
ATOM      3  C   UNL     1     -28.166 -25.452  15.492  1.00  0.00     0.053 C 
BRANCH   3   4
ATOM      4  C   UNL     1     -26.964 -25.734  16.338  1.00  0.00     0.041 C 
ATOM      5  O   UNL     1     -27.093 -26.317  17.448  1.00  0.00    -0.550 OA
ATOM      6  O   UNL     1     -25.707 -25.311  15.925  1.00  0.00    -0.550 OA
ENDBRANCH   3   4
ENDBRANCH   2   3
ENDBRANCH   1   2
BRANCH   1   7
ATOM      7  C   UNL     1     -29.644 -23.606  17.499  1.00  0.00     0.000 C 
BRANCH   7   8
ATOM      8  C   UNL     1     -30.541 -22.412  17.863  1.00  0.00     0.004 C 
BRANCH   8   9
ATOM      9  C   UNL     1     -30.417 -21.250  16.867  1.00  0.00     0.027 C 
BRANCH   9  10
ATOM     10  C   UNL     1     -30.039 -19.973  17.566  1.00  0.00    -0.035 C 
ATOM     11  C   UNL     1     -29.415 -19.976  18.748  1.00  0.00     0.004 C 
ENDBRANCH   9  10
ENDBRANCH   8   9
ENDBRANCH   7   8
ENDBRANCH   1   7
TORSDOF 7
ENDMDL
MODEL 3
REMARK VINA RESULT:    -4.013      9.598     11.880
REMARK INTER + INTRA:          -6.304
REMARK INTER:                  -6.096
REMARK INTRA:                  -0.208
REMARK UNBOUND:                -0.648
REMARK SMILES C=CCCCCCCC(=O)[O-]
REMARK SMILES IDX 6 1 7 2 8 3 9 4 10 5 11 6 5 7 4 8 3 9 2 10 1 11
REMARK H PARENT
REMARK Flexibility Score: inf
ROOT
ATOM      1  C   UNL     1     -21.484 -30.460  13.958  1.00  0.00     0.000 C 
ENDROOT
BRANCH   1   2
ATOM      2  C   UNL     1     -21.455 -31.364  12.715  1.00  0.00     0.006 C 
BRANCH   2   3
ATOM      3  C   UNL     1     -22.858 -31.667  12.171  1.00  0.00     0.053 C 
BRANCH   3   4
ATOM      4  C   UNL     1     -22.812 -32.835  11.237  1.00  0.00     0.041 C 
ATOM      5  O   UNL     1     -23.784 -33.634  11.173  1.00  0.00    -0.550 OA
ATOM      6  O   UNL     1     -21.677 -33.069  10.471  1.00  0.00    -0.550 OA
ENDBRANCH   3   4
ENDBRANCH   2   3
ENDBRANCH   1   2
BRANCH   1   7
ATOM      7  C   UNL     1     -22.204 -31.118  15.149  1.00  0.00     0.000 C 
BRANCH   7   8
ATOM      8  C   UNL     1     -21.869 -30.440  16.488  1.00  0.00     0.004 C 
BRANCH   8   9
ATOM      9  C   UNL     1     -22.181 -28.936  16.486  1.00  0.00     0.027 C 
BRANCH   9  10
ATOM     10  C   UNL     1     -22.966 -28.544  17.708  1.00  0.00    -0.035 C 
ATOM     11  C   UNL     1     -23.618 -27.380  17.781  1.00  0.00     0.004 C 
ENDBRANCH   9  10
ENDBRANCH   8   9
ENDBRANCH   7   8
ENDBRANCH   1   7
TORSDOF 7
ENDMDL
MODEL 4
REMARK VINA RESULT:    -3.986      8.028      9.903
REMARK INTER + INTRA:          -6.265
REMARK INTER:                  -5.839
REMARK INTRA:                  -0.426
REMARK UNBOUND:                -0.648
REMARK SMILES C=CCCCCCCC(=O)[O-]
REMARK SMILES IDX 6 1 7 2 8 3 9 4 10 5 11 6 5 7 4 8 3 9 2 10 1 11
REMARK H PARENT
REMARK Flexibility Score: inf
ROOT
ATOM      1  C   UNL     1     -26.524 -28.274   8.715  1.00  0.00     0.000 C 
ENDROOT
BRANCH   1   2
ATOM      2  C   UNL     1     -26.943 -27.216   9.748  1.00  0.00     0.006 C 
BRANCH   2   3
ATOM      3  C   UNL     1     -26.470 -25.804   9.374  1.00  0.00     0.053 C 
BRANCH   3   4
ATOM      4  C   UNL     1     -27.496 -24.789   9.769  1.00  0.00     0.041 C 
ATOM      5  O   UNL     1     -28.679 -25.146  10.014  1.00  0.00    -0.550 OA
ATOM      6  O   UNL     1     -27.160 -23.442   9.818  1.00  0.00    -0.550 OA
ENDBRANCH   3   4
ENDBRANCH   2   3
ENDBRANCH   1   2
BRANCH   1   7
ATOM      7  C   UNL     1     -27.713 -28.791   7.885  1.00  0.00     0.000 C 
BRANCH   7   8
ATOM      8  C   UNL     1     -27.268 -29.475   6.582  1.00  0.00     0.004 C 
BRANCH   8   9
ATOM      9  C   UNL     1     -25.746 -29.657   6.497  1.00  0.00     0.027 C 
BRANCH   9  10
ATOM     10  C   UNL     1     -25.203 -29.098   5.211  1.00  0.00    -0.035 C 
ATOM     11  C   UNL     1     -25.180 -27.784   4.969  1.00  0.00     0.004 C 
ENDBRANCH   9  10
ENDBRANCH   8   9
ENDBRANCH   7   8
ENDBRANCH   1   7
TORSDOF 7
ENDMDL
MODEL 5
REMARK VINA RESULT:    -3.962      9.844     11.015
REMARK INTER + INTRA:          -6.231
REMARK INTER:                  -5.830
REMARK INTRA:                  -0.401
REMARK UNBOUND:                -0.648
REMARK SMILES C=CCCCCCCC(=O)[O-]
REMARK SMILES IDX 6 1 7 2 8 3 9 4 10 5 11 6 5 7 4 8 3 9 2 10 1 11
REMARK H PARENT
REMARK Flexibility Score: inf
ROOT
ATOM      1  C   UNL     1     -19.486 -20.821  10.243  1.00  0.00     0.000 C 
ENDROOT
BRANCH   1   2
ATOM      2  C   UNL     1     -19.843 -22.019   9.349  1.00  0.00     0.006 C 
BRANCH   2   3
ATOM      3  C   UNL     1     -21.051 -21.740   8.443  1.00  0.00     0.053 C 
BRANCH   3   4
ATOM      4  C   UNL     1     -22.261 -22.458   8.954  1.00  0.00     0.041 C 
ATOM      5  O   UNL     1     -22.134 -23.453   9.716  1.00  0.00    -0.550 OA
ATOM      6  O   UNL     1     -23.529 -22.058   8.549  1.00  0.00    -0.550 OA
ENDBRANCH   3   4
ENDBRANCH   2   3
ENDBRANCH   1   2
BRANCH   1   7
ATOM      7  C   UNL     1     -19.452 -21.190  11.737  1.00  0.00     0.000 C 
BRANCH   7   8
ATOM      8  C   UNL     1     -19.348 -22.706  11.968  1.00  0.00     0.004 C 
BRANCH   8   9
ATOM      9  C   UNL     1     -20.266 -23.199  13.096  1.00  0.00     0.027 C 
BRANCH   9  10
ATOM     10  C   UNL     1     -19.483 -23.923  14.157  1.00  0.00    -0.035 C 
ATOM     11  C   UNL     1     -20.048 -24.843  14.944  1.00  0.00     0.004 C 
ENDBRANCH   9  10
ENDBRANCH   8   9
ENDBRANCH   7   8
ENDBRANCH   1   7
TORSDOF 7
ENDMDL
MODEL 6
REMARK VINA RESULT:    -3.955     10.383     11.585
REMARK INTER + INTRA:          -6.221
REMARK INTER:                  -5.735
REMARK INTRA:                  -0.486
REMARK UNBOUND:                -0.648
REMARK SMILES C=CCCCCCCC(=O)[O-]
REMARK SMILES IDX 6 1 7 2 8 3 9 4 10 5 11 6 5 7 4 8 3 9 2 10 1 11
REMARK H PARENT
REMARK Flexibility Score: inf
ROOT
ATOM      1  C   UNL     1     -20.055 -23.660  13.270  1.00  0.00     0.000 C 
ENDROOT
BRANCH   1   2
ATOM      2  C   UNL     1     -19.010 -23.084  12.301  1.00  0.00     0.006 C 
BRANCH   2   3
ATOM      3  C   UNL     1     -19.624 -22.634  10.967  1.00  0.00     0.053 C 
BRANCH   3   4
ATOM      4  C   UNL     1     -19.500 -21.151  10.811  1.00  0.00     0.041 C 
ATOM      5  O   UNL     1     -19.033 -20.452  11.749  1.00  0.00    -0.550 OA
ATOM      6  O   UNL     1     -19.947 -20.535   9.649  1.00  0.00    -0.550 OA
ENDBRANCH   3   4
ENDBRANCH   2   3
ENDBRANCH   1   2
BRANCH   1   7
ATOM      7  C   UNL     1     -19.435 -24.125  14.599  1.00  0.00     0.000 C 
BRANCH   7   8
ATOM      8  C   UNL     1     -18.821 -25.531  14.503  1.00  0.00     0.004 C 
BRANCH   8   9
ATOM      9  C   UNL     1     -17.489 -25.651  15.258  1.00  0.00     0.027 C 
BRANCH   9  10
ATOM     10  C   UNL     1     -16.341 -25.847  14.307  1.00  0.00    -0.035 C 
ATOM     11  C   UNL     1     -16.504 -25.773  12.983  1.00  0.00     0.004 C 
ENDBRANCH   9  10
ENDBRANCH   8   9
ENDBRANCH   7   8
ENDBRANCH   1   7
TORSDOF 7
ENDMDL
MODEL 7
REMARK VINA RESULT:    -3.937      9.382     11.271
REMARK INTER + INTRA:          -6.197
REMARK INTER:                  -5.815
REMARK INTRA:                  -0.381
REMARK UNBOUND:                -0.648
REMARK SMILES C=CCCCCCCC(=O)[O-]
REMARK SMILES IDX 6 1 7 2 8 3 9 4 10 5 11 6 5 7 4 8 3 9 2 10 1 11
REMARK H PARENT
REMARK Flexibility Score: inf
ROOT
ATOM      1  C   UNL     1     -27.745 -28.824   7.831  1.00  0.00     0.000 C 
ENDROOT
BRANCH   1   2
ATOM      2  C   UNL     1     -26.583 -28.320   8.702  1.00  0.00     0.006 C 
BRANCH   2   3
ATOM      3  C   UNL     1     -26.891 -26.978   9.380  1.00  0.00     0.053 C 
BRANCH   3   4
ATOM      4  C   UNL     1     -25.764 -26.017   9.167  1.00  0.00     0.041 C 
ATOM      5  O   UNL     1     -25.003 -26.142   8.172  1.00  0.00    -0.550 OA
ATOM      6  O   UNL     1     -25.523 -25.011  10.095  1.00  0.00    -0.550 OA
ENDBRANCH   3   4
ENDBRANCH   2   3
ENDBRANCH   1   2
BRANCH   1   7
ATOM      7  C   UNL     1     -27.289 -29.240   6.421  1.00  0.00     0.000 C 
BRANCH   7   8
ATOM      8  C   UNL     1     -25.758 -29.297   6.290  1.00  0.00     0.004 C 
BRANCH   8   9
ATOM      9  C   UNL     1     -25.227 -28.412   5.152  1.00  0.00     0.027 C 
BRANCH   9  10
ATOM     10  C   UNL     1     -24.463 -29.225   4.144  1.00  0.00    -0.035 C 
ATOM     11  C   UNL     1     -23.627 -28.657   3.270  1.00  0.00     0.004 C 
ENDBRANCH   9  10
ENDBRANCH   8   9
ENDBRANCH   7   8
ENDBRANCH   1   7
TORSDOF 7
ENDMDL
MODEL 8
REMARK VINA RESULT:    -3.900     12.060     14.046
REMARK INTER + INTRA:          -6.144
REMARK INTER:                  -5.918
REMARK INTRA:                  -0.226
REMARK UNBOUND:                -0.648
REMARK SMILES C=CCCCCCCC(=O)[O-]
REMARK SMILES IDX 6 1 7 2 8 3 9 4 10 5 11 6 5 7 4 8 3 9 2 10 1 11
REMARK H PARENT
REMARK Flexibility Score: inf
ROOT
ATOM      1  C   UNL     1     -24.958 -28.600   4.899  1.00  0.00     0.000 C 
ENDROOT
BRANCH   1   2
ATOM      2  C   UNL     1     -25.420 -29.528   6.034  1.00  0.00     0.006 C 
BRANCH   2   3
ATOM      3  C   UNL     1     -26.908 -29.356   6.371  1.00  0.00     0.053 C 
BRANCH   3   4
ATOM      4  C   UNL     1     -27.071 -28.898   7.786  1.00  0.00     0.041 C 
ATOM      5  O   UNL     1     -26.166 -29.120   8.633  1.00  0.00    -0.550 OA
ATOM      6  O   UNL     1     -28.245 -28.270   8.183  1.00  0.00    -0.550 OA
ENDBRANCH   3   4
ENDBRANCH   2   3
ENDBRANCH   1   2
BRANCH   1   7
ATOM      7  C   UNL     1     -24.294 -29.368   3.742  1.00  0.00     0.000 C 
BRANCH   7   8
ATOM      8  C   UNL     1     -22.948 -29.991   4.144  1.00  0.00     0.004 C 
BRANCH   8   9
ATOM      9  C   UNL     1     -22.314 -30.815   3.012  1.00  0.00     0.027 C 
BRANCH   9  10
ATOM     10  C   UNL     1     -22.438 -32.290   3.279  1.00  0.00    -0.035 C 
ATOM     11  C   UNL     1     -22.445 -33.186   2.288  1.00  0.00     0.004 C 
ENDBRANCH   9  10
ENDBRANCH   8   9
ENDBRANCH   7   8
ENDBRANCH   1   7
TORSDOF 7
ENDMDL
MODEL 9
REMARK VINA RESULT:    -3.858     10.536     11.981
REMARK INTER + INTRA:          -6.085
REMARK INTER:                  -5.766
REMARK INTRA:                  -0.319
REMARK UNBOUND:                -0.648
REMARK SMILES C=CCCCCCCC(=O)[O-]
REMARK SMILES IDX 6 1 7 2 8 3 9 4 10 5 11 6 5 7 4 8 3 9 2 10 1 11
REMARK H PARENT
REMARK Flexibility Score: inf
ROOT
ATOM      1  C   UNL     1     -20.324 -23.143  13.105  1.00  0.00     0.000 C 
ENDROOT
BRANCH   1   2
ATOM      2  C   UNL     1     -19.493 -23.942  14.122  1.00  0.00     0.006 C 
BRANCH   2   3
ATOM      3  C   UNL     1     -18.560 -24.961  13.453  1.00  0.00     0.053 C 
BRANCH   3   4
ATOM      4  C   UNL     1     -17.716 -25.647  14.481  1.00  0.00     0.041 C 
ATOM      5  O   UNL     1     -16.480 -25.795  14.289  1.00  0.00    -0.550 OA
ATOM      6  O   UNL     1     -18.302 -26.166  15.628  1.00  0.00    -0.550 OA
ENDBRANCH   3   4
ENDBRANCH   2   3
ENDBRANCH   1   2
BRANCH   1   7
ATOM      7  C   UNL     1     -19.583 -22.933  11.772  1.00  0.00     0.000 C 
BRANCH   7   8
ATOM      8  C   UNL     1     -19.150 -21.474  11.562  1.00  0.00     0.004 C 
BRANCH   8   9
ATOM      9  C   UNL     1     -19.620 -20.903  10.216  1.00  0.00     0.027 C 
BRANCH   9  10
ATOM     10  C   UNL     1     -20.206 -21.979   9.345  1.00  0.00    -0.035 C 
ATOM     11  C   UNL     1     -21.040 -21.695   8.341  1.00  0.00     0.004 C 
ENDBRANCH   9  10
ENDBRANCH   8   9
ENDBRANCH   7   8
ENDBRANCH   1   7
TORSDOF 7
ENDMDL
