MODEL 1
REMARK VINA RESULT:    -4.256      0.000      0.000
REMARK INTER + INTRA:          -5.790
REMARK INTER:                  -5.500
REMARK INTRA:                  -0.290
REMARK UNBOUND:                -0.290
REMARK SMILES CCCCCCC(=O)[O-]
REMARK SMILES IDX 5 1 6 2 7 3 8 4 9 5 4 6 3 7 2 8 1 9
REMARK H PARENT
REMARK Flexibility Score: inf
ROOT
ATOM      1  C   UNL     1      10.115 -14.880  38.089  1.00  0.00     0.006 C 
ENDROOT
BRANCH   1   2
ATOM      2  C   UNL     1      10.881 -15.193  36.796  1.00  0.00     0.053 C 
BRANCH   2   3
ATOM      3  C   UNL     1      12.053 -14.280  36.610  1.00  0.00     0.041 C 
ATOM      4  O   UNL     1      12.021 -13.376  35.733  1.00  0.00    -0.550 OA
ATOM      5  O   UNL     1      13.168 -14.402  37.430  1.00  0.00    -0.550 OA
ENDBRANCH   2   3
ENDBRANCH   1   2
BRANCH   1   6
ATOM      6  C   UNL     1       9.295 -13.583  37.979  1.00  0.00     0.000 C 
BRANCH   6   7
ATOM      7  C   UNL     1       7.788 -13.848  37.827  1.00  0.00    -0.000 C 
BRANCH   7   8
ATOM      8  C   UNL     1       7.183 -13.134  36.611  1.00  0.00    -0.003 C 
ATOM      9  C   UNL     1       7.960 -13.459  35.339  1.00  0.00     0.004 C 
ENDBRANCH   7   8
ENDBRANCH   6   7
ENDBRANCH   1   6
TORSDOF 5
ENDMDL
MODEL 2
REMARK VINA RESULT:    -4.183      0.923      1.643
REMARK INTER + INTRA:          -5.696
REMARK INTER:                  -5.385
REMARK INTRA:                  -0.311
REMARK UNBOUND:                -0.290
REMARK SMILES CCCCCCC(=O)[O-]
REMARK SMILES IDX 5 1 6 2 7 3 8 4 9 5 4 6 3 7 2 8 1 9
REMARK H PARENT
REMARK Flexibility Score: inf
ROOT
ATOM      1  C   UNL     1      10.681 -15.009  36.857  1.00  0.00     0.006 C 
ENDROOT
BRANCH   1   2
ATOM      2  C   UNL     1      11.261 -13.676  36.367  1.00  0.00     0.053 C 
BRANCH   2   3
ATOM      3  C   UNL     1      12.608 -13.404  36.963  1.00  0.00     0.041 C 
ATOM      4  O   UNL     1      13.332 -14.358  37.354  1.00  0.00    -0.550 OA
ATOM      5  O   UNL     1      13.081 -12.101  37.052  1.00  0.00    -0.550 OA
ENDBRANCH   2   3
ENDBRANCH   1   2
BRANCH   1   6
ATOM      6  C   UNL     1       9.916 -14.857  38.184  1.00  0.00     0.000 C 
BRANCH   6   7
ATOM      7  C   UNL     1       9.061 -13.580  38.229  1.00  0.00    -0.000 C 
BRANCH   7   8
ATOM      8  C   UNL     1       7.591 -13.841  37.876  1.00  0.00    -0.003 C 
ATOM      9  C   UNL     1       7.281 -13.398  36.448  1.00  0.00     0.004 C 
ENDBRANCH   7   8
ENDBRANCH   6   7
ENDBRANCH   1   6
TORSDOF 5
ENDMDL
MODEL 3
REMARK VINA RESULT:    -4.181      2.808      4.479
REMARK INTER + INTRA:          -5.694
REMARK INTER:                  -5.485
REMARK INTRA:                  -0.209
REMARK UNBOUND:                -0.290
REMARK SMILES CCCCCCC(=O)[O-]
REMARK SMILES IDX 5 1 6 2 7 3 8 4 9 5 4 6 3 7 2 8 1 9
REMARK H PARENT
REMARK Flexibility Score: inf
ROOT
ATOM      1  C   UNL     1      12.689 -14.159  37.251  1.00  0.00     0.006 C 
ENDROOT
BRANCH   1   2
ATOM      2  C   UNL     1      11.322 -14.818  37.025  1.00  0.00     0.053 C 
BRANCH   2   3
ATOM      3  C   UNL     1      10.324 -14.397  38.059  1.00  0.00     0.041 C 
ATOM      4  O   UNL     1      10.006 -13.184  38.178  1.00  0.00    -0.550 OA
ATOM      5  O   UNL     1       9.717 -15.349  38.869  1.00  0.00    -0.550 OA
ENDBRANCH   2   3
ENDBRANCH   1   2
BRANCH   1   6
ATOM      6  C   UNL     1      12.978 -13.052  36.222  1.00  0.00     0.000 C 
BRANCH   6   7
ATOM      7  C   UNL     1      12.930 -11.645  36.837  1.00  0.00    -0.000 C 
BRANCH   7   8
ATOM      8  C   UNL     1      13.718 -10.615  36.016  1.00  0.00    -0.003 C 
ATOM      9  C   UNL     1      14.130 -11.188  34.663  1.00  0.00     0.004 C 
ENDBRANCH   7   8
ENDBRANCH   6   7
ENDBRANCH   1   6
TORSDOF 5
ENDMDL
MODEL 4
REMARK VINA RESULT:    -4.170      2.953      4.592
REMARK INTER + INTRA:          -5.680
REMARK INTER:                  -5.338
REMARK INTRA:                  -0.342
REMARK UNBOUND:                -0.290
REMARK SMILES CCCCCCC(=O)[O-]
REMARK SMILES IDX 5 1 6 2 7 3 8 4 9 5 4 6 3 7 2 8 1 9
REMARK H PARENT
REMARK Flexibility Score: inf
ROOT
ATOM      1  C   UNL     1      13.251 -13.200  35.663  1.00  0.00     0.006 C 
ENDROOT
BRANCH   1   2
ATOM      2  C   UNL     1      12.950 -13.879  37.007  1.00  0.00     0.053 C 
BRANCH   2   3
ATOM      3  C   UNL     1      11.507 -14.261  37.125  1.00  0.00     0.041 C 
ATOM      4  O   UNL     1      11.092 -15.334  36.613  1.00  0.00    -0.550 OA
ATOM      5  O   UNL     1      10.628 -13.451  37.832  1.00  0.00    -0.550 OA
ENDBRANCH   2   3
ENDBRANCH   1   2
BRANCH   1   6
ATOM      6  C   UNL     1      12.663 -11.780  35.586  1.00  0.00     0.000 C 
BRANCH   6   7
ATOM      7  C   UNL     1      13.540 -10.738  36.297  1.00  0.00    -0.000 C 
BRANCH   7   8
ATOM      8  C   UNL     1      12.765  -9.934  37.350  1.00  0.00    -0.003 C 
ATOM      9  C   UNL     1      12.896 -10.568  38.732  1.00  0.00     0.004 C 
ENDBRANCH   7   8
ENDBRANCH   6   7
ENDBRANCH   1   6
TORSDOF 5
ENDMDL
MODEL 5
REMARK VINA RESULT:    -4.164      3.925      5.360
REMARK INTER + INTRA:          -5.672
REMARK INTER:                  -5.352
REMARK INTRA:                  -0.320
REMARK UNBOUND:                -0.290
REMARK SMILES CCCCCCC(=O)[O-]
REMARK SMILES IDX 5 1 6 2 7 3 8 4 9 5 4 6 3 7 2 8 1 9
REMARK H PARENT
REMARK Flexibility Score: inf
ROOT
ATOM      1  C   UNL     1      12.953 -10.561  35.586  1.00  0.00     0.006 C 
ENDROOT
BRANCH   1   2
ATOM      2  C   UNL     1      13.615 -10.202  36.924  1.00  0.00     0.053 C 
BRANCH   2   3
ATOM      3  C   UNL     1      12.669 -10.367  38.073  1.00  0.00     0.041 C 
ATOM      4  O   UNL     1      11.474 -10.710  37.867  1.00  0.00    -0.550 OA
ATOM      5  O   UNL     1      13.115 -10.178  39.375  1.00  0.00    -0.550 OA
ENDBRANCH   2   3
ENDBRANCH   1   2
BRANCH   1   6
ATOM      6  C   UNL     1      13.896 -11.356  34.667  1.00  0.00     0.000 C 
BRANCH   6   7
ATOM      7  C   UNL     1      13.908 -12.859  34.990  1.00  0.00    -0.000 C 
BRANCH   7   8
ATOM      8  C   UNL     1      12.619 -13.325  35.679  1.00  0.00    -0.003 C 
ATOM      9  C   UNL     1      12.919 -13.974  37.027  1.00  0.00     0.004 C 
ENDBRANCH   7   8
ENDBRANCH   6   7
ENDBRANCH   1   6
TORSDOF 5
ENDMDL
MODEL 6
REMARK VINA RESULT:    -4.133      2.489      4.302
REMARK INTER + INTRA:          -5.631
REMARK INTER:                  -5.366
REMARK INTRA:                  -0.265
REMARK UNBOUND:                -0.290
REMARK SMILES CCCCCCC(=O)[O-]
REMARK SMILES IDX 5 1 6 2 7 3 8 4 9 5 4 6 3 7 2 8 1 9
REMARK H PARENT
REMARK Flexibility Score: inf
ROOT
ATOM      1  C   UNL     1       9.081 -13.419  38.081  1.00  0.00     0.006 C 
ENDROOT
BRANCH   1   2
ATOM      2  C   UNL     1       7.664 -13.706  37.568  1.00  0.00     0.053 C 
BRANCH   2   3
ATOM      3  C   UNL     1       7.390 -13.005  36.273  1.00  0.00     0.041 C 
ATOM      4  O   UNL     1       6.828 -11.877  36.270  1.00  0.00    -0.550 OA
ATOM      5  O   UNL     1       7.788 -13.578  35.072  1.00  0.00    -0.550 OA
ENDBRANCH   2   3
ENDBRANCH   1   2
BRANCH   1   6
ATOM      6  C   UNL     1       9.940 -14.693  38.160  1.00  0.00     0.000 C 
BRANCH   6   7
ATOM      7  C   UNL     1      10.607 -15.039  36.819  1.00  0.00    -0.000 C 
BRANCH   7   8
ATOM      8  C   UNL     1      11.683 -14.021  36.415  1.00  0.00    -0.003 C 
ATOM      9  C   UNL     1      12.916 -14.141  37.306  1.00  0.00     0.004 C 
ENDBRANCH   7   8
ENDBRANCH   6   7
ENDBRANCH   1   6
TORSDOF 5
ENDMDL
MODEL 7
REMARK VINA RESULT:    -4.127      2.156      3.931
REMARK INTER + INTRA:          -5.624
REMARK INTER:                  -5.259
REMARK INTRA:                  -0.365
REMARK UNBOUND:                -0.290
REMARK SMILES CCCCCCC(=O)[O-]
REMARK SMILES IDX 5 1 6 2 7 3 8 4 9 5 4 6 3 7 2 8 1 9
REMARK H PARENT
REMARK Flexibility Score: inf
ROOT
ATOM      1  C   UNL     1       7.530 -13.341  36.926  1.00  0.00     0.006 C 
ENDROOT
BRANCH   1   2
ATOM      2  C   UNL     1       7.343 -12.350  35.770  1.00  0.00     0.053 C 
BRANCH   2   3
ATOM      3  C   UNL     1       8.203 -12.698  34.595  1.00  0.00     0.041 C 
ATOM      4  O   UNL     1       9.404 -12.318  34.553  1.00  0.00    -0.550 OA
ATOM      5  O   UNL     1       7.691 -13.472  33.561  1.00  0.00    -0.550 OA
ENDBRANCH   2   3
ENDBRANCH   1   2
BRANCH   1   6
ATOM      6  C   UNL     1       8.416 -12.766  38.045  1.00  0.00     0.000 C 
BRANCH   6   7
ATOM      7  C   UNL     1       9.883 -13.212  37.926  1.00  0.00    -0.000 C 
BRANCH   7   8
ATOM      8  C   UNL     1      10.030 -14.736  37.820  1.00  0.00    -0.003 C 
ATOM      9  C   UNL     1      10.754 -15.132  36.536  1.00  0.00     0.004 C 
ENDBRANCH   7   8
ENDBRANCH   6   7
ENDBRANCH   1   6
TORSDOF 5
ENDMDL
MODEL 8
REMARK VINA RESULT:    -4.083      3.508      5.239
REMARK INTER + INTRA:          -5.566
REMARK INTER:                  -5.200
REMARK INTRA:                  -0.366
REMARK UNBOUND:                -0.290
REMARK SMILES CCCCCCC(=O)[O-]
REMARK SMILES IDX 5 1 6 2 7 3 8 4 9 5 4 6 3 7 2 8 1 9
REMARK H PARENT
REMARK Flexibility Score: inf
ROOT
ATOM      1  C   UNL     1      12.202  -9.924  37.980  1.00  0.00     0.006 C 
ENDROOT
BRANCH   1   2
ATOM      2  C   UNL     1      11.345 -10.908  38.789  1.00  0.00     0.053 C 
BRANCH   2   3
ATOM      3  C   UNL     1      10.489 -11.758  37.902  1.00  0.00     0.041 C 
ATOM      4  O   UNL     1      10.209 -12.940  38.234  1.00  0.00    -0.550 OA
ATOM      5  O   UNL     1       9.969 -11.233  36.725  1.00  0.00    -0.550 OA
ENDBRANCH   2   3
ENDBRANCH   1   2
BRANCH   1   6
ATOM      6  C   UNL     1      13.414 -10.610  37.326  1.00  0.00     0.000 C 
BRANCH   6   7
ATOM      7  C   UNL     1      13.557 -10.263  35.836  1.00  0.00    -0.000 C 
BRANCH   7   8
ATOM      8  C   UNL     1      13.888 -11.489  34.974  1.00  0.00    -0.003 C 
ATOM      9  C   UNL     1      13.190 -12.739  35.502  1.00  0.00     0.004 C 
ENDBRANCH   7   8
ENDBRANCH   6   7
ENDBRANCH   1   6
TORSDOF 5
ENDMDL
MODEL 9
REMARK VINA RESULT:    -4.048      1.563      2.468
REMARK INTER + INTRA:          -5.522
REMARK INTER:                  -5.138
REMARK INTRA:                  -0.384
REMARK UNBOUND:                -0.290
REMARK SMILES CCCCCCC(=O)[O-]
REMARK SMILES IDX 5 1 6 2 7 3 8 4 9 5 4 6 3 7 2 8 1 9
REMARK H PARENT
REMARK Flexibility Score: inf
ROOT
ATOM      1  C   UNL     1      12.748 -14.334  37.376  1.00  0.00     0.006 C 
ENDROOT
BRANCH   1   2
ATOM      2  C   UNL     1      12.841 -12.832  37.076  1.00  0.00     0.053 C 
BRANCH   2   3
ATOM      3  C   UNL     1      12.837 -12.559  35.603  1.00  0.00     0.041 C 
ATOM      4  O   UNL     1      11.872 -11.944  35.076  1.00  0.00    -0.550 OA
ATOM      5  O   UNL     1      13.914 -12.949  34.819  1.00  0.00    -0.550 OA
ENDBRANCH   2   3
ENDBRANCH   1   2
BRANCH   1   6
ATOM      6  C   UNL     1      11.441 -14.951  36.847  1.00  0.00     0.000 C 
BRANCH   6   7
ATOM      7  C   UNL     1      10.252 -14.718  37.792  1.00  0.00    -0.000 C 
BRANCH   7   8
ATOM      8  C   UNL     1       9.281 -13.651  37.267  1.00  0.00    -0.003 C 
ATOM      9  C   UNL     1       8.896 -13.925  35.816  1.00  0.00     0.004 C 
ENDBRANCH   7   8
ENDBRANCH   6   7
ENDBRANCH   1   6
TORSDOF 5
ENDMDL
