MODEL 1
REMARK VINA RESULT:    -3.552      0.000      0.000
REMARK INTER + INTRA:          -4.872
REMARK INTER:                  -4.383
REMARK INTRA:                  -0.489
REMARK UNBOUND:                -0.489
REMARK SMILES CC(C)=CCC[C@H](C)c1ccc(C)cc1
REMARK SMILES IDX 6 1 7 2 8 3 9 4 13 5 12 6 11 7 14 8 10 9 15 10 5 11 4 12
REMARK SMILES IDX 2 13 1 14 3 15
REMARK H PARENT
REMARK Flexibility Score: inf
ROOT
ATOM      1  C   UNL     1      11.243   5.668  18.193  1.00  0.00     0.012 C 
ENDROOT
BRANCH   1   2
ATOM      2  C   UNL     1      12.717   5.329  17.875  1.00  0.00     0.016 C 
ATOM      3  C   UNL     1      13.013   3.828  18.018  1.00  0.00     0.013 C 
BRANCH   2   4
ATOM      4  C   UNL     1      13.649   6.135  18.762  1.00  0.00    -0.045 A 
ATOM      5  C   UNL     1      16.294   8.395  21.324  1.00  0.00     0.044 C 
ATOM      6  C   UNL     1      15.365   7.637  20.423  1.00  0.00    -0.051 A 
ATOM      7  C   UNL     1      15.790   7.232  19.149  1.00  0.00     0.004 A 
ATOM      8  C   UNL     1      14.089   7.267  20.872  1.00  0.00     0.004 A 
ATOM      9  C   UNL     1      14.938   6.493  18.323  1.00  0.00     0.004 A 
ATOM     10  C   UNL     1      13.236   6.527  20.048  1.00  0.00     0.004 A 
ENDBRANCH   2   4
ENDBRANCH   1   2
BRANCH   1  11
ATOM     11  C   UNL     1      10.288   4.509  17.878  1.00  0.00     0.028 C 
BRANCH  11  12
ATOM     12  C   UNL     1       8.929   4.759  18.486  1.00  0.00    -0.028 C 
ATOM     13  C   UNL     1       7.978   3.813  18.645  1.00  0.00    -0.080 C 
ATOM     14  C   UNL     1       8.171   2.393  18.169  1.00  0.00     0.039 C 
ATOM     15  C   UNL     1       6.680   4.204  19.305  1.00  0.00     0.039 C 
ENDBRANCH  11  12
ENDBRANCH   1  11
TORSDOF 4
ENDMDL
MODEL 2
REMARK VINA RESULT:    -3.062      1.317      6.907
REMARK INTER + INTRA:          -4.267
REMARK INTER:                  -3.669
REMARK INTRA:                  -0.598
REMARK UNBOUND:                -0.489
REMARK SMILES CC(C)=CCC[C@H](C)c1ccc(C)cc1
REMARK SMILES IDX 6 1 7 2 8 3 9 4 13 5 12 6 11 7 14 8 10 9 15 10 5 11 4 12
REMARK SMILES IDX 2 13 1 14 3 15
REMARK H PARENT
REMARK Flexibility Score: inf
ROOT
ATOM      1  C   UNL     1      14.160   5.578  17.928  1.00  0.00     0.012 C 
ENDROOT
BRANCH   1   2
ATOM      2  C   UNL     1      12.754   6.146  18.227  1.00  0.00     0.016 C 
ATOM      3  C   UNL     1      12.684   6.837  19.598  1.00  0.00     0.013 C 
BRANCH   2   4
ATOM      4  C   UNL     1      11.709   5.049  18.137  1.00  0.00    -0.045 A 
ATOM      5  C   UNL     1       8.753   1.906  17.926  1.00  0.00     0.044 C 
ATOM      6  C   UNL     1       9.782   2.996  17.969  1.00  0.00    -0.051 A 
ATOM      7  C   UNL     1       9.392   4.340  17.882  1.00  0.00     0.004 A 
ATOM      8  C   UNL     1      11.136   2.683  18.165  1.00  0.00     0.004 A 
ATOM      9  C   UNL     1      10.347   5.358  17.959  1.00  0.00     0.004 A 
ATOM     10  C   UNL     1      12.092   3.700  18.243  1.00  0.00     0.004 A 
ENDBRANCH   2   4
ENDBRANCH   1   2
BRANCH   1  11
ATOM     11  C   UNL     1      15.255   6.652  17.973  1.00  0.00     0.028 C 
BRANCH  11  12
ATOM     12  C   UNL     1      16.072   6.527  19.236  1.00  0.00    -0.028 C 
ATOM     13  C   UNL     1      16.324   7.547  20.087  1.00  0.00    -0.080 C 
ATOM     14  C   UNL     1      15.845   8.954  19.817  1.00  0.00     0.039 C 
ATOM     15  C   UNL     1      17.125   7.262  21.332  1.00  0.00     0.039 C 
ENDBRANCH  11  12
ENDBRANCH   1  11
TORSDOF 4
ENDMDL
MODEL 3
REMARK VINA RESULT:    -0.634      1.263      1.766
REMARK INTER + INTRA:          -1.271
REMARK INTER:                  -0.771
REMARK INTRA:                  -0.500
REMARK UNBOUND:                -0.489
REMARK SMILES CC(C)=CCC[C@H](C)c1ccc(C)cc1
REMARK SMILES IDX 6 1 7 2 8 3 9 4 13 5 12 6 11 7 14 8 10 9 15 10 5 11 4 12
REMARK SMILES IDX 2 13 1 14 3 15
REMARK H PARENT
REMARK Flexibility Score: inf
ROOT
ATOM      1  C   UNL     1      12.361   5.442  19.396  1.00  0.00     0.012 C 
ENDROOT
BRANCH   1   2
ATOM      2  C   UNL     1      13.564   6.129  18.710  1.00  0.00     0.016 C 
ATOM      3  C   UNL     1      14.399   5.145  17.875  1.00  0.00     0.013 C 
BRANCH   2   4
ATOM      4  C   UNL     1      14.439   6.817  19.743  1.00  0.00    -0.045 A 
ATOM      5  C   UNL     1      16.907   8.746  22.719  1.00  0.00     0.044 C 
ATOM      6  C   UNL     1      16.049   8.102  21.669  1.00  0.00    -0.051 A 
ATOM      7  C   UNL     1      16.639   7.451  20.577  1.00  0.00     0.004 A 
ATOM      8  C   UNL     1      14.653   8.086  21.809  1.00  0.00     0.004 A 
ATOM      9  C   UNL     1      15.842   6.819  19.618  1.00  0.00     0.004 A 
ATOM     10  C   UNL     1      13.855   7.454  20.851  1.00  0.00     0.004 A 
ENDBRANCH   2   4
ENDBRANCH   1   2
BRANCH   1  11
ATOM     11  C   UNL     1      12.019   4.083  18.768  1.00  0.00     0.028 C 
BRANCH  11  12
ATOM     12  C   UNL     1      10.589   4.065  18.287  1.00  0.00    -0.028 C 
ATOM     13  C   UNL     1       9.763   3.000  18.388  1.00  0.00    -0.080 C 
ATOM     14  C   UNL     1      10.224   1.679  18.958  1.00  0.00     0.039 C 
ATOM     15  C   UNL     1       8.344   3.142  17.898  1.00  0.00     0.039 C 
ENDBRANCH  11  12
ENDBRANCH   1  11
TORSDOF 4
ENDMDL
