MODEL 1
REMARK VINA RESULT:    -3.652      0.000      0.000
REMARK INTER + INTRA:          -5.787
REMARK INTER:                  -5.040
REMARK INTRA:                  -0.747
REMARK UNBOUND:                -0.747
REMARK SMILES OC[C@H](O)C(O)[C@@H](O)CO
REMARK SMILES IDX 5 1 7 2 9 3 10 4 8 6 3 8 2 9 1 10 4 12 6 14
REMARK H PARENT 10 5 8 7 1 11 4 13 6 15
REMARK Flexibility Score: inf
ROOT
ATOM      1  C   UNL     1       5.415   7.590  11.780  1.00  0.00     0.176 C 
ENDROOT
BRANCH   1   2
ATOM      2  C   UNL     1       6.049   7.176  10.418  1.00  0.00     0.171 C 
BRANCH   2   3
ATOM      3  C   UNL     1       6.349   5.665  10.295  1.00  0.00     0.190 C 
BRANCH   3   4
ATOM      4  O   UNL     1       7.583   5.345  10.882  1.00  0.00    -0.394 OA
ATOM      5  H   UNL     1       8.160   6.148  10.790  1.00  0.00     0.210 HD
ENDBRANCH   3   4
ENDBRANCH   2   3
BRANCH   2   6
ATOM      6  O   UNL     1       7.233   7.904  10.205  1.00  0.00    -0.388 OA
ATOM      7  H   UNL     1       7.501   7.767   9.258  1.00  0.00     0.211 HD
ENDBRANCH   2   6
ENDBRANCH   1   2
BRANCH   1   8
ATOM      8  C   UNL     1       5.115   9.113  11.889  1.00  0.00     0.171 C 
BRANCH   8   9
ATOM      9  C   UNL     1       6.075   9.826  12.867  1.00  0.00     0.190 C 
BRANCH   9  10
ATOM     10  O   UNL     1       7.394   9.808  12.392  1.00  0.00    -0.394 OA
ATOM     11  H   UNL     1       7.376  10.215  11.485  1.00  0.00     0.210 HD
ENDBRANCH   9  10
ENDBRANCH   8   9
BRANCH   8  12
ATOM     12  O   UNL     1       3.803   9.293  12.357  1.00  0.00    -0.388 OA
ATOM     13  H   UNL     1       3.212   8.737  11.784  1.00  0.00     0.211 HD
ENDBRANCH   8  12
ENDBRANCH   1   8
BRANCH   1  14
ATOM     14  O   UNL     1       6.256   7.173  12.827  1.00  0.00    -0.388 OA
ATOM     15  H   UNL     1       5.811   6.408  13.280  1.00  0.00     0.211 HD
ENDBRANCH   1  14
TORSDOF 9
ENDMDL
MODEL 2
REMARK VINA RESULT:    -3.557     11.698     12.834
REMARK INTER + INTRA:          -5.655
REMARK INTER:                  -5.190
REMARK INTRA:                  -0.466
REMARK UNBOUND:                -0.747
REMARK SMILES OC[C@H](O)C(O)[C@@H](O)CO
REMARK SMILES IDX 5 1 7 2 9 3 10 4 8 6 3 8 2 9 1 10 4 12 6 14
REMARK H PARENT 10 5 8 7 1 11 4 13 6 15
REMARK Flexibility Score: inf
ROOT
ATOM      1  C   UNL     1      11.387   7.896  23.102  1.00  0.00     0.176 C 
ENDROOT
BRANCH   1   2
ATOM      2  C   UNL     1      11.968   6.943  22.014  1.00  0.00     0.171 C 
BRANCH   2   3
ATOM      3  C   UNL     1      12.690   7.671  20.858  1.00  0.00     0.190 C 
BRANCH   3   4
ATOM      4  O   UNL     1      11.792   8.008  19.833  1.00  0.00    -0.394 OA
ATOM      5  H   UNL     1      10.903   7.659  20.106  1.00  0.00     0.210 HD
ENDBRANCH   3   4
ENDBRANCH   2   3
BRANCH   2   6
ATOM      6  O   UNL     1      10.939   6.141  21.488  1.00  0.00    -0.388 OA
ATOM      7  H   UNL     1      11.310   5.229  21.357  1.00  0.00     0.211 HD
ENDBRANCH   2   6
ENDBRANCH   1   2
BRANCH   1   8
ATOM      8  C   UNL     1      10.992   7.169  24.420  1.00  0.00     0.171 C 
BRANCH   8   9
ATOM      9  C   UNL     1      12.220   6.594  25.159  1.00  0.00     0.190 C 
BRANCH   9  10
ATOM     10  O   UNL     1      12.067   5.223  25.412  1.00  0.00    -0.394 OA
ATOM     11  H   UNL     1      12.454   5.055  26.311  1.00  0.00     0.210 HD
ENDBRANCH   9  10
ENDBRANCH   8   9
BRANCH   8  12
ATOM     12  O   UNL     1      10.126   6.104  24.118  1.00  0.00    -0.388 OA
ATOM     13  H   UNL     1      10.694   5.335  23.851  1.00  0.00     0.211 HD
ENDBRANCH   8  12
ENDBRANCH   1   8
BRANCH   1  14
ATOM     14  O   UNL     1      10.285   8.589  22.568  1.00  0.00    -0.388 OA
ATOM     15  H   UNL     1      10.313   8.478  21.581  1.00  0.00     0.211 HD
ENDBRANCH   1  14
TORSDOF 9
ENDMDL
MODEL 3
REMARK VINA RESULT:    -3.529      5.986      8.045
REMARK INTER + INTRA:          -5.617
REMARK INTER:                  -4.932
REMARK INTRA:                  -0.685
REMARK UNBOUND:                -0.747
REMARK SMILES OC[C@H](O)C(O)[C@@H](O)CO
REMARK SMILES IDX 5 1 7 2 9 3 10 4 8 6 3 8 2 9 1 10 4 12 6 14
REMARK H PARENT 10 5 8 7 1 11 4 13 6 15
REMARK Flexibility Score: inf
ROOT
ATOM      1  C   UNL     1       5.654  13.379  15.173  1.00  0.00     0.176 C 
ENDROOT
BRANCH   1   2
ATOM      2  C   UNL     1       6.353  14.204  16.295  1.00  0.00     0.171 C 
BRANCH   2   3
ATOM      3  C   UNL     1       5.558  14.271  17.618  1.00  0.00     0.190 C 
BRANCH   3   4
ATOM      4  O   UNL     1       4.642  15.334  17.606  1.00  0.00    -0.394 OA
ATOM      5  H   UNL     1       5.132  16.128  17.266  1.00  0.00     0.210 HD
ENDBRANCH   3   4
ENDBRANCH   2   3
BRANCH   2   6
ATOM      6  O   UNL     1       6.603  15.510  15.837  1.00  0.00    -0.388 OA
ATOM      7  H   UNL     1       6.856  16.059  16.625  1.00  0.00     0.211 HD
ENDBRANCH   2   6
ENDBRANCH   1   2
BRANCH   1   8
ATOM      8  C   UNL     1       5.941  13.909  13.739  1.00  0.00     0.171 C 
BRANCH   8   9
ATOM      9  C   UNL     1       5.343  12.993  12.649  1.00  0.00     0.190 C 
BRANCH   9  10
ATOM     10  O   UNL     1       4.026  13.363  12.338  1.00  0.00    -0.394 OA
ATOM     11  H   UNL     1       3.892  13.156  11.376  1.00  0.00     0.210 HD
ENDBRANCH   9  10
ENDBRANCH   8   9
BRANCH   8  12
ATOM     12  O   UNL     1       7.331  13.973  13.540  1.00  0.00    -0.388 OA
ATOM     13  H   UNL     1       7.749  13.384  14.221  1.00  0.00     0.211 HD
ENDBRANCH   8  12
ENDBRANCH   1   8
BRANCH   1  14
ATOM     14  O   UNL     1       4.270  13.342  15.421  1.00  0.00    -0.388 OA
ATOM     15  H   UNL     1       4.078  14.000  16.140  1.00  0.00     0.211 HD
ENDBRANCH   1  14
TORSDOF 9
ENDMDL
MODEL 4
REMARK VINA RESULT:    -3.523      6.086      8.378
REMARK INTER + INTRA:          -5.608
REMARK INTER:                  -5.281
REMARK INTRA:                  -0.327
REMARK UNBOUND:                -0.747
REMARK SMILES OC[C@H](O)C(O)[C@@H](O)CO
REMARK SMILES IDX 5 1 7 2 9 3 10 4 8 6 3 8 2 9 1 10 4 12 6 14
REMARK H PARENT 10 5 8 7 1 11 4 13 6 15
REMARK Flexibility Score: inf
ROOT
ATOM      1  C   UNL     1       6.809  15.026  14.907  1.00  0.00     0.176 C 
ENDROOT
BRANCH   1   2
ATOM      2  C   UNL     1       6.700  14.721  16.431  1.00  0.00     0.171 C 
BRANCH   2   3
ATOM      3  C   UNL     1       5.285  14.307  16.893  1.00  0.00     0.190 C 
BRANCH   3   4
ATOM      4  O   UNL     1       4.663  15.341  17.610  1.00  0.00    -0.394 OA
ATOM      5  H   UNL     1       3.686  15.164  17.577  1.00  0.00     0.210 HD
ENDBRANCH   3   4
ENDBRANCH   2   3
BRANCH   2   6
ATOM      6  O   UNL     1       7.121  15.841  17.170  1.00  0.00    -0.388 OA
ATOM      7  H   UNL     1       7.826  15.536  17.799  1.00  0.00     0.211 HD
ENDBRANCH   2   6
ENDBRANCH   1   2
BRANCH   1   8
ATOM      8  C   UNL     1       6.376  13.837  14.002  1.00  0.00     0.171 C 
BRANCH   8   9
ATOM      9  C   UNL     1       7.542  13.307  13.139  1.00  0.00     0.190 C 
BRANCH   9  10
ATOM     10  O   UNL     1       8.497  12.645  13.924  1.00  0.00    -0.394 OA
ATOM     11  H   UNL     1       8.121  11.750  14.136  1.00  0.00     0.210 HD
ENDBRANCH   9  10
ENDBRANCH   8   9
BRANCH   8  12
ATOM     12  O   UNL     1       5.353  14.263  13.139  1.00  0.00    -0.388 OA
ATOM     13  H   UNL     1       5.681  15.081  12.681  1.00  0.00     0.211 HD
ENDBRANCH   8  12
ENDBRANCH   1   8
BRANCH   1  14
ATOM     14  O   UNL     1       8.124  15.424  14.609  1.00  0.00    -0.388 OA
ATOM     15  H   UNL     1       8.385  14.979  13.759  1.00  0.00     0.211 HD
ENDBRANCH   1  14
TORSDOF 9
ENDMDL
MODEL 5
REMARK VINA RESULT:    -3.512      2.402      4.938
REMARK INTER + INTRA:          -5.593
REMARK INTER:                  -5.120
REMARK INTRA:                  -0.473
REMARK UNBOUND:                -0.747
REMARK SMILES OC[C@H](O)C(O)[C@@H](O)CO
REMARK SMILES IDX 5 1 7 2 9 3 10 4 8 6 3 8 2 9 1 10 4 12 6 14
REMARK H PARENT 10 5 8 7 1 11 4 13 6 15
REMARK Flexibility Score: inf
ROOT
ATOM      1  C   UNL     1       7.818  10.461  11.715  1.00  0.00     0.176 C 
ENDROOT
BRANCH   1   2
ATOM      2  C   UNL     1       7.093  11.840  11.708  1.00  0.00     0.171 C 
BRANCH   2   3
ATOM      3  C   UNL     1       7.696  12.876  12.682  1.00  0.00     0.190 C 
BRANCH   3   4
ATOM      4  O   UNL     1       8.479  12.251  13.666  1.00  0.00    -0.394 OA
ATOM      5  H   UNL     1       8.724  12.954  14.324  1.00  0.00     0.210 HD
ENDBRANCH   3   4
ENDBRANCH   2   3
BRANCH   2   6
ATOM      6  O   UNL     1       5.730  11.660  12.007  1.00  0.00    -0.388 OA
ATOM      7  H   UNL     1       5.327  12.562  12.112  1.00  0.00     0.211 HD
ENDBRANCH   2   6
ENDBRANCH   1   2
BRANCH   1   8
ATOM      8  C   UNL     1       7.973   9.832  10.300  1.00  0.00     0.171 C 
BRANCH   8   9
ATOM      9  C   UNL     1       6.816   8.866   9.963  1.00  0.00     0.190 C 
BRANCH   9  10
ATOM     10  O   UNL     1       7.070   7.576  10.452  1.00  0.00    -0.394 OA
ATOM     11  H   UNL     1       6.602   7.505  11.326  1.00  0.00     0.210 HD
ENDBRANCH   9  10
ENDBRANCH   8   9
BRANCH   8  12
ATOM     12  O   UNL     1       9.175   9.108  10.246  1.00  0.00    -0.388 OA
ATOM     13  H   UNL     1       9.600   9.316   9.374  1.00  0.00     0.211 HD
ENDBRANCH   8  12
ENDBRANCH   1   8
BRANCH   1  14
ATOM     14  O   UNL     1       7.135   9.584  12.577  1.00  0.00    -0.388 OA
ATOM     15  H   UNL     1       7.566   9.648  13.470  1.00  0.00     0.211 HD
ENDBRANCH   1  14
TORSDOF 9
ENDMDL
MODEL 6
REMARK VINA RESULT:    -3.477      6.547      7.643
REMARK INTER + INTRA:          -5.545
REMARK INTER:                  -5.070
REMARK INTRA:                  -0.475
REMARK UNBOUND:                -0.747
REMARK SMILES OC[C@H](O)C(O)[C@@H](O)CO
REMARK SMILES IDX 5 1 7 2 9 3 10 4 8 6 3 8 2 9 1 10 4 12 6 14
REMARK H PARENT 10 5 8 7 1 11 4 13 6 15
REMARK Flexibility Score: inf
ROOT
ATOM      1  C   UNL     1       6.514  14.047  15.465  1.00  0.00     0.176 C 
ENDROOT
BRANCH   1   2
ATOM      2  C   UNL     1       6.291  13.560  14.002  1.00  0.00     0.171 C 
BRANCH   2   3
ATOM      3  C   UNL     1       7.597  13.310  13.214  1.00  0.00     0.190 C 
BRANCH   3   4
ATOM      4  O   UNL     1       8.435  14.436  13.252  1.00  0.00    -0.394 OA
ATOM      5  H   UNL     1       9.285  14.173  12.811  1.00  0.00     0.210 HD
ENDBRANCH   3   4
ENDBRANCH   2   3
BRANCH   2   6
ATOM      6  O   UNL     1       5.501  14.493  13.307  1.00  0.00    -0.388 OA
ATOM      7  H   UNL     1       5.557  15.355  13.797  1.00  0.00     0.211 HD
ENDBRANCH   2   6
ENDBRANCH   1   2
BRANCH   1   8
ATOM      8  C   UNL     1       5.407  13.577  16.453  1.00  0.00     0.171 C 
BRANCH   8   9
ATOM      9  C   UNL     1       5.486  14.313  17.809  1.00  0.00     0.190 C 
BRANCH   9  10
ATOM     10  O   UNL     1       4.671  15.455  17.817  1.00  0.00    -0.394 OA
ATOM     11  H   UNL     1       5.276  16.237  17.726  1.00  0.00     0.210 HD
ENDBRANCH   9  10
ENDBRANCH   8   9
BRANCH   8  12
ATOM     12  O   UNL     1       5.558  12.201  16.694  1.00  0.00    -0.388 OA
ATOM     13  H   UNL     1       5.391  12.057  17.662  1.00  0.00     0.211 HD
ENDBRANCH   8  12
ENDBRANCH   1   8
BRANCH   1  14
ATOM     14  O   UNL     1       6.624  15.449  15.474  1.00  0.00    -0.388 OA
ATOM     15  H   UNL     1       6.314  15.768  16.363  1.00  0.00     0.211 HD
ENDBRANCH   1  14
TORSDOF 9
ENDMDL
MODEL 7
REMARK VINA RESULT:    -3.467      2.394      3.347
REMARK INTER + INTRA:          -5.532
REMARK INTER:                  -5.056
REMARK INTRA:                  -0.476
REMARK UNBOUND:                -0.747
REMARK SMILES OC[C@H](O)C(O)[C@@H](O)CO
REMARK SMILES IDX 5 1 7 2 9 3 10 4 8 6 3 8 2 9 1 10 4 12 6 14
REMARK H PARENT 10 5 8 7 1 11 4 13 6 15
REMARK Flexibility Score: inf
ROOT
ATOM      1  C   UNL     1       7.026  10.275  11.820  1.00  0.00     0.176 C 
ENDROOT
BRANCH   1   2
ATOM      2  C   UNL     1       7.501   9.707  10.449  1.00  0.00     0.171 C 
BRANCH   2   3
ATOM      3  C   UNL     1       6.590   8.598   9.875  1.00  0.00     0.190 C 
BRANCH   3   4
ATOM      4  O   UNL     1       6.875   7.355  10.461  1.00  0.00    -0.394 OA
ATOM      5  H   UNL     1       7.401   7.541  11.283  1.00  0.00     0.210 HD
ENDBRANCH   3   4
ENDBRANCH   2   3
BRANCH   2   6
ATOM      6  O   UNL     1       8.813   9.215  10.568  1.00  0.00    -0.388 OA
ATOM      7  H   UNL     1       8.781   8.237  10.398  1.00  0.00     0.211 HD
ENDBRANCH   2   6
ENDBRANCH   1   2
BRANCH   1   8
ATOM      8  C   UNL     1       7.875  11.478  12.323  1.00  0.00     0.171 C 
BRANCH   8   9
ATOM      9  C   UNL     1       6.994  12.663  12.775  1.00  0.00     0.190 C 
BRANCH   9  10
ATOM     10  O   UNL     1       7.764  13.813  13.002  1.00  0.00    -0.394 OA
ATOM     11  H   UNL     1       8.426  13.864  12.262  1.00  0.00     0.210 HD
ENDBRANCH   9  10
ENDBRANCH   8   9
BRANCH   8  12
ATOM     12  O   UNL     1       8.706  11.924  11.282  1.00  0.00    -0.388 OA
ATOM     13  H   UNL     1       9.002  11.119  10.782  1.00  0.00     0.211 HD
ENDBRANCH   8  12
ENDBRANCH   1   8
BRANCH   1  14
ATOM     14  O   UNL     1       7.020   9.239  12.771  1.00  0.00    -0.388 OA
ATOM     15  H   UNL     1       6.141   9.263  13.233  1.00  0.00     0.211 HD
ENDBRANCH   1  14
TORSDOF 9
ENDMDL
MODEL 8
REMARK VINA RESULT:    -3.462     11.339     13.539
REMARK INTER + INTRA:          -5.524
REMARK INTER:                  -4.560
REMARK INTRA:                  -0.964
REMARK UNBOUND:                -0.747
REMARK SMILES OC[C@H](O)C(O)[C@@H](O)CO
REMARK SMILES IDX 5 1 7 2 9 3 10 4 8 6 3 8 2 9 1 10 4 12 6 14
REMARK H PARENT 10 5 8 7 1 11 4 13 6 15
REMARK Flexibility Score: inf
ROOT
ATOM      1  C   UNL     1       8.581  17.958  20.423  1.00  0.00     0.176 C 
ENDROOT
BRANCH   1   2
ATOM      2  C   UNL     1       7.819  16.605  20.542  1.00  0.00     0.171 C 
BRANCH   2   3
ATOM      3  C   UNL     1       7.639  15.861  19.200  1.00  0.00     0.190 C 
BRANCH   3   4
ATOM      4  O   UNL     1       6.546  16.368  18.481  1.00  0.00    -0.394 OA
ATOM      5  H   UNL     1       6.702  16.141  17.527  1.00  0.00     0.210 HD
ENDBRANCH   3   4
ENDBRANCH   2   3
BRANCH   2   6
ATOM      6  O   UNL     1       6.557  16.822  21.125  1.00  0.00    -0.388 OA
ATOM      7  H   UNL     1       6.491  17.789  21.343  1.00  0.00     0.211 HD
ENDBRANCH   2   6
ENDBRANCH   1   2
BRANCH   1   8
ATOM      8  C   UNL     1       7.829  19.157  21.071  1.00  0.00     0.171 C 
BRANCH   8   9
ATOM      9  C   UNL     1       7.111  20.031  20.019  1.00  0.00     0.190 C 
BRANCH   9  10
ATOM     10  O   UNL     1       6.190  19.280  19.274  1.00  0.00    -0.394 OA
ATOM     11  H   UNL     1       5.500  19.916  18.950  1.00  0.00     0.210 HD
ENDBRANCH   9  10
ENDBRANCH   8   9
BRANCH   8  12
ATOM     12  O   UNL     1       8.753  19.966  21.754  1.00  0.00    -0.388 OA
ATOM     13  H   UNL     1       8.459  20.005  22.701  1.00  0.00     0.211 HD
ENDBRANCH   8  12
ENDBRANCH   1   8
BRANCH   1  14
ATOM     14  O   UNL     1       8.853  18.217  19.067  1.00  0.00    -0.388 OA
ATOM     15  H   UNL     1       9.829  18.088  18.928  1.00  0.00     0.211 HD
ENDBRANCH   1  14
TORSDOF 9
ENDMDL
MODEL 9
REMARK VINA RESULT:    -3.390      2.085      3.323
REMARK INTER + INTRA:          -5.426
REMARK INTER:                  -4.905
REMARK INTRA:                  -0.521
REMARK UNBOUND:                -0.747
REMARK SMILES OC[C@H](O)C(O)[C@@H](O)CO
REMARK SMILES IDX 5 1 7 2 9 3 10 4 8 6 3 8 2 9 1 10 4 12 6 14
REMARK H PARENT 10 5 8 7 1 11 4 13 6 15
REMARK Flexibility Score: inf
ROOT
ATOM      1  C   UNL     1       6.402   8.776  10.073  1.00  0.00     0.176 C 
ENDROOT
BRANCH   1   2
ATOM      2  C   UNL     1       7.191   9.890  10.824  1.00  0.00     0.171 C 
BRANCH   2   3
ATOM      3  C   UNL     1       8.585  10.187  10.228  1.00  0.00     0.190 C 
BRANCH   3   4
ATOM      4  O   UNL     1       9.378   9.029  10.191  1.00  0.00    -0.394 OA
ATOM      5  H   UNL     1      10.141   9.225   9.586  1.00  0.00     0.210 HD
ENDBRANCH   3   4
ENDBRANCH   2   3
BRANCH   2   6
ATOM      6  O   UNL     1       7.330   9.541  12.180  1.00  0.00    -0.388 OA
ATOM      7  H   UNL     1       6.453   9.696  12.619  1.00  0.00     0.211 HD
ENDBRANCH   2   6
ENDBRANCH   1   2
BRANCH   1   8
ATOM      8  C   UNL     1       4.877   8.777  10.382  1.00  0.00     0.171 C 
BRANCH   8   9
ATOM      9  C   UNL     1       4.265  10.192  10.291  1.00  0.00     0.190 C 
BRANCH   9  10
ATOM     10  O   UNL     1       2.873  10.136  10.132  1.00  0.00    -0.394 OA
ATOM     11  H   UNL     1       2.612   9.183  10.235  1.00  0.00     0.210 HD
ENDBRANCH   9  10
ENDBRANCH   8   9
BRANCH   8  12
ATOM     12  O   UNL     1       4.670   8.295  11.685  1.00  0.00    -0.388 OA
ATOM     13  H   UNL     1       4.660   9.083  12.288  1.00  0.00     0.211 HD
ENDBRANCH   8  12
ENDBRANCH   1   8
BRANCH   1  14
ATOM     14  O   UNL     1       6.969   7.524  10.375  1.00  0.00    -0.388 OA
ATOM     15  H   UNL     1       7.798   7.434   9.834  1.00  0.00     0.211 HD
ENDBRANCH   1  14
TORSDOF 9
ENDMDL
