MODEL 1
REMARK VINA RESULT:    -2.794      0.000      0.000
REMARK INTER + INTRA:          -3.132
REMARK INTER:                  -3.120
REMARK INTRA:                  -0.011
REMARK UNBOUND:                -0.011
REMARK SMILES CCCC(=O)[O-]
REMARK SMILES IDX 3 1 4 2 5 3 6 4 2 5 1 6
REMARK H PARENT
REMARK Flexibility Score: inf
ROOT
ATOM      1  C   UNL     1      66.970 -15.227  14.593  1.00  0.00     0.052 C 
ENDROOT
BRANCH   1   2
ATOM      2  C   UNL     1      67.149 -14.594  13.247  1.00  0.00     0.041 C 
ATOM      3  O   UNL     1      68.297 -14.515  12.733  1.00  0.00    -0.550 OA
ATOM      4  O   UNL     1      66.056 -14.061  12.576  1.00  0.00    -0.550 OA
ENDBRANCH   1   2
BRANCH   1   5
ATOM      5  C   UNL     1      68.303 -15.704  15.182  1.00  0.00     0.003 C 
ATOM      6  C   UNL     1      68.114 -16.540  16.447  1.00  0.00     0.004 C 
ENDBRANCH   1   5
TORSDOF 2
ENDMDL
MODEL 2
REMARK VINA RESULT:    -2.770      1.518      1.864
REMARK INTER + INTRA:          -3.105
REMARK INTER:                  -3.086
REMARK INTRA:                  -0.019
REMARK UNBOUND:                -0.011
REMARK SMILES CCCC(=O)[O-]
REMARK SMILES IDX 3 1 4 2 5 3 6 4 2 5 1 6
REMARK H PARENT
REMARK Flexibility Score: inf
ROOT
ATOM      1  C   UNL     1      67.224 -14.483  13.364  1.00  0.00     0.052 C 
ENDROOT
BRANCH   1   2
ATOM      2  C   UNL     1      65.860 -14.469  12.746  1.00  0.00     0.041 C 
ATOM      3  O   UNL     1      65.061 -15.421  12.955  1.00  0.00    -0.550 OA
ATOM      4  O   UNL     1      65.482 -13.424  11.912  1.00  0.00    -0.550 OA
ENDBRANCH   1   2
BRANCH   1   5
ATOM      5  C   UNL     1      67.223 -15.171  14.735  1.00  0.00     0.003 C 
ATOM      6  C   UNL     1      68.526 -15.921  15.010  1.00  0.00     0.004 C 
ENDBRANCH   1   5
TORSDOF 2
ENDMDL
MODEL 3
REMARK VINA RESULT:    -2.719     18.456     18.905
REMARK INTER + INTRA:          -3.049
REMARK INTER:                  -3.035
REMARK INTRA:                  -0.014
REMARK UNBOUND:                -0.011
REMARK SMILES CCCC(=O)[O-]
REMARK SMILES IDX 3 1 4 2 5 3 6 4 2 5 1 6
REMARK H PARENT
REMARK Flexibility Score: inf
ROOT
ATOM      1  C   UNL     1      58.553  -1.885  22.580  1.00  0.00     0.052 C 
ENDROOT
BRANCH   1   2
ATOM      2  C   UNL     1      57.411  -1.019  22.145  1.00  0.00     0.041 C 
ATOM      3  O   UNL     1      56.325  -1.034  22.784  1.00  0.00    -0.550 OA
ATOM      4  O   UNL     1      57.533  -0.221  21.014  1.00  0.00    -0.550 OA
ENDBRANCH   1   2
BRANCH   1   5
ATOM      5  C   UNL     1      58.555  -2.106  24.098  1.00  0.00     0.003 C 
ATOM      6  C   UNL     1      59.917  -1.810  24.727  1.00  0.00     0.004 C 
ENDBRANCH   1   5
TORSDOF 2
ENDMDL
MODEL 4
REMARK VINA RESULT:    -2.712     18.427     18.863
REMARK INTER + INTRA:          -3.041
REMARK INTER:                  -3.030
REMARK INTRA:                  -0.011
REMARK UNBOUND:                -0.011
REMARK SMILES CCCC(=O)[O-]
REMARK SMILES IDX 3 1 4 2 5 3 6 4 2 5 1 6
REMARK H PARENT
REMARK Flexibility Score: inf
ROOT
ATOM      1  C   UNL     1      58.593  -1.882  22.572  1.00  0.00     0.052 C 
ENDROOT
BRANCH   1   2
ATOM      2  C   UNL     1      57.446  -1.037  22.112  1.00  0.00     0.041 C 
ATOM      3  O   UNL     1      57.566  -0.307  21.093  1.00  0.00    -0.550 OA
ATOM      4  O   UNL     1      56.255  -1.029  22.828  1.00  0.00    -0.550 OA
ENDBRANCH   1   2
BRANCH   1   5
ATOM      5  C   UNL     1      58.556  -2.119  24.087  1.00  0.00     0.003 C 
ATOM      6  C   UNL     1      59.923  -1.915  24.741  1.00  0.00     0.004 C 
ENDBRANCH   1   5
TORSDOF 2
ENDMDL
MODEL 5
REMARK VINA RESULT:    -2.682     18.562     19.181
REMARK INTER + INTRA:          -3.007
REMARK INTER:                  -2.985
REMARK INTRA:                  -0.022
REMARK UNBOUND:                -0.011
REMARK SMILES CCCC(=O)[O-]
REMARK SMILES IDX 3 1 4 2 5 3 6 4 2 5 1 6
REMARK H PARENT
REMARK Flexibility Score: inf
ROOT
ATOM      1  C   UNL     1      58.531  -1.852  22.616  1.00  0.00     0.052 C 
ENDROOT
BRANCH   1   2
ATOM      2  C   UNL     1      58.753  -1.798  24.096  1.00  0.00     0.041 C 
ATOM      3  O   UNL     1      57.832  -1.404  24.860  1.00  0.00    -0.550 OA
ATOM      4  O   UNL     1      59.986  -2.149  24.630  1.00  0.00    -0.550 OA
ENDBRANCH   1   2
BRANCH   1   5
ATOM      5  C   UNL     1      57.246  -1.123  22.205  1.00  0.00     0.003 C 
ATOM      6  C   UNL     1      57.484  -0.113  21.082  1.00  0.00     0.004 C 
ENDBRANCH   1   5
TORSDOF 2
ENDMDL
MODEL 6
REMARK VINA RESULT:    -2.526      2.065      3.546
REMARK INTER + INTRA:          -2.833
REMARK INTER:                  -2.824
REMARK INTRA:                  -0.009
REMARK UNBOUND:                -0.011
REMARK SMILES CCCC(=O)[O-]
REMARK SMILES IDX 3 1 4 2 5 3 6 4 2 5 1 6
REMARK H PARENT
REMARK Flexibility Score: inf
ROOT
ATOM      1  C   UNL     1      67.062 -14.480  13.329  1.00  0.00     0.052 C 
ENDROOT
BRANCH   1   2
ATOM      2  C   UNL     1      67.095 -15.314  14.573  1.00  0.00     0.041 C 
ATOM      3  O   UNL     1      68.186 -15.516  15.170  1.00  0.00    -0.550 OA
ATOM      4  O   UNL     1      65.929 -15.896  15.053  1.00  0.00    -0.550 OA
ENDBRANCH   1   2
BRANCH   1   5
ATOM      5  C   UNL     1      65.683 -14.509  12.659  1.00  0.00     0.003 C 
ATOM      6  C   UNL     1      65.680 -13.801  11.304  1.00  0.00     0.004 C 
ENDBRANCH   1   5
TORSDOF 2
ENDMDL
MODEL 7
REMARK VINA RESULT:    -2.524      3.342      3.804
REMARK INTER + INTRA:          -2.831
REMARK INTER:                  -2.789
REMARK INTRA:                  -0.042
REMARK UNBOUND:                -0.011
REMARK SMILES CCCC(=O)[O-]
REMARK SMILES IDX 3 1 4 2 5 3 6 4 2 5 1 6
REMARK H PARENT
REMARK Flexibility Score: inf
ROOT
ATOM      1  C   UNL     1      65.752 -15.248  11.021  1.00  0.00     0.052 C 
ENDROOT
BRANCH   1   2
ATOM      2  C   UNL     1      65.887 -14.067  11.931  1.00  0.00     0.041 C 
ATOM      3  O   UNL     1      66.626 -14.133  12.950  1.00  0.00    -0.550 OA
ATOM      4  O   UNL     1      65.171 -12.904  11.676  1.00  0.00    -0.550 OA
ENDBRANCH   1   2
BRANCH   1   5
ATOM      5  C   UNL     1      67.036 -16.087  10.981  1.00  0.00     0.003 C 
ATOM      6  C   UNL     1      68.013 -15.605   9.908  1.00  0.00     0.004 C 
ENDBRANCH   1   5
TORSDOF 2
ENDMDL
MODEL 8
REMARK VINA RESULT:    -2.424      2.350      3.829
REMARK INTER + INTRA:          -2.719
REMARK INTER:                  -2.705
REMARK INTRA:                  -0.014
REMARK UNBOUND:                -0.011
REMARK SMILES CCCC(=O)[O-]
REMARK SMILES IDX 3 1 4 2 5 3 6 4 2 5 1 6
REMARK H PARENT
REMARK Flexibility Score: inf
ROOT
ATOM      1  C   UNL     1      67.924 -14.883  11.972  1.00  0.00     0.052 C 
ENDROOT
BRANCH   1   2
ATOM      2  C   UNL     1      66.899 -14.481  12.986  1.00  0.00     0.041 C 
ATOM      3  O   UNL     1      65.756 -14.101  12.614  1.00  0.00    -0.550 OA
ATOM      4  O   UNL     1      67.214 -14.491  14.339  1.00  0.00    -0.550 OA
ENDBRANCH   1   2
BRANCH   1   5
ATOM      5  C   UNL     1      67.332 -14.957  10.559  1.00  0.00     0.003 C 
ATOM      6  C   UNL     1      68.003 -16.031   9.703  1.00  0.00     0.004 C 
ENDBRANCH   1   5
TORSDOF 2
ENDMDL
MODEL 9
REMARK VINA RESULT:    -2.380      2.697      3.073
REMARK INTER + INTRA:          -2.670
REMARK INTER:                  -2.607
REMARK INTRA:                  -0.063
REMARK UNBOUND:                -0.011
REMARK SMILES CCCC(=O)[O-]
REMARK SMILES IDX 3 1 4 2 5 3 6 4 2 5 1 6
REMARK H PARENT
REMARK Flexibility Score: inf
ROOT
ATOM      1  C   UNL     1      65.758 -14.448  12.711  1.00  0.00     0.052 C 
ENDROOT
BRANCH   1   2
ATOM      2  C   UNL     1      65.196 -15.818  12.483  1.00  0.00     0.041 C 
ATOM      3  O   UNL     1      65.163 -16.303  11.321  1.00  0.00    -0.550 OA
ATOM      4  O   UNL     1      64.678 -16.544  13.548  1.00  0.00    -0.550 OA
ENDBRANCH   1   2
BRANCH   1   5
ATOM      5  C   UNL     1      67.043 -14.490  13.548  1.00  0.00     0.003 C 
ATOM      6  C   UNL     1      68.211 -15.120  12.789  1.00  0.00     0.004 C 
ENDBRANCH   1   5
TORSDOF 2
ENDMDL
