MODEL 1
REMARK VINA RESULT:    -1.079      0.000      0.000
REMARK INTER + INTRA:           2.024
REMARK INTER:                  -1.773
REMARK INTRA:                   3.797
REMARK UNBOUND:                 3.797
REMARK SMILES C[C@@H]1O[C@@H](OC[C@H]2O[C@H](Oc3c(-c4ccc(O)c(O)c4)oc4cc(O)cc(O)c4c3=O)[C@@H](O)[C@@H](O)[C@@H]2O)[C@H](O)[C@H](O)[C@H]1O
REMARK SMILES IDX 7 1 36 2 34 3 32 4 9 5 8 6 6 7 5 8 4 9 1 10 2 11 42 12 3 13
REMARK SMILES IDX 40 14 38 15 43 16 41 18 39 20 37 22 35 24 10 26 11 27 12 28
REMARK SMILES IDX 30 29 21 30 29 31 31 32 22 33 27 34 23 35 26 36 24 37 13 38
REMARK SMILES IDX 20 39 14 40 18 41 15 42 16 43 19 44 17 46 28 48 25 50 33 52
REMARK H PARENT 43 17 41 19 39 21 37 23 35 25 19 45 17 47 28 49 25 51 33 53
REMARK Flexibility Score: inf
ROOT
ATOM      1  C   UNL     1      11.006  -1.124  17.727  1.00  0.00     0.180 C 
ATOM      2  C   UNL     1      12.540  -0.915  17.789  1.00  0.00     0.177 C 
ATOM      3  C   UNL     1      13.116  -1.607  19.035  1.00  0.00     0.180 C 
ATOM      4  C   UNL     1      12.642  -3.070  19.098  1.00  0.00     0.214 C 
ATOM      5  C   UNL     1      11.112  -3.120  18.977  1.00  0.00     0.339 C 
ATOM      6  O   UNL     1      10.667  -2.502  17.778  1.00  0.00    -0.332 OA
ENDROOT
BRANCH   1   7
ATOM      7  C   UNL     1      10.417  -0.524  16.440  1.00  0.00     0.198 C 
BRANCH   7   8
ATOM      8  O   UNL     1      10.514  -1.451  15.369  1.00  0.00    -0.347 OA
BRANCH   8   9
ATOM      9  C   UNL     1       9.394  -1.356  14.504  1.00  0.00     0.281 C 
ATOM     10  C   UNL     1       9.195  -4.809  13.228  1.00  0.00     0.041 C 
ATOM     11  C   UNL     1       9.814  -3.425  13.452  1.00  0.00     0.150 C 
ATOM     12  C   UNL     1      10.153  -2.751  12.101  1.00  0.00     0.174 C 
ATOM     13  O   UNL     1       8.880  -2.641  14.178  1.00  0.00    -0.344 OA
ATOM     14  C   UNL     1      10.720  -1.347  12.350  1.00  0.00     0.179 C 
ATOM     15  C   UNL     1       9.762  -0.548  13.247  1.00  0.00     0.202 C 
BRANCH  12  16
ATOM     16  O   UNL     1      11.064  -3.522  11.350  1.00  0.00    -0.388 OA
ATOM     17  H   UNL     1      10.642  -4.406  11.176  1.00  0.00     0.211 HD
ENDBRANCH  12  16
BRANCH  14  18
ATOM     18  O   UNL     1      10.897  -0.686  11.125  1.00  0.00    -0.387 OA
ATOM     19  H   UNL     1      10.089  -0.121  10.987  1.00  0.00     0.211 HD
ENDBRANCH  14  18
BRANCH  15  20
ATOM     20  O   UNL     1       8.587  -0.252  12.535  1.00  0.00    -0.385 OA
ATOM     21  H   UNL     1       8.351   0.690  12.733  1.00  0.00     0.211 HD
ENDBRANCH  15  20
ENDBRANCH   8   9
ENDBRANCH   7   8
ENDBRANCH   1   7
BRANCH   2  22
ATOM     22  O   UNL     1      12.822   0.462  17.861  1.00  0.00    -0.387 OA
ATOM     23  H   UNL     1      11.971   0.954  17.676  1.00  0.00     0.211 HD
ENDBRANCH   2  22
BRANCH   3  24
ATOM     24  O   UNL     1      14.521  -1.559  19.018  1.00  0.00    -0.387 OA
ATOM     25  H   UNL     1      14.811  -1.089  19.840  1.00  0.00     0.211 HD
ENDBRANCH   3  24
BRANCH   5  26
ATOM     26  O   UNL     1      10.493  -2.524  20.125  1.00  0.00    -0.454 OA
BRANCH  26  27
ATOM     27  C   UNL     1       9.536  -1.512  20.004  1.00  0.00     0.214 A 
ATOM     28  C   UNL     1       8.167  -1.814  19.970  1.00  0.00     0.180 A 
ATOM     29  C   UNL     1       9.944  -0.175  19.942  1.00  0.00     0.239 A 
ATOM     30  O   UNL     1       7.276  -0.834  19.903  1.00  0.00    -0.452 OA
ATOM     31  C   UNL     1       8.971   0.852  19.920  1.00  0.00     0.111 A 
ATOM     32  O   UNL     1      11.173   0.078  19.876  1.00  0.00    -0.285 OA
ATOM     33  C   UNL     1       7.610   0.453  19.866  1.00  0.00     0.146 A 
ATOM     34  C   UNL     1       9.272   2.249  19.935  1.00  0.00     0.134 A 
ATOM     35  C   UNL     1       6.597   1.409  19.766  1.00  0.00     0.094 A 
ATOM     36  C   UNL     1       8.233   3.183  19.796  1.00  0.00     0.093 A 
ATOM     37  C   UNL     1       6.903   2.769  19.720  1.00  0.00     0.123 A 
BRANCH  28  38
ATOM     38  C   UNL     1       7.688  -3.205  20.009  1.00  0.00     0.025 A 
ATOM     39  C   UNL     1       8.614  -4.255  20.072  1.00  0.00     0.062 A 
ATOM     40  C   UNL     1       6.317  -3.496  20.013  1.00  0.00     0.016 A 
ATOM     41  C   UNL     1       8.178  -5.584  20.099  1.00  0.00     0.158 A 
ATOM     42  C   UNL     1       5.875  -4.822  20.061  1.00  0.00     0.051 A 
ATOM     43  C   UNL     1       6.803  -5.871  20.090  1.00  0.00     0.157 A 
BRANCH  41  44
ATOM     44  O   UNL     1       9.125  -6.606  20.125  1.00  0.00    -0.504 OA
ATOM     45  H   UNL     1       9.864  -6.640  20.817  1.00  0.00     0.293 HD
ENDBRANCH  41  44
BRANCH  43  46
ATOM     46  O   UNL     1       6.368  -7.197  20.103  1.00  0.00    -0.504 OA
ATOM     47  H   UNL     1       5.661  -7.531  19.453  1.00  0.00     0.293 HD
ENDBRANCH  43  46
ENDBRANCH  28  38
BRANCH  34  48
ATOM     48  O   UNL     1      10.558   2.763  20.125  1.00  0.00    -0.507 OA
ATOM     49  H   UNL     1      11.385   2.203  20.267  1.00  0.00     0.293 HD
ENDBRANCH  34  48
BRANCH  37  50
ATOM     50  O   UNL     1       5.876   3.702  19.608  1.00  0.00    -0.508 OA
ATOM     51  H   UNL     1       5.187   3.826  20.339  1.00  0.00     0.293 HD
ENDBRANCH  37  50
ENDBRANCH  26  27
ENDBRANCH   5  26
BRANCH   4  52
ATOM     52  O   UNL     1      13.205  -3.834  18.060  1.00  0.00    -0.384 OA
ATOM     53  H   UNL     1      12.569  -4.568  17.853  1.00  0.00     0.211 HD
ENDBRANCH   4  52
TORSDOF 16
ENDMDL
