MODEL 1
REMARK VINA RESULT:    -4.097      0.000      0.000
REMARK INTER + INTRA:          -9.362
REMARK INTER:                  -7.211
REMARK INTRA:                  -2.151
REMARK UNBOUND:                -2.151
REMARK SMILES CCCCCCC=CCCCCCCCC(=O)[O-]
REMARK SMILES IDX 10 1 11 2 12 3 13 4 14 5 15 6 16 7 17 8 18 9 9 10 8 11 7 12
REMARK SMILES IDX 6 13 5 14 4 15 3 16 2 17 1 18
REMARK H PARENT
REMARK Flexibility Score: inf
ROOT
ATOM      1  C   UNL     1      36.926  33.148  35.459  1.00  0.00     0.004 C 
ENDROOT
BRANCH   1   2
ATOM      2  C   UNL     1      38.387  33.539  35.185  1.00  0.00     0.000 C 
BRANCH   2   3
ATOM      3  C   UNL     1      38.819  33.239  33.739  1.00  0.00     0.000 C 
BRANCH   3   4
ATOM      4  C   UNL     1      38.019  32.085  33.115  1.00  0.00     0.000 C 
BRANCH   4   5
ATOM      5  C   UNL     1      37.494  32.424  31.711  1.00  0.00     0.006 C 
BRANCH   5   6
ATOM      6  C   UNL     1      35.994  32.132  31.601  1.00  0.00     0.053 C 
BRANCH   6   7
ATOM      7  C   UNL     1      35.219  33.406  31.483  1.00  0.00     0.041 C 
ATOM      8  O   UNL     1      35.776  34.450  31.048  1.00  0.00    -0.550 OA
ATOM      9  O   UNL     1      33.896  33.457  31.904  1.00  0.00    -0.550 OA
ENDBRANCH   6   7
ENDBRANCH   5   6
ENDBRANCH   4   5
ENDBRANCH   3   4
ENDBRANCH   2   3
ENDBRANCH   1   2
BRANCH   1  10
ATOM     10  C   UNL     1      36.124  34.278  36.123  1.00  0.00     0.027 C 
BRANCH  10  11
ATOM     11  C   UNL     1      36.082  35.498  35.244  1.00  0.00    -0.031 C 
ATOM     12  C   UNL     1      35.089  35.695  34.364  1.00  0.00    -0.031 C 
BRANCH  12  13
ATOM     13  C   UNL     1      35.041  36.920  33.493  1.00  0.00     0.027 C 
BRANCH  13  14
ATOM     14  C   UNL     1      35.840  38.075  34.117  1.00  0.00     0.004 C 
BRANCH  14  15
ATOM     15  C   UNL     1      37.096  38.434  33.305  1.00  0.00     0.000 C 
BRANCH  15  16
ATOM     16  C   UNL     1      37.283  37.527  32.076  1.00  0.00    -0.000 C 
BRANCH  16  17
ATOM     17  C   UNL     1      38.474  36.569  32.229  1.00  0.00    -0.003 C 
ATOM     18  C   UNL     1      39.335  36.883  33.452  1.00  0.00     0.004 C 
ENDBRANCH  16  17
ENDBRANCH  15  16
ENDBRANCH  14  15
ENDBRANCH  13  14
ENDBRANCH  12  13
ENDBRANCH  10  11
ENDBRANCH   1  10
TORSDOF 13
ENDMDL
MODEL 2
REMARK VINA RESULT:    -4.094      2.155      5.201
REMARK INTER + INTRA:          -9.356
REMARK INTER:                  -7.199
REMARK INTRA:                  -2.157
REMARK UNBOUND:                -2.151
REMARK SMILES CCCCCCC=CCCCCCCCC(=O)[O-]
REMARK SMILES IDX 10 1 11 2 12 3 13 4 14 5 15 6 16 7 17 8 18 9 9 10 8 11 7 12
REMARK SMILES IDX 6 13 5 14 4 15 3 16 2 17 1 18
REMARK H PARENT
REMARK Flexibility Score: inf
ROOT
ATOM      1  C   UNL     1      36.241  35.313  35.766  1.00  0.00     0.004 C 
ENDROOT
BRANCH   1   2
ATOM      2  C   UNL     1      35.045  35.160  34.814  1.00  0.00     0.000 C 
BRANCH   2   3
ATOM      3  C   UNL     1      34.933  36.323  33.811  1.00  0.00     0.000 C 
BRANCH   3   4
ATOM      4  C   UNL     1      35.742  37.555  34.250  1.00  0.00     0.000 C 
BRANCH   4   5
ATOM      5  C   UNL     1      36.746  38.011  33.180  1.00  0.00     0.006 C 
BRANCH   5   6
ATOM      6  C   UNL     1      37.715  36.880  32.821  1.00  0.00     0.053 C 
BRANCH   6   7
ATOM      7  C   UNL     1      39.113  37.244  33.213  1.00  0.00     0.041 C 
ATOM      8  O   UNL     1      40.004  36.357  33.279  1.00  0.00    -0.550 OA
ATOM      9  O   UNL     1      39.418  38.554  33.559  1.00  0.00    -0.550 OA
ENDBRANCH   6   7
ENDBRANCH   5   6
ENDBRANCH   4   5
ENDBRANCH   3   4
ENDBRANCH   2   3
ENDBRANCH   1   2
BRANCH   1  10
ATOM     10  C   UNL     1      36.888  33.967  36.127  1.00  0.00     0.027 C 
BRANCH  10  11
ATOM     11  C   UNL     1      37.265  33.200  34.890  1.00  0.00    -0.031 C 
ATOM     12  C   UNL     1      38.436  33.404  34.266  1.00  0.00    -0.031 C 
BRANCH  12  13
ATOM     13  C   UNL     1      38.817  32.630  33.034  1.00  0.00     0.027 C 
BRANCH  13  14
ATOM     14  C   UNL     1      37.814  31.498  32.759  1.00  0.00     0.004 C 
BRANCH  14  15
ATOM     15  C   UNL     1      36.895  31.797  31.564  1.00  0.00     0.000 C 
BRANCH  15  16
ATOM     16  C   UNL     1      37.045  33.240  31.052  1.00  0.00    -0.000 C 
BRANCH  16  17
ATOM     17  C   UNL     1      35.705  33.990  31.007  1.00  0.00    -0.003 C 
ATOM     18  C   UNL     1      34.578  33.235  31.711  1.00  0.00     0.004 C 
ENDBRANCH  16  17
ENDBRANCH  15  16
ENDBRANCH  14  15
ENDBRANCH  13  14
ENDBRANCH  12  13
ENDBRANCH  10  11
ENDBRANCH   1  10
TORSDOF 13
ENDMDL
MODEL 3
REMARK VINA RESULT:    -4.059      2.821      5.047
REMARK INTER + INTRA:          -9.295
REMARK INTER:                  -7.130
REMARK INTRA:                  -2.165
REMARK UNBOUND:                -2.151
REMARK SMILES CCCCCCC=CCCCCCCCC(=O)[O-]
REMARK SMILES IDX 10 1 11 2 12 3 13 4 14 5 15 6 16 7 17 8 18 9 9 10 8 11 7 12
REMARK SMILES IDX 6 13 5 14 4 15 3 16 2 17 1 18
REMARK H PARENT
REMARK Flexibility Score: inf
ROOT
ATOM      1  C   UNL     1      38.699  33.161  31.538  1.00  0.00     0.004 C 
ENDROOT
BRANCH   1   2
ATOM      2  C   UNL     1      37.409  33.963  31.303  1.00  0.00     0.000 C 
BRANCH   2   3
ATOM      3  C   UNL     1      37.651  35.483  31.288  1.00  0.00     0.000 C 
BRANCH   3   4
ATOM      4  C   UNL     1      39.034  35.862  31.841  1.00  0.00     0.000 C 
BRANCH   4   5
ATOM      5  C   UNL     1      38.953  36.913  32.959  1.00  0.00     0.006 C 
BRANCH   5   6
ATOM      6  C   UNL     1      38.803  38.322  32.377  1.00  0.00     0.053 C 
BRANCH   6   7
ATOM      7  C   UNL     1      39.201  39.352  33.387  1.00  0.00     0.041 C 
ATOM      8  O   UNL     1      38.454  40.341  33.613  1.00  0.00    -0.550 OA
ATOM      9  O   UNL     1      40.423  39.249  34.041  1.00  0.00    -0.550 OA
ENDBRANCH   6   7
ENDBRANCH   5   6
ENDBRANCH   4   5
ENDBRANCH   3   4
ENDBRANCH   2   3
ENDBRANCH   1   2
BRANCH   1  10
ATOM     10  C   UNL     1      38.588  32.193  32.725  1.00  0.00     0.027 C 
BRANCH  10  11
ATOM     11  C   UNL     1      38.460  32.942  34.023  1.00  0.00    -0.031 C 
ATOM     12  C   UNL     1      37.342  32.881  34.762  1.00  0.00    -0.031 C 
BRANCH  12  13
ATOM     13  C   UNL     1      37.218  33.623  36.064  1.00  0.00     0.027 C 
BRANCH  13  14
ATOM     14  C   UNL     1      35.995  34.556  36.056  1.00  0.00     0.004 C 
BRANCH  14  15
ATOM     15  C   UNL     1      36.184  35.771  35.134  1.00  0.00     0.000 C 
BRANCH  15  16
ATOM     16  C   UNL     1      35.207  35.767  33.946  1.00  0.00    -0.000 C 
BRANCH  16  17
ATOM     17  C   UNL     1      34.953  37.177  33.389  1.00  0.00    -0.003 C 
ATOM     18  C   UNL     1      35.619  38.272  34.221  1.00  0.00     0.004 C 
ENDBRANCH  16  17
ENDBRANCH  15  16
ENDBRANCH  14  15
ENDBRANCH  13  14
ENDBRANCH  12  13
ENDBRANCH  10  11
ENDBRANCH   1  10
TORSDOF 13
ENDMDL
MODEL 4
REMARK VINA RESULT:    -3.996      1.859      2.561
REMARK INTER + INTRA:          -9.185
REMARK INTER:                  -7.282
REMARK INTRA:                  -1.903
REMARK UNBOUND:                -2.151
REMARK SMILES CCCCCCC=CCCCCCCCC(=O)[O-]
REMARK SMILES IDX 10 1 11 2 12 3 13 4 14 5 15 6 16 7 17 8 18 9 9 10 8 11 7 12
REMARK SMILES IDX 6 13 5 14 4 15 3 16 2 17 1 18
REMARK H PARENT
REMARK Flexibility Score: inf
ROOT
ATOM      1  C   UNL     1      36.497  34.834  36.045  1.00  0.00     0.004 C 
ENDROOT
BRANCH   1   2
ATOM      2  C   UNL     1      37.047  33.414  35.838  1.00  0.00     0.000 C 
BRANCH   2   3
ATOM      3  C   UNL     1      38.441  33.407  35.186  1.00  0.00     0.000 C 
BRANCH   3   4
ATOM      4  C   UNL     1      38.563  34.440  34.054  1.00  0.00     0.000 C 
BRANCH   4   5
ATOM      5  C   UNL     1      38.557  33.791  32.662  1.00  0.00     0.006 C 
BRANCH   5   6
ATOM      6  C   UNL     1      37.146  33.337  32.276  1.00  0.00     0.053 C 
BRANCH   6   7
ATOM      7  C   UNL     1      37.127  31.867  31.993  1.00  0.00     0.041 C 
ATOM      8  O   UNL     1      36.324  31.394  31.146  1.00  0.00    -0.550 OA
ATOM      9  O   UNL     1      37.959  31.012  32.706  1.00  0.00    -0.550 OA
ENDBRANCH   6   7
ENDBRANCH   5   6
ENDBRANCH   4   5
ENDBRANCH   3   4
ENDBRANCH   2   3
ENDBRANCH   1   2
BRANCH   1  10
ATOM     10  C   UNL     1      35.041  34.981  35.576  1.00  0.00     0.027 C 
BRANCH  10  11
ATOM     11  C   UNL     1      34.975  35.616  34.214  1.00  0.00    -0.031 C 
ATOM     12  C   UNL     1      35.620  36.760  33.940  1.00  0.00    -0.031 C 
BRANCH  12  13
ATOM     13  C   UNL     1      35.562  37.390  32.576  1.00  0.00     0.027 C 
BRANCH  13  14
ATOM     14  C   UNL     1      36.972  37.600  32.002  1.00  0.00     0.004 C 
BRANCH  14  15
ATOM     15  C   UNL     1      38.037  37.776  33.096  1.00  0.00     0.000 C 
BRANCH  15  16
ATOM     16  C   UNL     1      38.907  39.027  32.878  1.00  0.00    -0.000 C 
BRANCH  16  17
ATOM     17  C   UNL     1      38.445  40.219  33.731  1.00  0.00    -0.003 C 
ATOM     18  C   UNL     1      39.124  41.530  33.335  1.00  0.00     0.004 C 
ENDBRANCH  16  17
ENDBRANCH  15  16
ENDBRANCH  14  15
ENDBRANCH  13  14
ENDBRANCH  12  13
ENDBRANCH  10  11
ENDBRANCH   1  10
TORSDOF 13
ENDMDL
MODEL 5
REMARK VINA RESULT:    -3.957      2.648      5.337
REMARK INTER + INTRA:          -9.115
REMARK INTER:                  -6.985
REMARK INTRA:                  -2.129
REMARK UNBOUND:                -2.151
REMARK SMILES CCCCCCC=CCCCCCCCC(=O)[O-]
REMARK SMILES IDX 10 1 11 2 12 3 13 4 14 5 15 6 16 7 17 8 18 9 9 10 8 11 7 12
REMARK SMILES IDX 6 13 5 14 4 15 3 16 2 17 1 18
REMARK H PARENT
REMARK Flexibility Score: inf
ROOT
ATOM      1  C   UNL     1      35.473  36.891  31.937  1.00  0.00     0.004 C 
ENDROOT
BRANCH   1   2
ATOM      2  C   UNL     1      36.826  37.223  31.289  1.00  0.00     0.000 C 
BRANCH   2   3
ATOM      3  C   UNL     1      37.824  36.054  31.367  1.00  0.00     0.000 C 
BRANCH   3   4
ATOM      4  C   UNL     1      39.202  36.493  31.889  1.00  0.00     0.000 C 
BRANCH   4   5
ATOM      5  C   UNL     1      39.142  37.034  33.326  1.00  0.00     0.006 C 
BRANCH   5   6
ATOM      6  C   UNL     1      40.105  38.210  33.509  1.00  0.00     0.053 C 
BRANCH   6   7
ATOM      7  C   UNL     1      39.404  39.507  33.250  1.00  0.00     0.041 C 
ATOM      8  O   UNL     1      40.027  40.473  32.734  1.00  0.00    -0.550 OA
ATOM      9  O   UNL     1      38.077  39.667  33.629  1.00  0.00    -0.550 OA
ENDBRANCH   6   7
ENDBRANCH   5   6
ENDBRANCH   4   5
ENDBRANCH   3   4
ENDBRANCH   2   3
ENDBRANCH   1   2
BRANCH   1  10
ATOM     10  C   UNL     1      35.207  37.709  33.209  1.00  0.00     0.027 C 
BRANCH  10  11
ATOM     11  C   UNL     1      35.757  37.012  34.423  1.00  0.00    -0.031 C 
ATOM     12  C   UNL     1      35.564  35.700  34.628  1.00  0.00    -0.031 C 
BRANCH  12  13
ATOM     13  C   UNL     1      36.122  35.001  35.837  1.00  0.00     0.027 C 
BRANCH  13  14
ATOM     14  C   UNL     1      36.678  33.616  35.469  1.00  0.00     0.004 C 
BRANCH  14  15
ATOM     15  C   UNL     1      38.214  33.574  35.470  1.00  0.00     0.000 C 
BRANCH  15  16
ATOM     16  C   UNL     1      38.803  33.456  34.053  1.00  0.00    -0.000 C 
BRANCH  16  17
ATOM     17  C   UNL     1      37.831  32.790  33.067  1.00  0.00    -0.003 C 
ATOM     18  C   UNL     1      38.131  31.307  32.849  1.00  0.00     0.004 C 
ENDBRANCH  16  17
ENDBRANCH  15  16
ENDBRANCH  14  15
ENDBRANCH  13  14
ENDBRANCH  12  13
ENDBRANCH  10  11
ENDBRANCH   1  10
TORSDOF 13
ENDMDL
MODEL 6
REMARK VINA RESULT:    -3.855      2.964      5.550
REMARK INTER + INTRA:          -8.937
REMARK INTER:                  -6.723
REMARK INTRA:                  -2.213
REMARK UNBOUND:                -2.151
REMARK SMILES CCCCCCC=CCCCCCCCC(=O)[O-]
REMARK SMILES IDX 10 1 11 2 12 3 13 4 14 5 15 6 16 7 17 8 18 9 9 10 8 11 7 12
REMARK SMILES IDX 6 13 5 14 4 15 3 16 2 17 1 18
REMARK H PARENT
REMARK Flexibility Score: inf
ROOT
ATOM      1  C   UNL     1      35.551  37.921  34.185  1.00  0.00     0.004 C 
ENDROOT
BRANCH   1   2
ATOM      2  C   UNL     1      36.777  38.455  33.428  1.00  0.00     0.000 C 
BRANCH   2   3
ATOM      3  C   UNL     1      37.104  37.631  32.171  1.00  0.00     0.000 C 
BRANCH   3   4
ATOM      4  C   UNL     1      38.582  37.213  32.112  1.00  0.00     0.000 C 
BRANCH   4   5
ATOM      5  C   UNL     1      39.227  37.134  33.504  1.00  0.00     0.006 C 
BRANCH   5   6
ATOM      6  C   UNL     1      40.699  36.724  33.404  1.00  0.00     0.053 C 
BRANCH   6   7
ATOM      7  C   UNL     1      41.589  37.867  33.782  1.00  0.00     0.041 C 
ATOM      8  O   UNL     1      42.841  37.750  33.706  1.00  0.00    -0.550 OA
ATOM      9  O   UNL     1      41.036  39.045  34.271  1.00  0.00    -0.550 OA
ENDBRANCH   6   7
ENDBRANCH   5   6
ENDBRANCH   4   5
ENDBRANCH   3   4
ENDBRANCH   2   3
ENDBRANCH   1   2
BRANCH   1  10
ATOM     10  C   UNL     1      34.982  36.636  33.563  1.00  0.00     0.027 C 
BRANCH  10  11
ATOM     11  C   UNL     1      35.191  35.458  34.474  1.00  0.00    -0.031 C 
ATOM     12  C   UNL     1      36.314  35.316  35.193  1.00  0.00    -0.031 C 
BRANCH  12  13
ATOM     13  C   UNL     1      36.518  34.143  36.112  1.00  0.00     0.027 C 
BRANCH  13  14
ATOM     14  C   UNL     1      37.826  33.403  35.784  1.00  0.00     0.004 C 
BRANCH  14  15
ATOM     15  C   UNL     1      38.379  33.765  34.396  1.00  0.00     0.000 C 
BRANCH  15  16
ATOM     16  C   UNL     1      38.462  32.549  33.458  1.00  0.00    -0.000 C 
BRANCH  16  17
ATOM     17  C   UNL     1      37.326  32.527  32.423  1.00  0.00    -0.003 C 
ATOM     18  C   UNL     1      37.119  33.879  31.740  1.00  0.00     0.004 C 
ENDBRANCH  16  17
ENDBRANCH  15  16
ENDBRANCH  14  15
ENDBRANCH  13  14
ENDBRANCH  12  13
ENDBRANCH  10  11
ENDBRANCH   1  10
TORSDOF 13
ENDMDL
MODEL 7
REMARK VINA RESULT:    -3.761      2.169      3.884
REMARK INTER + INTRA:          -8.771
REMARK INTER:                  -6.816
REMARK INTRA:                  -1.955
REMARK UNBOUND:                -2.151
REMARK SMILES CCCCCCC=CCCCCCCCC(=O)[O-]
REMARK SMILES IDX 10 1 11 2 12 3 13 4 14 5 15 6 16 7 17 8 18 9 9 10 8 11 7 12
REMARK SMILES IDX 6 13 5 14 4 15 3 16 2 17 1 18
REMARK H PARENT
REMARK Flexibility Score: inf
ROOT
ATOM      1  C   UNL     1      37.715  32.544  33.872  1.00  0.00     0.004 C 
ENDROOT
BRANCH   1   2
ATOM      2  C   UNL     1      38.207  33.528  34.945  1.00  0.00     0.000 C 
BRANCH   2   3
ATOM      3  C   UNL     1      37.294  33.560  36.184  1.00  0.00     0.000 C 
BRANCH   3   4
ATOM      4  C   UNL     1      36.054  34.444  35.974  1.00  0.00     0.000 C 
BRANCH   4   5
ATOM      5  C   UNL     1      36.353  35.685  35.119  1.00  0.00     0.006 C 
BRANCH   5   6
ATOM      6  C   UNL     1      35.257  35.907  34.073  1.00  0.00     0.053 C 
BRANCH   6   7
ATOM      7  C   UNL     1      35.338  37.293  33.514  1.00  0.00     0.041 C 
ATOM      8  O   UNL     1      35.377  38.287  34.287  1.00  0.00    -0.550 OA
ATOM      9  O   UNL     1      35.314  37.491  32.139  1.00  0.00    -0.550 OA
ENDBRANCH   6   7
ENDBRANCH   5   6
ENDBRANCH   4   5
ENDBRANCH   3   4
ENDBRANCH   2   3
ENDBRANCH   1   2
BRANCH   1  10
ATOM     10  C   UNL     1      38.052  33.003  32.446  1.00  0.00     0.027 C 
BRANCH  10  11
ATOM     11  C   UNL     1      38.651  34.383  32.451  1.00  0.00    -0.031 C 
ATOM     12  C   UNL     1      38.187  35.353  31.649  1.00  0.00    -0.031 C 
BRANCH  12  13
ATOM     13  C   UNL     1      38.780  36.735  31.661  1.00  0.00     0.027 C 
BRANCH  13  14
ATOM     14  C   UNL     1      38.967  37.245  33.099  1.00  0.00     0.004 C 
BRANCH  14  15
ATOM     15  C   UNL     1      38.872  38.776  33.201  1.00  0.00     0.000 C 
BRANCH  15  16
ATOM     16  C   UNL     1      39.393  39.486  31.940  1.00  0.00    -0.000 C 
BRANCH  16  17
ATOM     17  C   UNL     1      39.712  40.968  32.189  1.00  0.00    -0.003 C 
ATOM     18  C   UNL     1      39.053  41.512  33.457  1.00  0.00     0.004 C 
ENDBRANCH  16  17
ENDBRANCH  15  16
ENDBRANCH  14  15
ENDBRANCH  13  14
ENDBRANCH  12  13
ENDBRANCH  10  11
ENDBRANCH   1  10
TORSDOF 13
ENDMDL
MODEL 8
REMARK VINA RESULT:    -3.715      2.006      3.428
REMARK INTER + INTRA:          -8.690
REMARK INTER:                  -6.713
REMARK INTRA:                  -1.977
REMARK UNBOUND:                -2.151
REMARK SMILES CCCCCCC=CCCCCCCCC(=O)[O-]
REMARK SMILES IDX 10 1 11 2 12 3 13 4 14 5 15 6 16 7 17 8 18 9 9 10 8 11 7 12
REMARK SMILES IDX 6 13 5 14 4 15 3 16 2 17 1 18
REMARK H PARENT
REMARK Flexibility Score: inf
ROOT
ATOM      1  C   UNL     1      35.323  35.414  34.863  1.00  0.00     0.004 C 
ENDROOT
BRANCH   1   2
ATOM      2  C   UNL     1      36.176  34.818  35.994  1.00  0.00     0.000 C 
BRANCH   2   3
ATOM      3  C   UNL     1      36.833  33.483  35.602  1.00  0.00     0.000 C 
BRANCH   3   4
ATOM      4  C   UNL     1      38.343  33.625  35.351  1.00  0.00     0.000 C 
BRANCH   4   5
ATOM      5  C   UNL     1      38.736  33.274  33.908  1.00  0.00     0.006 C 
BRANCH   5   6
ATOM      6  C   UNL     1      37.496  33.139  33.020  1.00  0.00     0.053 C 
BRANCH   6   7
ATOM      7  C   UNL     1      37.430  31.771  32.415  1.00  0.00     0.041 C 
ATOM      8  O   UNL     1      38.128  30.835  32.887  1.00  0.00    -0.550 OA
ATOM      9  O   UNL     1      36.641  31.544  31.294  1.00  0.00    -0.550 OA
ENDBRANCH   6   7
ENDBRANCH   5   6
ENDBRANCH   4   5
ENDBRANCH   3   4
ENDBRANCH   2   3
ENDBRANCH   1   2
BRANCH   1  10
ATOM     10  C   UNL     1      35.752  36.839  34.482  1.00  0.00     0.027 C 
BRANCH  10  11
ATOM     11  C   UNL     1      36.638  36.829  33.267  1.00  0.00    -0.031 C 
ATOM     12  C   UNL     1      37.975  36.824  33.373  1.00  0.00    -0.031 C 
BRANCH  12  13
ATOM     13  C   UNL     1      38.861  36.805  32.158  1.00  0.00     0.027 C 
BRANCH  13  14
ATOM     14  C   UNL     1      39.882  37.954  32.198  1.00  0.00     0.004 C 
BRANCH  14  15
ATOM     15  C   UNL     1      40.586  38.074  33.558  1.00  0.00     0.000 C 
BRANCH  15  16
ATOM     16  C   UNL     1      40.604  39.518  34.089  1.00  0.00    -0.000 C 
BRANCH  16  17
ATOM     17  C   UNL     1      39.559  40.410  33.401  1.00  0.00    -0.003 C 
ATOM     18  C   UNL     1      38.324  40.655  34.268  1.00  0.00     0.004 C 
ENDBRANCH  16  17
ENDBRANCH  15  16
ENDBRANCH  14  15
ENDBRANCH  13  14
ENDBRANCH  12  13
ENDBRANCH  10  11
ENDBRANCH   1  10
TORSDOF 13
ENDMDL
MODEL 9
REMARK VINA RESULT:    -3.605      2.829      5.586
REMARK INTER + INTRA:          -8.497
REMARK INTER:                  -6.494
REMARK INTRA:                  -2.003
REMARK UNBOUND:                -2.151
REMARK SMILES CCCCCCC=CCCCCCCCC(=O)[O-]
REMARK SMILES IDX 10 1 11 2 12 3 13 4 14 5 15 6 16 7 17 8 18 9 9 10 8 11 7 12
REMARK SMILES IDX 6 13 5 14 4 15 3 16 2 17 1 18
REMARK H PARENT
REMARK Flexibility Score: inf
ROOT
ATOM      1  C   UNL     1      34.486  35.732  33.901  1.00  0.00     0.004 C 
ENDROOT
BRANCH   1   2
ATOM      2  C   UNL     1      35.402  36.865  33.413  1.00  0.00     0.000 C 
BRANCH   2   3
ATOM      3  C   UNL     1      36.031  36.569  32.040  1.00  0.00     0.000 C 
BRANCH   3   4
ATOM      4  C   UNL     1      37.448  37.150  31.907  1.00  0.00     0.000 C 
BRANCH   4   5
ATOM      5  C   UNL     1      37.861  37.979  33.133  1.00  0.00     0.006 C 
BRANCH   5   6
ATOM      6  C   UNL     1      39.132  38.785  32.847  1.00  0.00     0.053 C 
BRANCH   6   7
ATOM      7  C   UNL     1      39.279  39.901  33.834  1.00  0.00     0.041 C 
ATOM      8  O   UNL     1      38.280  40.596  34.158  1.00  0.00    -0.550 OA
ATOM      9  O   UNL     1      40.530  40.209  34.353  1.00  0.00    -0.550 OA
ENDBRANCH   6   7
ENDBRANCH   5   6
ENDBRANCH   4   5
ENDBRANCH   3   4
ENDBRANCH   2   3
ENDBRANCH   1   2
BRANCH   1  10
ATOM     10  C   UNL     1      34.881  35.204  35.288  1.00  0.00     0.027 C 
BRANCH  10  11
ATOM     11  C   UNL     1      36.356  34.914  35.355  1.00  0.00    -0.031 C 
ATOM     12  C   UNL     1      36.829  33.660  35.284  1.00  0.00    -0.031 C 
BRANCH  12  13
ATOM     13  C   UNL     1      38.303  33.371  35.341  1.00  0.00     0.027 C 
BRANCH  13  14
ATOM     14  C   UNL     1      39.062  34.146  34.252  1.00  0.00     0.004 C 
BRANCH  14  15
ATOM     15  C   UNL     1      38.651  33.729  32.831  1.00  0.00     0.000 C 
BRANCH  15  16
ATOM     16  C   UNL     1      38.581  32.201  32.662  1.00  0.00    -0.000 C 
BRANCH  16  17
ATOM     17  C   UNL     1      37.284  31.745  31.976  1.00  0.00    -0.003 C 
ATOM     18  C   UNL     1      36.274  32.878  31.802  1.00  0.00     0.004 C 
ENDBRANCH  16  17
ENDBRANCH  15  16
ENDBRANCH  14  15
ENDBRANCH  13  14
ENDBRANCH  12  13
ENDBRANCH  10  11
ENDBRANCH   1  10
TORSDOF 13
ENDMDL
