MODEL 1
REMARK VINA RESULT:    -4.621      0.000      0.000
REMARK INTER + INTRA:          -6.412
REMARK INTER:                  -6.107
REMARK INTRA:                  -0.305
REMARK UNBOUND:                -0.305
REMARK SMILES CCCCC=CC=CCO
REMARK SMILES IDX 5 1 6 2 4 3 3 4 2 5 1 6 7 7 8 8 9 9 10 10
REMARK H PARENT 10 11
REMARK Flexibility Score: inf
ROOT
ATOM      1  C   UNL     1      41.695   2.138  14.302  1.00  0.00    -0.027 C 
ATOM      2  C   UNL     1      41.081   0.966  14.491  1.00  0.00    -0.005 C 
ENDROOT
BRANCH   1   3
ATOM      3  C   UNL     1      42.255   2.525  12.963  1.00  0.00     0.027 C 
BRANCH   3   4
ATOM      4  C   UNL     1      41.739   3.905  12.525  1.00  0.00     0.004 C 
BRANCH   4   5
ATOM      5  C   UNL     1      40.853   3.830  11.272  1.00  0.00    -0.003 C 
ATOM      6  C   UNL     1      39.536   3.096  11.523  1.00  0.00     0.004 C 
ENDBRANCH   4   5
ENDBRANCH   3   4
ENDBRANCH   1   3
BRANCH   2   7
ATOM      7  C   UNL     1      40.549   0.594  15.811  1.00  0.00    -0.002 C 
ATOM      8  C   UNL     1      39.591   1.317  16.396  1.00  0.00     0.001 C 
BRANCH   8   9
ATOM      9  C   UNL     1      39.050   0.953  17.745  1.00  0.00     0.183 C 
BRANCH   9  10
ATOM     10  O   UNL     1      39.619  -0.249  18.191  1.00  0.00    -0.392 OA
ATOM     11  H   UNL     1      39.981  -0.710  17.390  1.00  0.00     0.210 HD
ENDBRANCH   9  10
ENDBRANCH   8   9
ENDBRANCH   2   7
TORSDOF 6
ENDMDL
MODEL 2
REMARK VINA RESULT:    -4.615      9.156     10.299
REMARK INTER + INTRA:          -6.403
REMARK INTER:                  -6.041
REMARK INTRA:                  -0.362
REMARK UNBOUND:                -0.305
REMARK SMILES CCCCC=CC=CCO
REMARK SMILES IDX 5 1 6 2 4 3 3 4 2 5 1 6 7 7 8 8 9 9 10 10
REMARK H PARENT 10 11
REMARK Flexibility Score: inf
ROOT
ATOM      1  C   UNL     1      38.764  11.403  14.010  1.00  0.00    -0.027 C 
ATOM      2  C   UNL     1      39.328  12.584  14.282  1.00  0.00    -0.005 C 
ENDROOT
BRANCH   1   3
ATOM      3  C   UNL     1      38.432  10.995  12.603  1.00  0.00     0.027 C 
BRANCH   3   4
ATOM      4  C   UNL     1      39.325   9.836  12.137  1.00  0.00     0.004 C 
BRANCH   4   5
ATOM      5  C   UNL     1      40.504  10.312  11.274  1.00  0.00    -0.003 C 
ATOM      6  C   UNL     1      41.753  10.622  12.099  1.00  0.00     0.004 C 
ENDBRANCH   4   5
ENDBRANCH   3   4
ENDBRANCH   1   3
BRANCH   2   7
ATOM      7  C   UNL     1      39.635  12.976  15.667  1.00  0.00    -0.002 C 
ATOM      8  C   UNL     1      40.132  12.094  16.537  1.00  0.00     0.001 C 
BRANCH   8   9
ATOM      9  C   UNL     1      40.439  12.480  17.952  1.00  0.00     0.183 C 
BRANCH   9  10
ATOM     10  O   UNL     1      39.647  13.569  18.344  1.00  0.00    -0.392 OA
ATOM     11  H   UNL     1      40.014  14.370  17.887  1.00  0.00     0.210 HD
ENDBRANCH   9  10
ENDBRANCH   8   9
ENDBRANCH   2   7
TORSDOF 6
ENDMDL
MODEL 3
REMARK VINA RESULT:    -4.485      8.782      9.703
REMARK INTER + INTRA:          -6.232
REMARK INTER:                  -5.889
REMARK INTRA:                  -0.343
REMARK UNBOUND:                -0.305
REMARK SMILES CCCCC=CC=CCO
REMARK SMILES IDX 5 1 6 2 4 3 3 4 2 5 1 6 7 7 8 8 9 9 10 10
REMARK H PARENT 10 11
REMARK Flexibility Score: inf
ROOT
ATOM      1  C   UNL     1      38.728  11.361  13.970  1.00  0.00    -0.027 C 
ATOM      2  C   UNL     1      39.584  10.598  14.656  1.00  0.00    -0.005 C 
ENDROOT
BRANCH   1   3
ATOM      3  C   UNL     1      38.464  11.128  12.510  1.00  0.00     0.027 C 
BRANCH   3   4
ATOM      4  C   UNL     1      38.274   9.633  12.212  1.00  0.00     0.004 C 
BRANCH   4   5
ATOM      5  C   UNL     1      39.301   9.099  11.201  1.00  0.00    -0.003 C 
ATOM      6  C   UNL     1      40.521  10.009  11.063  1.00  0.00     0.004 C 
ENDBRANCH   4   5
ENDBRANCH   3   4
ENDBRANCH   1   3
BRANCH   2   7
ATOM      7  C   UNL     1      39.843  10.847  16.084  1.00  0.00    -0.002 C 
ATOM      8  C   UNL     1      40.213  12.055  16.515  1.00  0.00     0.001 C 
BRANCH   8   9
ATOM      9  C   UNL     1      40.489  12.317  17.965  1.00  0.00     0.183 C 
BRANCH   9  10
ATOM     10  O   UNL     1      39.759  13.429  18.408  1.00  0.00    -0.392 OA
ATOM     11  H   UNL     1      40.065  13.623  19.333  1.00  0.00     0.210 HD
ENDBRANCH   9  10
ENDBRANCH   8   9
ENDBRANCH   2   7
TORSDOF 6
ENDMDL
MODEL 4
REMARK VINA RESULT:    -4.479      9.164     10.094
REMARK INTER + INTRA:          -6.224
REMARK INTER:                  -5.805
REMARK INTRA:                  -0.419
REMARK UNBOUND:                -0.305
REMARK SMILES CCCCC=CC=CCO
REMARK SMILES IDX 5 1 6 2 4 3 3 4 2 5 1 6 7 7 8 8 9 9 10 10
REMARK H PARENT 10 11
REMARK Flexibility Score: inf
ROOT
ATOM      1  C   UNL     1      41.203  10.989  13.986  1.00  0.00    -0.027 C 
ATOM      2  C   UNL     1      40.920  12.283  14.163  1.00  0.00    -0.005 C 
ENDROOT
BRANCH   1   3
ATOM      3  C   UNL     1      41.393  10.407  12.614  1.00  0.00     0.027 C 
BRANCH   3   4
ATOM      4  C   UNL     1      40.121  10.559  11.766  1.00  0.00     0.004 C 
BRANCH   4   5
ATOM      5  C   UNL     1      38.930   9.782  12.346  1.00  0.00    -0.003 C 
ATOM      6  C   UNL     1      37.698  10.662  12.560  1.00  0.00     0.004 C 
ENDBRANCH   4   5
ENDBRANCH   3   4
ENDBRANCH   1   3
BRANCH   2   7
ATOM      7  C   UNL     1      40.722  12.837  15.512  1.00  0.00    -0.002 C 
ATOM      8  C   UNL     1      40.524  12.036  16.562  1.00  0.00     0.001 C 
BRANCH   8   9
ATOM      9  C   UNL     1      40.312  12.589  17.938  1.00  0.00     0.183 C 
BRANCH   9  10
ATOM     10  O   UNL     1      39.565  13.775  17.878  1.00  0.00    -0.392 OA
ATOM     11  H   UNL     1      39.706  14.157  16.972  1.00  0.00     0.210 HD
ENDBRANCH   9  10
ENDBRANCH   8   9
ENDBRANCH   2   7
TORSDOF 6
ENDMDL
MODEL 5
REMARK VINA RESULT:    -4.439      1.200      2.080
REMARK INTER + INTRA:          -6.171
REMARK INTER:                  -5.807
REMARK INTRA:                  -0.364
REMARK UNBOUND:                -0.305
REMARK SMILES CCCCC=CC=CCO
REMARK SMILES IDX 5 1 6 2 4 3 3 4 2 5 1 6 7 7 8 8 9 9 10 10
REMARK H PARENT 10 11
REMARK Flexibility Score: inf
ROOT
ATOM      1  C   UNL     1      39.067   2.257  13.640  1.00  0.00    -0.027 C 
ATOM      2  C   UNL     1      39.012   0.972  14.002  1.00  0.00    -0.005 C 
ENDROOT
BRANCH   1   3
ATOM      3  C   UNL     1      39.071   2.668  12.195  1.00  0.00     0.027 C 
BRANCH   3   4
ATOM      4  C   UNL     1      40.443   3.218  11.779  1.00  0.00     0.004 C 
BRANCH   4   5
ATOM      5  C   UNL     1      41.346   3.522  12.984  1.00  0.00    -0.003 C 
ATOM      6  C   UNL     1      42.573   2.612  13.047  1.00  0.00     0.004 C 
ENDBRANCH   4   5
ENDBRANCH   3   4
ENDBRANCH   1   3
BRANCH   2   7
ATOM      7  C   UNL     1      39.023   0.584  15.422  1.00  0.00    -0.002 C 
ATOM      8  C   UNL     1      39.065   1.507  16.386  1.00  0.00     0.001 C 
BRANCH   8   9
ATOM      9  C   UNL     1      39.087   1.123  17.834  1.00  0.00     0.183 C 
BRANCH   9  10
ATOM     10  O   UNL     1      39.561  -0.189  17.985  1.00  0.00    -0.392 OA
ATOM     11  H   UNL     1      40.553  -0.136  17.996  1.00  0.00     0.210 HD
ENDBRANCH   9  10
ENDBRANCH   8   9
ENDBRANCH   2   7
TORSDOF 6
ENDMDL
MODEL 6
REMARK VINA RESULT:    -4.270      8.914     10.365
REMARK INTER + INTRA:          -5.948
REMARK INTER:                  -5.645
REMARK INTRA:                  -0.303
REMARK UNBOUND:                -0.305
REMARK SMILES CCCCC=CC=CCO
REMARK SMILES IDX 5 1 6 2 4 3 3 4 2 5 1 6 7 7 8 8 9 9 10 10
REMARK H PARENT 10 11
REMARK Flexibility Score: inf
ROOT
ATOM      1  C   UNL     1      39.904  10.961  16.510  1.00  0.00    -0.027 C 
ATOM      2  C   UNL     1      40.003  11.898  15.562  1.00  0.00    -0.005 C 
ENDROOT
BRANCH   1   3
ATOM      3  C   UNL     1      40.868  10.902  17.661  1.00  0.00     0.027 C 
BRANCH   3   4
ATOM      4  C   UNL     1      42.241  11.464  17.263  1.00  0.00     0.004 C 
BRANCH   4   5
ATOM      5  C   UNL     1      43.391  10.502  17.601  1.00  0.00    -0.003 C 
ATOM      6  C   UNL     1      42.902   9.182  18.196  1.00  0.00     0.004 C 
ENDBRANCH   4   5
ENDBRANCH   3   4
ENDBRANCH   1   3
BRANCH   2   7
ATOM      7  C   UNL     1      39.060  11.935  14.433  1.00  0.00    -0.002 C 
ATOM      8  C   UNL     1      38.971  10.913  13.578  1.00  0.00     0.001 C 
BRANCH   8   9
ATOM      9  C   UNL     1      38.021  10.945  12.419  1.00  0.00     0.183 C 
BRANCH   9  10
ATOM     10  O   UNL     1      36.884  10.173  12.698  1.00  0.00    -0.392 OA
ATOM     11  H   UNL     1      36.155  10.514  12.116  1.00  0.00     0.210 HD
ENDBRANCH   9  10
ENDBRANCH   8   9
ENDBRANCH   2   7
TORSDOF 6
ENDMDL
MODEL 7
REMARK VINA RESULT:    -4.114      8.189      8.788
REMARK INTER + INTRA:          -5.742
REMARK INTER:                  -5.338
REMARK INTRA:                  -0.404
REMARK UNBOUND:                -0.305
REMARK SMILES CCCCC=CC=CCO
REMARK SMILES IDX 5 1 6 2 4 3 3 4 2 5 1 6 7 7 8 8 9 9 10 10
REMARK H PARENT 10 11
REMARK Flexibility Score: inf
ROOT
ATOM      1  C   UNL     1      39.901   9.401  16.023  1.00  0.00    -0.027 C 
ATOM      2  C   UNL     1      40.200   9.984  17.187  1.00  0.00    -0.005 C 
ENDROOT
BRANCH   1   3
ATOM      3  C   UNL     1      40.614   9.769  14.753  1.00  0.00     0.027 C 
BRANCH   3   4
ATOM      4  C   UNL     1      41.379  11.092  14.910  1.00  0.00     0.004 C 
BRANCH   4   5
ATOM      5  C   UNL     1      40.678  12.264  14.206  1.00  0.00    -0.003 C 
ATOM      6  C   UNL     1      40.075  13.268  15.188  1.00  0.00     0.004 C 
ENDBRANCH   4   5
ENDBRANCH   3   4
ENDBRANCH   1   3
BRANCH   2   7
ATOM      7  C   UNL     1      39.482   9.623  18.421  1.00  0.00    -0.002 C 
ATOM      8  C   UNL     1      38.372   8.883  18.379  1.00  0.00     0.001 C 
BRANCH   8   9
ATOM      9  C   UNL     1      37.628   8.518  19.628  1.00  0.00     0.183 C 
BRANCH   9  10
ATOM     10  O   UNL     1      36.277   8.877  19.513  1.00  0.00    -0.392 OA
ATOM     11  H   UNL     1      35.767   8.035  19.379  1.00  0.00     0.210 HD
ENDBRANCH   9  10
ENDBRANCH   8   9
ENDBRANCH   2   7
TORSDOF 6
ENDMDL
MODEL 8
REMARK VINA RESULT:    -4.107      8.057      9.428
REMARK INTER + INTRA:          -5.732
REMARK INTER:                  -5.328
REMARK INTRA:                  -0.405
REMARK UNBOUND:                -0.305
REMARK SMILES CCCCC=CC=CCO
REMARK SMILES IDX 5 1 6 2 4 3 3 4 2 5 1 6 7 7 8 8 9 9 10 10
REMARK H PARENT 10 11
REMARK Flexibility Score: inf
ROOT
ATOM      1  C   UNL     1      39.251  11.453  13.502  1.00  0.00    -0.027 C 
ATOM      2  C   UNL     1      38.903  11.649  14.776  1.00  0.00    -0.005 C 
ENDROOT
BRANCH   1   3
ATOM      3  C   UNL     1      38.230  11.139  12.446  1.00  0.00     0.027 C 
BRANCH   3   4
ATOM      4  C   UNL     1      38.355   9.685  11.968  1.00  0.00     0.004 C 
BRANCH   4   5
ATOM      5  C   UNL     1      39.767   9.117  12.174  1.00  0.00    -0.003 C 
ATOM      6  C   UNL     1      39.775   7.844  13.019  1.00  0.00     0.004 C 
ENDBRANCH   4   5
ENDBRANCH   3   4
ENDBRANCH   1   3
BRANCH   2   7
ATOM      7  C   UNL     1      39.916  11.942  15.802  1.00  0.00    -0.002 C 
ATOM      8  C   UNL     1      40.968  11.137  15.979  1.00  0.00     0.001 C 
BRANCH   8   9
ATOM      9  C   UNL     1      42.000  11.420  17.027  1.00  0.00     0.183 C 
BRANCH   9  10
ATOM     10  O   UNL     1      43.239  10.883  16.650  1.00  0.00    -0.392 OA
ATOM     11  H   UNL     1      43.074   9.942  16.377  1.00  0.00     0.210 HD
ENDBRANCH   9  10
ENDBRANCH   8   9
ENDBRANCH   2   7
TORSDOF 6
ENDMDL
MODEL 9
REMARK VINA RESULT:    -4.104      2.140      2.262
REMARK INTER + INTRA:          -5.728
REMARK INTER:                  -5.448
REMARK INTRA:                  -0.279
REMARK UNBOUND:                -0.305
REMARK SMILES CCCCC=CC=CCO
REMARK SMILES IDX 5 1 6 2 4 3 3 4 2 5 1 6 7 7 8 8 9 9 10 10
REMARK H PARENT 10 11
REMARK Flexibility Score: inf
ROOT
ATOM      1  C   UNL     1      40.800   2.663  14.300  1.00  0.00    -0.027 C 
ATOM      2  C   UNL     1      40.606   2.097  15.495  1.00  0.00    -0.005 C 
ENDROOT
BRANCH   1   3
ATOM      3  C   UNL     1      41.968   2.289  13.433  1.00  0.00     0.027 C 
BRANCH   3   4
ATOM      4  C   UNL     1      42.322   3.424  12.460  1.00  0.00     0.004 C 
BRANCH   4   5
ATOM      5  C   UNL     1      41.096   4.257  12.056  1.00  0.00    -0.003 C 
ATOM      6  C   UNL     1      40.457   3.774  10.754  1.00  0.00     0.004 C 
ENDBRANCH   4   5
ENDBRANCH   3   4
ENDBRANCH   1   3
BRANCH   2   7
ATOM      7  C   UNL     1      39.465   2.483  16.340  1.00  0.00    -0.002 C 
ATOM      8  C   UNL     1      38.216   2.436  15.871  1.00  0.00     0.001 C 
BRANCH   8   9
ATOM      9  C   UNL     1      37.048   2.837  16.720  1.00  0.00     0.183 C 
BRANCH   9  10
ATOM     10  O   UNL     1      35.844   2.578  16.048  1.00  0.00    -0.392 OA
ATOM     11  H   UNL     1      35.763   1.591  15.973  1.00  0.00     0.210 HD
ENDBRANCH   9  10
ENDBRANCH   8   9
ENDBRANCH   2   7
TORSDOF 6
ENDMDL
