MODEL 1
REMARK VINA RESULT:    -4.807      0.000      0.000
REMARK INTER + INTRA:          -6.160
REMARK INTER:                  -6.774
REMARK INTRA:                   0.614
REMARK UNBOUND:                 0.614
REMARK SMILES CC1=CCC(=C(C)C)C(=O)CC(C)=CCC1
REMARK SMILES IDX 12 1 14 2 13 3 15 4 16 5 2 6 1 7 3 8 11 10 9 11 10 12 5 13
REMARK SMILES IDX 6 14 7 15 8 16 4 17
REMARK H PARENT
REMARK Flexibility Score: 60.00
ROOT
ATOM      1  C   UNL     1      17.217 -30.847  21.691  1.00  0.00    -0.070 C 
ATOM      2  C   UNL     1      17.802 -31.431  20.619  1.00  0.00    -0.027 C 
ATOM      3  C   UNL     1      16.934 -29.368  21.622  1.00  0.00     0.039 C 
ENDROOT
BRANCH   2   4
ATOM      4  C   UNL     1      18.102 -32.903  20.459  1.00  0.00     0.032 C 
BRANCH   4   5
ATOM      5  C   UNL     1      17.219 -33.584  19.400  1.00  0.00     0.034 C 
BRANCH   5   6
ATOM      6  C   UNL     1      16.234 -34.569  20.005  1.00  0.00    -0.077 C 
ATOM      7  C   UNL     1      16.622 -36.024  20.060  1.00  0.00     0.039 C 
ATOM      8  C   UNL     1      15.016 -34.221  20.480  1.00  0.00    -0.023 CG0
ATOM      9  G   UNL     1      14.421 -32.833  20.460  1.00  0.00     0.000 G0
ENDBRANCH   5   6
ENDBRANCH   4   5
ENDBRANCH   2   4
BRANCH   1  10
ATOM     10  C   UNL     1      16.811 -31.598  22.945  1.00  0.00     0.111 C 
BRANCH  10  11
ATOM     11  C   UNL     1      15.627 -32.505  22.713  1.00  0.00     0.163 C 
ATOM     12  O   UNL     1      15.562 -33.578  23.371  1.00  0.00    -0.294 OA
BRANCH  11  13
ATOM     13  C   UNL     1      14.501 -32.136  21.801  1.00  0.00    -0.002 C 
ATOM     14  C   UNL     1      13.513 -31.297  22.228  1.00  0.00    -0.069 C 
ATOM     15  C   UNL     1      12.309 -30.994  21.364  1.00  0.00     0.039 C 
ATOM     16  C   UNL     1      13.552 -30.671  23.605  1.00  0.00     0.039 C 
BRANCH  13  17
ATOM     17  C   UNL     1      14.404 -32.836  20.452  1.00  0.00     0.066 CG0
ATOM     18  G   UNL     1      15.030 -34.211  20.488  1.00  0.00     0.000 G0
ENDBRANCH  13  17
ENDBRANCH  11  13
ENDBRANCH  10  11
ENDBRANCH   1  10
TORSDOF 0
ENDMDL
MODEL 2
REMARK VINA RESULT:    -4.647      1.501      4.008
REMARK INTER + INTRA:          -5.935
REMARK INTER:                  -6.355
REMARK INTRA:                   0.420
REMARK UNBOUND:                 0.614
REMARK SMILES CC1=CCC(=C(C)C)C(=O)CC(C)=CCC1
REMARK SMILES IDX 12 1 14 2 13 3 15 4 16 5 2 6 1 7 3 8 11 10 9 11 10 12 5 13
REMARK SMILES IDX 6 14 7 15 8 16 4 17
REMARK H PARENT
REMARK Flexibility Score: 60.00
ROOT
ATOM      1  C   UNL     1      18.108 -30.177  21.122  1.00  0.00    -0.070 C 
ATOM      2  C   UNL     1      17.193 -29.371  21.711  1.00  0.00    -0.027 C 
ATOM      3  C   UNL     1      19.567 -29.869  21.344  1.00  0.00     0.039 C 
ENDROOT
BRANCH   2   4
ATOM      4  C   UNL     1      15.693 -29.550  21.672  1.00  0.00     0.032 C 
BRANCH   4   5
ATOM      5  C   UNL     1      15.213 -30.771  22.476  1.00  0.00     0.034 C 
BRANCH   5   6
ATOM      6  C   UNL     1      14.314 -31.687  21.666  1.00  0.00    -0.077 C 
ATOM      7  C   UNL     1      13.031 -31.122  21.112  1.00  0.00     0.039 C 
ATOM      8  C   UNL     1      14.584 -32.991  21.428  1.00  0.00    -0.023 CG0
ATOM      9  G   UNL     1      15.781 -33.756  21.943  1.00  0.00     0.000 G0
ENDBRANCH   5   6
ENDBRANCH   4   5
ENDBRANCH   2   4
BRANCH   1  10
ATOM     10  C   UNL     1      17.750 -31.382  20.272  1.00  0.00     0.111 C 
BRANCH  10  11
ATOM     11  C   UNL     1      17.941 -32.684  21.012  1.00  0.00     0.163 C 
ATOM     12  O   UNL     1      18.948 -32.799  21.761  1.00  0.00    -0.294 OA
BRANCH  11  13
ATOM     13  C   UNL     1      16.942 -33.794  20.952  1.00  0.00    -0.002 C 
ATOM     14  C   UNL     1      16.995 -34.718  19.948  1.00  0.00    -0.069 C 
ATOM     15  C   UNL     1      15.934 -35.785  19.804  1.00  0.00     0.039 C 
ATOM     16  C   UNL     1      18.090 -34.683  18.905  1.00  0.00     0.039 C 
BRANCH  13  17
ATOM     17  C   UNL     1      15.782 -33.778  21.940  1.00  0.00     0.066 CG0
ATOM     18  G   UNL     1      14.604 -32.997  21.407  1.00  0.00     0.000 G0
ENDBRANCH  13  17
ENDBRANCH  11  13
ENDBRANCH  10  11
ENDBRANCH   1  10
TORSDOF 0
ENDMDL
MODEL 3
REMARK VINA RESULT:    -4.614      2.486      4.124
REMARK INTER + INTRA:          -5.888
REMARK INTER:                  -6.075
REMARK INTRA:                   0.187
REMARK UNBOUND:                 0.614
REMARK SMILES CC1=CCC(=C(C)C)C(=O)CC(C)=CCC1
REMARK SMILES IDX 12 1 14 2 13 3 15 4 16 5 2 6 1 7 3 8 11 10 9 11 10 12 5 13
REMARK SMILES IDX 6 14 7 15 8 16 4 17
REMARK H PARENT
REMARK Flexibility Score: 60.00
ROOT
ATOM      1  C   UNL     1      14.632 -33.127  21.109  1.00  0.00    -0.070 C 
ATOM      2  C   UNL     1      14.834 -33.792  19.947  1.00  0.00    -0.027 C 
ATOM      3  C   UNL     1      13.802 -31.869  21.067  1.00  0.00     0.039 C 
ENDROOT
BRANCH   2   4
ATOM      4  C   UNL     1      15.570 -35.102  19.787  1.00  0.00     0.032 C 
BRANCH   4   5
ATOM      5  C   UNL     1      17.089 -34.920  19.622  1.00  0.00     0.034 C 
BRANCH   5   6
ATOM      6  C   UNL     1      17.889 -35.943  20.408  1.00  0.00    -0.077 C 
ATOM      7  C   UNL     1      17.828 -37.385  19.973  1.00  0.00     0.039 C 
ATOM      8  C   UNL     1      18.640 -35.641  21.493  1.00  0.00    -0.023 CG0
ATOM      9  G   UNL     1      18.782 -34.273  22.119  1.00  0.00     0.000 G0
ENDBRANCH   5   6
ENDBRANCH   4   5
ENDBRANCH   2   4
BRANCH   1  10
ATOM     10  C   UNL     1      15.174 -33.585  22.450  1.00  0.00     0.111 C 
BRANCH  10  11
ATOM     11  C   UNL     1      16.573 -33.077  22.707  1.00  0.00     0.163 C 
ATOM     12  O   UNL     1      16.777 -31.836  22.631  1.00  0.00    -0.294 OA
BRANCH  11  13
ATOM     13  C   UNL     1      17.689 -33.979  23.126  1.00  0.00    -0.002 C 
ATOM     14  C   UNL     1      17.779 -34.411  24.418  1.00  0.00    -0.069 C 
ATOM     15  C   UNL     1      18.956 -35.235  24.892  1.00  0.00     0.039 C 
ATOM     16  C   UNL     1      16.732 -34.043  25.446  1.00  0.00     0.039 C 
BRANCH  13  17
ATOM     17  C   UNL     1      18.796 -34.274  22.123  1.00  0.00     0.066 CG0
ATOM     18  G   UNL     1      18.648 -35.648  21.514  1.00  0.00     0.000 G0
ENDBRANCH  13  17
ENDBRANCH  11  13
ENDBRANCH  10  11
ENDBRANCH   1  10
TORSDOF 0
ENDMDL
MODEL 4
REMARK VINA RESULT:    -4.508      1.232      3.851
REMARK INTER + INTRA:          -5.739
REMARK INTER:                  -6.318
REMARK INTRA:                   0.578
REMARK UNBOUND:                 0.614
REMARK SMILES CC1=CCC(=C(C)C)C(=O)CC(C)=CCC1
REMARK SMILES IDX 12 1 14 2 13 3 15 4 16 5 2 6 1 7 3 8 11 10 9 11 10 12 5 13
REMARK SMILES IDX 6 14 7 15 8 16 4 17
REMARK H PARENT
REMARK Flexibility Score: 60.00
ROOT
ATOM      1  C   UNL     1      17.688 -31.441  21.947  1.00  0.00    -0.070 C 
ATOM      2  C   UNL     1      17.129 -30.349  21.374  1.00  0.00    -0.027 C 
ATOM      3  C   UNL     1      18.747 -32.182  21.171  1.00  0.00     0.039 C 
ENDROOT
BRANCH   2   4
ATOM      4  C   UNL     1      16.110 -29.433  22.009  1.00  0.00     0.032 C 
BRANCH   4   5
ATOM      5  C   UNL     1      14.676 -29.698  21.519  1.00  0.00     0.034 C 
BRANCH   5   6
ATOM      6  C   UNL     1      13.895 -30.601  22.456  1.00  0.00    -0.077 C 
ATOM      7  C   UNL     1      13.125 -29.965  23.585  1.00  0.00     0.039 C 
ATOM      8  C   UNL     1      13.865 -31.950  22.351  1.00  0.00    -0.023 CG0
ATOM      9  G   UNL     1      14.613 -32.777  21.332  1.00  0.00     0.000 G0
ENDBRANCH   5   6
ENDBRANCH   4   5
ENDBRANCH   2   4
BRANCH   1  10
ATOM     10  C   UNL     1      17.324 -31.948  23.330  1.00  0.00     0.111 C 
BRANCH  10  11
ATOM     11  C   UNL     1      16.327 -33.081  23.282  1.00  0.00     0.163 C 
ATOM     12  O   UNL     1      15.922 -33.562  24.374  1.00  0.00    -0.294 OA
BRANCH  11  13
ATOM     13  C   UNL     1      15.750 -33.587  22.000  1.00  0.00    -0.002 C 
ATOM     14  C   UNL     1      16.315 -34.655  21.363  1.00  0.00    -0.069 C 
ATOM     15  C   UNL     1      15.816 -35.118  20.012  1.00  0.00     0.039 C 
ATOM     16  C   UNL     1      17.496 -35.391  21.956  1.00  0.00     0.039 C 
BRANCH  13  17
ATOM     17  C   UNL     1      14.625 -32.794  21.349  1.00  0.00     0.066 CG0
ATOM     18  G   UNL     1      13.873 -31.959  22.359  1.00  0.00     0.000 G0
ENDBRANCH  13  17
ENDBRANCH  11  13
ENDBRANCH  10  11
ENDBRANCH   1  10
TORSDOF 0
ENDMDL
MODEL 5
REMARK VINA RESULT:    -4.390      1.742      3.259
REMARK INTER + INTRA:          -5.574
REMARK INTER:                  -6.106
REMARK INTRA:                   0.532
REMARK UNBOUND:                 0.614
REMARK SMILES CC1=CCC(=C(C)C)C(=O)CC(C)=CCC1
REMARK SMILES IDX 12 1 14 2 13 3 15 4 16 5 2 6 1 7 3 8 11 10 9 11 10 12 5 13
REMARK SMILES IDX 6 14 7 15 8 16 4 17
REMARK H PARENT
REMARK Flexibility Score: 60.00
ROOT
ATOM      1  C   UNL     1      14.705 -33.226  21.029  1.00  0.00    -0.070 C 
ATOM      2  C   UNL     1      14.942 -34.027  19.964  1.00  0.00    -0.027 C 
ATOM      3  C   UNL     1      13.993 -31.919  20.785  1.00  0.00     0.039 C 
ENDROOT
BRANCH   2   4
ATOM      4  C   UNL     1      15.573 -35.399  20.005  1.00  0.00     0.032 C 
BRANCH   4   5
ATOM      5  C   UNL     1      17.032 -35.404  19.516  1.00  0.00     0.034 C 
BRANCH   5   6
ATOM      6  C   UNL     1      18.031 -35.332  20.657  1.00  0.00    -0.077 C 
ATOM      7  C   UNL     1      18.545 -36.624  21.239  1.00  0.00     0.039 C 
ATOM      8  C   UNL     1      18.473 -34.174  21.200  1.00  0.00    -0.023 CG0
ATOM      9  G   UNL     1      18.035 -32.784  20.801  1.00  0.00     0.000 G0
ENDBRANCH   5   6
ENDBRANCH   4   5
ENDBRANCH   2   4
BRANCH   1  10
ATOM     10  C   UNL     1      15.095 -33.576  22.453  1.00  0.00     0.111 C 
BRANCH  10  11
ATOM     11  C   UNL     1      16.427 -32.984  22.846  1.00  0.00     0.163 C 
ATOM     12  O   UNL     1      16.910 -33.298  23.966  1.00  0.00    -0.294 OA
BRANCH  11  13
ATOM     13  C   UNL     1      17.220 -32.114  21.925  1.00  0.00    -0.002 C 
ATOM     14  C   UNL     1      17.106 -30.754  21.990  1.00  0.00    -0.069 C 
ATOM     15  C   UNL     1      17.814 -29.857  21.000  1.00  0.00     0.039 C 
ATOM     16  C   UNL     1      16.227 -30.087  23.025  1.00  0.00     0.039 C 
BRANCH  13  17
ATOM     17  C   UNL     1      18.030 -32.778  20.819  1.00  0.00     0.066 CG0
ATOM     18  G   UNL     1      18.459 -34.174  21.204  1.00  0.00     0.000 G0
ENDBRANCH  13  17
ENDBRANCH  11  13
ENDBRANCH  10  11
ENDBRANCH   1  10
TORSDOF 0
ENDMDL
MODEL 6
REMARK VINA RESULT:    -4.251      2.590      4.636
REMARK INTER + INTRA:          -5.377
REMARK INTER:                  -5.541
REMARK INTRA:                   0.164
REMARK UNBOUND:                 0.614
REMARK SMILES CC1=CCC(=C(C)C)C(=O)CC(C)=CCC1
REMARK SMILES IDX 12 1 14 2 13 3 15 4 16 5 2 6 1 7 3 8 11 10 9 11 10 12 5 13
REMARK SMILES IDX 6 14 7 15 8 16 4 17
REMARK H PARENT
REMARK Flexibility Score: 60.00
ROOT
ATOM      1  C   UNL     1      17.500 -36.683  20.114  1.00  0.00    -0.070 C 
ATOM      2  C   UNL     1      18.386 -36.988  21.092  1.00  0.00    -0.027 C 
ATOM      3  C   UNL     1      17.627 -37.404  18.796  1.00  0.00     0.039 C 
ENDROOT
BRANCH   2   4
ATOM      4  C   UNL     1      18.386 -36.435  22.498  1.00  0.00     0.032 C 
BRANCH   4   5
ATOM      5  C   UNL     1      19.281 -35.194  22.654  1.00  0.00     0.034 C 
BRANCH   5   6
ATOM      6  C   UNL     1      18.637 -34.111  23.500  1.00  0.00    -0.077 C 
ATOM      7  C   UNL     1      18.576 -34.312  24.993  1.00  0.00     0.039 C 
ATOM      8  C   UNL     1      18.092 -32.981  22.992  1.00  0.00    -0.023 CG0
ATOM      9  G   UNL     1      17.999 -32.624  21.527  1.00  0.00     0.000 G0
ENDBRANCH   5   6
ENDBRANCH   4   5
ENDBRANCH   2   4
BRANCH   1  10
ATOM     10  C   UNL     1      16.377 -35.675  20.276  1.00  0.00     0.111 C 
BRANCH  10  11
ATOM     11  C   UNL     1      16.812 -34.272  19.928  1.00  0.00     0.163 C 
ATOM     12  O   UNL     1      17.214 -34.048  18.755  1.00  0.00    -0.294 OA
BRANCH  11  13
ATOM     13  C   UNL     1      16.703 -33.136  20.893  1.00  0.00    -0.002 C 
ATOM     14  C   UNL     1      15.505 -32.511  21.091  1.00  0.00    -0.069 C 
ATOM     15  C   UNL     1      15.391 -31.292  21.980  1.00  0.00     0.039 C 
ATOM     16  C   UNL     1      14.248 -32.978  20.391  1.00  0.00     0.039 C 
BRANCH  13  17
ATOM     17  C   UNL     1      17.979 -32.599  21.527  1.00  0.00     0.066 CG0
ATOM     18  G   UNL     1      18.086 -32.985  22.983  1.00  0.00     0.000 G0
ENDBRANCH  13  17
ENDBRANCH  11  13
ENDBRANCH  10  11
ENDBRANCH   1  10
TORSDOF 0
ENDMDL
MODEL 7
REMARK VINA RESULT:    -4.211      1.935      4.341
REMARK INTER + INTRA:          -5.321
REMARK INTER:                  -5.526
REMARK INTRA:                   0.205
REMARK UNBOUND:                 0.614
REMARK SMILES CC1=CCC(=C(C)C)C(=O)CC(C)=CCC1
REMARK SMILES IDX 12 1 14 2 13 3 15 4 16 5 2 6 1 7 3 8 11 10 9 11 10 12 5 13
REMARK SMILES IDX 6 14 7 15 8 16 4 17
REMARK H PARENT
REMARK Flexibility Score: 60.00
ROOT
ATOM      1  C   UNL     1      14.610 -30.714  22.766  1.00  0.00    -0.070 C 
ATOM      2  C   UNL     1      15.557 -29.760  22.932  1.00  0.00    -0.027 C 
ATOM      3  C   UNL     1      13.328 -30.579  23.548  1.00  0.00     0.039 C 
ENDROOT
BRANCH   2   4
ATOM      4  C   UNL     1      16.872 -29.673  22.193  1.00  0.00     0.032 C 
BRANCH   4   5
ATOM      5  C   UNL     1      18.026 -30.366  22.939  1.00  0.00     0.034 C 
BRANCH   5   6
ATOM      6  C   UNL     1      18.942 -31.140  22.008  1.00  0.00    -0.077 C 
ATOM      7  C   UNL     1      19.894 -30.364  21.133  1.00  0.00     0.039 C 
ATOM      8  C   UNL     1      18.941 -32.489  21.900  1.00  0.00    -0.023 CG0
ATOM      9  G   UNL     1      18.027 -33.436  22.640  1.00  0.00     0.000 G0
ENDBRANCH   5   6
ENDBRANCH   4   5
ENDBRANCH   2   4
BRANCH   1  10
ATOM     10  C   UNL     1      14.757 -31.896  21.826  1.00  0.00     0.111 C 
BRANCH  10  11
ATOM     11  C   UNL     1      15.460 -33.062  22.477  1.00  0.00     0.163 C 
ATOM     12  O   UNL     1      14.930 -33.582  23.495  1.00  0.00    -0.294 OA
BRANCH  11  13
ATOM     13  C   UNL     1      16.703 -33.667  21.910  1.00  0.00    -0.002 C 
ATOM     14  C   UNL     1      16.634 -34.515  20.841  1.00  0.00    -0.069 C 
ATOM     15  C   UNL     1      17.863 -35.223  20.317  1.00  0.00     0.039 C 
ATOM     16  C   UNL     1      15.316 -34.822  20.165  1.00  0.00     0.039 C 
BRANCH  13  17
ATOM     17  C   UNL     1      18.018 -33.440  22.643  1.00  0.00     0.066 CG0
ATOM     18  G   UNL     1      18.920 -32.488  21.894  1.00  0.00     0.000 G0
ENDBRANCH  13  17
ENDBRANCH  11  13
ENDBRANCH  10  11
ENDBRANCH   1  10
TORSDOF 0
ENDMDL
MODEL 8
REMARK VINA RESULT:    -4.182      2.133      4.983
REMARK INTER + INTRA:          -5.279
REMARK INTER:                  -5.750
REMARK INTRA:                   0.471
REMARK UNBOUND:                 0.614
REMARK SMILES CC1=CCC(=C(C)C)C(=O)CC(C)=CCC1
REMARK SMILES IDX 12 1 14 2 13 3 15 4 16 5 2 6 1 7 3 8 11 10 9 11 10 12 5 13
REMARK SMILES IDX 6 14 7 15 8 16 4 17
REMARK H PARENT
REMARK Flexibility Score: 60.00
ROOT
ATOM      1  C   UNL     1      14.664 -32.542  21.579  1.00  0.00    -0.070 C 
ATOM      2  C   UNL     1      15.065 -31.569  22.431  1.00  0.00    -0.027 C 
ATOM      3  C   UNL     1      13.702 -32.167  20.481  1.00  0.00     0.039 C 
ENDROOT
BRANCH   2   4
ATOM      4  C   UNL     1      16.073 -31.721  23.546  1.00  0.00     0.032 C 
BRANCH   4   5
ATOM      5  C   UNL     1      17.317 -30.836  23.356  1.00  0.00     0.034 C 
BRANCH   5   6
ATOM      6  C   UNL     1      17.934 -30.983  21.977  1.00  0.00    -0.077 C 
ATOM      7  C   UNL     1      17.991 -29.769  21.086  1.00  0.00     0.039 C 
ATOM      8  C   UNL     1      18.419 -32.149  21.489  1.00  0.00    -0.023 CG0
ATOM      9  G   UNL     1      18.399 -33.482  22.197  1.00  0.00     0.000 G0
ENDBRANCH   5   6
ENDBRANCH   4   5
ENDBRANCH   2   4
BRANCH   1  10
ATOM     10  C   UNL     1      15.143 -33.980  21.653  1.00  0.00     0.111 C 
BRANCH  10  11
ATOM     11  C   UNL     1      16.361 -34.224  20.795  1.00  0.00     0.163 C 
ATOM     12  O   UNL     1      16.249 -34.071  19.549  1.00  0.00    -0.294 OA
BRANCH  11  13
ATOM     13  C   UNL     1      17.698 -34.555  21.375  1.00  0.00    -0.002 C 
ATOM     14  C   UNL     1      18.192 -35.826  21.289  1.00  0.00    -0.069 C 
ATOM     15  C   UNL     1      19.491 -36.211  21.961  1.00  0.00     0.039 C 
ATOM     16  C   UNL     1      17.439 -36.916  20.561  1.00  0.00     0.039 C 
BRANCH  13  17
ATOM     17  C   UNL     1      18.416 -33.490  22.192  1.00  0.00     0.066 CG0
ATOM     18  G   UNL     1      18.427 -32.156  21.485  1.00  0.00     0.000 G0
ENDBRANCH  13  17
ENDBRANCH  11  13
ENDBRANCH  10  11
ENDBRANCH   1  10
TORSDOF 0
ENDMDL
MODEL 9
REMARK VINA RESULT:    -4.096      1.724      4.360
REMARK INTER + INTRA:          -5.158
REMARK INTER:                  -5.850
REMARK INTRA:                   0.692
REMARK UNBOUND:                 0.614
REMARK SMILES CC1=CCC(=C(C)C)C(=O)CC(C)=CCC1
REMARK SMILES IDX 12 1 14 2 13 3 15 4 16 5 2 6 1 7 3 8 11 10 9 11 10 12 5 13
REMARK SMILES IDX 6 14 7 15 8 16 4 17
REMARK H PARENT
REMARK Flexibility Score: 60.00
ROOT
ATOM      1  C   UNL     1      18.198 -33.046  23.456  1.00  0.00    -0.070 C 
ATOM      2  C   UNL     1      17.204 -32.409  24.120  1.00  0.00    -0.027 C 
ATOM      3  C   UNL     1      18.844 -34.234  24.122  1.00  0.00     0.039 C 
ENDROOT
BRANCH   2   4
ATOM      4  C   UNL     1      16.385 -31.252  23.601  1.00  0.00     0.032 C 
BRANCH   4   5
ATOM      5  C   UNL     1      14.876 -31.552  23.566  1.00  0.00     0.034 C 
BRANCH   5   6
ATOM      6  C   UNL     1      14.324 -31.612  22.154  1.00  0.00    -0.077 C 
ATOM      7  C   UNL     1      13.448 -30.481  21.679  1.00  0.00     0.039 C 
ATOM      8  C   UNL     1      14.554 -32.635  21.298  1.00  0.00    -0.023 CG0
ATOM      9  G   UNL     1      15.351 -33.882  21.601  1.00  0.00     0.000 G0
ENDBRANCH   5   6
ENDBRANCH   4   5
ENDBRANCH   2   4
BRANCH   1  10
ATOM     10  C   UNL     1      18.681 -32.646  22.075  1.00  0.00     0.111 C 
BRANCH  10  11
ATOM     11  C   UNL     1      17.584 -32.715  21.040  1.00  0.00     0.163 C 
ATOM     12  O   UNL     1      17.472 -31.759  20.228  1.00  0.00    -0.294 OA
BRANCH  11  13
ATOM     13  C   UNL     1      16.691 -33.906  20.898  1.00  0.00    -0.002 C 
ATOM     14  C   UNL     1      17.021 -34.919  20.044  1.00  0.00    -0.069 C 
ATOM     15  C   UNL     1      16.084 -36.080  19.801  1.00  0.00     0.039 C 
ATOM     16  C   UNL     1      18.317 -34.899  19.264  1.00  0.00     0.039 C 
BRANCH  13  17
ATOM     17  C   UNL     1      15.342 -33.887  21.604  1.00  0.00     0.066 CG0
ATOM     18  G   UNL     1      14.567 -32.627  21.298  1.00  0.00     0.000 G0
ENDBRANCH  13  17
ENDBRANCH  11  13
ENDBRANCH  10  11
ENDBRANCH   1  10
TORSDOF 0
ENDMDL
