MODEL 1
REMARK VINA RESULT:    -2.414      0.000      0.000
REMARK INTER + INTRA:          -2.725
REMARK INTER:                  -2.697
REMARK INTRA:                  -0.029
REMARK UNBOUND:                -0.029
REMARK SMILES CCCC(=O)[O-]
REMARK SMILES IDX 3 1 4 2 5 3 6 4 2 5 1 6
REMARK H PARENT
REMARK Flexibility Score: inf
ROOT
ATOM      1  C   UNL     1      22.777  22.403  19.547  1.00  0.00     0.052 C 
ENDROOT
BRANCH   1   2
ATOM      2  C   UNL     1      22.345  23.721  18.980  1.00  0.00     0.041 C 
ATOM      3  O   UNL     1      22.973  24.773  19.274  1.00  0.00    -0.550 OA
ATOM      4  O   UNL     1      21.271  23.784  18.102  1.00  0.00    -0.550 OA
ENDBRANCH   1   2
BRANCH   1   5
ATOM      5  C   UNL     1      21.828  21.270  19.137  1.00  0.00     0.003 C 
ATOM      6  C   UNL     1      22.555  20.131  18.424  1.00  0.00     0.004 C 
ENDBRANCH   1   5
TORSDOF 2
ENDMDL
MODEL 2
REMARK VINA RESULT:    -2.406      2.710      3.633
REMARK INTER + INTRA:          -2.716
REMARK INTER:                  -2.708
REMARK INTRA:                  -0.008
REMARK UNBOUND:                -0.029
REMARK SMILES CCCC(=O)[O-]
REMARK SMILES IDX 3 1 4 2 5 3 6 4 2 5 1 6
REMARK H PARENT
REMARK Flexibility Score: inf
ROOT
ATOM      1  C   UNL     1      21.664  21.825  18.963  1.00  0.00     0.052 C 
ENDROOT
BRANCH   1   2
ATOM      2  C   UNL     1      21.947  20.355  18.911  1.00  0.00     0.041 C 
ATOM      3  O   UNL     1      22.780  19.899  18.082  1.00  0.00    -0.550 OA
ATOM      4  O   UNL     1      21.318  19.492  19.798  1.00  0.00    -0.550 OA
ENDBRANCH   1   2
BRANCH   1   5
ATOM      5  C   UNL     1      22.807  22.600  19.631  1.00  0.00     0.003 C 
ATOM      6  C   UNL     1      22.815  24.077  19.239  1.00  0.00     0.004 C 
ENDBRANCH   1   5
TORSDOF 2
ENDMDL
MODEL 3
REMARK VINA RESULT:    -2.204      2.002      2.389
REMARK INTER + INTRA:          -2.491
REMARK INTER:                  -2.453
REMARK INTRA:                  -0.038
REMARK UNBOUND:                -0.029
REMARK SMILES CCCC(=O)[O-]
REMARK SMILES IDX 3 1 4 2 5 3 6 4 2 5 1 6
REMARK H PARENT
REMARK Flexibility Score: inf
ROOT
ATOM      1  C   UNL     1      21.638  22.495  18.624  1.00  0.00     0.052 C 
ENDROOT
BRANCH   1   2
ATOM      2  C   UNL     1      20.306  22.635  19.296  1.00  0.00     0.041 C 
ATOM      3  O   UNL     1      19.353  23.201  18.699  1.00  0.00    -0.550 OA
ATOM      4  O   UNL     1      20.109  22.111  20.567  1.00  0.00    -0.550 OA
ENDBRANCH   1   2
BRANCH   1   5
ATOM      5  C   UNL     1      22.501  21.417  19.292  1.00  0.00     0.003 C 
ATOM      6  C   UNL     1      22.489  20.099  18.517  1.00  0.00     0.004 C 
ENDBRANCH   1   5
TORSDOF 2
ENDMDL
MODEL 4
REMARK VINA RESULT:    -2.139      1.627      2.151
REMARK INTER + INTRA:          -2.418
REMARK INTER:                  -2.349
REMARK INTRA:                  -0.069
REMARK UNBOUND:                -0.029
REMARK SMILES CCCC(=O)[O-]
REMARK SMILES IDX 3 1 4 2 5 3 6 4 2 5 1 6
REMARK H PARENT
REMARK Flexibility Score: inf
ROOT
ATOM      1  C   UNL     1      22.127  24.251  18.529  1.00  0.00     0.052 C 
ENDROOT
BRANCH   1   2
ATOM      2  C   UNL     1      20.679  24.270  18.913  1.00  0.00     0.041 C 
ATOM      3  O   UNL     1      20.328  24.708  20.040  1.00  0.00    -0.550 OA
ATOM      4  O   UNL     1      19.714  23.835  18.013  1.00  0.00    -0.550 OA
ENDBRANCH   1   2
BRANCH   1   5
ATOM      5  C   UNL     1      22.954  23.373  19.477  1.00  0.00     0.003 C 
ATOM      6  C   UNL     1      22.595  21.892  19.360  1.00  0.00     0.004 C 
ENDBRANCH   1   5
TORSDOF 2
ENDMDL
MODEL 5
REMARK VINA RESULT:    -2.126     15.766     16.804
REMARK INTER + INTRA:          -2.403
REMARK INTER:                  -2.398
REMARK INTRA:                  -0.005
REMARK UNBOUND:                -0.029
REMARK SMILES CCCC(=O)[O-]
REMARK SMILES IDX 3 1 4 2 5 3 6 4 2 5 1 6
REMARK H PARENT
REMARK Flexibility Score: inf
ROOT
ATOM      1  C   UNL     1      25.062   6.374  15.052  1.00  0.00     0.052 C 
ENDROOT
BRANCH   1   2
ATOM      2  C   UNL     1      25.261   7.066  16.366  1.00  0.00     0.041 C 
ATOM      3  O   UNL     1      26.207   6.725  17.124  1.00  0.00    -0.550 OA
ATOM      4  O   UNL     1      24.423   8.110  16.738  1.00  0.00    -0.550 OA
ENDBRANCH   1   2
BRANCH   1   5
ATOM      5  C   UNL     1      23.726   5.623  15.002  1.00  0.00     0.003 C 
ATOM      6  C   UNL     1      23.513   4.901  13.672  1.00  0.00     0.004 C 
ENDBRANCH   1   5
TORSDOF 2
ENDMDL
MODEL 6
REMARK VINA RESULT:    -2.031      2.172      3.409
REMARK INTER + INTRA:          -2.297
REMARK INTER:                  -2.290
REMARK INTRA:                  -0.007
REMARK UNBOUND:                -0.029
REMARK SMILES CCCC(=O)[O-]
REMARK SMILES IDX 3 1 4 2 5 3 6 4 2 5 1 6
REMARK H PARENT
REMARK Flexibility Score: inf
ROOT
ATOM      1  C   UNL     1      21.502  22.734  18.644  1.00  0.00     0.052 C 
ENDROOT
BRANCH   1   2
ATOM      2  C   UNL     1      22.400  21.881  19.487  1.00  0.00     0.041 C 
ATOM      3  O   UNL     1      22.837  20.787  19.041  1.00  0.00    -0.550 OA
ATOM      4  O   UNL     1      22.780  22.310  20.752  1.00  0.00    -0.550 OA
ENDBRANCH   1   2
BRANCH   1   5
ATOM      5  C   UNL     1      21.969  24.194  18.613  1.00  0.00     0.003 C 
ATOM      6  C   UNL     1      21.035  25.088  17.798  1.00  0.00     0.004 C 
ENDBRANCH   1   5
TORSDOF 2
ENDMDL
MODEL 7
REMARK VINA RESULT:    -1.963     16.843     17.408
REMARK INTER + INTRA:          -2.221
REMARK INTER:                  -2.187
REMARK INTRA:                  -0.035
REMARK UNBOUND:                -0.029
REMARK SMILES CCCC(=O)[O-]
REMARK SMILES IDX 3 1 4 2 5 3 6 4 2 5 1 6
REMARK H PARENT
REMARK Flexibility Score: inf
ROOT
ATOM      1  C   UNL     1      25.019   6.372  15.029  1.00  0.00     0.052 C 
ENDROOT
BRANCH   1   2
ATOM      2  C   UNL     1      23.881   5.419  14.821  1.00  0.00     0.041 C 
ATOM      3  O   UNL     1      23.323   4.875  15.810  1.00  0.00    -0.550 OA
ATOM      4  O   UNL     1      23.417   5.158  13.538  1.00  0.00    -0.550 OA
ENDBRANCH   1   2
BRANCH   1   5
ATOM      5  C   UNL     1      24.857   7.176  16.326  1.00  0.00     0.003 C 
ATOM      6  C   UNL     1      26.066   7.038  17.251  1.00  0.00     0.004 C 
ENDBRANCH   1   5
TORSDOF 2
ENDMDL
MODEL 8
REMARK VINA RESULT:    -1.954     10.682     11.597
REMARK INTER + INTRA:          -2.211
REMARK INTER:                  -2.189
REMARK INTRA:                  -0.023
REMARK UNBOUND:                -0.029
REMARK SMILES CCCC(=O)[O-]
REMARK SMILES IDX 3 1 4 2 5 3 6 4 2 5 1 6
REMARK H PARENT
REMARK Flexibility Score: inf
ROOT
ATOM      1  C   UNL     1      19.656  12.176  17.569  1.00  0.00     0.052 C 
ENDROOT
BRANCH   1   2
ATOM      2  C   UNL     1      20.988  12.025  16.901  1.00  0.00     0.041 C 
ATOM      3  O   UNL     1      21.556  10.901  16.867  1.00  0.00    -0.550 OA
ATOM      4  O   UNL     1      21.588  13.117  16.287  1.00  0.00    -0.550 OA
ENDBRANCH   1   2
BRANCH   1   5
ATOM      5  C   UNL     1      18.511  11.697  16.668  1.00  0.00     0.003 C 
ATOM      6  C   UNL     1      18.151  10.232  16.912  1.00  0.00     0.004 C 
ENDBRANCH   1   5
TORSDOF 2
ENDMDL
MODEL 9
REMARK VINA RESULT:    -1.952     15.423     16.159
REMARK INTER + INTRA:          -2.209
REMARK INTER:                  -2.198
REMARK INTRA:                  -0.011
REMARK UNBOUND:                -0.029
REMARK SMILES CCCC(=O)[O-]
REMARK SMILES IDX 3 1 4 2 5 3 6 4 2 5 1 6
REMARK H PARENT
REMARK Flexibility Score: inf
ROOT
ATOM      1  C   UNL     1      26.055   6.876  17.036  1.00  0.00     0.052 C 
ENDROOT
BRANCH   1   2
ATOM      2  C   UNL     1      24.972   6.723  16.012  1.00  0.00     0.041 C 
ATOM      3  O   UNL     1      25.251   6.322  14.851  1.00  0.00    -0.550 OA
ATOM      4  O   UNL     1      23.652   6.990  16.349  1.00  0.00    -0.550 OA
ENDBRANCH   1   2
BRANCH   1   5
ATOM      5  C   UNL     1      25.991   8.242  17.730  1.00  0.00     0.003 C 
ATOM      6  C   UNL     1      26.584   8.208  19.138  1.00  0.00     0.004 C 
ENDBRANCH   1   5
TORSDOF 2
ENDMDL
