MODEL 1
REMARK VINA RESULT:    -4.422      0.000      0.000
REMARK INTER + INTRA:          -5.833
REMARK INTER:                  -5.456
REMARK INTRA:                  -0.377
REMARK UNBOUND:                -0.377
REMARK SMILES C=CC[C@H](C)C(=O)CC
REMARK SMILES IDX 4 1 5 2 6 3 7 4 8 5 9 6 3 7 2 8 1 9
REMARK H PARENT
REMARK Flexibility Score: inf
ROOT
ATOM      1  C   UNL     1      -4.000 -14.365  -5.992  1.00  0.00     0.057 C 
ATOM      2  C   UNL     1      -4.178 -15.864  -6.271  1.00  0.00     0.016 C 
ENDROOT
BRANCH   1   3
ATOM      3  C   UNL     1      -5.268 -13.605  -6.321  1.00  0.00     0.135 C 
ATOM      4  O   UNL     1      -5.995 -13.238  -5.409  1.00  0.00    -0.299 OA
BRANCH   3   5
ATOM      5  C   UNL     1      -5.650 -13.263  -7.741  1.00  0.00     0.072 C 
ATOM      6  C   UNL     1      -5.590 -11.757  -7.974  1.00  0.00     0.012 C 
ENDBRANCH   3   5
ENDBRANCH   1   3
BRANCH   1   7
ATOM      7  C   UNL     1      -2.797 -13.773  -6.756  1.00  0.00     0.038 C 
BRANCH   7   8
ATOM      8  C   UNL     1      -2.294 -14.697  -7.835  1.00  0.00    -0.034 C 
ATOM      9  C   UNL     1      -2.324 -14.353  -9.125  1.00  0.00     0.004 C 
ENDBRANCH   7   8
ENDBRANCH   1   7
TORSDOF 4
ENDMDL
MODEL 2
REMARK VINA RESULT:    -4.287      1.752      2.805
REMARK INTER + INTRA:          -5.666
REMARK INTER:                  -5.190
REMARK INTRA:                  -0.477
REMARK UNBOUND:                -0.377
REMARK SMILES C=CC[C@H](C)C(=O)CC
REMARK SMILES IDX 4 1 5 2 6 3 7 4 8 5 9 6 3 7 2 8 1 9
REMARK H PARENT
REMARK Flexibility Score: inf
ROOT
ATOM      1  C   UNL     1      -3.651 -15.013  -8.879  1.00  0.00     0.057 C 
ATOM      2  C   UNL     1      -2.275 -14.375  -9.119  1.00  0.00     0.016 C 
ENDROOT
BRANCH   1   3
ATOM      3  C   UNL     1      -4.753 -13.989  -9.051  1.00  0.00     0.135 C 
ATOM      4  O   UNL     1      -5.914 -14.369  -9.110  1.00  0.00    -0.299 OA
BRANCH   3   5
ATOM      5  C   UNL     1      -4.467 -12.509  -9.125  1.00  0.00     0.072 C 
ATOM      6  C   UNL     1      -5.248 -11.749  -8.059  1.00  0.00     0.012 C 
ENDBRANCH   3   5
ENDBRANCH   1   3
BRANCH   1   7
ATOM      7  C   UNL     1      -3.743 -15.684  -7.492  1.00  0.00     0.038 C 
BRANCH   7   8
ATOM      8  C   UNL     1      -2.882 -14.995  -6.465  1.00  0.00    -0.034 C 
ATOM      9  C   UNL     1      -3.394 -14.132  -5.584  1.00  0.00     0.004 C 
ENDBRANCH   7   8
ENDBRANCH   1   7
TORSDOF 4
ENDMDL
MODEL 3
REMARK VINA RESULT:    -4.244      1.240      3.321
REMARK INTER + INTRA:          -5.614
REMARK INTER:                  -5.255
REMARK INTRA:                  -0.360
REMARK UNBOUND:                -0.377
REMARK SMILES C=CC[C@H](C)C(=O)CC
REMARK SMILES IDX 4 1 5 2 6 3 7 4 8 5 9 6 3 7 2 8 1 9
REMARK H PARENT
REMARK Flexibility Score: inf
ROOT
ATOM      1  C   UNL     1      -5.069 -13.972  -7.892  1.00  0.00     0.057 C 
ATOM      2  C   UNL     1      -5.795 -14.776  -8.980  1.00  0.00     0.016 C 
ENDROOT
BRANCH   1   3
ATOM      3  C   UNL     1      -4.642 -14.877  -6.754  1.00  0.00     0.135 C 
ATOM      4  O   UNL     1      -5.423 -15.087  -5.838  1.00  0.00    -0.299 OA
BRANCH   3   5
ATOM      5  C   UNL     1      -3.291 -15.548  -6.729  1.00  0.00     0.072 C 
ATOM      6  C   UNL     1      -2.232 -14.668  -7.385  1.00  0.00     0.012 C 
ENDBRANCH   3   5
ENDBRANCH   1   3
BRANCH   1   7
ATOM      7  C   UNL     1      -5.928 -12.804  -7.365  1.00  0.00     0.038 C 
BRANCH   7   8
ATOM      8  C   UNL     1      -5.483 -11.474  -7.916  1.00  0.00    -0.034 C 
ATOM      9  C   UNL     1      -4.412 -11.362  -8.706  1.00  0.00     0.004 C 
ENDBRANCH   7   8
ENDBRANCH   1   7
TORSDOF 4
ENDMDL
MODEL 4
REMARK VINA RESULT:    -4.228      1.232      2.807
REMARK INTER + INTRA:          -5.594
REMARK INTER:                  -5.179
REMARK INTRA:                  -0.415
REMARK UNBOUND:                -0.377
REMARK SMILES C=CC[C@H](C)C(=O)CC
REMARK SMILES IDX 4 1 5 2 6 3 7 4 8 5 9 6 3 7 2 8 1 9
REMARK H PARENT
REMARK Flexibility Score: inf
ROOT
ATOM      1  C   UNL     1      -5.384 -14.726  -7.926  1.00  0.00     0.057 C 
ATOM      2  C   UNL     1      -5.576 -13.320  -8.510  1.00  0.00     0.016 C 
ENDROOT
BRANCH   1   3
ATOM      3  C   UNL     1      -5.111 -14.655  -6.438  1.00  0.00     0.135 C 
ATOM      4  O   UNL     1      -5.548 -13.709  -5.798  1.00  0.00    -0.299 OA
BRANCH   3   5
ATOM      5  C   UNL     1      -4.336 -15.729  -5.713  1.00  0.00     0.072 C 
ATOM      6  C   UNL     1      -3.087 -15.152  -5.057  1.00  0.00     0.012 C 
ENDBRANCH   3   5
ENDBRANCH   1   3
BRANCH   1   7
ATOM      7  C   UNL     1      -4.265 -15.505  -8.648  1.00  0.00     0.038 C 
BRANCH   7   8
ATOM      8  C   UNL     1      -3.156 -14.602  -9.124  1.00  0.00    -0.034 C 
ATOM      9  C   UNL     1      -2.046 -14.412  -8.406  1.00  0.00     0.004 C 
ENDBRANCH   7   8
ENDBRANCH   1   7
TORSDOF 4
ENDMDL
MODEL 5
REMARK VINA RESULT:    -4.197      1.162      3.578
REMARK INTER + INTRA:          -5.555
REMARK INTER:                  -5.210
REMARK INTRA:                  -0.345
REMARK UNBOUND:                -0.377
REMARK SMILES C=CC[C@H](C)C(=O)CC
REMARK SMILES IDX 4 1 5 2 6 3 7 4 8 5 9 6 3 7 2 8 1 9
REMARK H PARENT
REMARK Flexibility Score: inf
ROOT
ATOM      1  C   UNL     1      -3.792 -13.894  -7.702  1.00  0.00     0.057 C 
ATOM      2  C   UNL     1      -2.672 -14.398  -8.624  1.00  0.00     0.016 C 
ENDROOT
BRANCH   1   3
ATOM      3  C   UNL     1      -3.644 -14.479  -6.312  1.00  0.00     0.135 C 
ATOM      4  O   UNL     1      -4.227 -13.946  -5.379  1.00  0.00    -0.299 OA
BRANCH   3   5
ATOM      5  C   UNL     1      -2.820 -15.715  -6.048  1.00  0.00     0.072 C 
ATOM      6  C   UNL     1      -3.688 -16.968  -6.088  1.00  0.00     0.012 C 
ENDBRANCH   3   5
ENDBRANCH   1   3
BRANCH   1   7
ATOM      7  C   UNL     1      -5.193 -14.197  -8.274  1.00  0.00     0.038 C 
BRANCH   7   8
ATOM      8  C   UNL     1      -6.018 -12.949  -8.454  1.00  0.00    -0.034 C 
ATOM      9  C   UNL     1      -5.561 -11.746  -8.099  1.00  0.00     0.004 C 
ENDBRANCH   7   8
ENDBRANCH   1   7
TORSDOF 4
ENDMDL
MODEL 6
REMARK VINA RESULT:    -4.100      1.804      2.702
REMARK INTER + INTRA:          -5.435
REMARK INTER:                  -5.120
REMARK INTRA:                  -0.315
REMARK UNBOUND:                -0.377
REMARK SMILES C=CC[C@H](C)C(=O)CC
REMARK SMILES IDX 4 1 5 2 6 3 7 4 8 5 9 6 3 7 2 8 1 9
REMARK H PARENT
REMARK Flexibility Score: inf
ROOT
ATOM      1  C   UNL     1      -3.269 -14.040  -7.976  1.00  0.00     0.057 C 
ATOM      2  C   UNL     1      -2.307 -14.376  -9.124  1.00  0.00     0.016 C 
ENDROOT
BRANCH   1   3
ATOM      3  C   UNL     1      -3.771 -12.617  -8.098  1.00  0.00     0.135 C 
ATOM      4  O   UNL     1      -3.080 -11.704  -7.670  1.00  0.00    -0.299 OA
BRANCH   3   5
ATOM      5  C   UNL     1      -5.089 -12.287  -8.757  1.00  0.00     0.072 C 
ATOM      6  C   UNL     1      -5.992 -13.514  -8.816  1.00  0.00     0.012 C 
ENDBRANCH   3   5
ENDBRANCH   1   3
BRANCH   1   7
ATOM      7  C   UNL     1      -2.624 -14.273  -6.594  1.00  0.00     0.038 C 
BRANCH   7   8
ATOM      8  C   UNL     1      -2.667 -15.721  -6.179  1.00  0.00    -0.034 C 
ATOM      9  C   UNL     1      -3.774 -16.456  -6.307  1.00  0.00     0.004 C 
ENDBRANCH   7   8
ENDBRANCH   1   7
TORSDOF 4
ENDMDL
MODEL 7
REMARK VINA RESULT:    -4.073      1.812      3.455
REMARK INTER + INTRA:          -5.403
REMARK INTER:                  -4.909
REMARK INTRA:                  -0.493
REMARK UNBOUND:                -0.377
REMARK SMILES C=CC[C@H](C)C(=O)CC
REMARK SMILES IDX 4 1 5 2 6 3 7 4 8 5 9 6 3 7 2 8 1 9
REMARK H PARENT
REMARK Flexibility Score: inf
ROOT
ATOM      1  C   UNL     1      -5.448 -14.582  -7.554  1.00  0.00     0.057 C 
ATOM      2  C   UNL     1      -5.137 -13.917  -6.206  1.00  0.00     0.016 C 
ENDROOT
BRANCH   1   3
ATOM      3  C   UNL     1      -4.303 -15.475  -7.986  1.00  0.00     0.135 C 
ATOM      4  O   UNL     1      -4.129 -16.539  -7.411  1.00  0.00    -0.299 OA
BRANCH   3   5
ATOM      5  C   UNL     1      -3.384 -15.103  -9.125  1.00  0.00     0.072 C 
ATOM      6  C   UNL     1      -2.147 -14.374  -8.611  1.00  0.00     0.012 C 
ENDBRANCH   3   5
ENDBRANCH   1   3
BRANCH   1   7
ATOM      7  C   UNL     1      -5.773 -13.545  -8.650  1.00  0.00     0.038 C 
BRANCH   7   8
ATOM      8  C   UNL     1      -5.467 -12.136  -8.211  1.00  0.00    -0.034 C 
ATOM      9  C   UNL     1      -4.539 -11.396  -8.822  1.00  0.00     0.004 C 
ENDBRANCH   7   8
ENDBRANCH   1   7
TORSDOF 4
ENDMDL
MODEL 8
REMARK VINA RESULT:    -4.017      1.863      3.690
REMARK INTER + INTRA:          -5.333
REMARK INTER:                  -4.910
REMARK INTRA:                  -0.424
REMARK UNBOUND:                -0.377
REMARK SMILES C=CC[C@H](C)C(=O)CC
REMARK SMILES IDX 4 1 5 2 6 3 7 4 8 5 9 6 3 7 2 8 1 9
REMARK H PARENT
REMARK Flexibility Score: inf
ROOT
ATOM      1  C   UNL     1      -3.525 -14.077  -8.293  1.00  0.00     0.057 C 
ATOM      2  C   UNL     1      -2.270 -14.385  -9.121  1.00  0.00     0.016 C 
ENDROOT
BRANCH   1   3
ATOM      3  C   UNL     1      -4.087 -15.344  -7.682  1.00  0.00     0.135 C 
ATOM      4  O   UNL     1      -4.469 -16.241  -8.420  1.00  0.00    -0.299 OA
BRANCH   3   5
ATOM      5  C   UNL     1      -4.167 -15.545  -6.189  1.00  0.00     0.072 C 
ATOM      6  C   UNL     1      -3.132 -14.689  -5.467  1.00  0.00     0.012 C 
ENDBRANCH   3   5
ENDBRANCH   1   3
BRANCH   1   7
ATOM      7  C   UNL     1      -4.603 -13.349  -9.125  1.00  0.00     0.038 C 
BRANCH   7   8
ATOM      8  C   UNL     1      -5.794 -12.949  -8.292  1.00  0.00    -0.034 C 
ATOM      9  C   UNL     1      -5.814 -11.810  -7.596  1.00  0.00     0.004 C 
ENDBRANCH   7   8
ENDBRANCH   1   7
TORSDOF 4
ENDMDL
MODEL 9
REMARK VINA RESULT:    -3.898      1.807      2.891
REMARK INTER + INTRA:          -5.187
REMARK INTER:                  -4.718
REMARK INTRA:                  -0.469
REMARK UNBOUND:                -0.377
REMARK SMILES C=CC[C@H](C)C(=O)CC
REMARK SMILES IDX 4 1 5 2 6 3 7 4 8 5 9 6 3 7 2 8 1 9
REMARK H PARENT
REMARK Flexibility Score: inf
ROOT
ATOM      1  C   UNL     1      -4.051 -12.532  -9.018  1.00  0.00     0.057 C 
ATOM      2  C   UNL     1      -3.305 -11.407  -8.286  1.00  0.00     0.016 C 
ENDROOT
BRANCH   1   3
ATOM      3  C   UNL     1      -5.476 -12.644  -8.516  1.00  0.00     0.135 C 
ATOM      4  O   UNL     1      -6.256 -13.379  -9.103  1.00  0.00    -0.299 OA
BRANCH   3   5
ATOM      5  C   UNL     1      -5.956 -11.896  -7.296  1.00  0.00     0.072 C 
ATOM      6  C   UNL     1      -5.994 -12.810  -6.076  1.00  0.00     0.012 C 
ENDBRANCH   3   5
ENDBRANCH   1   3
BRANCH   1   7
ATOM      7  C   UNL     1      -3.322 -13.886  -8.894  1.00  0.00     0.038 C 
BRANCH   7   8
ATOM      8  C   UNL     1      -2.708 -14.081  -7.532  1.00  0.00    -0.034 C 
ATOM      9  C   UNL     1      -2.757 -15.256  -6.900  1.00  0.00     0.004 C 
ENDBRANCH   7   8
ENDBRANCH   1   7
TORSDOF 4
ENDMDL
