MODEL 1
REMARK VINA RESULT:    -5.258      0.000      0.000
REMARK INTER + INTRA:          -6.351
REMARK INTER:                  -6.180
REMARK INTRA:                  -0.171
REMARK UNBOUND:                -0.171
REMARK SMILES CCCC[C@H]1OC(=O)C2=C1CCC=C2
REMARK SMILES IDX 3 1 2 2 1 3 4 4 5 5 10 6 6 7 9 8 11 9 7 10 14 11 12 12 8 13
REMARK SMILES IDX 13 14
REMARK H PARENT
REMARK Flexibility Score: inf
ROOT
ATOM      1  C   UNL     1      -8.071   5.645   3.685  1.00  0.00     0.004 C 
ENDROOT
BRANCH   1   2
ATOM      2  C   UNL     1      -6.722   6.238   4.116  1.00  0.00    -0.003 C 
ATOM      3  C   UNL     1      -6.556   6.186   5.631  1.00  0.00     0.004 C 
ENDBRANCH   1   2
BRANCH   1   4
ATOM      4  C   UNL     1      -8.054   5.119   2.241  1.00  0.00     0.050 C 
BRANCH   4   5
ATOM      5  C   UNL     1      -7.698   6.203   1.210  1.00  0.00     0.204 C 
ATOM      6  C   UNL     1      -8.501   6.042  -0.059  1.00  0.00    -0.015 C 
ATOM      7  O   UNL     1      -6.349   6.045   0.757  1.00  0.00    -0.454 OA
ATOM      8  C   UNL     1      -7.709   5.794  -1.088  1.00  0.00     0.062 C 
ATOM      9  C   UNL     1      -9.999   5.985  -0.188  1.00  0.00     0.040 C 
ATOM     10  C   UNL     1      -6.353   5.794  -0.605  1.00  0.00     0.338 C 
ATOM     11  C   UNL     1      -8.220   5.529  -2.438  1.00  0.00     0.011 C 
ATOM     12  C   UNL     1     -10.442   6.307  -1.635  1.00  0.00     0.032 C 
ATOM     13  O   UNL     1      -5.320   5.595  -1.295  1.00  0.00    -0.246 OA
ATOM     14  C   UNL     1      -9.527   5.700  -2.680  1.00  0.00    -0.026 C 
ENDBRANCH   4   5
ENDBRANCH   1   4
TORSDOF 3
ENDMDL
MODEL 2
REMARK VINA RESULT:    -5.171      1.891      2.839
REMARK INTER + INTRA:          -6.248
REMARK INTER:                  -5.955
REMARK INTRA:                  -0.294
REMARK UNBOUND:                -0.171
REMARK SMILES CCCC[C@H]1OC(=O)C2=C1CCC=C2
REMARK SMILES IDX 3 1 2 2 1 3 4 4 5 5 10 6 6 7 9 8 11 9 7 10 14 11 12 12 8 13
REMARK SMILES IDX 13 14
REMARK H PARENT
REMARK Flexibility Score: inf
ROOT
ATOM      1  C   UNL     1      -7.981   5.291   3.585  1.00  0.00     0.004 C 
ENDROOT
BRANCH   1   2
ATOM      2  C   UNL     1      -6.772   6.131   4.021  1.00  0.00    -0.003 C 
ATOM      3  C   UNL     1      -6.565   6.055   5.531  1.00  0.00     0.004 C 
ENDBRANCH   1   2
BRANCH   1   4
ATOM      4  C   UNL     1      -8.726   5.902   2.387  1.00  0.00     0.050 C 
BRANCH   4   5
ATOM      5  C   UNL     1      -8.694   5.006   1.138  1.00  0.00     0.204 C 
ATOM      6  C   UNL     1      -7.619   5.444   0.172  1.00  0.00    -0.015 C 
ATOM      7  O   UNL     1      -9.894   5.162   0.374  1.00  0.00    -0.454 OA
ATOM      8  C   UNL     1      -8.148   5.828  -0.977  1.00  0.00     0.062 C 
ATOM      9  C   UNL     1      -6.151   5.614   0.457  1.00  0.00     0.040 C 
ATOM     10  C   UNL     1      -9.574   5.658  -0.879  1.00  0.00     0.338 C 
ATOM     11  C   UNL     1      -7.345   6.365  -2.082  1.00  0.00     0.011 C 
ATOM     12  C   UNL     1      -5.327   5.589  -0.852  1.00  0.00     0.032 C 
ATOM     13  O   UNL     1     -10.416   5.917  -1.778  1.00  0.00    -0.246 OA
ATOM     14  C   UNL     1      -6.009   6.321  -1.991  1.00  0.00    -0.026 C 
ENDBRANCH   4   5
ENDBRANCH   1   4
TORSDOF 3
ENDMDL
MODEL 3
REMARK VINA RESULT:    -5.093      1.344      4.494
REMARK INTER + INTRA:          -6.157
REMARK INTER:                  -5.615
REMARK INTRA:                  -0.542
REMARK UNBOUND:                -0.171
REMARK SMILES CCCC[C@H]1OC(=O)C2=C1CCC=C2
REMARK SMILES IDX 3 1 2 2 1 3 4 4 5 5 10 6 6 7 9 8 11 9 7 10 14 11 12 12 8 13
REMARK SMILES IDX 13 14
REMARK H PARENT
REMARK Flexibility Score: inf
ROOT
ATOM      1  C   UNL     1     -10.057   6.409  -1.934  1.00  0.00     0.004 C 
ENDROOT
BRANCH   1   2
ATOM      2  C   UNL     1      -9.701   7.901  -2.006  1.00  0.00    -0.003 C 
ATOM      3  C   UNL     1      -9.547   8.497  -0.611  1.00  0.00     0.004 C 
ENDBRANCH   1   2
BRANCH   1   4
ATOM      4  C   UNL     1     -10.121   5.884  -0.490  1.00  0.00     0.050 C 
BRANCH   4   5
ATOM      5  C   UNL     1      -8.948   4.955  -0.135  1.00  0.00     0.204 C 
ATOM      6  C   UNL     1      -8.309   5.351   1.175  1.00  0.00    -0.015 C 
ATOM      7  O   UNL     1      -7.878   5.110  -1.073  1.00  0.00    -0.454 OA
ATOM      8  C   UNL     1      -7.050   5.713   0.994  1.00  0.00     0.062 C 
ATOM      9  C   UNL     1      -8.986   5.505   2.510  1.00  0.00     0.040 C 
ATOM     10  C   UNL     1      -6.753   5.568  -0.408  1.00  0.00     0.338 C 
ATOM     11  C   UNL     1      -6.201   6.208   2.082  1.00  0.00     0.011 C 
ATOM     12  C   UNL     1      -7.958   5.433   3.664  1.00  0.00     0.032 C 
ATOM     13  O   UNL     1      -5.651   5.817  -0.962  1.00  0.00    -0.246 OA
ATOM     14  C   UNL     1      -6.659   6.145   3.340  1.00  0.00    -0.026 C 
ENDBRANCH   4   5
ENDBRANCH   1   4
TORSDOF 3
ENDMDL
MODEL 4
REMARK VINA RESULT:    -4.865      1.775      2.751
REMARK INTER + INTRA:          -5.889
REMARK INTER:                  -5.743
REMARK INTRA:                  -0.146
REMARK UNBOUND:                -0.171
REMARK SMILES CCCC[C@H]1OC(=O)C2=C1CCC=C2
REMARK SMILES IDX 3 1 2 2 1 3 4 4 5 5 10 6 6 7 9 8 11 9 7 10 14 11 12 12 8 13
REMARK SMILES IDX 13 14
REMARK H PARENT
REMARK Flexibility Score: inf
ROOT
ATOM      1  C   UNL     1      -6.429   5.876   3.062  1.00  0.00     0.004 C 
ENDROOT
BRANCH   1   2
ATOM      2  C   UNL     1      -7.237   6.258   4.310  1.00  0.00    -0.003 C 
ATOM      3  C   UNL     1      -6.354   6.276   5.554  1.00  0.00     0.004 C 
ENDBRANCH   1   2
BRANCH   1   4
ATOM      4  C   UNL     1      -7.124   6.292   1.755  1.00  0.00     0.050 C 
BRANCH   4   5
ATOM      5  C   UNL     1      -8.015   5.185   1.168  1.00  0.00     0.204 C 
ATOM      6  C   UNL     1      -8.424   5.501  -0.251  1.00  0.00    -0.015 C 
ATOM      7  O   UNL     1      -9.267   5.126   1.858  1.00  0.00    -0.454 OA
ATOM      8  C   UNL     1      -9.736   5.634  -0.342  1.00  0.00     0.062 C 
ATOM      9  C   UNL     1      -7.520   5.807  -1.414  1.00  0.00     0.040 C 
ATOM     10  C   UNL     1     -10.290   5.401   0.966  1.00  0.00     0.338 C 
ATOM     11  C   UNL     1     -10.412   6.006  -1.590  1.00  0.00     0.011 C 
ATOM     12  C   UNL     1      -8.255   5.591  -2.758  1.00  0.00     0.032 C 
ATOM     13  O   UNL     1     -11.510   5.440   1.273  1.00  0.00    -0.246 OA
ATOM     14  C   UNL     1      -9.697   6.058  -2.722  1.00  0.00    -0.026 C 
ENDBRANCH   4   5
ENDBRANCH   1   4
TORSDOF 3
ENDMDL
MODEL 5
REMARK VINA RESULT:    -4.837      2.446      5.679
REMARK INTER + INTRA:          -5.857
REMARK INTER:                  -5.535
REMARK INTRA:                  -0.322
REMARK UNBOUND:                -0.171
REMARK SMILES CCCC[C@H]1OC(=O)C2=C1CCC=C2
REMARK SMILES IDX 3 1 2 2 1 3 4 4 5 5 10 6 6 7 9 8 11 9 7 10 14 11 12 12 8 13
REMARK SMILES IDX 13 14
REMARK H PARENT
REMARK Flexibility Score: inf
ROOT
ATOM      1  C   UNL     1      -9.844   4.482   1.232  1.00  0.00     0.004 C 
ENDROOT
BRANCH   1   2
ATOM      2  C   UNL     1      -8.739   3.838   0.381  1.00  0.00    -0.003 C 
ATOM      3  C   UNL     1      -8.918   2.326   0.301  1.00  0.00     0.004 C 
ENDBRANCH   1   2
BRANCH   1   4
ATOM      4  C   UNL     1      -9.307   5.570   2.176  1.00  0.00     0.050 C 
BRANCH   4   5
ATOM      5  C   UNL     1      -7.813   5.405   2.498  1.00  0.00     0.204 C 
ATOM      6  C   UNL     1      -7.558   5.474   3.985  1.00  0.00    -0.015 C 
ATOM      7  O   UNL     1      -7.062   6.513   1.993  1.00  0.00    -0.454 OA
ATOM      8  C   UNL     1      -6.789   6.506   4.283  1.00  0.00     0.062 C 
ATOM      9  C   UNL     1      -8.192   4.630   5.058  1.00  0.00     0.040 C 
ATOM     10  C   UNL     1      -6.460   7.174   3.050  1.00  0.00     0.338 C 
ATOM     11  C   UNL     1      -6.429   6.858   5.661  1.00  0.00     0.011 C 
ATOM     12  C   UNL     1      -7.342   4.649   6.351  1.00  0.00     0.032 C 
ATOM     13  O   UNL     1      -5.743   8.202   2.932  1.00  0.00    -0.246 OA
ATOM     14  C   UNL     1      -6.756   6.015   6.650  1.00  0.00    -0.026 C 
ENDBRANCH   4   5
ENDBRANCH   1   4
TORSDOF 3
ENDMDL
MODEL 6
REMARK VINA RESULT:    -4.779      2.680      5.443
REMARK INTER + INTRA:          -5.788
REMARK INTER:                  -5.157
REMARK INTRA:                  -0.631
REMARK UNBOUND:                -0.171
REMARK SMILES CCCC[C@H]1OC(=O)C2=C1CCC=C2
REMARK SMILES IDX 3 1 2 2 1 3 4 4 5 5 10 6 6 7 9 8 11 9 7 10 14 11 12 12 8 13
REMARK SMILES IDX 13 14
REMARK H PARENT
REMARK Flexibility Score: inf
ROOT
ATOM      1  C   UNL     1      -8.656   7.392  -3.838  1.00  0.00     0.004 C 
ENDROOT
BRANCH   1   2
ATOM      2  C   UNL     1      -9.051   5.947  -3.499  1.00  0.00    -0.003 C 
ATOM      3  C   UNL     1      -9.984   5.900  -2.294  1.00  0.00     0.004 C 
ENDBRANCH   1   2
BRANCH   1   4
ATOM      4  C   UNL     1      -7.134   7.582  -3.939  1.00  0.00     0.050 C 
BRANCH   4   5
ATOM      5  C   UNL     1      -6.522   8.216  -2.679  1.00  0.00     0.204 C 
ATOM      6  C   UNL     1      -6.454   7.225  -1.541  1.00  0.00    -0.015 C 
ATOM      7  O   UNL     1      -7.377   9.240  -2.162  1.00  0.00    -0.454 OA
ATOM      8  C   UNL     1      -7.200   7.624  -0.525  1.00  0.00     0.062 C 
ATOM      9  C   UNL     1      -5.794   5.873  -1.548  1.00  0.00     0.040 C 
ATOM     10  C   UNL     1      -7.788   8.888  -0.887  1.00  0.00     0.338 C 
ATOM     11  C   UNL     1      -7.375   6.827   0.694  1.00  0.00     0.011 C 
ATOM     12  C   UNL     1      -5.510   5.388  -0.106  1.00  0.00     0.032 C 
ATOM     13  O   UNL     1      -8.561   9.578  -0.173  1.00  0.00    -0.246 OA
ATOM     14  C   UNL     1      -6.629   5.726   0.860  1.00  0.00    -0.026 C 
ENDBRANCH   4   5
ENDBRANCH   1   4
TORSDOF 3
ENDMDL
MODEL 7
REMARK VINA RESULT:    -4.771      2.754      3.675
REMARK INTER + INTRA:          -5.778
REMARK INTER:                  -5.589
REMARK INTRA:                  -0.190
REMARK UNBOUND:                -0.171
REMARK SMILES CCCC[C@H]1OC(=O)C2=C1CCC=C2
REMARK SMILES IDX 3 1 2 2 1 3 4 4 5 5 10 6 6 7 9 8 11 9 7 10 14 11 12 12 8 13
REMARK SMILES IDX 13 14
REMARK H PARENT
REMARK Flexibility Score: inf
ROOT
ATOM      1  C   UNL     1      -9.084   3.455   1.044  1.00  0.00     0.004 C 
ENDROOT
BRANCH   1   2
ATOM      2  C   UNL     1      -9.477   1.973   0.961  1.00  0.00    -0.003 C 
ATOM      3  C   UNL     1      -8.631   1.237  -0.073  1.00  0.00     0.004 C 
ENDBRANCH   1   2
BRANCH   1   4
ATOM      4  C   UNL     1      -8.644   4.028  -0.313  1.00  0.00     0.050 C 
BRANCH   4   5
ATOM      5  C   UNL     1      -9.077   5.489  -0.519  1.00  0.00     0.204 C 
ATOM      6  C   UNL     1      -8.500   6.061  -1.792  1.00  0.00    -0.015 C 
ATOM      7  O   UNL     1      -8.516   6.330   0.493  1.00  0.00    -0.454 OA
ATOM      8  C   UNL     1      -7.692   7.074  -1.528  1.00  0.00     0.062 C 
ATOM      9  C   UNL     1      -8.638   5.507  -3.185  1.00  0.00     0.040 C 
ATOM     10  C   UNL     1      -7.687   7.266  -0.101  1.00  0.00     0.338 C 
ATOM     11  C   UNL     1      -6.940   7.782  -2.570  1.00  0.00     0.011 C 
ATOM     12  C   UNL     1      -8.347   6.597  -4.244  1.00  0.00     0.032 C 
ATOM     13  O   UNL     1      -7.034   8.140   0.527  1.00  0.00    -0.246 OA
ATOM     14  C   UNL     1      -7.196   7.504  -3.855  1.00  0.00    -0.026 C 
ENDBRANCH   4   5
ENDBRANCH   1   4
TORSDOF 3
ENDMDL
MODEL 8
REMARK VINA RESULT:    -4.718      2.353      3.369
REMARK INTER + INTRA:          -5.716
REMARK INTER:                  -5.153
REMARK INTRA:                  -0.563
REMARK UNBOUND:                -0.171
REMARK SMILES CCCC[C@H]1OC(=O)C2=C1CCC=C2
REMARK SMILES IDX 3 1 2 2 1 3 4 4 5 5 10 6 6 7 9 8 11 9 7 10 14 11 12 12 8 13
REMARK SMILES IDX 13 14
REMARK H PARENT
REMARK Flexibility Score: inf
ROOT
ATOM      1  C   UNL     1      -8.650   4.812   1.994  1.00  0.00     0.004 C 
ENDROOT
BRANCH   1   2
ATOM      2  C   UNL     1      -7.714   5.692   2.835  1.00  0.00    -0.003 C 
ATOM      3  C   UNL     1      -6.423   5.997   2.082  1.00  0.00     0.004 C 
ENDBRANCH   1   2
BRANCH   1   4
ATOM      4  C   UNL     1      -8.174   4.659   0.541  1.00  0.00     0.050 C 
BRANCH   4   5
ATOM      5  C   UNL     1      -8.936   5.563  -0.442  1.00  0.00     0.204 C 
ATOM      6  C   UNL     1      -8.006   6.525  -1.141  1.00  0.00    -0.015 C 
ATOM      7  O   UNL     1      -9.829   6.433   0.261  1.00  0.00    -0.454 OA
ATOM      8  C   UNL     1      -8.315   7.776  -0.845  1.00  0.00     0.062 C 
ATOM      9  C   UNL     1      -6.775   6.187  -1.938  1.00  0.00     0.040 C 
ATOM     10  C   UNL     1      -9.457   7.747   0.031  1.00  0.00     0.338 C 
ATOM     11  C   UNL     1      -7.539   8.922  -1.332  1.00  0.00     0.011 C 
ATOM     12  C   UNL     1      -6.388   7.352  -2.880  1.00  0.00     0.032 C 
ATOM     13  O   UNL     1     -10.039   8.748   0.524  1.00  0.00    -0.246 OA
ATOM     14  C   UNL     1      -6.576   8.713  -2.240  1.00  0.00    -0.026 C 
ENDBRANCH   4   5
ENDBRANCH   1   4
TORSDOF 3
ENDMDL
MODEL 9
REMARK VINA RESULT:    -4.621      2.634      4.875
REMARK INTER + INTRA:          -5.603
REMARK INTER:                  -5.014
REMARK INTRA:                  -0.588
REMARK UNBOUND:                -0.171
REMARK SMILES CCCC[C@H]1OC(=O)C2=C1CCC=C2
REMARK SMILES IDX 3 1 2 2 1 3 4 4 5 5 10 6 6 7 9 8 11 9 7 10 14 11 12 12 8 13
REMARK SMILES IDX 13 14
REMARK H PARENT
REMARK Flexibility Score: inf
ROOT
ATOM      1  C   UNL     1      -6.665   7.362  -3.079  1.00  0.00     0.004 C 
ENDROOT
BRANCH   1   2
ATOM      2  C   UNL     1      -7.969   7.246  -3.881  1.00  0.00    -0.003 C 
ATOM      3  C   UNL     1      -8.650   5.904  -3.632  1.00  0.00     0.004 C 
ENDBRANCH   1   2
BRANCH   1   4
ATOM      4  C   UNL     1      -6.488   6.219  -2.066  1.00  0.00     0.050 C 
BRANCH   4   5
ATOM      5  C   UNL     1      -6.770   6.649  -0.617  1.00  0.00     0.204 C 
ATOM      6  C   UNL     1      -7.990   5.952  -0.063  1.00  0.00    -0.015 C 
ATOM      7  O   UNL     1      -7.137   8.030  -0.563  1.00  0.00    -0.454 OA
ATOM      8  C   UNL     1      -8.935   6.827   0.236  1.00  0.00     0.062 C 
ATOM      9  C   UNL     1      -8.239   4.470   0.010  1.00  0.00     0.040 C 
ATOM     10  C   UNL     1      -8.425   8.139  -0.065  1.00  0.00     0.338 C 
ATOM     11  C   UNL     1     -10.256   6.429   0.734  1.00  0.00     0.011 C 
ATOM     12  C   UNL     1      -9.331   4.143   1.056  1.00  0.00     0.032 C 
ATOM     13  O   UNL     1      -9.039   9.227   0.089  1.00  0.00    -0.246 OA
ATOM     14  C   UNL     1     -10.468   5.145   1.052  1.00  0.00    -0.026 C 
ENDBRANCH   4   5
ENDBRANCH   1   4
TORSDOF 3
ENDMDL
