MODEL 1
REMARK VINA RESULT:    -5.562      0.000      0.000
REMARK INTER + INTRA:          -6.987
REMARK INTER:                  -6.537
REMARK INTRA:                  -0.450
REMARK UNBOUND:                -0.450
REMARK SMILES CC1(C)CC[C@]2(C(=O)[O-])CC[C@@]3(C)C(=CC[C@@H]4[C@@]5(C)CC[C@@H](O)[C@](C)(CO)[C@@H]5CC[C@@]43C)[C@@H]2C1
REMARK SMILES IDX 6 1 5 2 10 3 33 4 4 5 11 6 14 7 34 8 2 9 12 10 15 11 1 12
REMARK SMILES IDX 3 13 13 14 31 15 16 16 17 17 30 18 32 19 18 20 29 21 28 22
REMARK SMILES IDX 20 23 19 24 24 25 21 26 22 27 25 28 7 29 8 30 9 31 26 32
REMARK SMILES IDX 27 33 23 35
REMARK H PARENT 27 34 23 36
REMARK Flexibility Score: inf
ROOT
ATOM      1  C   UNL     1      -0.027 -59.461 -18.591  1.00  0.00     0.017 C 
ATOM      2  C   UNL     1      -0.854 -58.902 -17.382  1.00  0.00     0.014 C 
ATOM      3  C   UNL     1       0.050 -58.374 -19.694  1.00  0.00     0.014 C 
ATOM      4  C   UNL     1      -0.597 -60.791 -19.269  1.00  0.00     0.028 C 
ATOM      5  C   UNL     1      -2.360 -59.063 -17.485  1.00  0.00     0.007 C 
ATOM      6  C   UNL     1       1.028 -58.720 -20.843  1.00  0.00     0.013 C 
ATOM      7  C   UNL     1      -0.230 -60.881 -20.798  1.00  0.00    -0.064 C 
ATOM      8  C   UNL     1      -2.149 -60.947 -19.083  1.00  0.00     0.015 C 
ATOM      9  C   UNL     1      -2.744 -60.527 -17.731  1.00  0.00    -0.035 C 
ATOM     10  C   UNL     1       1.049 -60.220 -21.349  1.00  0.00    -0.006 C 
ATOM     11  C   UNL     1      -1.092 -61.456 -21.657  1.00  0.00    -0.027 C 
ATOM     12  C   UNL     1      -4.284 -60.619 -17.806  1.00  0.00     0.011 C 
ATOM     13  C   UNL     1      -2.263 -61.466 -16.598  1.00  0.00     0.011 C 
ATOM     14  C   UNL     1       2.277 -60.979 -20.746  1.00  0.00     0.017 C 
ATOM     15  C   UNL     1       1.202 -60.294 -22.971  1.00  0.00    -0.020 C 
ATOM     16  C   UNL     1      -1.194 -61.118 -23.104  1.00  0.00     0.032 C 
ATOM     17  C   UNL     1      -0.203 -60.040 -23.655  1.00  0.00     0.006 C 
ATOM     18  C   UNL     1       1.680 -61.714 -23.494  1.00  0.00     0.008 C 
ATOM     19  C   UNL     1       2.312 -59.241 -23.375  1.00  0.00     0.012 C 
ATOM     20  C   UNL     1      -0.206 -60.012 -25.279  1.00  0.00    -0.025 C 
ATOM     21  C   UNL     1       1.388 -62.021 -25.000  1.00  0.00     0.005 C 
ATOM     22  C   UNL     1       1.066 -60.754 -25.831  1.00  0.00     0.006 C 
ATOM     23  C   UNL     1      -0.190 -58.537 -25.821  1.00  0.00     0.010 C 
ATOM     24  C   UNL     1      -1.525 -60.649 -25.838  1.00  0.00     0.012 C 
ATOM     25  C   UNL     1       1.217 -60.848 -27.407  1.00  0.00     0.020 C 
ATOM     26  C   UNL     1       0.626 -58.327 -27.125  1.00  0.00     0.033 C 
ATOM     27  C   UNL     1       0.613 -59.547 -28.079  1.00  0.00     0.123 C 
ATOM     28  C   UNL     1       2.739 -60.942 -27.752  1.00  0.00     0.017 C 
ENDROOT
BRANCH   1  29
ATOM     29  C   UNL     1       1.344 -59.682 -17.970  1.00  0.00     0.048 C 
ATOM     30  O   UNL     1       1.640 -60.791 -17.449  1.00  0.00    -0.550 OA
ATOM     31  O   UNL     1       2.236 -58.622 -17.833  1.00  0.00    -0.550 OA
ENDBRANCH   1  29
BRANCH  25  32
ATOM     32  C   UNL     1       0.542 -62.125 -27.986  1.00  0.00     0.165 C 
BRANCH  32  33
ATOM     33  O   UNL     1      -0.110 -61.833 -29.194  1.00  0.00    -0.396 OA
ATOM     34  H   UNL     1      -0.919 -62.405 -29.220  1.00  0.00     0.210 HD
ENDBRANCH  32  33
ENDBRANCH  25  32
BRANCH  27  35
ATOM     35  O   UNL     1       1.310 -59.217 -29.256  1.00  0.00    -0.392 OA
ATOM     36  H   UNL     1       2.241 -58.989 -28.998  1.00  0.00     0.210 HD
ENDBRANCH  27  35
TORSDOF 4
ENDMDL
MODEL 2
REMARK VINA RESULT:    -5.180      1.850      2.936
REMARK INTER + INTRA:          -6.538
REMARK INTER:                  -6.086
REMARK INTRA:                  -0.452
REMARK UNBOUND:                -0.450
REMARK SMILES CC1(C)CC[C@]2(C(=O)[O-])CC[C@@]3(C)C(=CC[C@@H]4[C@@]5(C)CC[C@@H](O)[C@](C)(CO)[C@@H]5CC[C@@]43C)[C@@H]2C1
REMARK SMILES IDX 6 1 5 2 10 3 33 4 4 5 11 6 14 7 34 8 2 9 12 10 15 11 1 12
REMARK SMILES IDX 3 13 13 14 31 15 16 16 17 17 30 18 32 19 18 20 29 21 28 22
REMARK SMILES IDX 20 23 19 24 24 25 21 26 22 27 25 28 7 29 8 30 9 31 26 32
REMARK SMILES IDX 27 33 23 35
REMARK H PARENT 27 34 23 36
REMARK Flexibility Score: inf
ROOT
ATOM      1  C   UNL     1       2.674 -59.830 -20.667  1.00  0.00     0.017 C 
ATOM      2  C   UNL     1       2.136 -59.286 -19.298  1.00  0.00     0.014 C 
ATOM      3  C   UNL     1       2.618 -58.693 -21.718  1.00  0.00     0.014 C 
ATOM      4  C   UNL     1       1.889 -61.083 -21.275  1.00  0.00     0.028 C 
ATOM      5  C   UNL     1       0.631 -59.345 -19.113  1.00  0.00     0.007 C 
ATOM      6  C   UNL     1       3.330 -59.038 -23.048  1.00  0.00     0.013 C 
ATOM      7  C   UNL     1       1.949 -61.113 -22.848  1.00  0.00    -0.064 C 
ATOM      8  C   UNL     1       0.394 -61.149 -20.798  1.00  0.00     0.015 C 
ATOM      9  C   UNL     1       0.100 -60.765 -19.339  1.00  0.00    -0.035 C 
ATOM     10  C   UNL     1       3.144 -60.506 -23.610  1.00  0.00    -0.006 C 
ATOM     11  C   UNL     1       0.899 -61.584 -23.546  1.00  0.00    -0.027 C 
ATOM     12  C   UNL     1      -1.429 -60.754 -19.118  1.00  0.00     0.011 C 
ATOM     13  C   UNL     1       0.719 -61.794 -18.361  1.00  0.00     0.011 C 
ATOM     14  C   UNL     1       4.406 -61.374 -23.289  1.00  0.00     0.017 C 
ATOM     15  C   UNL     1       2.979 -60.502 -25.233  1.00  0.00    -0.020 C 
ATOM     16  C   UNL     1       0.547 -61.162 -24.931  1.00  0.00     0.032 C 
ATOM     17  C   UNL     1       1.492 -60.121 -25.619  1.00  0.00     0.006 C 
ATOM     18  C   UNL     1       3.242 -61.919 -25.896  1.00  0.00     0.008 C 
ATOM     19  C   UNL     1       4.066 -59.502 -25.801  1.00  0.00     0.012 C 
ATOM     20  C   UNL     1       1.181 -60.005 -27.209  1.00  0.00    -0.025 C 
ATOM     21  C   UNL     1       2.647 -62.125 -27.328  1.00  0.00     0.005 C 
ATOM     22  C   UNL     1       2.266 -60.797 -28.028  1.00  0.00     0.006 C 
ATOM     23  C   UNL     1       1.201 -58.507 -27.684  1.00  0.00     0.010 C 
ATOM     24  C   UNL     1      -0.264 -60.525 -27.527  1.00  0.00     0.012 C 
ATOM     25  C   UNL     1       2.106 -60.814 -29.606  1.00  0.00     0.020 C 
ATOM     26  C   UNL     1       1.766 -58.280 -29.111  1.00  0.00     0.033 C 
ATOM     27  C   UNL     1       1.481 -59.442 -30.094  1.00  0.00     0.123 C 
ATOM     28  C   UNL     1       3.523 -60.986 -30.243  1.00  0.00     0.017 C 
ENDROOT
BRANCH   1  29
ATOM     29  C   UNL     1       4.118 -60.172 -20.333  1.00  0.00     0.048 C 
ATOM     30  O   UNL     1       4.423 -61.319 -19.907  1.00  0.00    -0.550 OA
ATOM     31  O   UNL     1       5.099 -59.186 -20.351  1.00  0.00    -0.550 OA
ENDBRANCH   1  29
BRANCH  25  32
ATOM     32  C   UNL     1       1.241 -62.011 -30.094  1.00  0.00     0.165 C 
BRANCH  32  33
ATOM     33  O   UNL     1       0.349 -61.599 -31.097  1.00  0.00    -0.396 OA
ATOM     34  H   UNL     1       0.752 -60.795 -31.515  1.00  0.00     0.210 HD
ENDBRANCH  32  33
ENDBRANCH  25  32
BRANCH  27  35
ATOM     35  O   UNL     1       1.963 -59.094 -31.369  1.00  0.00    -0.392 OA
ATOM     36  H   UNL     1       1.730 -58.141 -31.526  1.00  0.00     0.210 HD
ENDBRANCH  27  35
TORSDOF 4
ENDMDL
MODEL 3
REMARK VINA RESULT:    -4.973      2.678      5.143
REMARK INTER + INTRA:          -6.295
REMARK INTER:                  -5.879
REMARK INTRA:                  -0.415
REMARK UNBOUND:                -0.450
REMARK SMILES CC1(C)CC[C@]2(C(=O)[O-])CC[C@@]3(C)C(=CC[C@@H]4[C@@]5(C)CC[C@@H](O)[C@](C)(CO)[C@@H]5CC[C@@]43C)[C@@H]2C1
REMARK SMILES IDX 6 1 5 2 10 3 33 4 4 5 11 6 14 7 34 8 2 9 12 10 15 11 1 12
REMARK SMILES IDX 3 13 13 14 31 15 16 16 17 17 30 18 32 19 18 20 29 21 28 22
REMARK SMILES IDX 20 23 19 24 24 25 21 26 22 27 25 28 7 29 8 30 9 31 26 32
REMARK SMILES IDX 27 33 23 35
REMARK H PARENT 27 34 23 36
REMARK Flexibility Score: inf
ROOT
ATOM      1  C   UNL     1       4.042 -60.007 -18.240  1.00  0.00     0.017 C 
ATOM      2  C   UNL     1       5.251 -60.408 -17.325  1.00  0.00     0.014 C 
ATOM      3  C   UNL     1       3.667 -61.214 -19.137  1.00  0.00     0.014 C 
ATOM      4  C   UNL     1       4.283 -58.753 -19.202  1.00  0.00     0.028 C 
ATOM      5  C   UNL     1       6.627 -60.233 -17.940  1.00  0.00     0.007 C 
ATOM      6  C   UNL     1       2.348 -61.020 -19.924  1.00  0.00     0.013 C 
ATOM      7  C   UNL     1       3.430 -58.846 -20.522  1.00  0.00    -0.064 C 
ATOM      8  C   UNL     1       5.799 -58.549 -19.561  1.00  0.00     0.015 C 
ATOM      9  C   UNL     1       6.828 -58.801 -18.448  1.00  0.00    -0.035 C 
ATOM     10  C   UNL     1       2.079 -59.589 -20.545  1.00  0.00    -0.006 C 
ATOM     11  C   UNL     1       3.928 -58.358 -21.673  1.00  0.00    -0.027 C 
ATOM     12  C   UNL     1       8.250 -58.690 -19.041  1.00  0.00     0.011 C 
ATOM     13  C   UNL     1       6.695 -57.746 -17.323  1.00  0.00     0.011 C 
ATOM     14  C   UNL     1       1.077 -58.788 -19.649  1.00  0.00     0.017 C 
ATOM     15  C   UNL     1       1.397 -59.705 -22.022  1.00  0.00    -0.020 C 
ATOM     16  C   UNL     1       3.567 -58.859 -23.029  1.00  0.00     0.032 C 
ATOM     17  C   UNL     1       2.511 -60.011 -23.104  1.00  0.00     0.006 C 
ATOM     18  C   UNL     1       0.697 -58.363 -22.498  1.00  0.00     0.008 C 
ATOM     19  C   UNL     1       0.275 -60.817 -21.923  1.00  0.00     0.012 C 
ATOM     20  C   UNL     1       1.981 -60.225 -24.625  1.00  0.00    -0.025 C 
ATOM     21  C   UNL     1       0.459 -58.225 -24.039  1.00  0.00     0.005 C 
ATOM     22  C   UNL     1       0.559 -59.574 -24.795  1.00  0.00     0.006 C 
ATOM     23  C   UNL     1       1.868 -61.753 -24.977  1.00  0.00     0.010 C 
ATOM     24  C   UNL     1       3.006 -59.633 -25.654  1.00  0.00     0.012 C 
ATOM     25  C   UNL     1      -0.107 -59.665 -26.232  1.00  0.00     0.020 C 
ATOM     26  C   UNL     1       0.682 -62.125 -25.906  1.00  0.00     0.033 C 
ATOM     27  C   UNL     1       0.313 -61.023 -26.930  1.00  0.00     0.123 C 
ATOM     28  C   UNL     1      -1.660 -59.638 -26.058  1.00  0.00     0.017 C 
ENDROOT
BRANCH   1  29
ATOM     29  C   UNL     1       2.942 -59.740 -17.224  1.00  0.00     0.048 C 
ATOM     30  O   UNL     1       2.753 -58.578 -16.775  1.00  0.00    -0.550 OA
ATOM     31  O   UNL     1       2.228 -60.795 -16.664  1.00  0.00    -0.550 OA
ENDBRANCH   1  29
BRANCH  25  32
ATOM     32  C   UNL     1       0.269 -58.451 -27.130  1.00  0.00     0.165 C 
BRANCH  32  33
ATOM     33  O   UNL     1       0.942 -58.882 -28.284  1.00  0.00    -0.396 OA
ATOM     34  H   UNL     1       0.241 -59.137 -28.937  1.00  0.00     0.210 HD
ENDBRANCH  32  33
ENDBRANCH  25  32
BRANCH  27  35
ATOM     35  O   UNL     1      -0.713 -61.499 -27.767  1.00  0.00    -0.392 OA
ATOM     36  H   UNL     1      -0.528 -62.458 -27.950  1.00  0.00     0.210 HD
ENDBRANCH  27  35
TORSDOF 4
ENDMDL
MODEL 4
REMARK VINA RESULT:    -4.551      3.912      6.382
REMARK INTER + INTRA:          -5.799
REMARK INTER:                  -5.495
REMARK INTRA:                  -0.303
REMARK UNBOUND:                -0.450
REMARK SMILES CC1(C)CC[C@]2(C(=O)[O-])CC[C@@]3(C)C(=CC[C@@H]4[C@@]5(C)CC[C@@H](O)[C@](C)(CO)[C@@H]5CC[C@@]43C)[C@@H]2C1
REMARK SMILES IDX 6 1 5 2 10 3 33 4 4 5 11 6 14 7 34 8 2 9 12 10 15 11 1 12
REMARK SMILES IDX 3 13 13 14 31 15 16 16 17 17 30 18 32 19 18 20 29 21 28 22
REMARK SMILES IDX 20 23 19 24 24 25 21 26 22 27 25 28 7 29 8 30 9 31 26 32
REMARK SMILES IDX 27 33 23 35
REMARK H PARENT 27 34 23 36
REMARK Flexibility Score: inf
ROOT
ATOM      1  C   UNL     1       6.154 -59.381 -17.613  1.00  0.00     0.017 C 
ATOM      2  C   UNL     1       7.562 -59.535 -16.938  1.00  0.00     0.014 C 
ATOM      3  C   UNL     1       5.867 -60.639 -18.472  1.00  0.00     0.014 C 
ATOM      4  C   UNL     1       5.970 -58.105 -18.558  1.00  0.00     0.028 C 
ATOM      5  C   UNL     1       8.745 -59.090 -17.779  1.00  0.00     0.007 C 
ATOM      6  C   UNL     1       4.417 -60.711 -19.008  1.00  0.00     0.013 C 
ATOM      7  C   UNL     1       4.929 -58.365 -19.710  1.00  0.00    -0.064 C 
ATOM      8  C   UNL     1       7.328 -57.604 -19.169  1.00  0.00     0.015 C 
ATOM      9  C   UNL     1       8.568 -57.647 -18.263  1.00  0.00    -0.035 C 
ATOM     10  C   UNL     1       3.767 -59.361 -19.522  1.00  0.00    -0.006 C 
ATOM     11  C   UNL     1       5.109 -57.788 -20.913  1.00  0.00    -0.027 C 
ATOM     12  C   UNL     1       9.812 -57.257 -19.092  1.00  0.00     0.011 C 
ATOM     13  C   UNL     1       8.436 -56.639 -17.095  1.00  0.00     0.011 C 
ATOM     14  C   UNL     1       2.805 -58.774 -18.436  1.00  0.00     0.017 C 
ATOM     15  C   UNL     1       2.868 -59.610 -20.859  1.00  0.00    -0.020 C 
ATOM     16  C   UNL     1       4.615 -58.351 -22.201  1.00  0.00     0.032 C 
ATOM     17  C   UNL     1       3.808 -59.689 -22.130  1.00  0.00     0.006 C 
ATOM     18  C   UNL     1       1.846 -58.433 -21.158  1.00  0.00     0.008 C 
ATOM     19  C   UNL     1       2.021 -60.922 -20.605  1.00  0.00     0.012 C 
ATOM     20  C   UNL     1       3.066 -60.005 -23.541  1.00  0.00    -0.025 C 
ATOM     21  C   UNL     1       1.314 -58.346 -22.627  1.00  0.00     0.005 C 
ATOM     22  C   UNL     1       1.538 -59.648 -23.436  1.00  0.00     0.006 C 
ATOM     23  C   UNL     1       3.193 -61.524 -23.922  1.00  0.00     0.010 C 
ATOM     24  C   UNL     1       3.755 -59.221 -24.712  1.00  0.00     0.012 C 
ATOM     25  C   UNL     1       0.657 -59.870 -24.736  1.00  0.00     0.020 C 
ATOM     26  C   UNL     1       1.956 -62.124 -24.640  1.00  0.00     0.033 C 
ATOM     27  C   UNL     1       1.202 -61.118 -25.544  1.00  0.00     0.123 C 
ATOM     28  C   UNL     1      -0.815 -60.151 -24.292  1.00  0.00     0.017 C 
ENDROOT
BRANCH   1  29
ATOM     29  C   UNL     1       5.223 -59.338 -16.411  1.00  0.00     0.048 C 
ATOM     30  O   UNL     1       4.784 -60.404 -15.902  1.00  0.00    -0.550 OA
ATOM     31  O   UNL     1       4.724 -58.124 -15.948  1.00  0.00    -0.550 OA
ENDBRANCH   1  29
BRANCH  25  32
ATOM     32  C   UNL     1       0.622 -58.605 -25.643  1.00  0.00     0.165 C 
BRANCH  32  33
ATOM     33  O   UNL     1       0.809 -58.959 -26.988  1.00  0.00    -0.396 OA
ATOM     34  H   UNL     1       1.790 -58.998 -27.133  1.00  0.00     0.210 HD
ENDBRANCH  32  33
ENDBRANCH  25  32
BRANCH  27  35
ATOM     35  O   UNL     1       0.156 -61.787 -26.205  1.00  0.00    -0.392 OA
ATOM     36  H   UNL     1      -0.192 -62.482 -25.586  1.00  0.00     0.210 HD
ENDBRANCH  27  35
TORSDOF 4
ENDMDL
MODEL 5
REMARK VINA RESULT:    -4.529      4.051      8.246
REMARK INTER + INTRA:          -5.773
REMARK INTER:                  -5.474
REMARK INTRA:                  -0.299
REMARK UNBOUND:                -0.450
REMARK SMILES CC1(C)CC[C@]2(C(=O)[O-])CC[C@@]3(C)C(=CC[C@@H]4[C@@]5(C)CC[C@@H](O)[C@](C)(CO)[C@@H]5CC[C@@]43C)[C@@H]2C1
REMARK SMILES IDX 6 1 5 2 10 3 33 4 4 5 11 6 14 7 34 8 2 9 12 10 15 11 1 12
REMARK SMILES IDX 3 13 13 14 31 15 16 16 17 17 30 18 32 19 18 20 29 21 28 22
REMARK SMILES IDX 20 23 19 24 24 25 21 26 22 27 25 28 7 29 8 30 9 31 26 32
REMARK SMILES IDX 27 33 23 35
REMARK H PARENT 27 34 23 36
REMARK Flexibility Score: inf
ROOT
ATOM      1  C   UNL     1       5.505 -57.578 -21.374  1.00  0.00     0.017 C 
ATOM      2  C   UNL     1       6.613 -56.468 -21.408  1.00  0.00     0.014 C 
ATOM      3  C   UNL     1       4.114 -56.898 -21.289  1.00  0.00     0.014 C 
ATOM      4  C   UNL     1       5.601 -58.622 -20.168  1.00  0.00     0.028 C 
ATOM      5  C   UNL     1       7.072 -55.958 -20.054  1.00  0.00     0.007 C 
ATOM      6  C   UNL     1       2.929 -57.877 -21.476  1.00  0.00     0.013 C 
ATOM      7  C   UNL     1       4.189 -59.185 -19.756  1.00  0.00    -0.064 C 
ATOM      8  C   UNL     1       6.325 -58.026 -18.908  1.00  0.00     0.015 C 
ATOM      9  C   UNL     1       7.534 -57.111 -19.155  1.00  0.00    -0.035 C 
ATOM     10  C   UNL     1       3.047 -59.297 -20.786  1.00  0.00    -0.006 C 
ATOM     11  C   UNL     1       3.940 -59.480 -18.467  1.00  0.00    -0.027 C 
ATOM     12  C   UNL     1       8.003 -56.519 -17.808  1.00  0.00     0.011 C 
ATOM     13  C   UNL     1       8.714 -57.905 -19.766  1.00  0.00     0.011 C 
ATOM     14  C   UNL     1       3.457 -60.380 -21.839  1.00  0.00     0.017 C 
ATOM     15  C   UNL     1       1.617 -59.770 -20.160  1.00  0.00    -0.020 C 
ATOM     16  C   UNL     1       2.590 -59.444 -17.839  1.00  0.00     0.032 C 
ATOM     17  C   UNL     1       1.385 -59.064 -18.762  1.00  0.00     0.006 C 
ATOM     18  C   UNL     1       1.543 -61.328 -19.868  1.00  0.00     0.008 C 
ATOM     19  C   UNL     1       0.510 -59.435 -21.240  1.00  0.00     0.012 C 
ATOM     20  C   UNL     1      -0.035 -59.379 -18.037  1.00  0.00    -0.025 C 
ATOM     21  C   UNL     1       0.445 -61.781 -18.849  1.00  0.00     0.005 C 
ATOM     22  C   UNL     1      -0.647 -60.709 -18.611  1.00  0.00     0.006 C 
ATOM     23  C   UNL     1      -1.065 -58.217 -18.278  1.00  0.00     0.010 C 
ATOM     24  C   UNL     1       0.148 -59.461 -16.482  1.00  0.00     0.012 C 
ATOM     25  C   UNL     1      -2.030 -61.188 -17.998  1.00  0.00     0.020 C 
ATOM     26  C   UNL     1      -2.540 -58.673 -18.438  1.00  0.00     0.033 C 
ATOM     27  C   UNL     1      -2.905 -59.928 -17.607  1.00  0.00     0.123 C 
ATOM     28  C   UNL     1      -2.788 -62.022 -19.081  1.00  0.00     0.017 C 
ENDROOT
BRANCH   1  29
ATOM     29  C   UNL     1       5.682 -58.252 -22.726  1.00  0.00     0.048 C 
ATOM     30  O   UNL     1       6.171 -59.411 -22.804  1.00  0.00    -0.550 OA
ATOM     31  O   UNL     1       5.448 -57.547 -23.903  1.00  0.00    -0.550 OA
ENDBRANCH   1  29
BRANCH  25  32
ATOM     32  C   UNL     1      -1.832 -62.118 -16.766  1.00  0.00     0.165 C 
BRANCH  32  33
ATOM     33  O   UNL     1      -2.924 -62.013 -15.890  1.00  0.00    -0.396 OA
ATOM     34  H   UNL     1      -3.739 -62.071 -16.451  1.00  0.00     0.210 HD
ENDBRANCH  32  33
ENDBRANCH  25  32
BRANCH  27  35
ATOM     35  O   UNL     1      -4.278 -60.199 -17.764  1.00  0.00    -0.392 OA
ATOM     36  H   UNL     1      -4.372 -60.830 -18.525  1.00  0.00     0.210 HD
ENDBRANCH  27  35
TORSDOF 4
ENDMDL
MODEL 6
REMARK VINA RESULT:    -4.469      2.589      8.238
REMARK INTER + INTRA:          -5.702
REMARK INTER:                  -5.398
REMARK INTRA:                  -0.304
REMARK UNBOUND:                -0.450
REMARK SMILES CC1(C)CC[C@]2(C(=O)[O-])CC[C@@]3(C)C(=CC[C@@H]4[C@@]5(C)CC[C@@H](O)[C@](C)(CO)[C@@H]5CC[C@@]43C)[C@@H]2C1
REMARK SMILES IDX 6 1 5 2 10 3 33 4 4 5 11 6 14 7 34 8 2 9 12 10 15 11 1 12
REMARK SMILES IDX 3 13 13 14 31 15 16 16 17 17 30 18 32 19 18 20 29 21 28 22
REMARK SMILES IDX 20 23 19 24 24 25 21 26 22 27 25 28 7 29 8 30 9 31 26 32
REMARK SMILES IDX 27 33 23 35
REMARK H PARENT 27 34 23 36
REMARK Flexibility Score: inf
ROOT
ATOM      1  C   UNL     1       0.557 -60.373 -25.893  1.00  0.00     0.017 C 
ATOM      2  C   UNL     1      -0.722 -60.449 -26.798  1.00  0.00     0.014 C 
ATOM      3  C   UNL     1       0.391 -61.353 -24.704  1.00  0.00     0.014 C 
ATOM      4  C   UNL     1       0.894 -58.934 -25.285  1.00  0.00     0.028 C 
ATOM      5  C   UNL     1      -1.879 -59.561 -26.377  1.00  0.00     0.007 C 
ATOM      6  C   UNL     1       1.678 -61.536 -23.863  1.00  0.00     0.013 C 
ATOM      7  C   UNL     1       1.646 -59.035 -23.905  1.00  0.00    -0.064 C 
ATOM      8  C   UNL     1      -0.380 -58.028 -25.132  1.00  0.00     0.015 C 
ATOM      9  C   UNL     1      -1.435 -58.100 -26.246  1.00  0.00    -0.035 C 
ATOM     10  C   UNL     1       2.546 -60.244 -23.577  1.00  0.00    -0.006 C 
ATOM     11  C   UNL     1       1.425 -58.106 -22.956  1.00  0.00    -0.027 C 
ATOM     12  C   UNL     1      -2.662 -57.255 -25.835  1.00  0.00     0.011 C 
ATOM     13  C   UNL     1      -0.880 -57.525 -27.572  1.00  0.00     0.011 C 
ATOM     14  C   UNL     1       3.780 -60.196 -24.538  1.00  0.00     0.017 C 
ATOM     15  C   UNL     1       3.137 -60.253 -22.057  1.00  0.00    -0.020 C 
ATOM     16  C   UNL     1       1.558 -58.347 -21.492  1.00  0.00     0.032 C 
ATOM     17  C   UNL     1       2.018 -59.775 -21.044  1.00  0.00     0.006 C 
ATOM     18  C   UNL     1       4.354 -59.256 -21.848  1.00  0.00     0.008 C 
ATOM     19  C   UNL     1       3.669 -61.717 -21.780  1.00  0.00     0.012 C 
ATOM     20  C   UNL     1       2.429 -59.795 -19.473  1.00  0.00    -0.025 C 
ATOM     21  C   UNL     1       4.653 -58.842 -20.369  1.00  0.00     0.005 C 
ATOM     22  C   UNL     1       3.995 -59.781 -19.327  1.00  0.00     0.006 C 
ATOM     23  C   UNL     1       1.879 -61.082 -18.758  1.00  0.00     0.010 C 
ATOM     24  C   UNL     1       1.775 -58.586 -18.717  1.00  0.00     0.012 C 
ATOM     25  C   UNL     1       4.580 -59.772 -17.853  1.00  0.00     0.020 C 
ATOM     26  C   UNL     1       2.804 -61.667 -17.659  1.00  0.00     0.033 C 
ATOM     27  C   UNL     1       3.628 -60.600 -16.896  1.00  0.00     0.123 C 
ATOM     28  C   UNL     1       5.991 -60.446 -17.879  1.00  0.00     0.017 C 
ENDROOT
BRANCH   1  29
ATOM     29  C   UNL     1       1.647 -60.863 -26.834  1.00  0.00     0.048 C 
ATOM     30  O   UNL     1       1.943 -62.087 -26.890  1.00  0.00    -0.550 OA
ATOM     31  O   UNL     1       2.435 -59.954 -27.535  1.00  0.00    -0.550 OA
ENDBRANCH   1  29
BRANCH  25  32
ATOM     32  C   UNL     1       4.778 -58.327 -17.310  1.00  0.00     0.165 C 
BRANCH  32  33
ATOM     33  O   UNL     1       4.133 -58.174 -16.072  1.00  0.00    -0.396 OA
ATOM     34  H   UNL     1       3.913 -57.211 -15.991  1.00  0.00     0.210 HD
ENDBRANCH  32  33
ENDBRANCH  25  32
BRANCH  27  35
ATOM     35  O   UNL     1       4.363 -61.231 -15.875  1.00  0.00    -0.392 OA
ATOM     36  H   UNL     1       4.919 -61.936 -16.300  1.00  0.00     0.210 HD
ENDBRANCH  27  35
TORSDOF 4
ENDMDL
MODEL 7
REMARK VINA RESULT:    -4.431      5.846      8.337
REMARK INTER + INTRA:          -5.658
REMARK INTER:                  -5.208
REMARK INTRA:                  -0.450
REMARK UNBOUND:                -0.450
REMARK SMILES CC1(C)CC[C@]2(C(=O)[O-])CC[C@@]3(C)C(=CC[C@@H]4[C@@]5(C)CC[C@@H](O)[C@](C)(CO)[C@@H]5CC[C@@]43C)[C@@H]2C1
REMARK SMILES IDX 6 1 5 2 10 3 33 4 4 5 11 6 14 7 34 8 2 9 12 10 15 11 1 12
REMARK SMILES IDX 3 13 13 14 31 15 16 16 17 17 30 18 32 19 18 20 29 21 28 22
REMARK SMILES IDX 20 23 19 24 24 25 21 26 22 27 25 28 7 29 8 30 9 31 26 32
REMARK SMILES IDX 27 33 23 35
REMARK H PARENT 27 34 23 36
REMARK Flexibility Score: inf
ROOT
ATOM      1  C   UNL     1       8.811 -57.189 -18.110  1.00  0.00     0.017 C 
ATOM      2  C   UNL     1      10.324 -56.803 -17.958  1.00  0.00     0.014 C 
ATOM      3  C   UNL     1       8.709 -58.527 -18.886  1.00  0.00     0.014 C 
ATOM      4  C   UNL     1       7.893 -56.124 -18.869  1.00  0.00     0.028 C 
ATOM      5  C   UNL     1      10.927 -56.040 -19.123  1.00  0.00     0.007 C 
ATOM      6  C   UNL     1       7.283 -59.129 -18.905  1.00  0.00     0.013 C 
ATOM      7  C   UNL     1       6.686 -56.807 -19.615  1.00  0.00    -0.064 C 
ATOM      8  C   UNL     1       8.706 -55.233 -19.875  1.00  0.00     0.015 C 
ATOM      9  C   UNL     1      10.111 -54.783 -19.444  1.00  0.00    -0.035 C 
ATOM     10  C   UNL     1       6.075 -58.125 -19.099  1.00  0.00    -0.006 C 
ATOM     11  C   UNL     1       6.243 -56.290 -20.777  1.00  0.00    -0.027 C 
ATOM     12  C   UNL     1      10.790 -54.050 -20.622  1.00  0.00     0.011 C 
ATOM     13  C   UNL     1      10.035 -53.802 -18.249  1.00  0.00     0.011 C 
ATOM     14  C   UNL     1       5.390 -57.827 -17.723  1.00  0.00     0.017 C 
ATOM     15  C   UNL     1       4.926 -58.761 -20.066  1.00  0.00    -0.020 C 
ATOM     16  C   UNL     1       5.576 -57.078 -21.851  1.00  0.00     0.032 C 
ATOM     17  C   UNL     1       5.354 -58.603 -21.582  1.00  0.00     0.006 C 
ATOM     18  C   UNL     1       3.523 -58.031 -19.941  1.00  0.00     0.008 C 
ATOM     19  C   UNL     1       4.723 -60.263 -19.610  1.00  0.00     0.012 C 
ATOM     20  C   UNL     1       4.343 -59.253 -22.675  1.00  0.00    -0.025 C 
ATOM     21  C   UNL     1       2.537 -58.236 -21.139  1.00  0.00     0.005 C 
ATOM     22  C   UNL     1       2.915 -59.436 -22.043  1.00  0.00     0.006 C 
ATOM     23  C   UNL     1       4.854 -60.661 -23.154  1.00  0.00     0.010 C 
ATOM     24  C   UNL     1       4.286 -58.367 -23.967  1.00  0.00     0.012 C 
ATOM     25  C   UNL     1       1.785 -60.038 -22.979  1.00  0.00     0.020 C 
ATOM     26  C   UNL     1       3.737 -61.698 -23.444  1.00  0.00     0.033 C 
ATOM     27  C   UNL     1       2.426 -61.078 -23.988  1.00  0.00     0.123 C 
ATOM     28  C   UNL     1       0.740 -60.775 -22.080  1.00  0.00     0.017 C 
ENDROOT
BRANCH   1  29
ATOM     29  C   UNL     1       8.381 -57.383 -16.664  1.00  0.00     0.048 C 
ATOM     30  O   UNL     1       7.849 -56.437 -16.022  1.00  0.00    -0.550 OA
ATOM     31  O   UNL     1       8.700 -58.553 -15.982  1.00  0.00    -0.550 OA
ENDBRANCH   1  29
BRANCH  25  32
ATOM     32  C   UNL     1       1.015 -58.930 -23.754  1.00  0.00     0.165 C 
BRANCH  32  33
ATOM     33  O   UNL     1       0.992 -59.215 -25.129  1.00  0.00    -0.396 OA
ATOM     34  H   UNL     1       0.347 -59.958 -25.249  1.00  0.00     0.210 HD
ENDBRANCH  32  33
ENDBRANCH  25  32
BRANCH  27  35
ATOM     35  O   UNL     1       1.520 -62.111 -24.291  1.00  0.00    -0.392 OA
ATOM     36  H   UNL     1       1.441 -62.156 -25.280  1.00  0.00     0.210 HD
ENDBRANCH  27  35
TORSDOF 4
ENDMDL
MODEL 8
REMARK VINA RESULT:    -4.367      2.256      8.560
REMARK INTER + INTRA:          -5.583
REMARK INTER:                  -5.417
REMARK INTRA:                  -0.166
REMARK UNBOUND:                -0.450
REMARK SMILES CC1(C)CC[C@]2(C(=O)[O-])CC[C@@]3(C)C(=CC[C@@H]4[C@@]5(C)CC[C@@H](O)[C@](C)(CO)[C@@H]5CC[C@@]43C)[C@@H]2C1
REMARK SMILES IDX 6 1 5 2 10 3 33 4 4 5 11 6 14 7 34 8 2 9 12 10 15 11 1 12
REMARK SMILES IDX 3 13 13 14 31 15 16 16 17 17 30 18 32 19 18 20 29 21 28 22
REMARK SMILES IDX 20 23 19 24 24 25 21 26 22 27 25 28 7 29 8 30 9 31 26 32
REMARK SMILES IDX 27 33 23 35
REMARK H PARENT 27 34 23 36
REMARK Flexibility Score: inf
ROOT
ATOM      1  C   UNL     1       4.095 -60.536 -26.191  1.00  0.00     0.017 C 
ATOM      2  C   UNL     1       4.287 -61.346 -27.520  1.00  0.00     0.014 C 
ATOM      3  C   UNL     1       4.356 -61.477 -24.987  1.00  0.00     0.014 C 
ATOM      4  C   UNL     1       2.655 -59.876 -25.979  1.00  0.00     0.028 C 
ATOM      5  C   UNL     1       3.070 -62.113 -28.003  1.00  0.00     0.007 C 
ATOM      6  C   UNL     1       4.419 -60.744 -23.625  1.00  0.00     0.013 C 
ATOM      7  C   UNL     1       2.280 -59.747 -24.455  1.00  0.00    -0.064 C 
ATOM      8  C   UNL     1       1.519 -60.645 -26.744  1.00  0.00     0.015 C 
ATOM      9  C   UNL     1       1.853 -61.192 -28.140  1.00  0.00    -0.035 C 
ATOM     10  C   UNL     1       3.372 -59.582 -23.379  1.00  0.00    -0.006 C 
ATOM     11  C   UNL     1       0.997 -59.883 -24.071  1.00  0.00    -0.027 C 
ATOM     12  C   UNL     1       0.662 -62.032 -28.652  1.00  0.00     0.011 C 
ATOM     13  C   UNL     1       2.090 -60.038 -29.145  1.00  0.00     0.011 C 
ATOM     14  C   UNL     1       4.049 -58.187 -23.595  1.00  0.00     0.017 C 
ATOM     15  C   UNL     1       2.817 -59.600 -21.845  1.00  0.00    -0.020 C 
ATOM     16  C   UNL     1       0.564 -60.364 -22.729  1.00  0.00     0.032 C 
ATOM     17  C   UNL     1       1.690 -60.702 -21.697  1.00  0.00     0.006 C 
ATOM     18  C   UNL     1       2.139 -58.235 -21.405  1.00  0.00     0.008 C 
ATOM     19  C   UNL     1       4.070 -59.833 -20.907  1.00  0.00     0.012 C 
ATOM     20  C   UNL     1       1.081 -60.895 -20.203  1.00  0.00    -0.025 C 
ATOM     21  C   UNL     1       1.173 -58.317 -20.176  1.00  0.00     0.005 C 
ATOM     22  C   UNL     1       1.355 -59.609 -19.341  1.00  0.00     0.006 C 
ATOM     23  C   UNL     1       1.738 -62.125 -19.477  1.00  0.00     0.010 C 
ATOM     24  C   UNL     1      -0.452 -61.220 -20.272  1.00  0.00     0.012 C 
ATOM     25  C   UNL     1       0.805 -59.609 -17.853  1.00  0.00     0.020 C 
ATOM     26  C   UNL     1       1.946 -61.948 -17.949  1.00  0.00     0.033 C 
ATOM     27  C   UNL     1       0.865 -61.077 -17.263  1.00  0.00     0.123 C 
ATOM     28  C   UNL     1       1.714 -58.674 -16.991  1.00  0.00     0.017 C 
ENDROOT
BRANCH   1  29
ATOM     29  C   UNL     1       5.193 -59.488 -26.290  1.00  0.00     0.048 C 
ATOM     30  O   UNL     1       5.120 -58.563 -27.144  1.00  0.00    -0.550 OA
ATOM     31  O   UNL     1       6.361 -59.616 -25.545  1.00  0.00    -0.550 OA
ENDBRANCH   1  29
BRANCH  25  32
ATOM     32  C   UNL     1      -0.641 -59.043 -17.764  1.00  0.00     0.165 C 
BRANCH  32  33
ATOM     33  O   UNL     1      -1.316 -59.587 -16.659  1.00  0.00    -0.396 OA
ATOM     34  H   UNL     1      -0.951 -60.500 -16.532  1.00  0.00     0.210 HD
ENDBRANCH  32  33
ENDBRANCH  25  32
BRANCH  27  35
ATOM     35  O   UNL     1       1.106 -61.054 -15.876  1.00  0.00    -0.392 OA
ATOM     36  H   UNL     1       1.217 -60.104 -15.609  1.00  0.00     0.210 HD
ENDBRANCH  27  35
TORSDOF 4
ENDMDL
