MODEL 1
REMARK VINA RESULT:    -3.293      0.000      0.000
REMARK INTER + INTRA:          -4.918
REMARK INTER:                  -4.448
REMARK INTRA:                  -0.470
REMARK UNBOUND:                -0.470
REMARK SMILES CCCCCCCC(=O)[O-]
REMARK SMILES IDX 5 1 6 2 7 3 8 4 9 5 10 6 4 7 3 8 2 9 1 10
REMARK H PARENT
REMARK Flexibility Score: inf
ROOT
ATOM      1  C   UNL     1      19.007  14.769  15.325  1.00  0.00     0.000 C 
ENDROOT
BRANCH   1   2
ATOM      2  C   UNL     1      19.034  13.509  16.208  1.00  0.00     0.006 C 
BRANCH   2   3
ATOM      3  C   UNL     1      19.965  13.669  17.416  1.00  0.00     0.053 C 
BRANCH   3   4
ATOM      4  C   UNL     1      20.907  12.511  17.552  1.00  0.00     0.041 C 
ATOM      5  O   UNL     1      20.504  11.419  18.030  1.00  0.00    -0.550 OA
ATOM      6  O   UNL     1      22.222  12.632  17.122  1.00  0.00    -0.550 OA
ENDBRANCH   3   4
ENDBRANCH   2   3
ENDBRANCH   1   2
BRANCH   1   7
ATOM      7  C   UNL     1      17.579  15.261  15.038  1.00  0.00     0.000 C 
BRANCH   7   8
ATOM      8  C   UNL     1      16.818  15.648  16.319  1.00  0.00    -0.000 C 
BRANCH   8   9
ATOM      9  C   UNL     1      17.465  16.834  17.051  1.00  0.00    -0.003 C 
ATOM     10  C   UNL     1      17.776  16.529  18.516  1.00  0.00     0.004 C 
ENDBRANCH   8   9
ENDBRANCH   7   8
ENDBRANCH   1   7
TORSDOF 6
ENDMDL
MODEL 2
REMARK VINA RESULT:    -3.189      3.216      4.450
REMARK INTER + INTRA:          -4.778
REMARK INTER:                  -4.266
REMARK INTRA:                  -0.512
REMARK UNBOUND:                -0.470
REMARK SMILES CCCCCCCC(=O)[O-]
REMARK SMILES IDX 5 1 6 2 7 3 8 4 9 5 10 6 4 7 3 8 2 9 1 10
REMARK H PARENT
REMARK Flexibility Score: inf
ROOT
ATOM      1  C   UNL     1      19.118  14.386  15.818  1.00  0.00     0.000 C 
ENDROOT
BRANCH   1   2
ATOM      2  C   UNL     1      17.632  14.627  15.496  1.00  0.00     0.006 C 
BRANCH   2   3
ATOM      3  C   UNL     1      16.984  15.622  16.466  1.00  0.00     0.053 C 
BRANCH   3   4
ATOM      4  C   UNL     1      17.536  17.005  16.297  1.00  0.00     0.041 C 
ATOM      5  O   UNL     1      17.824  17.701  17.306  1.00  0.00    -0.550 OA
ATOM      6  O   UNL     1      17.759  17.513  15.024  1.00  0.00    -0.550 OA
ENDBRANCH   3   4
ENDBRANCH   2   3
ENDBRANCH   1   2
BRANCH   1   7
ATOM      7  C   UNL     1      19.368  13.020  16.477  1.00  0.00     0.000 C 
BRANCH   7   8
ATOM      8  C   UNL     1      20.197  13.129  17.769  1.00  0.00    -0.000 C 
BRANCH   8   9
ATOM      9  C   UNL     1      20.374  14.583  18.233  1.00  0.00    -0.003 C 
ATOM     10  C   UNL     1      19.571  14.906  19.493  1.00  0.00     0.004 C 
ENDBRANCH   8   9
ENDBRANCH   7   8
ENDBRANCH   1   7
TORSDOF 6
ENDMDL
MODEL 3
REMARK VINA RESULT:    -3.180      3.056      4.478
REMARK INTER + INTRA:          -4.765
REMARK INTER:                  -4.314
REMARK INTRA:                  -0.451
REMARK UNBOUND:                -0.470
REMARK SMILES CCCCCCCC(=O)[O-]
REMARK SMILES IDX 5 1 6 2 7 3 8 4 9 5 10 6 4 7 3 8 2 9 1 10
REMARK H PARENT
REMARK Flexibility Score: inf
ROOT
ATOM      1  C   UNL     1      17.550  14.870  15.374  1.00  0.00     0.000 C 
ENDROOT
BRANCH   1   2
ATOM      2  C   UNL     1      16.878  15.839  16.363  1.00  0.00     0.006 C 
BRANCH   2   3
ATOM      3  C   UNL     1      17.777  17.034  16.703  1.00  0.00     0.053 C 
BRANCH   3   4
ATOM      4  C   UNL     1      17.775  17.333  18.171  1.00  0.00     0.041 C 
ATOM      5  O   UNL     1      17.480  16.434  19.001  1.00  0.00    -0.550 OA
ATOM      6  O   UNL     1      18.128  18.599  18.622  1.00  0.00    -0.550 OA
ENDBRANCH   3   4
ENDBRANCH   2   3
ENDBRANCH   1   2
BRANCH   1   7
ATOM      7  C   UNL     1      19.015  14.576  15.734  1.00  0.00     0.000 C 
BRANCH   7   8
ATOM      8  C   UNL     1      19.212  13.156  16.295  1.00  0.00    -0.000 C 
BRANCH   8   9
ATOM      9  C   UNL     1      20.312  13.094  17.366  1.00  0.00    -0.003 C 
ATOM     10  C   UNL     1      20.101  14.104  18.494  1.00  0.00     0.004 C 
ENDBRANCH   8   9
ENDBRANCH   7   8
ENDBRANCH   1   7
TORSDOF 6
ENDMDL
MODEL 4
REMARK VINA RESULT:    -3.138      2.040      3.652
REMARK INTER + INTRA:          -4.709
REMARK INTER:                  -4.089
REMARK INTRA:                  -0.620
REMARK UNBOUND:                -0.470
REMARK SMILES CCCCCCCC(=O)[O-]
REMARK SMILES IDX 5 1 6 2 7 3 8 4 9 5 10 6 4 7 3 8 2 9 1 10
REMARK H PARENT
REMARK Flexibility Score: inf
ROOT
ATOM      1  C   UNL     1      16.856  15.667  16.396  1.00  0.00     0.000 C 
ENDROOT
BRANCH   1   2
ATOM      2  C   UNL     1      17.560  16.797  17.169  1.00  0.00     0.006 C 
BRANCH   2   3
ATOM      3  C   UNL     1      17.679  16.486  18.667  1.00  0.00     0.053 C 
BRANCH   3   4
ATOM      4  C   UNL     1      19.035  15.953  19.019  1.00  0.00     0.041 C 
ATOM      5  O   UNL     1      19.156  15.055  19.893  1.00  0.00    -0.550 OA
ATOM      6  O   UNL     1      20.161  16.430  18.360  1.00  0.00    -0.550 OA
ENDBRANCH   3   4
ENDBRANCH   2   3
ENDBRANCH   1   2
BRANCH   1   7
ATOM      7  C   UNL     1      17.628  15.240  15.138  1.00  0.00     0.000 C 
BRANCH   7   8
ATOM      8  C   UNL     1      19.030  14.692  15.462  1.00  0.00    -0.000 C 
BRANCH   8   9
ATOM      9  C   UNL     1      18.979  13.364  16.232  1.00  0.00    -0.003 C 
ATOM     10  C   UNL     1      20.266  13.076  17.005  1.00  0.00     0.004 C 
ENDBRANCH   8   9
ENDBRANCH   7   8
ENDBRANCH   1   7
TORSDOF 6
ENDMDL
MODEL 5
REMARK VINA RESULT:    -3.076      2.087      2.598
REMARK INTER + INTRA:          -4.626
REMARK INTER:                  -4.105
REMARK INTRA:                  -0.521
REMARK UNBOUND:                -0.470
REMARK SMILES CCCCCCCC(=O)[O-]
REMARK SMILES IDX 5 1 6 2 7 3 8 4 9 5 10 6 4 7 3 8 2 9 1 10
REMARK H PARENT
REMARK Flexibility Score: inf
ROOT
ATOM      1  C   UNL     1      19.243  13.085  16.255  1.00  0.00     0.000 C 
ENDROOT
BRANCH   1   2
ATOM      2  C   UNL     1      20.008  13.053  17.590  1.00  0.00     0.006 C 
BRANCH   2   3
ATOM      3  C   UNL     1      20.321  14.462  18.111  1.00  0.00     0.053 C 
BRANCH   3   4
ATOM      4  C   UNL     1      19.889  14.638  19.535  1.00  0.00     0.041 C 
ATOM      5  O   UNL     1      20.497  14.040  20.461  1.00  0.00    -0.550 OA
ATOM      6  O   UNL     1      18.831  15.485  19.841  1.00  0.00    -0.550 OA
ENDBRANCH   3   4
ENDBRANCH   2   3
ENDBRANCH   1   2
BRANCH   1   7
ATOM      7  C   UNL     1      19.081  14.508  15.698  1.00  0.00     0.000 C 
BRANCH   7   8
ATOM      8  C   UNL     1      17.608  14.881  15.449  1.00  0.00    -0.000 C 
BRANCH   8   9
ATOM      9  C   UNL     1      17.016  15.732  16.582  1.00  0.00    -0.003 C 
ATOM     10  C   UNL     1      17.754  17.057  16.778  1.00  0.00     0.004 C 
ENDBRANCH   8   9
ENDBRANCH   7   8
ENDBRANCH   1   7
TORSDOF 6
ENDMDL
MODEL 6
REMARK VINA RESULT:    -3.063     15.471     16.480
REMARK INTER + INTRA:          -4.608
REMARK INTER:                  -4.280
REMARK INTRA:                  -0.328
REMARK UNBOUND:                -0.470
REMARK SMILES CCCCCCCC(=O)[O-]
REMARK SMILES IDX 5 1 6 2 7 3 8 4 9 5 10 6 4 7 3 8 2 9 1 10
REMARK H PARENT
REMARK Flexibility Score: inf
ROOT
ATOM      1  C   UNL     1      29.510   9.336  26.700  1.00  0.00     0.000 C 
ENDROOT
BRANCH   1   2
ATOM      2  C   UNL     1      29.709   9.610  28.202  1.00  0.00     0.006 C 
BRANCH   2   3
ATOM      3  C   UNL     1      29.872  11.106  28.501  1.00  0.00     0.053 C 
BRANCH   3   4
ATOM      4  C   UNL     1      30.473  11.341  29.853  1.00  0.00     0.041 C 
ATOM      5  O   UNL     1      30.975  10.385  30.499  1.00  0.00    -0.550 OA
ATOM      6  O   UNL     1      30.504  12.623  30.386  1.00  0.00    -0.550 OA
ENDBRANCH   3   4
ENDBRANCH   2   3
ENDBRANCH   1   2
BRANCH   1   7
ATOM      7  C   UNL     1      30.806   8.896  26.002  1.00  0.00     0.000 C 
BRANCH   7   8
ATOM      8  C   UNL     1      31.189   9.819  24.830  1.00  0.00    -0.000 C 
BRANCH   8   9
ATOM      9  C   UNL     1      31.698  11.189  25.302  1.00  0.00    -0.003 C 
ATOM     10  C   UNL     1      31.534  12.281  24.245  1.00  0.00     0.004 C 
ENDBRANCH   8   9
ENDBRANCH   7   8
ENDBRANCH   1   7
TORSDOF 6
ENDMDL
MODEL 7
REMARK VINA RESULT:    -3.054      1.852      3.075
REMARK INTER + INTRA:          -4.596
REMARK INTER:                  -4.128
REMARK INTRA:                  -0.468
REMARK UNBOUND:                -0.470
REMARK SMILES CCCCCCCC(=O)[O-]
REMARK SMILES IDX 5 1 6 2 7 3 8 4 9 5 10 6 4 7 3 8 2 9 1 10
REMARK H PARENT
REMARK Flexibility Score: inf
ROOT
ATOM      1  C   UNL     1      17.373  17.118  16.386  1.00  0.00     0.000 C 
ENDROOT
BRANCH   1   2
ATOM      2  C   UNL     1      16.923  15.649  16.303  1.00  0.00     0.006 C 
BRANCH   2   3
ATOM      3  C   UNL     1      17.748  14.847  15.289  1.00  0.00     0.053 C 
BRANCH   3   4
ATOM      4  C   UNL     1      18.967  14.242  15.917  1.00  0.00     0.041 C 
ATOM      5  O   UNL     1      18.949  13.049  16.317  1.00  0.00    -0.550 OA
ATOM      6  O   UNL     1      20.132  14.990  16.034  1.00  0.00    -0.550 OA
ENDBRANCH   3   4
ENDBRANCH   2   3
ENDBRANCH   1   2
BRANCH   1   7
ATOM      7  C   UNL     1      17.927  17.491  17.770  1.00  0.00     0.000 C 
BRANCH   7   8
ATOM      8  C   UNL     1      17.696  16.386  18.817  1.00  0.00    -0.000 C 
BRANCH   8   9
ATOM      9  C   UNL     1      19.011  15.796  19.349  1.00  0.00    -0.003 C 
ATOM     10  C   UNL     1      18.897  15.293  20.788  1.00  0.00     0.004 C 
ENDBRANCH   8   9
ENDBRANCH   7   8
ENDBRANCH   1   7
TORSDOF 6
ENDMDL
MODEL 8
REMARK VINA RESULT:    -3.045      2.763      3.736
REMARK INTER + INTRA:          -4.583
REMARK INTER:                  -4.124
REMARK INTRA:                  -0.460
REMARK UNBOUND:                -0.470
REMARK SMILES CCCCCCCC(=O)[O-]
REMARK SMILES IDX 5 1 6 2 7 3 8 4 9 5 10 6 4 7 3 8 2 9 1 10
REMARK H PARENT
REMARK Flexibility Score: inf
ROOT
ATOM      1  C   UNL     1      20.010  13.297  17.374  1.00  0.00     0.000 C 
ENDROOT
BRANCH   1   2
ATOM      2  C   UNL     1      20.222  14.677  18.023  1.00  0.00     0.006 C 
BRANCH   2   3
ATOM      3  C   UNL     1      19.796  14.694  19.497  1.00  0.00     0.053 C 
BRANCH   3   4
ATOM      4  C   UNL     1      18.863  15.828  19.794  1.00  0.00     0.041 C 
ATOM      5  O   UNL     1      18.870  16.860  19.073  1.00  0.00    -0.550 OA
ATOM      6  O   UNL     1      17.967  15.731  20.851  1.00  0.00    -0.550 OA
ENDBRANCH   3   4
ENDBRANCH   2   3
ENDBRANCH   1   2
BRANCH   1   7
ATOM      7  C   UNL     1      19.002  13.335  16.215  1.00  0.00     0.000 C 
BRANCH   7   8
ATOM      8  C   UNL     1      18.975  14.698  15.499  1.00  0.00    -0.000 C 
BRANCH   8   9
ATOM      9  C   UNL     1      17.547  15.176  15.197  1.00  0.00    -0.003 C 
ATOM     10  C   UNL     1      16.805  15.657  16.444  1.00  0.00     0.004 C 
ENDBRANCH   8   9
ENDBRANCH   7   8
ENDBRANCH   1   7
TORSDOF 6
ENDMDL
MODEL 9
REMARK VINA RESULT:    -2.947      3.241      4.557
REMARK INTER + INTRA:          -4.451
REMARK INTER:                  -4.047
REMARK INTRA:                  -0.404
REMARK UNBOUND:                -0.470
REMARK SMILES CCCCCCCC(=O)[O-]
REMARK SMILES IDX 5 1 6 2 7 3 8 4 9 5 10 6 4 7 3 8 2 9 1 10
REMARK H PARENT
REMARK Flexibility Score: inf
ROOT
ATOM      1  C   UNL     1      19.379  13.818  16.037  1.00  0.00     0.000 C 
ENDROOT
BRANCH   1   2
ATOM      2  C   UNL     1      17.880  14.138  15.897  1.00  0.00     0.006 C 
BRANCH   2   3
ATOM      3  C   UNL     1      17.591  15.636  16.053  1.00  0.00     0.053 C 
BRANCH   3   4
ATOM      4  C   UNL     1      17.816  16.383  14.774  1.00  0.00     0.041 C 
ATOM      5  O   UNL     1      18.126  17.602  14.797  1.00  0.00    -0.550 OA
ATOM      6  O   UNL     1      17.712  15.722  13.556  1.00  0.00    -0.550 OA
ENDBRANCH   3   4
ENDBRANCH   2   3
ENDBRANCH   1   2
BRANCH   1   7
ATOM      7  C   UNL     1      19.645  12.616  16.956  1.00  0.00     0.000 C 
BRANCH   7   8
ATOM      8  C   UNL     1      20.484  12.991  18.192  1.00  0.00    -0.000 C 
BRANCH   8   9
ATOM      9  C   UNL     1      20.437  14.495  18.500  1.00  0.00    -0.003 C 
ATOM     10  C   UNL     1      19.716  14.811  19.810  1.00  0.00     0.004 C 
ENDBRANCH   8   9
ENDBRANCH   7   8
ENDBRANCH   1   7
TORSDOF 6
ENDMDL
