MODEL 1
REMARK VINA RESULT:    -5.515      0.000      0.000
REMARK INTER + INTRA:          -5.838
REMARK INTER:                  -5.838
REMARK INTRA:                   0.000
REMARK UNBOUND:                 0.000
REMARK SMILES O=c1ccc2cc(O)c(O)cc2o1
REMARK SMILES IDX 4 1 3 2 2 3 1 4 13 5 12 6 11 7 9 8 7 9 6 10 5 11 8 12 10 14
REMARK H PARENT 8 13 10 15
REMARK Flexibility Score: inf
ROOT
ATOM      1  C   UNL     1      70.261  49.725   6.215  1.00  0.00     0.019 A 
ATOM      2  C   UNL     1      70.054  49.537   4.849  1.00  0.00     0.094 A 
ATOM      3  C   UNL     1      70.988  48.795   4.117  1.00  0.00     0.336 A 
ATOM      4  O   UNL     1      70.818  48.614   2.883  1.00  0.00    -0.246 OA
ATOM      5  O   UNL     1      72.056  48.277   4.718  1.00  0.00    -0.423 OA
ATOM      6  C   UNL     1      72.292  48.432   6.019  1.00  0.00     0.142 A 
ATOM      7  C   UNL     1      73.431  47.865   6.595  1.00  0.00     0.098 A 
ATOM      8  C   UNL     1      73.687  48.023   7.963  1.00  0.00     0.161 A 
ATOM      9  C   UNL     1      72.792  48.758   8.764  1.00  0.00     0.158 A 
ATOM     10  C   UNL     1      71.646  49.329   8.189  1.00  0.00     0.062 A 
ATOM     11  C   UNL     1      71.393  49.169   6.821  1.00  0.00     0.022 A 
ENDROOT
BRANCH   9  12
ATOM     12  O   UNL     1      73.045  48.916  10.125  1.00  0.00    -0.504 OA
ATOM     13  H   UNL     1      72.438  49.472  10.716  1.00  0.00     0.293 HD
ENDBRANCH   9  12
BRANCH   8  14
ATOM     14  O   UNL     1      74.833  47.445   8.508  1.00  0.00    -0.504 OA
ATOM     15  H   UNL     1      75.609  47.143   7.933  1.00  0.00     0.293 HD
ENDBRANCH   8  14
TORSDOF 2
ENDMDL
MODEL 2
REMARK VINA RESULT:    -5.409      1.164      2.427
REMARK INTER + INTRA:          -5.725
REMARK INTER:                  -5.725
REMARK INTRA:                   0.000
REMARK UNBOUND:                 0.000
REMARK SMILES O=c1ccc2cc(O)c(O)cc2o1
REMARK SMILES IDX 4 1 3 2 2 3 1 4 13 5 12 6 11 7 9 8 7 9 6 10 5 11 8 12 10 14
REMARK H PARENT 8 13 10 15
REMARK Flexibility Score: inf
ROOT
ATOM      1  C   UNL     1      73.388  48.083   5.321  1.00  0.00     0.019 A 
ATOM      2  C   UNL     1      72.722  48.102   4.096  1.00  0.00     0.094 A 
ATOM      3  C   UNL     1      71.381  48.500   4.059  1.00  0.00     0.336 A 
ATOM      4  O   UNL     1      70.763  48.524   2.963  1.00  0.00    -0.246 OA
ATOM      5  O   UNL     1      70.753  48.856   5.177  1.00  0.00    -0.423 OA
ATOM      6  C   UNL     1      71.352  48.853   6.366  1.00  0.00     0.142 A 
ATOM      7  C   UNL     1      70.642  49.236   7.507  1.00  0.00     0.098 A 
ATOM      8  C   UNL     1      71.263  49.236   8.762  1.00  0.00     0.161 A 
ATOM      9  C   UNL     1      72.611  48.847   8.877  1.00  0.00     0.158 A 
ATOM     10  C   UNL     1      73.328  48.461   7.734  1.00  0.00     0.062 A 
ATOM     11  C   UNL     1      72.704  48.463   6.480  1.00  0.00     0.022 A 
ENDROOT
BRANCH   9  12
ATOM     12  O   UNL     1      73.231  48.846  10.125  1.00  0.00    -0.504 OA
ATOM     13  H   UNL     1      72.707  49.000  10.979  1.00  0.00     0.293 HD
ENDBRANCH   9  12
BRANCH   8  14
ATOM     14  O   UNL     1      70.528  49.624   9.881  1.00  0.00    -0.504 OA
ATOM     15  H   UNL     1      69.530  49.788   9.839  1.00  0.00     0.293 HD
ENDBRANCH   8  14
TORSDOF 2
ENDMDL
MODEL 3
REMARK VINA RESULT:    -5.402      1.944      2.354
REMARK INTER + INTRA:          -5.718
REMARK INTER:                  -5.718
REMARK INTRA:                   0.000
REMARK UNBOUND:                 0.000
REMARK SMILES O=c1ccc2cc(O)c(O)cc2o1
REMARK SMILES IDX 4 1 3 2 2 3 1 4 13 5 12 6 11 7 9 8 7 9 6 10 5 11 8 12 10 14
REMARK H PARENT 8 13 10 15
REMARK Flexibility Score: inf
ROOT
ATOM      1  C   UNL     1      70.014  49.876   4.971  1.00  0.00     0.019 A 
ATOM      2  C   UNL     1      69.898  50.354   3.667  1.00  0.00     0.094 A 
ATOM      3  C   UNL     1      70.629  49.731   2.649  1.00  0.00     0.336 A 
ATOM      4  O   UNL     1      70.538  50.147   1.465  1.00  0.00    -0.246 OA
ATOM      5  O   UNL     1      71.422  48.698   2.924  1.00  0.00    -0.423 OA
ATOM      6  C   UNL     1      71.560  48.210   4.155  1.00  0.00     0.142 A 
ATOM      7  C   UNL     1      72.408  47.123   4.385  1.00  0.00     0.098 A 
ATOM      8  C   UNL     1      72.559  46.604   5.677  1.00  0.00     0.161 A 
ATOM      9  C   UNL     1      71.856  47.179   6.751  1.00  0.00     0.158 A 
ATOM     10  C   UNL     1      71.004  48.271   6.525  1.00  0.00     0.062 A 
ATOM     11  C   UNL     1      70.854  48.788   5.232  1.00  0.00     0.022 A 
ENDROOT
BRANCH   9  12
ATOM     12  O   UNL     1      72.006  46.664   8.037  1.00  0.00    -0.504 OA
ATOM     13  H   UNL     1      72.898  46.313   8.368  1.00  0.00     0.293 HD
ENDBRANCH   9  12
BRANCH   8  14
ATOM     14  O   UNL     1      73.412  45.518   5.873  1.00  0.00    -0.504 OA
ATOM     15  H   UNL     1      73.063  44.586   6.060  1.00  0.00     0.293 HD
ENDBRANCH   8  14
TORSDOF 2
ENDMDL
MODEL 4
REMARK VINA RESULT:    -5.121      1.938      5.081
REMARK INTER + INTRA:          -5.421
REMARK INTER:                  -5.421
REMARK INTRA:                   0.000
REMARK UNBOUND:                 0.000
REMARK SMILES O=c1ccc2cc(O)c(O)cc2o1
REMARK SMILES IDX 4 1 3 2 2 3 1 4 13 5 12 6 11 7 9 8 7 9 6 10 5 11 8 12 10 14
REMARK H PARENT 8 13 10 15
REMARK Flexibility Score: inf
ROOT
ATOM      1  C   UNL     1      74.054  46.631   7.250  1.00  0.00     0.019 A 
ATOM      2  C   UNL     1      73.973  47.593   8.256  1.00  0.00     0.094 A 
ATOM      3  C   UNL     1      73.147  48.707   8.064  1.00  0.00     0.336 A 
ATOM      4  O   UNL     1      73.061  49.585   8.961  1.00  0.00    -0.246 OA
ATOM      5  O   UNL     1      72.450  48.843   6.939  1.00  0.00    -0.423 OA
ATOM      6  C   UNL     1      72.498  47.948   5.954  1.00  0.00     0.142 A 
ATOM      7  C   UNL     1      71.745  48.144   4.794  1.00  0.00     0.098 A 
ATOM      8  C   UNL     1      71.789  47.208   3.754  1.00  0.00     0.161 A 
ATOM      9  C   UNL     1      72.598  46.063   3.874  1.00  0.00     0.158 A 
ATOM     10  C   UNL     1      73.357  45.862   5.037  1.00  0.00     0.062 A 
ATOM     11  C   UNL     1      73.310  46.799   6.077  1.00  0.00     0.022 A 
ENDROOT
BRANCH   9  12
ATOM     12  O   UNL     1      72.644  45.130   2.840  1.00  0.00    -0.504 OA
ATOM     13  H   UNL     1      73.498  44.638   2.606  1.00  0.00     0.293 HD
ENDBRANCH   9  12
BRANCH   8  14
ATOM     14  O   UNL     1      71.025  47.432   2.609  1.00  0.00    -0.504 OA
ATOM     15  H   UNL     1      70.981  46.762   1.851  1.00  0.00     0.293 HD
ENDBRANCH   8  14
TORSDOF 2
ENDMDL
MODEL 5
REMARK VINA RESULT:    -5.110      1.974      4.992
REMARK INTER + INTRA:          -5.409
REMARK INTER:                  -5.409
REMARK INTRA:                   0.000
REMARK UNBOUND:                 0.000
REMARK SMILES O=c1ccc2cc(O)c(O)cc2o1
REMARK SMILES IDX 4 1 3 2 2 3 1 4 13 5 12 6 11 7 9 8 7 9 6 10 5 11 8 12 10 14
REMARK H PARENT 8 13 10 15
REMARK Flexibility Score: inf
ROOT
ATOM      1  C   UNL     1      72.667  48.562   7.054  1.00  0.00     0.019 A 
ATOM      2  C   UNL     1      73.453  48.208   8.151  1.00  0.00     0.094 A 
ATOM      3  C   UNL     1      74.171  47.007   8.111  1.00  0.00     0.336 A 
ATOM      4  O   UNL     1      74.886  46.670   9.091  1.00  0.00    -0.246 OA
ATOM      5  O   UNL     1      74.104  46.217   7.042  1.00  0.00    -0.423 OA
ATOM      6  C   UNL     1      73.367  46.517   5.975  1.00  0.00     0.142 A 
ATOM      7  C   UNL     1      73.334  45.649   4.881  1.00  0.00     0.098 A 
ATOM      8  C   UNL     1      72.562  45.958   3.754  1.00  0.00     0.161 A 
ATOM      9  C   UNL     1      71.812  47.148   3.722  1.00  0.00     0.158 A 
ATOM     10  C   UNL     1      71.842  48.023   4.818  1.00  0.00     0.062 A 
ATOM     11  C   UNL     1      72.615  47.713   5.944  1.00  0.00     0.022 A 
ENDROOT
BRANCH   9  12
ATOM     12  O   UNL     1      71.043  47.457   2.601  1.00  0.00    -0.504 OA
ATOM     13  H   UNL     1      70.157  47.941   2.683  1.00  0.00     0.293 HD
ENDBRANCH   9  12
BRANCH   8  14
ATOM     14  O   UNL     1      72.551  45.070   2.678  1.00  0.00    -0.504 OA
ATOM     15  H   UNL     1      72.025  45.256   1.833  1.00  0.00     0.293 HD
ENDBRANCH   8  14
TORSDOF 2
ENDMDL
MODEL 6
REMARK VINA RESULT:    -5.017      1.203      4.575
REMARK INTER + INTRA:          -5.311
REMARK INTER:                  -5.311
REMARK INTRA:                   0.000
REMARK UNBOUND:                 0.000
REMARK SMILES O=c1ccc2cc(O)c(O)cc2o1
REMARK SMILES IDX 4 1 3 2 2 3 1 4 13 5 12 6 11 7 9 8 7 9 6 10 5 11 8 12 10 14
REMARK H PARENT 8 13 10 15
REMARK Flexibility Score: inf
ROOT
ATOM      1  C   UNL     1      71.029  49.938   8.163  1.00  0.00     0.019 A 
ATOM      2  C   UNL     1      71.783  49.261   9.121  1.00  0.00     0.094 A 
ATOM      3  C   UNL     1      72.516  48.133   8.735  1.00  0.00     0.336 A 
ATOM      4  O   UNL     1      73.203  47.510   9.585  1.00  0.00    -0.246 OA
ATOM      5  O   UNL     1      72.493  47.716   7.471  1.00  0.00    -0.423 OA
ATOM      6  C   UNL     1      71.788  48.332   6.526  1.00  0.00     0.142 A 
ATOM      7  C   UNL     1      71.801  47.848   5.215  1.00  0.00     0.098 A 
ATOM      8  C   UNL     1      71.062  48.491   4.215  1.00  0.00     0.161 A 
ATOM      9  C   UNL     1      70.299  49.631   4.528  1.00  0.00     0.158 A 
ATOM     10  C   UNL     1      70.282  50.121   5.843  1.00  0.00     0.062 A 
ATOM     11  C   UNL     1      71.023  49.477   6.842  1.00  0.00     0.022 A 
ENDROOT
BRANCH   9  12
ATOM     12  O   UNL     1      69.563  50.272   3.534  1.00  0.00    -0.504 OA
ATOM     13  H   UNL     1      69.936  51.064   3.023  1.00  0.00     0.293 HD
ENDBRANCH   9  12
BRANCH   8  14
ATOM     14  O   UNL     1      71.096  47.983   2.916  1.00  0.00    -0.504 OA
ATOM     15  H   UNL     1      70.385  47.354   2.566  1.00  0.00     0.293 HD
ENDBRANCH   8  14
TORSDOF 2
ENDMDL
MODEL 7
REMARK VINA RESULT:    -4.971      2.404      4.136
REMARK INTER + INTRA:          -5.261
REMARK INTER:                  -5.261
REMARK INTRA:                   0.000
REMARK UNBOUND:                 0.000
REMARK SMILES O=c1ccc2cc(O)c(O)cc2o1
REMARK SMILES IDX 4 1 3 2 2 3 1 4 13 5 12 6 11 7 9 8 7 9 6 10 5 11 8 12 10 14
REMARK H PARENT 8 13 10 15
REMARK Flexibility Score: inf
ROOT
ATOM      1  C   UNL     1      70.674  48.866   4.909  1.00  0.00     0.019 A 
ATOM      2  C   UNL     1      70.589  49.669   6.045  1.00  0.00     0.094 A 
ATOM      3  C   UNL     1      71.434  49.403   7.129  1.00  0.00     0.336 A 
ATOM      4  O   UNL     1      71.373  50.118   8.163  1.00  0.00    -0.246 OA
ATOM      5  O   UNL     1      72.305  48.398   7.073  1.00  0.00    -0.423 OA
ATOM      6  C   UNL     1      72.419  47.608   6.008  1.00  0.00     0.142 A 
ATOM      7  C   UNL     1      73.351  46.567   6.006  1.00  0.00     0.098 A 
ATOM      8  C   UNL     1      73.477  45.731   4.889  1.00  0.00     0.161 A 
ATOM      9  C   UNL     1      72.660  45.937   3.762  1.00  0.00     0.158 A 
ATOM     10  C   UNL     1      71.722  46.981   3.760  1.00  0.00     0.062 A 
ATOM     11  C   UNL     1      71.598  47.816   4.877  1.00  0.00     0.022 A 
ENDROOT
BRANCH   9  12
ATOM     12  O   UNL     1      72.784  45.106   2.651  1.00  0.00    -0.504 OA
ATOM     13  H   UNL     1      72.524  44.127   2.688  1.00  0.00     0.293 HD
ENDBRANCH   9  12
BRANCH   8  14
ATOM     14  O   UNL     1      74.417  44.701   4.918  1.00  0.00    -0.504 OA
ATOM     15  H   UNL     1      75.219  44.687   4.301  1.00  0.00     0.293 HD
ENDBRANCH   8  14
TORSDOF 2
ENDMDL
MODEL 8
REMARK VINA RESULT:    -4.922      2.045      4.182
REMARK INTER + INTRA:          -5.209
REMARK INTER:                  -5.209
REMARK INTRA:                   0.000
REMARK UNBOUND:                 0.000
REMARK SMILES O=c1ccc2cc(O)c(O)cc2o1
REMARK SMILES IDX 4 1 3 2 2 3 1 4 13 5 12 6 11 7 9 8 7 9 6 10 5 11 8 12 10 14
REMARK H PARENT 8 13 10 15
REMARK Flexibility Score: inf
ROOT
ATOM      1  C   UNL     1      72.169  49.005   8.858  1.00  0.00     0.019 A 
ATOM      2  C   UNL     1      70.981  49.344   9.503  1.00  0.00     0.094 A 
ATOM      3  C   UNL     1      69.795  49.387   8.760  1.00  0.00     0.336 A 
ATOM      4  O   UNL     1      68.712  49.691   9.325  1.00  0.00    -0.246 OA
ATOM      5  O   UNL     1      69.804  49.109   7.459  1.00  0.00    -0.423 OA
ATOM      6  C   UNL     1      70.917  48.781   6.805  1.00  0.00     0.142 A 
ATOM      7  C   UNL     1      70.866  48.499   5.438  1.00  0.00     0.098 A 
ATOM      8  C   UNL     1      72.031  48.153   4.743  1.00  0.00     0.161 A 
ATOM      9  C   UNL     1      73.262  48.089   5.423  1.00  0.00     0.158 A 
ATOM     10  C   UNL     1      73.317  48.371   6.796  1.00  0.00     0.062 A 
ATOM     11  C   UNL     1      72.151  48.717   7.490  1.00  0.00     0.022 A 
ENDROOT
BRANCH   9  12
ATOM     12  O   UNL     1      74.422  47.745   4.732  1.00  0.00    -0.504 OA
ATOM     13  H   UNL     1      75.252  48.326   4.765  1.00  0.00     0.293 HD
ENDBRANCH   9  12
BRANCH   8  14
ATOM     14  O   UNL     1      71.948  47.877   3.378  1.00  0.00    -0.504 OA
ATOM     15  H   UNL     1      71.061  47.731   2.912  1.00  0.00     0.293 HD
ENDBRANCH   8  14
TORSDOF 2
ENDMDL
MODEL 9
REMARK VINA RESULT:    -4.897      2.742      4.155
REMARK INTER + INTRA:          -5.184
REMARK INTER:                  -5.184
REMARK INTRA:                   0.000
REMARK UNBOUND:                 0.000
REMARK SMILES O=c1ccc2cc(O)c(O)cc2o1
REMARK SMILES IDX 4 1 3 2 2 3 1 4 13 5 12 6 11 7 9 8 7 9 6 10 5 11 8 12 10 14
REMARK H PARENT 8 13 10 15
REMARK Flexibility Score: inf
ROOT
ATOM      1  C   UNL     1      72.612  49.407   8.681  1.00  0.00     0.019 A 
ATOM      2  C   UNL     1      73.510  48.833   7.783  1.00  0.00     0.094 A 
ATOM      3  C   UNL     1      73.015  48.031   6.748  1.00  0.00     0.336 A 
ATOM      4  O   UNL     1      73.809  47.504   5.927  1.00  0.00    -0.246 OA
ATOM      5  O   UNL     1      71.706  47.822   6.626  1.00  0.00    -0.423 OA
ATOM      6  C   UNL     1      70.815  48.351   7.461  1.00  0.00     0.142 A 
ATOM      7  C   UNL     1      69.453  48.097   7.284  1.00  0.00     0.098 A 
ATOM      8  C   UNL     1      68.509  48.650   8.158  1.00  0.00     0.161 A 
ATOM      9  C   UNL     1      68.933  49.467   9.222  1.00  0.00     0.158 A 
ATOM     10  C   UNL     1      70.300  49.725   9.405  1.00  0.00     0.062 A 
ATOM     11  C   UNL     1      71.242  49.171   8.529  1.00  0.00     0.022 A 
ENDROOT
BRANCH   9  12
ATOM     12  O   UNL     1      67.995  50.018  10.093  1.00  0.00    -0.504 OA
ATOM     13  H   UNL     1      67.034  49.697  10.111  1.00  0.00     0.293 HD
ENDBRANCH   9  12
BRANCH   8  14
ATOM     14  O   UNL     1      67.157  48.377   7.954  1.00  0.00    -0.504 OA
ATOM     15  H   UNL     1      66.702  47.572   8.367  1.00  0.00     0.293 HD
ENDBRANCH   8  14
TORSDOF 2
ENDMDL
