MODEL 1
REMARK VINA RESULT:     3.490      0.000      0.000
REMARK INTER + INTRA:           4.324
REMARK INTER:                   4.919
REMARK INTRA:                  -0.595
REMARK UNBOUND:                -0.595
REMARK SMILES OCC1=C[C@H](O)[C@H]2C=CO[C@H](O[C@H]3O[C@H](CO)[C@@H](O)[C@H](O)[C@H]3O)[C@@H]12
REMARK SMILES IDX 12 1 11 2 8 3 9 4 7 5 10 6 24 7 5 8 3 9 4 10 6 11 2 13 1 14
REMARK SMILES IDX 13 16 22 17 14 18 20 19 15 20 18 21 23 22 21 24 16 26 17 27
REMARK SMILES IDX 19 29
REMARK H PARENT 6 12 1 15 23 23 21 25 17 28 19 30
REMARK Flexibility Score: inf
ROOT
ATOM      1  O   UNL     1      14.871  21.533  -1.179  1.00  0.00    -0.310 OA
ENDROOT
BRANCH   1   2
ATOM      2  C   UNL     1      14.218  20.917  -2.284  1.00  0.00     0.316 C 
ATOM      3  C   UNL     1      13.414  18.875  -4.116  1.00  0.00     0.018 C 
ATOM      4  C   UNL     1      14.671  19.315  -4.108  1.00  0.00     0.186 C 
ATOM      5  C   UNL     1      12.440  19.218  -3.016  1.00  0.00     0.061 C 
ATOM      6  O   UNL     1      15.122  20.181  -3.112  1.00  0.00    -0.472 OA
ATOM      7  C   UNL     1      13.026  20.032  -1.837  1.00  0.00     0.096 C 
ATOM      8  C   UNL     1      11.252  20.053  -3.529  1.00  0.00     0.145 C 
ATOM      9  C   UNL     1      11.862  20.884  -1.432  1.00  0.00    -0.036 C 
ATOM     10  C   UNL     1      10.912  20.909  -2.360  1.00  0.00     0.007 C 
BRANCH   8  11
ATOM     11  O   UNL     1      10.160  19.238  -3.859  1.00  0.00    -0.388 OA
ATOM     12  H   UNL     1       9.716  19.007  -3.002  1.00  0.00     0.211 HD
ENDBRANCH   8  11
BRANCH   9  13
ATOM     13  C   UNL     1      11.768  21.631  -0.137  1.00  0.00     0.187 C 
BRANCH  13  14
ATOM     14  O   UNL     1      11.638  23.001  -0.395  1.00  0.00    -0.392 OA
ATOM     15  H   UNL     1      10.873  23.313   0.154  1.00  0.00     0.211 HD
ENDBRANCH  13  14
ENDBRANCH   9  13
ENDBRANCH   1   2
BRANCH   1  16
ATOM     16  C   UNL     1      15.793  22.547  -1.567  1.00  0.00     0.286 C 
ATOM     17  C   UNL     1      16.372  23.260  -0.328  1.00  0.00     0.202 C 
ATOM     18  O   UNL     1      15.192  23.499  -2.436  1.00  0.00    -0.341 OA
ATOM     19  C   UNL     1      15.285  24.080   0.395  1.00  0.00     0.179 C 
ATOM     20  C   UNL     1      14.091  24.152  -1.822  1.00  0.00     0.178 C 
ATOM     21  C   UNL     1      14.562  24.990  -0.614  1.00  0.00     0.177 C 
BRANCH  17  22
ATOM     22  O   UNL     1      16.993  22.345   0.540  1.00  0.00    -0.385 OA
ATOM     23  H   UNL     1      17.000  21.459   0.093  1.00  0.00     0.211 HD
ENDBRANCH  17  22
BRANCH  19  24
ATOM     24  O   UNL     1      15.886  24.854   1.400  1.00  0.00    -0.387 OA
ATOM     25  H   UNL     1      15.404  25.721   1.425  1.00  0.00     0.211 HD
ENDBRANCH  19  24
BRANCH  20  26
ATOM     26  C   UNL     1      13.415  25.045  -2.874  1.00  0.00     0.191 C 
BRANCH  26  27
ATOM     27  O   UNL     1      14.026  24.876  -4.125  1.00  0.00    -0.394 OA
ATOM     28  H   UNL     1      14.402  25.759  -4.379  1.00  0.00     0.210 HD
ENDBRANCH  26  27
ENDBRANCH  20  26
BRANCH  21  29
ATOM     29  O   UNL     1      13.452  25.592   0.004  1.00  0.00    -0.387 OA
ATOM     30  H   UNL     1      13.711  26.526   0.219  1.00  0.00     0.211 HD
ENDBRANCH  21  29
ENDBRANCH   1  16
TORSDOF 10
ENDMDL
