MODEL 1
REMARK VINA RESULT:     2.966      0.000      0.000
REMARK INTER + INTRA:           5.277
REMARK INTER:                   5.393
REMARK INTRA:                  -0.117
REMARK UNBOUND:                -0.117
REMARK SMILES CCCCCC=CCC=CCCCCCCCC(=O)[O-]
REMARK SMILES IDX 11 1 12 2 13 3 14 4 15 5 16 6 17 7 18 8 19 9 20 10 10 11
REMARK SMILES IDX 9 12 8 13 7 14 6 15 5 16 4 17 3 18 2 19 1 20
REMARK H PARENT
REMARK Flexibility Score: inf
ROOT
ATOM      1  C   UNL     1      29.341  18.662   4.256  1.00  0.00     0.027 C 
ENDROOT
BRANCH   1   2
ATOM      2  C   UNL     1      28.827  18.067   2.940  1.00  0.00     0.004 C 
BRANCH   2   3
ATOM      3  C   UNL     1      29.065  19.007   1.747  1.00  0.00     0.000 C 
BRANCH   3   4
ATOM      4  C   UNL     1      28.260  18.586   0.498  1.00  0.00     0.000 C 
BRANCH   4   5
ATOM      5  C   UNL     1      28.461  17.110   0.101  1.00  0.00     0.000 C 
BRANCH   5   6
ATOM      6  C   UNL     1      28.101  16.777  -1.359  1.00  0.00     0.006 C 
BRANCH   6   7
ATOM      7  C   UNL     1      28.564  15.388  -1.824  1.00  0.00     0.053 C 
BRANCH   7   8
ATOM      8  C   UNL     1      29.953  15.421  -2.385  1.00  0.00     0.041 C 
ATOM      9  O   UNL     1      30.949  15.374  -1.615  1.00  0.00    -0.550 OA
ATOM     10  O   UNL     1      30.147  15.537  -3.756  1.00  0.00    -0.550 OA
ENDBRANCH   7   8
ENDBRANCH   6   7
ENDBRANCH   5   6
ENDBRANCH   4   5
ENDBRANCH   3   4
ENDBRANCH   2   3
ENDBRANCH   1   2
BRANCH   1  11
ATOM     11  C   UNL     1      30.633  18.007   4.686  1.00  0.00    -0.031 C 
ATOM     12  C   UNL     1      30.777  17.220   5.769  1.00  0.00    -0.027 C 
BRANCH  12  13
ATOM     13  C   UNL     1      29.684  16.904   6.758  1.00  0.00     0.054 C 
BRANCH  13  14
ATOM     14  C   UNL     1      29.709  15.451   7.161  1.00  0.00    -0.027 C 
ATOM     15  C   UNL     1      29.068  14.940   8.228  1.00  0.00    -0.031 C 
BRANCH  15  16
ATOM     16  C   UNL     1      28.288  15.753   9.232  1.00  0.00     0.027 C 
BRANCH  16  17
ATOM     17  C   UNL     1      28.986  17.079   9.564  1.00  0.00     0.004 C 
BRANCH  17  18
ATOM     18  C   UNL     1      28.220  17.886  10.626  1.00  0.00     0.000 C 
BRANCH  18  19
ATOM     19  C   UNL     1      27.373  19.013  10.016  1.00  0.00    -0.003 C 
ATOM     20  C   UNL     1      27.225  20.215  10.948  1.00  0.00     0.004 C 
ENDBRANCH  18  19
ENDBRANCH  17  18
ENDBRANCH  16  17
ENDBRANCH  15  16
ENDBRANCH  13  14
ENDBRANCH  12  13
ENDBRANCH   1  11
TORSDOF 14
ENDMDL
MODEL 2
REMARK VINA RESULT:     3.365      4.235     10.019
REMARK INTER + INTRA:           6.002
REMARK INTER:                   6.760
REMARK INTRA:                  -0.757
REMARK UNBOUND:                -0.117
REMARK SMILES CCCCCC=CCC=CCCCCCCCC(=O)[O-]
REMARK SMILES IDX 11 1 12 2 13 3 14 4 15 5 16 6 17 7 18 8 19 9 20 10 10 11
REMARK SMILES IDX 9 12 8 13 7 14 6 15 5 16 4 17 3 18 2 19 1 20
REMARK H PARENT
REMARK Flexibility Score: inf
ROOT
ATOM      1  C   UNL     1      30.557  17.196   5.300  1.00  0.00     0.027 C 
ENDROOT
BRANCH   1   2
ATOM      2  C   UNL     1      30.392  16.932   6.801  1.00  0.00     0.004 C 
BRANCH   2   3
ATOM      3  C   UNL     1      29.432  15.764   7.082  1.00  0.00     0.000 C 
BRANCH   3   4
ATOM      4  C   UNL     1      29.445  15.338   8.566  1.00  0.00     0.000 C 
BRANCH   4   5
ATOM      5  C   UNL     1      29.484  16.524   9.550  1.00  0.00     0.000 C 
BRANCH   5   6
ATOM      6  C   UNL     1      28.119  17.184   9.823  1.00  0.00     0.006 C 
BRANCH   6   7
ATOM      7  C   UNL     1      28.173  18.366  10.804  1.00  0.00     0.053 C 
BRANCH   7   8
ATOM      8  C   UNL     1      27.355  19.526  10.326  1.00  0.00     0.041 C 
ATOM      9  O   UNL     1      27.316  20.593  10.995  1.00  0.00    -0.550 OA
ATOM     10  O   UNL     1      26.608  19.418   9.160  1.00  0.00    -0.550 OA
ENDBRANCH   7   8
ENDBRANCH   6   7
ENDBRANCH   5   6
ENDBRANCH   4   5
ENDBRANCH   3   4
ENDBRANCH   2   3
ENDBRANCH   1   2
BRANCH   1  11
ATOM     11  C   UNL     1      30.334  18.654   4.972  1.00  0.00    -0.031 C 
ATOM     12  C   UNL     1      29.685  19.111   3.885  1.00  0.00    -0.027 C 
BRANCH  12  13
ATOM     13  C   UNL     1      29.118  18.244   2.789  1.00  0.00     0.054 C 
BRANCH  13  14
ATOM     14  C   UNL     1      28.722  19.063   1.587  1.00  0.00    -0.027 C 
ATOM     15  C   UNL     1      28.228  18.557   0.442  1.00  0.00    -0.031 C 
BRANCH  15  16
ATOM     16  C   UNL     1      28.066  17.084   0.155  1.00  0.00     0.027 C 
BRANCH  16  17
ATOM     17  C   UNL     1      29.105  16.577  -0.856  1.00  0.00     0.004 C 
BRANCH  17  18
ATOM     18  C   UNL     1      28.468  15.713  -1.957  1.00  0.00     0.000 C 
BRANCH  18  19
ATOM     19  C   UNL     1      29.509  14.923  -2.765  1.00  0.00    -0.003 C 
ATOM     20  C   UNL     1      30.943  15.370  -2.483  1.00  0.00     0.004 C 
ENDBRANCH  18  19
ENDBRANCH  17  18
ENDBRANCH  16  17
ENDBRANCH  15  16
ENDBRANCH  13  14
ENDBRANCH  12  13
ENDBRANCH   1  11
TORSDOF 14
ENDMDL
MODEL 3
REMARK VINA RESULT:     3.620      4.099      9.922
REMARK INTER + INTRA:           6.467
REMARK INTER:                   7.346
REMARK INTRA:                  -0.879
REMARK UNBOUND:                -0.117
REMARK SMILES CCCCCC=CCC=CCCCCCCCC(=O)[O-]
REMARK SMILES IDX 11 1 12 2 13 3 14 4 15 5 16 6 17 7 18 8 19 9 20 10 10 11
REMARK SMILES IDX 9 12 8 13 7 14 6 15 5 16 4 17 3 18 2 19 1 20
REMARK H PARENT
REMARK Flexibility Score: inf
ROOT
ATOM      1  C   UNL     1      30.417  18.362   4.591  1.00  0.00     0.027 C 
ENDROOT
BRANCH   1   2
ATOM      2  C   UNL     1      30.844  17.624   5.865  1.00  0.00     0.004 C 
BRANCH   2   3
ATOM      3  C   UNL     1      29.724  16.727   6.418  1.00  0.00     0.000 C 
BRANCH   3   4
ATOM      4  C   UNL     1      29.979  16.306   7.882  1.00  0.00     0.000 C 
BRANCH   4   5
ATOM      5  C   UNL     1      28.850  15.445   8.483  1.00  0.00     0.000 C 
BRANCH   5   6
ATOM      6  C   UNL     1      28.049  16.122   9.611  1.00  0.00     0.006 C 
BRANCH   6   7
ATOM      7  C   UNL     1      28.696  17.401  10.168  1.00  0.00     0.053 C 
BRANCH   7   8
ATOM      8  C   UNL     1      27.772  18.576  10.084  1.00  0.00     0.041 C 
ATOM      9  O   UNL     1      27.646  19.355  11.066  1.00  0.00    -0.550 OA
ATOM     10  O   UNL     1      27.023  18.792   8.934  1.00  0.00    -0.550 OA
ENDBRANCH   7   8
ENDBRANCH   6   7
ENDBRANCH   5   6
ENDBRANCH   4   5
ENDBRANCH   3   4
ENDBRANCH   2   3
ENDBRANCH   1   2
BRANCH   1  11
ATOM     11  C   UNL     1      29.070  17.881   4.104  1.00  0.00    -0.031 C 
ATOM     12  C   UNL     1      28.596  18.045   2.855  1.00  0.00    -0.027 C 
BRANCH  12  13
ATOM     13  C   UNL     1      29.311  18.780   1.750  1.00  0.00     0.054 C 
BRANCH  13  14
ATOM     14  C   UNL     1      28.378  19.104   0.610  1.00  0.00    -0.027 C 
ATOM     15  C   UNL     1      27.965  18.221  -0.318  1.00  0.00    -0.031 C 
BRANCH  15  16
ATOM     16  C   UNL     1      28.433  16.789  -0.409  1.00  0.00     0.027 C 
BRANCH  16  17
ATOM     17  C   UNL     1      27.937  16.103  -1.690  1.00  0.00     0.004 C 
BRANCH  17  18
ATOM     18  C   UNL     1      28.996  15.160  -2.287  1.00  0.00     0.000 C 
BRANCH  18  19
ATOM     19  C   UNL     1      30.426  15.536  -1.870  1.00  0.00    -0.003 C 
ATOM     20  C   UNL     1      31.487  14.968  -2.811  1.00  0.00     0.004 C 
ENDBRANCH  18  19
ENDBRANCH  17  18
ENDBRANCH  16  17
ENDBRANCH  15  16
ENDBRANCH  13  14
ENDBRANCH  12  13
ENDBRANCH   1  11
TORSDOF 14
ENDMDL
MODEL 4
REMARK VINA RESULT:     3.982      1.647      2.457
REMARK INTER + INTRA:           7.124
REMARK INTER:                   7.898
REMARK INTRA:                  -0.775
REMARK UNBOUND:                -0.117
REMARK SMILES CCCCCC=CCC=CCCCCCCCC(=O)[O-]
REMARK SMILES IDX 11 1 12 2 13 3 14 4 15 5 16 6 17 7 18 8 19 9 20 10 10 11
REMARK SMILES IDX 9 12 8 13 7 14 6 15 5 16 4 17 3 18 2 19 1 20
REMARK H PARENT
REMARK Flexibility Score: inf
ROOT
ATOM      1  C   UNL     1      29.385  18.800   4.390  1.00  0.00     0.027 C 
ENDROOT
BRANCH   1   2
ATOM      2  C   UNL     1      28.901  18.064   3.136  1.00  0.00     0.004 C 
BRANCH   2   3
ATOM      3  C   UNL     1      29.172  18.867   1.852  1.00  0.00     0.000 C 
BRANCH   3   4
ATOM      4  C   UNL     1      28.221  18.472   0.702  1.00  0.00     0.000 C 
BRANCH   4   5
ATOM      5  C   UNL     1      28.459  17.047   0.164  1.00  0.00     0.000 C 
BRANCH   5   6
ATOM      6  C   UNL     1      28.113  16.850  -1.324  1.00  0.00     0.006 C 
BRANCH   6   7
ATOM      7  C   UNL     1      28.499  15.473  -1.887  1.00  0.00     0.053 C 
BRANCH   7   8
ATOM      8  C   UNL     1      29.919  15.441  -2.361  1.00  0.00     0.041 C 
ATOM      9  O   UNL     1      30.866  15.448  -1.529  1.00  0.00    -0.550 OA
ATOM     10  O   UNL     1      30.199  15.438  -3.722  1.00  0.00    -0.550 OA
ENDBRANCH   7   8
ENDBRANCH   6   7
ENDBRANCH   5   6
ENDBRANCH   4   5
ENDBRANCH   3   4
ENDBRANCH   2   3
ENDBRANCH   1   2
BRANCH   1  11
ATOM     11  C   UNL     1      30.762  18.335   4.803  1.00  0.00    -0.031 C 
ATOM     12  C   UNL     1      31.013  17.340   5.673  1.00  0.00    -0.027 C 
BRANCH  12  13
ATOM     13  C   UNL     1      29.960  16.560   6.420  1.00  0.00     0.054 C 
BRANCH  13  14
ATOM     14  C   UNL     1      29.798  17.066   7.832  1.00  0.00    -0.027 C 
ATOM     15  C   UNL     1      29.675  16.282   8.919  1.00  0.00    -0.031 C 
BRANCH  15  16
ATOM     16  C   UNL     1      29.603  14.775   8.886  1.00  0.00     0.027 C 
BRANCH  16  17
ATOM     17  C   UNL     1      28.224  14.275   8.431  1.00  0.00     0.004 C 
BRANCH  17  18
ATOM     18  C   UNL     1      27.085  14.883   9.266  1.00  0.00     0.000 C 
BRANCH  18  19
ATOM     19  C   UNL     1      25.739  14.180   9.029  1.00  0.00    -0.003 C 
ATOM     20  C   UNL     1      25.859  12.959   8.118  1.00  0.00     0.004 C 
ENDBRANCH  18  19
ENDBRANCH  17  18
ENDBRANCH  16  17
ENDBRANCH  15  16
ENDBRANCH  13  14
ENDBRANCH  12  13
ENDBRANCH   1  11
TORSDOF 14
ENDMDL
MODEL 5
REMARK VINA RESULT:     4.340      4.274      9.554
REMARK INTER + INTRA:           7.775
REMARK INTER:                   8.509
REMARK INTRA:                  -0.735
REMARK UNBOUND:                -0.117
REMARK SMILES CCCCCC=CCC=CCCCCCCCC(=O)[O-]
REMARK SMILES IDX 11 1 12 2 13 3 14 4 15 5 16 6 17 7 18 8 19 9 20 10 10 11
REMARK SMILES IDX 9 12 8 13 7 14 6 15 5 16 4 17 3 18 2 19 1 20
REMARK H PARENT
REMARK Flexibility Score: inf
ROOT
ATOM      1  C   UNL     1      30.389  18.726   4.557  1.00  0.00     0.027 C 
ENDROOT
BRANCH   1   2
ATOM      2  C   UNL     1      31.121  17.966   5.669  1.00  0.00     0.004 C 
BRANCH   2   3
ATOM      3  C   UNL     1      30.286  16.797   6.219  1.00  0.00     0.000 C 
BRANCH   3   4
ATOM      4  C   UNL     1      29.575  17.156   7.542  1.00  0.00     0.000 C 
BRANCH   4   5
ATOM      5  C   UNL     1      30.103  16.373   8.760  1.00  0.00     0.000 C 
BRANCH   5   6
ATOM      6  C   UNL     1      29.745  14.875   8.773  1.00  0.00     0.006 C 
BRANCH   6   7
ATOM      7  C   UNL     1      28.443  14.528   8.033  1.00  0.00     0.053 C 
BRANCH   7   8
ATOM      8  C   UNL     1      27.281  14.414   8.971  1.00  0.00     0.041 C 
ATOM      9  O   UNL     1      27.345  14.916  10.124  1.00  0.00    -0.550 OA
ATOM     10  O   UNL     1      26.139  13.723   8.584  1.00  0.00    -0.550 OA
ENDBRANCH   7   8
ENDBRANCH   6   7
ENDBRANCH   5   6
ENDBRANCH   4   5
ENDBRANCH   3   4
ENDBRANCH   2   3
ENDBRANCH   1   2
BRANCH   1  11
ATOM     11  C   UNL     1      29.139  17.995   4.125  1.00  0.00    -0.031 C 
ATOM     12  C   UNL     1      28.646  17.982   2.872  1.00  0.00    -0.027 C 
BRANCH  12  13
ATOM     13  C   UNL     1      29.231  18.738   1.706  1.00  0.00     0.054 C 
BRANCH  13  14
ATOM     14  C   UNL     1      28.183  19.039   0.663  1.00  0.00    -0.027 C 
ATOM     15  C   UNL     1      27.760  18.168  -0.272  1.00  0.00    -0.031 C 
BRANCH  15  16
ATOM     16  C   UNL     1      28.322  16.782  -0.471  1.00  0.00     0.027 C 
BRANCH  16  17
ATOM     17  C   UNL     1      27.969  16.212  -1.852  1.00  0.00     0.004 C 
BRANCH  17  18
ATOM     18  C   UNL     1      28.967  15.132  -2.304  1.00  0.00     0.000 C 
BRANCH  18  19
ATOM     19  C   UNL     1      30.398  15.409  -1.818  1.00  0.00    -0.003 C 
ATOM     20  C   UNL     1      31.457  15.064  -2.864  1.00  0.00     0.004 C 
ENDBRANCH  18  19
ENDBRANCH  17  18
ENDBRANCH  16  17
ENDBRANCH  15  16
ENDBRANCH  13  14
ENDBRANCH  12  13
ENDBRANCH   1  11
TORSDOF 14
ENDMDL
MODEL 6
REMARK VINA RESULT:     5.265      6.285     10.058
REMARK INTER + INTRA:           9.458
REMARK INTER:                   9.962
REMARK INTRA:                  -0.504
REMARK UNBOUND:                -0.117
REMARK SMILES CCCCCC=CCC=CCCCCCCCC(=O)[O-]
REMARK SMILES IDX 11 1 12 2 13 3 14 4 15 5 16 6 17 7 18 8 19 9 20 10 10 11
REMARK SMILES IDX 9 12 8 13 7 14 6 15 5 16 4 17 3 18 2 19 1 20
REMARK H PARENT
REMARK Flexibility Score: inf
ROOT
ATOM      1  C   UNL     1      28.424  14.610   8.620  1.00  0.00     0.027 C 
ENDROOT
BRANCH   1   2
ATOM      2  C   UNL     1      27.009  14.516   9.203  1.00  0.00     0.004 C 
BRANCH   2   3
ATOM      3  C   UNL     1      26.150  13.470   8.472  1.00  0.00     0.000 C 
BRANCH   3   4
ATOM      4  C   UNL     1      24.657  13.567   8.854  1.00  0.00     0.000 C 
BRANCH   4   5
ATOM      5  C   UNL     1      23.823  12.353   8.402  1.00  0.00     0.000 C 
BRANCH   5   6
ATOM      6  C   UNL     1      22.989  11.689   9.514  1.00  0.00     0.006 C 
BRANCH   6   7
ATOM      7  C   UNL     1      21.761  10.915   9.009  1.00  0.00     0.053 C 
BRANCH   7   8
ATOM      8  C   UNL     1      21.626   9.582   9.678  1.00  0.00     0.041 C 
ATOM      9  O   UNL     1      21.413   9.513  10.917  1.00  0.00    -0.550 OA
ATOM     10  O   UNL     1      21.768   8.414   8.938  1.00  0.00    -0.550 OA
ENDBRANCH   7   8
ENDBRANCH   6   7
ENDBRANCH   5   6
ENDBRANCH   4   5
ENDBRANCH   3   4
ENDBRANCH   2   3
ENDBRANCH   1   2
BRANCH   1  11
ATOM     11  C   UNL     1      29.055  15.948   8.925  1.00  0.00    -0.031 C 
ATOM     12  C   UNL     1      29.653  16.745   8.020  1.00  0.00    -0.027 C 
BRANCH  12  13
ATOM     13  C   UNL     1      29.837  16.409   6.562  1.00  0.00     0.054 C 
BRANCH  13  14
ATOM     14  C   UNL     1      30.826  17.338   5.903  1.00  0.00    -0.027 C 
ATOM     15  C   UNL     1      30.537  18.164   4.880  1.00  0.00    -0.031 C 
BRANCH  15  16
ATOM     16  C   UNL     1      29.201  18.233   4.182  1.00  0.00     0.027 C 
BRANCH  16  17
ATOM     17  C   UNL     1      29.340  18.663   2.715  1.00  0.00     0.004 C 
BRANCH  17  18
ATOM     18  C   UNL     1      28.240  18.053   1.828  1.00  0.00     0.000 C 
BRANCH  18  19
ATOM     19  C   UNL     1      28.521  18.237   0.328  1.00  0.00    -0.003 C 
ATOM     20  C   UNL     1      28.409  16.932  -0.460  1.00  0.00     0.004 C 
ENDBRANCH  18  19
ENDBRANCH  17  18
ENDBRANCH  16  17
ENDBRANCH  15  16
ENDBRANCH  13  14
ENDBRANCH  12  13
ENDBRANCH   1  11
TORSDOF 14
ENDMDL
MODEL 7
REMARK VINA RESULT:     5.607      3.699      5.295
REMARK INTER + INTRA:          10.080
REMARK INTER:                  10.691
REMARK INTRA:                  -0.611
REMARK UNBOUND:                -0.117
REMARK SMILES CCCCCC=CCC=CCCCCCCCC(=O)[O-]
REMARK SMILES IDX 11 1 12 2 13 3 14 4 15 5 16 6 17 7 18 8 19 9 20 10 10 11
REMARK SMILES IDX 9 12 8 13 7 14 6 15 5 16 4 17 3 18 2 19 1 20
REMARK H PARENT
REMARK Flexibility Score: inf
ROOT
ATOM      1  C   UNL     1      29.642  16.478   6.811  1.00  0.00     0.027 C 
ENDROOT
BRANCH   1   2
ATOM      2  C   UNL     1      30.509  17.647   6.327  1.00  0.00     0.004 C 
BRANCH   2   3
ATOM      3  C   UNL     1      30.605  17.701   4.794  1.00  0.00     0.000 C 
BRANCH   3   4
ATOM      4  C   UNL     1      29.556  18.650   4.174  1.00  0.00     0.000 C 
BRANCH   4   5
ATOM      5  C   UNL     1      28.728  18.004   3.046  1.00  0.00     0.000 C 
BRANCH   5   6
ATOM      6  C   UNL     1      28.720  18.785   1.718  1.00  0.00     0.006 C 
BRANCH   6   7
ATOM      7  C   UNL     1      29.287  18.004   0.521  1.00  0.00     0.053 C 
BRANCH   7   8
ATOM      8  C   UNL     1      28.219  17.633  -0.460  1.00  0.00     0.041 C 
ATOM      9  O   UNL     1      27.229  18.392  -0.638  1.00  0.00    -0.550 OA
ATOM     10  O   UNL     1      28.298  16.433  -1.155  1.00  0.00    -0.550 OA
ENDBRANCH   7   8
ENDBRANCH   6   7
ENDBRANCH   5   6
ENDBRANCH   4   5
ENDBRANCH   3   4
ENDBRANCH   2   3
ENDBRANCH   1   2
BRANCH   1  11
ATOM     11  C   UNL     1      29.960  16.114   8.242  1.00  0.00    -0.031 C 
ATOM     12  C   UNL     1      29.325  15.168   8.959  1.00  0.00    -0.027 C 
BRANCH  12  13
ATOM     13  C   UNL     1      28.157  14.352   8.467  1.00  0.00     0.054 C 
BRANCH  13  14
ATOM     14  C   UNL     1      26.894  14.690   9.218  1.00  0.00    -0.027 C 
ATOM     15  C   UNL     1      25.730  14.023   9.101  1.00  0.00    -0.031 C 
BRANCH  15  16
ATOM     16  C   UNL     1      25.487  12.882   8.144  1.00  0.00     0.027 C 
BRANCH  16  17
ATOM     17  C   UNL     1      23.993  12.559   8.003  1.00  0.00     0.004 C 
BRANCH  17  18
ATOM     18  C   UNL     1      23.446  11.808   9.229  1.00  0.00     0.000 C 
BRANCH  18  19
ATOM     19  C   UNL     1      22.047  11.220   8.987  1.00  0.00    -0.003 C 
ATOM     20  C   UNL     1      21.785   9.957   9.805  1.00  0.00     0.004 C 
ENDBRANCH  18  19
ENDBRANCH  17  18
ENDBRANCH  16  17
ENDBRANCH  15  16
ENDBRANCH  13  14
ENDBRANCH  12  13
ENDBRANCH   1  11
TORSDOF 14
ENDMDL
