MODEL 1
REMARK VINA RESULT:    -2.606      0.000      0.000
REMARK INTER + INTRA:          -3.110
REMARK INTER:                  -3.063
REMARK INTRA:                  -0.047
REMARK UNBOUND:                -0.047
REMARK SMILES O=C([O-])CCC(=O)[O-]
REMARK SMILES IDX 4 1 2 2 1 3 3 4 5 5 6 6 7 7 8 8
REMARK H PARENT
REMARK Flexibility Score: inf
ROOT
ATOM      1  C   UNL     1       3.421   7.342  53.747  1.00  0.00     0.059 C 
ENDROOT
BRANCH   1   2
ATOM      2  C   UNL     1       3.784   7.000  55.158  1.00  0.00     0.042 C 
ATOM      3  O   UNL     1       3.876   5.796  55.514  1.00  0.00    -0.550 OA
ATOM      4  O   UNL     1       4.067   8.011  56.066  1.00  0.00    -0.550 OA
ENDBRANCH   1   2
BRANCH   1   5
ATOM      5  C   UNL     1       4.120   8.631  53.312  1.00  0.00     0.059 C 
BRANCH   5   6
ATOM      6  C   UNL     1       3.150   9.770  53.286  1.00  0.00     0.042 C 
ATOM      7  O   UNL     1       2.588  10.099  52.209  1.00  0.00    -0.550 OA
ATOM      8  O   UNL     1       2.905  10.499  54.442  1.00  0.00    -0.550 OA
ENDBRANCH   5   6
ENDBRANCH   1   5
TORSDOF 3
ENDMDL
MODEL 2
REMARK VINA RESULT:    -2.604      0.059      3.705
REMARK INTER + INTRA:          -3.108
REMARK INTER:                  -3.085
REMARK INTRA:                  -0.023
REMARK UNBOUND:                -0.047
REMARK SMILES O=C([O-])CCC(=O)[O-]
REMARK SMILES IDX 4 1 2 2 1 3 3 4 5 5 6 6 7 7 8 8
REMARK H PARENT
REMARK Flexibility Score: inf
ROOT
ATOM      1  C   UNL     1       4.134   8.572  53.275  1.00  0.00     0.059 C 
ENDROOT
BRANCH   1   2
ATOM      2  C   UNL     1       3.209   9.748  53.280  1.00  0.00     0.042 C 
ATOM      3  O   UNL     1       2.583  10.067  52.235  1.00  0.00    -0.550 OA
ATOM      4  O   UNL     1       3.002  10.464  54.453  1.00  0.00    -0.550 OA
ENDBRANCH   1   2
BRANCH   1   5
ATOM      5  C   UNL     1       3.403   7.315  53.748  1.00  0.00     0.059 C 
BRANCH   5   6
ATOM      6  C   UNL     1       3.802   6.973  55.149  1.00  0.00     0.042 C 
ATOM      7  O   UNL     1       3.834   5.771  55.524  1.00  0.00    -0.550 OA
ATOM      8  O   UNL     1       4.093   7.985  56.055  1.00  0.00    -0.550 OA
ENDBRANCH   5   6
ENDBRANCH   1   5
TORSDOF 3
ENDMDL
MODEL 3
REMARK VINA RESULT:    -2.471      0.078      1.146
REMARK INTER + INTRA:          -2.952
REMARK INTER:                  -2.895
REMARK INTRA:                  -0.057
REMARK UNBOUND:                -0.047
REMARK SMILES O=C([O-])CCC(=O)[O-]
REMARK SMILES IDX 4 1 2 2 1 3 3 4 5 5 6 6 7 7 8 8
REMARK H PARENT
REMARK Flexibility Score: inf
ROOT
ATOM      1  C   UNL     1       3.401   7.371  53.755  1.00  0.00     0.059 C 
ENDROOT
BRANCH   1   2
ATOM      2  C   UNL     1       3.790   7.000  55.151  1.00  0.00     0.042 C 
ATOM      3  O   UNL     1       3.912   5.789  55.475  1.00  0.00    -0.550 OA
ATOM      4  O   UNL     1       4.065   7.993  56.082  1.00  0.00    -0.550 OA
ENDBRANCH   1   2
BRANCH   1   5
ATOM      5  C   UNL     1       4.097   8.665  53.330  1.00  0.00     0.059 C 
BRANCH   5   6
ATOM      6  C   UNL     1       3.124   9.802  53.312  1.00  0.00     0.042 C 
ATOM      7  O   UNL     1       2.823  10.395  54.381  1.00  0.00    -0.550 OA
ATOM      8  O   UNL     1       2.514  10.174  52.121  1.00  0.00    -0.550 OA
ENDBRANCH   5   6
ENDBRANCH   1   5
TORSDOF 3
ENDMDL
MODEL 4
REMARK VINA RESULT:    -2.257     14.565     15.767
REMARK INTER + INTRA:          -2.701
REMARK INTER:                  -2.619
REMARK INTRA:                  -0.082
REMARK UNBOUND:                -0.047
REMARK SMILES O=C([O-])CCC(=O)[O-]
REMARK SMILES IDX 4 1 2 2 1 3 3 4 5 5 6 6 7 7 8 8
REMARK H PARENT
REMARK Flexibility Score: inf
ROOT
ATOM      1  C   UNL     1      11.769  20.153  55.231  1.00  0.00     0.059 C 
ENDROOT
BRANCH   1   2
ATOM      2  C   UNL     1      10.623  20.895  55.844  1.00  0.00     0.042 C 
ATOM      3  O   UNL     1      10.735  22.119  56.120  1.00  0.00    -0.550 OA
ATOM      4  O   UNL     1       9.415  20.246  56.067  1.00  0.00    -0.550 OA
ENDBRANCH   1   2
BRANCH   1   5
ATOM      5  C   UNL     1      13.021  20.290  56.099  1.00  0.00     0.059 C 
BRANCH   5   6
ATOM      6  C   UNL     1      14.016  21.195  55.443  1.00  0.00     0.042 C 
ATOM      7  O   UNL     1      15.230  21.150  55.777  1.00  0.00    -0.550 OA
ATOM      8  O   UNL     1      13.595  22.121  54.498  1.00  0.00    -0.550 OA
ENDBRANCH   5   6
ENDBRANCH   1   5
TORSDOF 3
ENDMDL
MODEL 5
REMARK VINA RESULT:    -1.753      1.806      2.814
REMARK INTER + INTRA:          -2.108
REMARK INTER:                  -2.183
REMARK INTRA:                   0.075
REMARK UNBOUND:                -0.047
REMARK SMILES O=C([O-])CCC(=O)[O-]
REMARK SMILES IDX 4 1 2 2 1 3 3 4 5 5 6 6 7 7 8 8
REMARK H PARENT
REMARK Flexibility Score: inf
ROOT
ATOM      1  C   UNL     1       2.975  10.235  54.351  1.00  0.00     0.059 C 
ENDROOT
BRANCH   1   2
ATOM      2  C   UNL     1       3.782  10.002  55.589  1.00  0.00     0.042 C 
ATOM      3  O   UNL     1       3.806   8.862  56.124  1.00  0.00    -0.550 OA
ATOM      4  O   UNL     1       4.545  11.031  56.125  1.00  0.00    -0.550 OA
ENDBRANCH   1   2
BRANCH   1   5
ATOM      5  C   UNL     1       2.447   8.911  53.798  1.00  0.00     0.059 C 
BRANCH   5   6
ATOM      6  C   UNL     1       3.543   8.150  53.122  1.00  0.00     0.042 C 
ATOM      7  O   UNL     1       4.272   8.715  52.265  1.00  0.00    -0.550 OA
ATOM      8  O   UNL     1       3.729   6.803  53.404  1.00  0.00    -0.550 OA
ENDBRANCH   5   6
ENDBRANCH   1   5
TORSDOF 3
ENDMDL
MODEL 6
REMARK VINA RESULT:    -1.463      1.363      3.837
REMARK INTER + INTRA:          -1.766
REMARK INTER:                  -2.327
REMARK INTRA:                   0.560
REMARK UNBOUND:                -0.047
REMARK SMILES O=C([O-])CCC(=O)[O-]
REMARK SMILES IDX 4 1 2 2 1 3 3 4 5 5 6 6 7 7 8 8
REMARK H PARENT
REMARK Flexibility Score: inf
ROOT
ATOM      1  C   UNL     1       2.803   9.316  54.611  1.00  0.00     0.059 C 
ENDROOT
BRANCH   1   2
ATOM      2  C   UNL     1       3.358   9.591  53.249  1.00  0.00     0.042 C 
ATOM      3  O   UNL     1       2.618  10.063  52.346  1.00  0.00    -0.550 OA
ATOM      4  O   UNL     1       4.705   9.372  52.991  1.00  0.00    -0.550 OA
ENDBRANCH   1   2
BRANCH   1   5
ATOM      5  C   UNL     1       3.758   8.427  55.409  1.00  0.00     0.059 C 
BRANCH   5   6
ATOM      6  C   UNL     1       3.671   7.010  54.939  1.00  0.00     0.042 C 
ATOM      7  O   UNL     1       3.942   6.063  55.724  1.00  0.00    -0.550 OA
ATOM      8  O   UNL     1       3.336   6.736  53.619  1.00  0.00    -0.550 OA
ENDBRANCH   5   6
ENDBRANCH   1   5
TORSDOF 3
ENDMDL
MODEL 7
REMARK VINA RESULT:    -1.161      1.947      2.887
REMARK INTER + INTRA:          -1.412
REMARK INTER:                  -1.776
REMARK INTRA:                   0.365
REMARK UNBOUND:                -0.047
REMARK SMILES O=C([O-])CCC(=O)[O-]
REMARK SMILES IDX 4 1 2 2 1 3 3 4 5 5 6 6 7 7 8 8
REMARK H PARENT
REMARK Flexibility Score: inf
ROOT
ATOM      1  C   UNL     1       4.137   7.840  54.430  1.00  0.00     0.059 C 
ENDROOT
BRANCH   1   2
ATOM      2  C   UNL     1       3.428   8.323  53.205  1.00  0.00     0.042 C 
ATOM      3  O   UNL     1       2.210   8.056  53.031  1.00  0.00    -0.550 OA
ATOM      4  O   UNL     1       4.100   9.108  52.277  1.00  0.00    -0.550 OA
ENDBRANCH   1   2
BRANCH   1   5
ATOM      5  C   UNL     1       3.567   8.513  55.680  1.00  0.00     0.059 C 
BRANCH   5   6
ATOM      6  C   UNL     1       3.559  10.000  55.516  1.00  0.00     0.042 C 
ATOM      7  O   UNL     1       4.436  10.705  56.081  1.00  0.00    -0.550 OA
ATOM      8  O   UNL     1       2.553  10.612  54.780  1.00  0.00    -0.550 OA
ENDBRANCH   5   6
ENDBRANCH   1   5
TORSDOF 3
ENDMDL
