MODEL 1
REMARK VINA RESULT:    -3.682      0.000      0.000
REMARK INTER + INTRA:          -6.690
REMARK INTER:                  -5.620
REMARK INTRA:                  -1.070
REMARK UNBOUND:                -1.070
REMARK SMILES CCCCCCCCCCC(=O)[O-]
REMARK SMILES IDX 7 1 8 2 9 3 10 4 11 5 12 6 13 7 6 8 5 9 4 10 3 11 2 12 1 13
REMARK H PARENT
REMARK Flexibility Score: inf
ROOT
ATOM      1  C   UNL     1       4.847  11.212   6.145  1.00  0.00     0.000 C 
ENDROOT
BRANCH   1   2
ATOM      2  C   UNL     1       5.431  10.263   7.205  1.00  0.00     0.000 C 
BRANCH   2   3
ATOM      3  C   UNL     1       4.776  10.448   8.585  1.00  0.00     0.006 C 
BRANCH   3   4
ATOM      4  C   UNL     1       3.721   9.376   8.888  1.00  0.00     0.053 C 
BRANCH   4   5
ATOM      5  C   UNL     1       4.370   8.038   9.056  1.00  0.00     0.041 C 
ATOM      6  O   UNL     1       5.372   7.911   9.808  1.00  0.00    -0.550 OA
ATOM      7  O   UNL     1       3.899   6.943   8.345  1.00  0.00    -0.550 OA
ENDBRANCH   4   5
ENDBRANCH   3   4
ENDBRANCH   2   3
ENDBRANCH   1   2
BRANCH   1   8
ATOM      8  C   UNL     1       4.100  12.411   6.758  1.00  0.00     0.000 C 
BRANCH   8   9
ATOM      9  C   UNL     1       4.713  13.790   6.456  1.00  0.00    -0.000 C 
BRANCH   9  10
ATOM     10  C   UNL     1       5.199  14.520   7.717  1.00  0.00    -0.000 C 
BRANCH  10  11
ATOM     11  C   UNL     1       6.323  13.732   8.408  1.00  0.00    -0.000 C 
BRANCH  11  12
ATOM     12  C   UNL     1       7.561  13.563   7.514  1.00  0.00    -0.003 C 
ATOM     13  C   UNL     1       8.576  12.575   8.089  1.00  0.00     0.004 C 
ENDBRANCH  11  12
ENDBRANCH  10  11
ENDBRANCH   9  10
ENDBRANCH   8   9
ENDBRANCH   1   8
TORSDOF 9
ENDMDL
MODEL 2
REMARK VINA RESULT:    -3.654      2.903      4.184
REMARK INTER + INTRA:          -6.647
REMARK INTER:                  -5.429
REMARK INTRA:                  -1.218
REMARK UNBOUND:                -1.070
REMARK SMILES CCCCCCCCCCC(=O)[O-]
REMARK SMILES IDX 7 1 8 2 9 3 10 4 11 5 12 6 13 7 6 8 5 9 4 10 3 11 2 12 1 13
REMARK H PARENT
REMARK Flexibility Score: inf
ROOT
ATOM      1  C   UNL     1       5.898  10.449   7.709  1.00  0.00     0.000 C 
ENDROOT
BRANCH   1   2
ATOM      2  C   UNL     1       6.835  11.091   8.746  1.00  0.00     0.000 C 
BRANCH   2   3
ATOM      3  C   UNL     1       8.279  11.226   8.231  1.00  0.00     0.006 C 
BRANCH   3   4
ATOM      4  C   UNL     1       8.346  11.557   6.735  1.00  0.00     0.053 C 
BRANCH   4   5
ATOM      5  C   UNL     1       9.342  10.675   6.050  1.00  0.00     0.041 C 
ATOM      6  O   UNL     1      10.012   9.842   6.715  1.00  0.00    -0.550 OA
ATOM      7  O   UNL     1       9.566  10.808   4.686  1.00  0.00    -0.550 OA
ENDBRANCH   4   5
ENDBRANCH   3   4
ENDBRANCH   2   3
ENDBRANCH   1   2
BRANCH   1   8
ATOM      8  C   UNL     1       4.408  10.676   8.025  1.00  0.00     0.000 C 
BRANCH   8   9
ATOM      9  C   UNL     1       3.666  11.611   7.054  1.00  0.00    -0.000 C 
BRANCH   9  10
ATOM     10  C   UNL     1       4.615  12.466   6.201  1.00  0.00    -0.000 C 
BRANCH  10  11
ATOM     11  C   UNL     1       4.591  13.933   6.658  1.00  0.00    -0.000 C 
BRANCH  11  12
ATOM     12  C   UNL     1       5.972  14.434   7.107  1.00  0.00    -0.003 C 
ATOM     13  C   UNL     1       6.040  14.717   8.608  1.00  0.00     0.004 C 
ENDBRANCH  11  12
ENDBRANCH  10  11
ENDBRANCH   9  10
ENDBRANCH   8   9
ENDBRANCH   1   8
TORSDOF 9
ENDMDL
MODEL 3
REMARK VINA RESULT:    -3.625      2.527      4.280
REMARK INTER + INTRA:          -6.602
REMARK INTER:                  -6.181
REMARK INTRA:                  -0.421
REMARK UNBOUND:                -1.070
REMARK SMILES CCCCCCCCCCC(=O)[O-]
REMARK SMILES IDX 7 1 8 2 9 3 10 4 11 5 12 6 13 7 6 8 5 9 4 10 3 11 2 12 1 13
REMARK H PARENT
REMARK Flexibility Score: inf
ROOT
ATOM      1  C   UNL     1       4.128   8.125   8.691  1.00  0.00     0.000 C 
ENDROOT
BRANCH   1   2
ATOM      2  C   UNL     1       4.476   7.005   9.686  1.00  0.00     0.000 C 
BRANCH   2   3
ATOM      3  C   UNL     1       3.680   5.715   9.423  1.00  0.00     0.006 C 
BRANCH   3   4
ATOM      4  C   UNL     1       4.113   5.005   8.134  1.00  0.00     0.053 C 
BRANCH   4   5
ATOM      5  C   UNL     1       2.982   4.199   7.578  1.00  0.00     0.041 C 
ATOM      6  O   UNL     1       2.686   4.283   6.357  1.00  0.00    -0.550 OA
ATOM      7  O   UNL     1       2.225   3.393   8.417  1.00  0.00    -0.550 OA
ENDBRANCH   4   5
ENDBRANCH   3   4
ENDBRANCH   2   3
ENDBRANCH   1   2
BRANCH   1   8
ATOM      8  C   UNL     1       4.099   9.520   9.344  1.00  0.00     0.000 C 
BRANCH   8   9
ATOM      9  C   UNL     1       4.805  10.631   8.547  1.00  0.00    -0.000 C 
BRANCH   9  10
ATOM     10  C   UNL     1       5.115  10.227   7.098  1.00  0.00    -0.000 C 
BRANCH  10  11
ATOM     11  C   UNL     1       4.996  11.434   6.154  1.00  0.00    -0.000 C 
BRANCH  11  12
ATOM     12  C   UNL     1       4.202  12.593   6.777  1.00  0.00    -0.003 C 
ATOM     13  C   UNL     1       4.691  13.964   6.309  1.00  0.00     0.004 C 
ENDBRANCH  11  12
ENDBRANCH  10  11
ENDBRANCH   9  10
ENDBRANCH   8   9
ENDBRANCH   1   8
TORSDOF 9
ENDMDL
MODEL 4
REMARK VINA RESULT:    -3.432     16.097     17.555
REMARK INTER + INTRA:          -6.308
REMARK INTER:                  -5.662
REMARK INTRA:                  -0.646
REMARK UNBOUND:                -1.070
REMARK SMILES CCCCCCCCCCC(=O)[O-]
REMARK SMILES IDX 7 1 8 2 9 3 10 4 11 5 12 6 13 7 6 8 5 9 4 10 3 11 2 12 1 13
REMARK H PARENT
REMARK Flexibility Score: inf
ROOT
ATOM      1  C   UNL     1       3.760   3.579  -8.950  1.00  0.00     0.000 C 
ENDROOT
BRANCH   1   2
ATOM      2  C   UNL     1       5.283   3.543  -8.738  1.00  0.00     0.000 C 
BRANCH   2   3
ATOM      3  C   UNL     1       5.691   2.660  -7.546  1.00  0.00     0.006 C 
BRANCH   3   4
ATOM      4  C   UNL     1       5.077   1.256  -7.612  1.00  0.00     0.053 C 
BRANCH   4   5
ATOM      5  C   UNL     1       4.667   0.801  -6.247  1.00  0.00     0.041 C 
ATOM      6  O   UNL     1       5.380   1.078  -5.247  1.00  0.00    -0.550 OA
ATOM      7  O   UNL     1       3.524   0.029  -6.085  1.00  0.00    -0.550 OA
ENDBRANCH   4   5
ENDBRANCH   3   4
ENDBRANCH   2   3
ENDBRANCH   1   2
BRANCH   1   8
ATOM      8  C   UNL     1       3.312   4.718  -9.885  1.00  0.00     0.000 C 
BRANCH   8   9
ATOM      9  C   UNL     1       2.003   5.420  -9.481  1.00  0.00    -0.000 C 
BRANCH   9  10
ATOM     10  C   UNL     1       2.166   6.937  -9.303  1.00  0.00    -0.000 C 
BRANCH  10  11
ATOM     11  C   UNL     1       3.652   7.329  -9.272  1.00  0.00    -0.000 C 
BRANCH  11  12
ATOM     12  C   UNL     1       4.027   8.120  -8.010  1.00  0.00    -0.003 C 
ATOM     13  C   UNL     1       5.302   7.603  -7.344  1.00  0.00     0.004 C 
ENDBRANCH  11  12
ENDBRANCH  10  11
ENDBRANCH   9  10
ENDBRANCH   8   9
ENDBRANCH   1   8
TORSDOF 9
ENDMDL
MODEL 5
REMARK VINA RESULT:    -3.420     16.331     17.830
REMARK INTER + INTRA:          -6.290
REMARK INTER:                  -5.517
REMARK INTRA:                  -0.773
REMARK UNBOUND:                -1.070
REMARK SMILES CCCCCCCCCCC(=O)[O-]
REMARK SMILES IDX 7 1 8 2 9 3 10 4 11 5 12 6 13 7 6 8 5 9 4 10 3 11 2 12 1 13
REMARK H PARENT
REMARK Flexibility Score: inf
ROOT
ATOM      1  C   UNL     1       4.044   3.131  -9.209  1.00  0.00     0.000 C 
ENDROOT
BRANCH   1   2
ATOM      2  C   UNL     1       5.286   3.467  -8.366  1.00  0.00     0.000 C 
BRANCH   2   3
ATOM      3  C   UNL     1       5.937   2.216  -7.753  1.00  0.00     0.006 C 
BRANCH   3   4
ATOM      4  C   UNL     1       4.989   1.011  -7.719  1.00  0.00     0.053 C 
BRANCH   4   5
ATOM      5  C   UNL     1       4.666   0.640  -6.305  1.00  0.00     0.041 C 
ATOM      6  O   UNL     1       3.718  -0.151  -6.059  1.00  0.00    -0.550 OA
ATOM      7  O   UNL     1       5.381   1.207  -5.258  1.00  0.00    -0.550 OA
ENDBRANCH   4   5
ENDBRANCH   3   4
ENDBRANCH   2   3
ENDBRANCH   1   2
BRANCH   1   8
ATOM      8  C   UNL     1       3.510   4.341  -9.998  1.00  0.00     0.000 C 
BRANCH   8   9
ATOM      9  C   UNL     1       2.102   4.815  -9.597  1.00  0.00    -0.000 C 
BRANCH   9  10
ATOM     10  C   UNL     1       2.050   6.307  -9.236  1.00  0.00    -0.000 C 
BRANCH  10  11
ATOM     11  C   UNL     1       3.368   7.006  -9.605  1.00  0.00    -0.000 C 
BRANCH  11  12
ATOM     12  C   UNL     1       3.935   7.843  -8.448  1.00  0.00    -0.003 C 
ATOM     13  C   UNL     1       5.180   7.217  -7.819  1.00  0.00     0.004 C 
ENDBRANCH  11  12
ENDBRANCH  10  11
ENDBRANCH   9  10
ENDBRANCH   8   9
ENDBRANCH   1   8
TORSDOF 9
ENDMDL
MODEL 6
REMARK VINA RESULT:    -3.412      2.728      4.678
REMARK INTER + INTRA:          -6.278
REMARK INTER:                  -5.044
REMARK INTRA:                  -1.233
REMARK UNBOUND:                -1.070
REMARK SMILES CCCCCCCCCCC(=O)[O-]
REMARK SMILES IDX 7 1 8 2 9 3 10 4 11 5 12 6 13 7 6 8 5 9 4 10 3 11 2 12 1 13
REMARK H PARENT
REMARK Flexibility Score: inf
ROOT
ATOM      1  C   UNL     1       5.996  13.905   7.099  1.00  0.00     0.000 C 
ENDROOT
BRANCH   1   2
ATOM      2  C   UNL     1       6.367  13.683   8.575  1.00  0.00     0.000 C 
BRANCH   2   3
ATOM      3  C   UNL     1       7.832  13.250   8.757  1.00  0.00     0.006 C 
BRANCH   3   4
ATOM      4  C   UNL     1       8.110  11.851   8.192  1.00  0.00     0.053 C 
BRANCH   4   5
ATOM      5  C   UNL     1       8.953  11.945   6.959  1.00  0.00     0.041 C 
ATOM      6  O   UNL     1       9.612  12.991   6.721  1.00  0.00    -0.550 OA
ATOM      7  O   UNL     1       8.972  10.896   6.049  1.00  0.00    -0.550 OA
ENDBRANCH   4   5
ENDBRANCH   3   4
ENDBRANCH   2   3
ENDBRANCH   1   2
BRANCH   1   8
ATOM      8  C   UNL     1       4.483  13.798   6.838  1.00  0.00     0.000 C 
BRANCH   8   9
ATOM      9  C   UNL     1       3.924  12.364   6.797  1.00  0.00    -0.000 C 
BRANCH   9  10
ATOM     10  C   UNL     1       4.898  11.358   6.165  1.00  0.00    -0.000 C 
BRANCH  10  11
ATOM     11  C   UNL     1       5.154  10.174   7.110  1.00  0.00    -0.000 C 
BRANCH  11  12
ATOM     12  C   UNL     1       4.240  10.198   8.345  1.00  0.00    -0.003 C 
ATOM     13  C   UNL     1       5.022  10.201   9.659  1.00  0.00     0.004 C 
ENDBRANCH  11  12
ENDBRANCH  10  11
ENDBRANCH   9  10
ENDBRANCH   8   9
ENDBRANCH   1   8
TORSDOF 9
ENDMDL
MODEL 7
REMARK VINA RESULT:    -3.409      1.360      2.490
REMARK INTER + INTRA:          -6.273
REMARK INTER:                  -5.274
REMARK INTRA:                  -0.999
REMARK UNBOUND:                -1.070
REMARK SMILES CCCCCCCCCCC(=O)[O-]
REMARK SMILES IDX 7 1 8 2 9 3 10 4 11 5 12 6 13 7 6 8 5 9 4 10 3 11 2 12 1 13
REMARK H PARENT
REMARK Flexibility Score: inf
ROOT
ATOM      1  C   UNL     1       4.730  13.556   6.391  1.00  0.00     0.000 C 
ENDROOT
BRANCH   1   2
ATOM      2  C   UNL     1       4.053  12.232   6.783  1.00  0.00     0.000 C 
BRANCH   2   3
ATOM      3  C   UNL     1       4.867  11.002   6.345  1.00  0.00     0.006 C 
BRANCH   3   4
ATOM      4  C   UNL     1       5.629  10.353   7.507  1.00  0.00     0.053 C 
BRANCH   4   5
ATOM      5  C   UNL     1       4.764  10.284   8.725  1.00  0.00     0.041 C 
ATOM      6  O   UNL     1       5.026  10.997   9.729  1.00  0.00    -0.550 OA
ATOM      7  O   UNL     1       3.696   9.397   8.770  1.00  0.00    -0.550 OA
ENDBRANCH   4   5
ENDBRANCH   3   4
ENDBRANCH   2   3
ENDBRANCH   1   2
BRANCH   1   8
ATOM      8  C   UNL     1       5.257  14.343   7.605  1.00  0.00     0.000 C 
BRANCH   8   9
ATOM      9  C   UNL     1       6.627  13.885   8.138  1.00  0.00    -0.000 C 
BRANCH   9  10
ATOM     10  C   UNL     1       7.804  14.426   7.313  1.00  0.00    -0.000 C 
BRANCH  10  11
ATOM     11  C   UNL     1       9.075  13.600   7.563  1.00  0.00    -0.000 C 
BRANCH  11  12
ATOM     12  C   UNL     1       8.793  12.092   7.637  1.00  0.00    -0.003 C 
ATOM     13  C   UNL     1       8.988  11.387   6.295  1.00  0.00     0.004 C 
ENDBRANCH  11  12
ENDBRANCH  10  11
ENDBRANCH   9  10
ENDBRANCH   8   9
ENDBRANCH   1   8
TORSDOF 9
ENDMDL
MODEL 8
REMARK VINA RESULT:    -3.361      3.382      6.851
REMARK INTER + INTRA:          -6.200
REMARK INTER:                  -5.946
REMARK INTRA:                  -0.255
REMARK UNBOUND:                -1.070
REMARK SMILES CCCCCCCCCCC(=O)[O-]
REMARK SMILES IDX 7 1 8 2 9 3 10 4 11 5 12 6 13 7 6 8 5 9 4 10 3 11 2 12 1 13
REMARK H PARENT
REMARK Flexibility Score: inf
ROOT
ATOM      1  C   UNL     1       4.766   9.789   7.799  1.00  0.00     0.000 C 
ENDROOT
BRANCH   1   2
ATOM      2  C   UNL     1       4.089  11.141   7.517  1.00  0.00     0.000 C 
BRANCH   2   3
ATOM      3  C   UNL     1       4.820  11.952   6.434  1.00  0.00     0.006 C 
BRANCH   3   4
ATOM      4  C   UNL     1       4.597  13.463   6.573  1.00  0.00     0.053 C 
BRANCH   4   5
ATOM      5  C   UNL     1       5.582  14.049   7.534  1.00  0.00     0.041 C 
ATOM      6  O   UNL     1       6.816  13.863   7.368  1.00  0.00    -0.550 OA
ATOM      7  O   UNL     1       5.136  14.760   8.640  1.00  0.00    -0.550 OA
ENDBRANCH   4   5
ENDBRANCH   3   4
ENDBRANCH   2   3
ENDBRANCH   1   2
BRANCH   1   8
ATOM      8  C   UNL     1       3.955   8.901   8.759  1.00  0.00     0.000 C 
BRANCH   8   9
ATOM      9  C   UNL     1       4.554   7.509   9.029  1.00  0.00    -0.000 C 
BRANCH   9  10
ATOM     10  C   UNL     1       3.508   6.484   9.493  1.00  0.00    -0.000 C 
BRANCH  10  11
ATOM     11  C   UNL     1       3.776   5.105   8.869  1.00  0.00    -0.000 C 
BRANCH  11  12
ATOM     12  C   UNL     1       2.560   4.555   8.109  1.00  0.00    -0.003 C 
ATOM     13  C   UNL     1       2.908   4.083   6.697  1.00  0.00     0.004 C 
ENDBRANCH  11  12
ENDBRANCH  10  11
ENDBRANCH   9  10
ENDBRANCH   8   9
ENDBRANCH   1   8
TORSDOF 9
ENDMDL
MODEL 9
REMARK VINA RESULT:    -3.298     15.926     17.328
REMARK INTER + INTRA:          -6.103
REMARK INTER:                  -5.439
REMARK INTRA:                  -0.664
REMARK UNBOUND:                -1.070
REMARK SMILES CCCCCCCCCCC(=O)[O-]
REMARK SMILES IDX 7 1 8 2 9 3 10 4 11 5 12 6 13 7 6 8 5 9 4 10 3 11 2 12 1 13
REMARK H PARENT
REMARK Flexibility Score: inf
ROOT
ATOM      1  C   UNL     1       3.577   4.653  -9.497  1.00  0.00     0.000 C 
ENDROOT
BRANCH   1   2
ATOM      2  C   UNL     1       3.715   3.261  -8.859  1.00  0.00     0.000 C 
BRANCH   2   3
ATOM      3  C   UNL     1       5.088   3.049  -8.197  1.00  0.00     0.006 C 
BRANCH   3   4
ATOM      4  C   UNL     1       5.294   1.610  -7.708  1.00  0.00     0.053 C 
BRANCH   4   5
ATOM      5  C   UNL     1       4.877   1.480  -6.277  1.00  0.00     0.041 C 
ATOM      6  O   UNL     1       3.783   0.931  -5.984  1.00  0.00    -0.550 OA
ATOM      7  O   UNL     1       5.674   2.010  -5.271  1.00  0.00    -0.550 OA
ENDBRANCH   4   5
ENDBRANCH   3   4
ENDBRANCH   2   3
ENDBRANCH   1   2
BRANCH   1   8
ATOM      8  C   UNL     1       2.127   5.170  -9.502  1.00  0.00     0.000 C 
BRANCH   8   9
ATOM      9  C   UNL     1       1.972   6.689  -9.307  1.00  0.00    -0.000 C 
BRANCH   9  10
ATOM     10  C   UNL     1       3.306   7.445  -9.393  1.00  0.00    -0.000 C 
BRANCH  10  11
ATOM     11  C   UNL     1       3.502   8.353  -8.169  1.00  0.00    -0.000 C 
BRANCH  11  12
ATOM     12  C   UNL     1       4.972   8.445  -7.732  1.00  0.00    -0.003 C 
ATOM     13  C   UNL     1       5.655   7.079  -7.662  1.00  0.00     0.004 C 
ENDBRANCH  11  12
ENDBRANCH  10  11
ENDBRANCH   9  10
ENDBRANCH   8   9
ENDBRANCH   1   8
TORSDOF 9
ENDMDL
