MODEL 1
REMARK VINA RESULT:    -4.636      0.000      0.000
REMARK INTER + INTRA:          -7.009
REMARK INTER:                  -7.075
REMARK INTRA:                   0.066
REMARK UNBOUND:                 0.066
REMARK SMILES CC1=CCC[C@@H](C)C(=O)C[C@H](C(C)C)C(=O)C1
REMARK SMILES IDX 8 1 9 2 6 3 7 4 5 5 4 6 3 7 2 8 1 9 10 11 11 12 15 13 16 14
REMARK SMILES IDX 17 15 12 17 13 18 14 19
REMARK H PARENT
REMARK Flexibility Score: 70.00
ROOT
ATOM      1  C   UNL     1     -12.695  13.662 -29.217  1.00  0.00     0.136 C 
ATOM      2  O   UNL     1     -12.618  14.485 -28.314  1.00  0.00    -0.299 OA
ENDROOT
BRANCH   1   3
ATOM      3  C   UNL     1     -12.618  14.108 -30.667  1.00  0.00     0.053 C 
ATOM      4  C   UNL     1     -11.226  14.633 -31.053  1.00  0.00     0.016 C 
BRANCH   3   5
ATOM      5  C   UNL     1     -13.741  15.105 -31.046  1.00  0.00     0.015 C 
BRANCH   5   6
ATOM      6  C   UNL     1     -15.123  14.507 -31.394  1.00  0.00     0.028 C 
BRANCH   6   7
ATOM      7  C   UNL     1     -16.110  14.421 -30.252  1.00  0.00    -0.028 C 
ATOM      8  C   UNL     1     -16.691  13.291 -29.784  1.00  0.00    -0.070 CG0
ATOM      9  C   UNL     1     -17.725  13.431 -28.694  1.00  0.00     0.039 C 
ATOM     10  G   UNL     1     -16.366  11.904 -30.304  1.00  0.00     0.000 G0
ENDBRANCH   6   7
ENDBRANCH   5   6
ENDBRANCH   3   5
ENDBRANCH   1   3
BRANCH   1  11
ATOM     11  C   UNL     1     -12.841  12.199 -28.859  1.00  0.00     0.087 C 
BRANCH  11  12
ATOM     12  C   UNL     1     -14.319  11.806 -28.612  1.00  0.00     0.066 C 
BRANCH  12  13
ATOM     13  C   UNL     1     -14.991  11.406 -29.920  1.00  0.00     0.140 C 
ATOM     14  O   UNL     1     -14.418  10.637 -30.679  1.00  0.00    -0.299 OA
BRANCH  13  15
ATOM     15  C   UNL     1     -16.366  11.894 -30.309  1.00  0.00     0.106 CG0
ATOM     16  G   UNL     1     -16.680  13.285 -29.791  1.00  0.00     0.000 G0
ENDBRANCH  13  15
ENDBRANCH  12  13
BRANCH  12  17
ATOM     17  C   UNL     1     -14.467  10.730 -27.492  1.00  0.00    -0.006 C 
ATOM     18  C   UNL     1     -13.279  10.771 -26.518  1.00  0.00     0.008 C 
ATOM     19  C   UNL     1     -15.793  10.794 -26.715  1.00  0.00     0.008 C 
ENDBRANCH  12  17
ENDBRANCH  11  12
ENDBRANCH   1  11
TORSDOF 1
ENDMDL
MODEL 2
REMARK VINA RESULT:    -4.421      1.132      1.499
REMARK INTER + INTRA:          -6.681
REMARK INTER:                  -6.494
REMARK INTRA:                  -0.187
REMARK UNBOUND:                 0.066
REMARK SMILES CC1=CCC[C@@H](C)C(=O)C[C@H](C(C)C)C(=O)C1
REMARK SMILES IDX 8 1 9 2 6 3 7 4 5 5 4 6 3 7 2 8 1 9 10 11 11 12 15 13 16 14
REMARK SMILES IDX 17 15 12 17 13 18 14 19
REMARK H PARENT
REMARK Flexibility Score: 70.00
ROOT
ATOM      1  C   UNL     1     -12.603  13.610 -29.572  1.00  0.00     0.136 C 
ATOM      2  O   UNL     1     -12.547  14.474 -28.707  1.00  0.00    -0.299 OA
ENDROOT
BRANCH   1   3
ATOM      3  C   UNL     1     -12.491  13.988 -31.039  1.00  0.00     0.053 C 
ATOM      4  C   UNL     1     -11.180  14.725 -31.363  1.00  0.00     0.016 C 
BRANCH   3   5
ATOM      5  C   UNL     1     -13.732  14.757 -31.555  1.00  0.00     0.015 C 
BRANCH   5   6
ATOM      6  C   UNL     1     -15.051  13.961 -31.673  1.00  0.00     0.028 C 
BRANCH   6   7
ATOM      7  C   UNL     1     -16.024  14.124 -30.527  1.00  0.00    -0.028 C 
ATOM      8  C   UNL     1     -16.344  13.179 -29.611  1.00  0.00    -0.070 CG0
ATOM      9  C   UNL     1     -17.413  13.513 -28.600  1.00  0.00     0.039 C 
ATOM     10  G   UNL     1     -15.695  11.809 -29.559  1.00  0.00     0.000 G0
ENDBRANCH   6   7
ENDBRANCH   5   6
ENDBRANCH   3   5
ENDBRANCH   1   3
BRANCH   1  11
ATOM     11  C   UNL     1     -12.758  12.166 -29.150  1.00  0.00     0.087 C 
BRANCH  11  12
ATOM     12  C   UNL     1     -13.626  12.023 -27.874  1.00  0.00     0.066 C 
BRANCH  12  13
ATOM     13  C   UNL     1     -15.018  11.512 -28.229  1.00  0.00     0.140 C 
ATOM     14  O   UNL     1     -15.644  10.858 -27.408  1.00  0.00    -0.299 OA
BRANCH  13  15
ATOM     15  C   UNL     1     -15.679  11.812 -29.553  1.00  0.00     0.106 CG0
ATOM     16  G   UNL     1     -16.334  13.180 -29.603  1.00  0.00     0.000 G0
ENDBRANCH  13  15
ENDBRANCH  12  13
BRANCH  12  17
ATOM     17  C   UNL     1     -12.924  11.174 -26.771  1.00  0.00    -0.006 C 
ATOM     18  C   UNL     1     -12.197   9.963 -27.376  1.00  0.00     0.008 C 
ATOM     19  C   UNL     1     -11.967  11.968 -25.864  1.00  0.00     0.008 C 
ENDBRANCH  12  17
ENDBRANCH  11  12
ENDBRANCH   1  11
TORSDOF 1
ENDMDL
MODEL 3
REMARK VINA RESULT:    -4.381      2.150      3.806
REMARK INTER + INTRA:          -6.621
REMARK INTER:                  -6.607
REMARK INTRA:                  -0.014
REMARK UNBOUND:                 0.066
REMARK SMILES CC1=CCC[C@@H](C)C(=O)C[C@H](C(C)C)C(=O)C1
REMARK SMILES IDX 8 1 9 2 6 3 7 4 5 5 4 6 3 7 2 8 1 9 10 11 11 12 15 13 16 14
REMARK SMILES IDX 17 15 12 17 13 18 14 19
REMARK H PARENT
REMARK Flexibility Score: 70.00
ROOT
ATOM      1  C   UNL     1     -15.818  14.253 -31.384  1.00  0.00     0.136 C 
ATOM      2  O   UNL     1     -16.630  14.226 -32.299  1.00  0.00    -0.299 OA
ENDROOT
BRANCH   1   3
ATOM      3  C   UNL     1     -14.385  14.683 -31.646  1.00  0.00     0.053 C 
ATOM      4  C   UNL     1     -13.690  13.816 -32.708  1.00  0.00     0.016 C 
BRANCH   3   5
ATOM      5  C   UNL     1     -13.548  14.794 -30.347  1.00  0.00     0.015 C 
BRANCH   5   6
ATOM      6  C   UNL     1     -12.670  13.580 -29.972  1.00  0.00     0.028 C 
BRANCH   6   7
ATOM      7  C   UNL     1     -12.462  13.349 -28.492  1.00  0.00    -0.028 C 
ATOM      8  C   UNL     1     -13.131  12.458 -27.722  1.00  0.00    -0.070 CG0
ATOM      9  C   UNL     1     -12.838  12.449 -26.242  1.00  0.00     0.039 C 
ATOM     10  G   UNL     1     -14.159  11.485 -28.267  1.00  0.00     0.000 G0
ENDBRANCH   6   7
ENDBRANCH   5   6
ENDBRANCH   3   5
ENDBRANCH   1   3
BRANCH   1  11
ATOM     11  C   UNL     1     -16.277  13.877 -29.992  1.00  0.00     0.087 C 
BRANCH  11  12
ATOM     12  C   UNL     1     -16.194  12.349 -29.746  1.00  0.00     0.066 C 
BRANCH  12  13
ATOM     13  C   UNL     1     -15.566  12.060 -28.388  1.00  0.00     0.140 C 
ATOM     14  O   UNL     1     -16.206  12.283 -27.370  1.00  0.00    -0.299 OA
BRANCH  13  15
ATOM     15  C   UNL     1     -14.184  11.469 -28.243  1.00  0.00     0.106 CG0
ATOM     16  G   UNL     1     -13.156  12.459 -27.730  1.00  0.00     0.000 G0
ENDBRANCH  13  15
ENDBRANCH  12  13
BRANCH  12  17
ATOM     17  C   UNL     1     -17.569  11.642 -29.949  1.00  0.00    -0.006 C 
ATOM     18  C   UNL     1     -17.568  10.232 -29.336  1.00  0.00     0.008 C 
ATOM     19  C   UNL     1     -18.782  12.440 -29.440  1.00  0.00     0.008 C 
ENDBRANCH  12  17
ENDBRANCH  11  12
ENDBRANCH   1  11
TORSDOF 1
ENDMDL
MODEL 4
REMARK VINA RESULT:    -4.318      1.982      4.816
REMARK INTER + INTRA:          -6.524
REMARK INTER:                  -6.586
REMARK INTRA:                   0.062
REMARK UNBOUND:                 0.066
REMARK SMILES CC1=CCC[C@@H](C)C(=O)C[C@H](C(C)C)C(=O)C1
REMARK SMILES IDX 8 1 9 2 6 3 7 4 5 5 4 6 3 7 2 8 1 9 10 11 11 12 15 13 16 14
REMARK SMILES IDX 17 15 12 17 13 18 14 19
REMARK H PARENT
REMARK Flexibility Score: 70.00
ROOT
ATOM      1  C   UNL     1     -16.735  13.216 -29.490  1.00  0.00     0.136 C 
ATOM      2  O   UNL     1     -16.930  14.228 -28.830  1.00  0.00    -0.299 OA
ENDROOT
BRANCH   1   3
ATOM      3  C   UNL     1     -17.560  11.966 -29.236  1.00  0.00     0.053 C 
ATOM      4  C   UNL     1     -19.040  12.146 -29.612  1.00  0.00     0.016 C 
BRANCH   3   5
ATOM      5  C   UNL     1     -17.388  11.419 -27.798  1.00  0.00     0.015 C 
BRANCH   5   6
ATOM      6  C   UNL     1     -16.086  10.645 -27.492  1.00  0.00     0.028 C 
BRANCH   6   7
ATOM      7  C   UNL     1     -14.974  11.451 -26.859  1.00  0.00    -0.028 C 
ATOM      8  C   UNL     1     -13.714  11.586 -27.338  1.00  0.00    -0.070 CG0
ATOM      9  C   UNL     1     -12.724  12.361 -26.504  1.00  0.00     0.039 C 
ATOM     10  G   UNL     1     -13.250  10.992 -28.654  1.00  0.00     0.000 G0
ENDBRANCH   6   7
ENDBRANCH   5   6
ENDBRANCH   3   5
ENDBRANCH   1   3
BRANCH   1  11
ATOM     11  C   UNL     1     -15.681  13.246 -30.575  1.00  0.00     0.087 C 
BRANCH  11  12
ATOM     12  C   UNL     1     -14.254  13.045 -30.004  1.00  0.00     0.066 C 
BRANCH  12  13
ATOM     13  C   UNL     1     -13.941  11.560 -29.859  1.00  0.00     0.140 C 
ATOM     14  O   UNL     1     -14.249  10.791 -30.758  1.00  0.00    -0.299 OA
BRANCH  13  15
ATOM     15  C   UNL     1     -13.226  10.996 -28.655  1.00  0.00     0.106 CG0
ATOM     16  G   UNL     1     -13.713  11.573 -27.339  1.00  0.00     0.000 G0
ENDBRANCH  13  15
ENDBRANCH  12  13
BRANCH  12  17
ATOM     17  C   UNL     1     -13.175  13.823 -30.818  1.00  0.00    -0.006 C 
ATOM     18  C   UNL     1     -13.821  14.845 -31.767  1.00  0.00     0.008 C 
ATOM     19  C   UNL     1     -12.094  14.503 -29.961  1.00  0.00     0.008 C 
ENDBRANCH  12  17
ENDBRANCH  11  12
ENDBRANCH   1  11
TORSDOF 1
ENDMDL
MODEL 5
REMARK VINA RESULT:    -4.153      1.698      3.984
REMARK INTER + INTRA:          -6.273
REMARK INTER:                  -6.194
REMARK INTRA:                  -0.079
REMARK UNBOUND:                 0.066
REMARK SMILES CC1=CCC[C@@H](C)C(=O)C[C@H](C(C)C)C(=O)C1
REMARK SMILES IDX 8 1 9 2 6 3 7 4 5 5 4 6 3 7 2 8 1 9 10 11 11 12 15 13 16 14
REMARK SMILES IDX 17 15 12 17 13 18 14 19
REMARK H PARENT
REMARK Flexibility Score: 70.00
ROOT
ATOM      1  C   UNL     1     -12.420  12.714 -28.711  1.00  0.00     0.136 C 
ATOM      2  O   UNL     1     -11.688  11.832 -29.141  1.00  0.00    -0.299 OA
ENDROOT
BRANCH   1   3
ATOM      3  C   UNL     1     -12.921  12.661 -27.278  1.00  0.00     0.053 C 
ATOM      4  C   UNL     1     -11.935  11.957 -26.330  1.00  0.00     0.016 C 
BRANCH   3   5
ATOM      5  C   UNL     1     -14.351  12.078 -27.165  1.00  0.00     0.015 C 
BRANCH   5   6
ATOM      6  C   UNL     1     -14.947  11.431 -28.436  1.00  0.00     0.028 C 
BRANCH   6   7
ATOM      7  C   UNL     1     -16.215  12.064 -28.964  1.00  0.00    -0.028 C 
ATOM      8  C   UNL     1     -16.419  12.505 -30.229  1.00  0.00    -0.070 CG0
ATOM      9  C   UNL     1     -17.727  13.195 -30.531  1.00  0.00     0.039 C 
ATOM     10  G   UNL     1     -15.403  12.351 -31.344  1.00  0.00     0.000 G0
ENDBRANCH   6   7
ENDBRANCH   5   6
ENDBRANCH   3   5
ENDBRANCH   1   3
BRANCH   1  11
ATOM     11  C   UNL     1     -12.790  13.862 -29.623  1.00  0.00     0.087 C 
BRANCH  11  12
ATOM     12  C   UNL     1     -12.998  13.398 -31.087  1.00  0.00     0.066 C 
BRANCH  12  13
ATOM     13  C   UNL     1     -14.466  13.511 -31.480  1.00  0.00     0.140 C 
ATOM     14  O   UNL     1     -14.884  14.562 -31.943  1.00  0.00    -0.299 OA
BRANCH  13  15
ATOM     15  C   UNL     1     -15.431  12.356 -31.354  1.00  0.00     0.106 CG0
ATOM     16  G   UNL     1     -16.413  12.514 -30.209  1.00  0.00     0.000 G0
ENDBRANCH  13  15
ENDBRANCH  12  13
BRANCH  12  17
ATOM     17  C   UNL     1     -12.039  14.123 -32.081  1.00  0.00    -0.006 C 
ATOM     18  C   UNL     1     -10.880  14.807 -31.340  1.00  0.00     0.008 C 
ATOM     19  C   UNL     1     -11.495  13.231 -33.210  1.00  0.00     0.008 C 
ENDBRANCH  12  17
ENDBRANCH  11  12
ENDBRANCH   1  11
TORSDOF 1
ENDMDL
MODEL 6
REMARK VINA RESULT:    -3.843      1.827      4.751
REMARK INTER + INTRA:          -5.799
REMARK INTER:                  -6.724
REMARK INTRA:                   0.925
REMARK UNBOUND:                 0.066
REMARK SMILES CC1=CCC[C@@H](C)C(=O)C[C@H](C(C)C)C(=O)C1
REMARK SMILES IDX 8 1 9 2 6 3 7 4 5 5 4 6 3 7 2 8 1 9 10 11 11 12 15 13 16 14
REMARK SMILES IDX 17 15 12 17 13 18 14 19
REMARK H PARENT
REMARK Flexibility Score: 70.00
ROOT
ATOM      1  C   UNL     1     -15.772  13.341 -31.695  1.00  0.00     0.136 C 
ATOM      2  O   UNL     1     -16.115  13.894 -32.731  1.00  0.00    -0.299 OA
ENDROOT
BRANCH   1   3
ATOM      3  C   UNL     1     -16.780  13.103 -30.585  1.00  0.00     0.053 C 
ATOM      4  C   UNL     1     -16.600  14.070 -29.402  1.00  0.00     0.016 C 
BRANCH   3   5
ATOM      5  C   UNL     1     -16.826  11.625 -30.125  1.00  0.00     0.015 C 
BRANCH   5   6
ATOM      6  C   UNL     1     -15.477  10.956 -29.776  1.00  0.00     0.028 C 
BRANCH   6   7
ATOM      7  C   UNL     1     -14.937  11.244 -28.393  1.00  0.00    -0.028 C 
ATOM      8  C   UNL     1     -13.718  11.757 -28.104  1.00  0.00    -0.070 CG0
ATOM      9  C   UNL     1     -13.334  11.880 -26.650  1.00  0.00     0.039 C 
ATOM     10  G   UNL     1     -12.722  12.198 -29.160  1.00  0.00     0.000 G0
ENDBRANCH   6   7
ENDBRANCH   5   6
ENDBRANCH   3   5
ENDBRANCH   1   3
BRANCH   1  11
ATOM     11  C   UNL     1     -14.338  12.878 -31.557  1.00  0.00     0.087 C 
BRANCH  11  12
ATOM     12  C   UNL     1     -13.416  13.996 -31.009  1.00  0.00     0.066 C 
BRANCH  12  13
ATOM     13  C   UNL     1     -12.926  13.648 -29.609  1.00  0.00     0.140 C 
ATOM     14  O   UNL     1     -12.723  14.545 -28.803  1.00  0.00    -0.299 OA
BRANCH  13  15
ATOM     15  C   UNL     1     -12.713  12.223 -29.155  1.00  0.00     0.106 CG0
ATOM     16  G   UNL     1     -13.731  11.759 -28.130  1.00  0.00     0.000 G0
ENDBRANCH  13  15
ENDBRANCH  12  13
BRANCH  12  17
ATOM     17  C   UNL     1     -12.259  14.346 -31.995  1.00  0.00    -0.006 C 
ATOM     18  C   UNL     1     -11.039  14.908 -31.247  1.00  0.00     0.008 C 
ATOM     19  C   UNL     1     -11.831  13.190 -32.916  1.00  0.00     0.008 C 
ENDBRANCH  12  17
ENDBRANCH  11  12
ENDBRANCH   1  11
TORSDOF 1
ENDMDL
MODEL 7
REMARK VINA RESULT:    -3.797      1.687      3.910
REMARK INTER + INTRA:          -5.729
REMARK INTER:                  -5.930
REMARK INTRA:                   0.201
REMARK UNBOUND:                 0.066
REMARK SMILES CC1=CCC[C@@H](C)C(=O)C[C@H](C(C)C)C(=O)C1
REMARK SMILES IDX 8 1 9 2 6 3 7 4 5 5 4 6 3 7 2 8 1 9 10 11 11 12 15 13 16 14
REMARK SMILES IDX 17 15 12 17 13 18 14 19
REMARK H PARENT
REMARK Flexibility Score: 70.00
ROOT
ATOM      1  C   UNL     1     -13.609  10.595 -29.454  1.00  0.00     0.136 C 
ATOM      2  O   UNL     1     -12.853  10.821 -30.389  1.00  0.00    -0.299 OA
ENDROOT
BRANCH   1   3
ATOM      3  C   UNL     1     -13.082  10.582 -28.029  1.00  0.00     0.053 C 
ATOM      4  C   UNL     1     -14.190  10.348 -26.989  1.00  0.00     0.016 C 
BRANCH   3   5
ATOM      5  C   UNL     1     -12.227  11.830 -27.697  1.00  0.00     0.015 C 
BRANCH   5   6
ATOM      6  C   UNL     1     -12.838  13.209 -28.029  1.00  0.00     0.028 C 
BRANCH   6   7
ATOM      7  C   UNL     1     -12.542  13.745 -29.412  1.00  0.00    -0.028 C 
ATOM      8  C   UNL     1     -13.457  14.077 -30.353  1.00  0.00    -0.070 CG0
ATOM      9  C   UNL     1     -12.951  14.506 -31.707  1.00  0.00     0.039 C 
ATOM     10  G   UNL     1     -14.955  14.028 -30.118  1.00  0.00     0.000 G0
ENDBRANCH   6   7
ENDBRANCH   5   6
ENDBRANCH   3   5
ENDBRANCH   1   3
BRANCH   1  11
ATOM     11  C   UNL     1     -15.075  10.360 -29.744  1.00  0.00     0.087 C 
BRANCH  11  12
ATOM     12  C   UNL     1     -15.928  11.630 -29.497  1.00  0.00     0.066 C 
BRANCH  12  13
ATOM     13  C   UNL     1     -15.594  12.706 -30.525  1.00  0.00     0.140 C 
ATOM     14  O   UNL     1     -15.868  12.517 -31.701  1.00  0.00    -0.299 OA
BRANCH  13  15
ATOM     15  C   UNL     1     -14.967  14.026 -30.144  1.00  0.00     0.106 CG0
ATOM     16  G   UNL     1     -13.467  14.066 -30.366  1.00  0.00     0.000 G0
ENDBRANCH  13  15
ENDBRANCH  12  13
BRANCH  12  17
ATOM     17  C   UNL     1     -17.452  11.314 -29.413  1.00  0.00    -0.006 C 
ATOM     18  C   UNL     1     -17.748  10.279 -28.316  1.00  0.00     0.008 C 
ATOM     19  C   UNL     1     -18.354  12.548 -29.236  1.00  0.00     0.008 C 
ENDBRANCH  12  17
ENDBRANCH  11  12
ENDBRANCH   1  11
TORSDOF 1
ENDMDL
MODEL 8
REMARK VINA RESULT:    -3.760      1.963      3.898
REMARK INTER + INTRA:          -5.673
REMARK INTER:                  -5.811
REMARK INTRA:                   0.139
REMARK UNBOUND:                 0.066
REMARK SMILES CC1=CCC[C@@H](C)C(=O)C[C@H](C(C)C)C(=O)C1
REMARK SMILES IDX 8 1 9 2 6 3 7 4 5 5 4 6 3 7 2 8 1 9 10 11 11 12 15 13 16 14
REMARK SMILES IDX 17 15 12 17 13 18 14 19
REMARK H PARENT
REMARK Flexibility Score: 70.00
ROOT
ATOM      1  C   UNL     1     -13.153  14.352 -29.772  1.00  0.00     0.136 C 
ATOM      2  O   UNL     1     -12.505  14.424 -28.736  1.00  0.00    -0.299 OA
ENDROOT
BRANCH   1   3
ATOM      3  C   UNL     1     -12.451  14.391 -31.118  1.00  0.00     0.053 C 
ATOM      4  C   UNL     1     -13.418  14.198 -32.298  1.00  0.00     0.016 C 
BRANCH   3   5
ATOM      5  C   UNL     1     -11.245  13.421 -31.191  1.00  0.00     0.015 C 
BRANCH   5   6
ATOM      6  C   UNL     1     -11.541  11.917 -31.000  1.00  0.00     0.028 C 
BRANCH   6   7
ATOM      7  C   UNL     1     -11.275  11.363 -29.618  1.00  0.00    -0.028 C 
ATOM      8  C   UNL     1     -12.195  10.829 -28.781  1.00  0.00    -0.070 CG0
ATOM      9  C   UNL     1     -11.739  10.418 -27.403  1.00  0.00     0.039 C 
ATOM     10  G   UNL     1     -13.654  10.637 -29.152  1.00  0.00     0.000 G0
ENDBRANCH   6   7
ENDBRANCH   5   6
ENDBRANCH   3   5
ENDBRANCH   1   3
BRANCH   1  11
ATOM     11  C   UNL     1     -14.655  14.198 -29.681  1.00  0.00     0.087 C 
BRANCH  11  12
ATOM     12  C   UNL     1     -15.104  12.735 -29.924  1.00  0.00     0.066 C 
BRANCH  12  13
ATOM     13  C   UNL     1     -14.541  11.816 -28.846  1.00  0.00     0.140 C 
ATOM     14  O   UNL     1     -14.836  12.014 -27.676  1.00  0.00    -0.299 OA
BRANCH  13  15
ATOM     15  C   UNL     1     -13.654  10.637 -29.166  1.00  0.00     0.106 CG0
ATOM     16  G   UNL     1     -12.203  10.854 -28.783  1.00  0.00     0.000 G0
ENDBRANCH  13  15
ENDBRANCH  12  13
BRANCH  12  17
ATOM     17  C   UNL     1     -16.650  12.609 -30.092  1.00  0.00    -0.006 C 
ATOM     18  C   UNL     1     -17.394  13.266 -28.919  1.00  0.00     0.008 C 
ATOM     19  C   UNL     1     -17.194  13.140 -31.430  1.00  0.00     0.008 C 
ENDBRANCH  12  17
ENDBRANCH  11  12
ENDBRANCH   1  11
TORSDOF 1
ENDMDL
MODEL 9
REMARK VINA RESULT:    -3.574      1.950      3.621
REMARK INTER + INTRA:          -5.389
REMARK INTER:                  -6.330
REMARK INTRA:                   0.942
REMARK UNBOUND:                 0.066
REMARK SMILES CC1=CCC[C@@H](C)C(=O)C[C@H](C(C)C)C(=O)C1
REMARK SMILES IDX 8 1 9 2 6 3 7 4 5 5 4 6 3 7 2 8 1 9 10 11 11 12 15 13 16 14
REMARK SMILES IDX 17 15 12 17 13 18 14 19
REMARK H PARENT
REMARK Flexibility Score: 70.00
ROOT
ATOM      1  C   UNL     1     -15.070  13.859 -31.726  1.00  0.00     0.136 C 
ATOM      2  O   UNL     1     -15.685  13.566 -32.743  1.00  0.00    -0.299 OA
ENDROOT
BRANCH   1   3
ATOM      3  C   UNL     1     -13.661  14.420 -31.819  1.00  0.00     0.053 C 
ATOM      4  C   UNL     1     -12.671  13.432 -32.459  1.00  0.00     0.016 C 
BRANCH   3   5
ATOM      5  C   UNL     1     -13.145  14.965 -30.465  1.00  0.00     0.015 C 
BRANCH   5   6
ATOM      6  C   UNL     1     -13.282  14.039 -29.236  1.00  0.00     0.028 C 
BRANCH   6   7
ATOM      7  C   UNL     1     -12.476  12.760 -29.282  1.00  0.00    -0.028 C 
ATOM      8  C   UNL     1     -12.947  11.512 -29.052  1.00  0.00    -0.070 CG0
ATOM      9  C   UNL     1     -11.956  10.374 -29.054  1.00  0.00     0.039 C 
ATOM     10  G   UNL     1     -14.408  11.204 -28.783  1.00  0.00     0.000 G0
ENDBRANCH   6   7
ENDBRANCH   5   6
ENDBRANCH   3   5
ENDBRANCH   1   3
BRANCH   1  11
ATOM     11  C   UNL     1     -15.749  13.678 -30.387  1.00  0.00     0.087 C 
BRANCH  11  12
ATOM     12  C   UNL     1     -16.368  12.265 -30.237  1.00  0.00     0.066 C 
BRANCH  12  13
ATOM     13  C   UNL     1     -15.278  11.224 -30.012  1.00  0.00     0.140 C 
ATOM     14  O   UNL     1     -15.062  10.385 -30.875  1.00  0.00    -0.299 OA
BRANCH  13  15
ATOM     15  C   UNL     1     -14.416  11.205 -28.772  1.00  0.00     0.106 CG0
ATOM     16  G   UNL     1     -12.954  11.499 -29.050  1.00  0.00     0.000 G0
ENDBRANCH  13  15
ENDBRANCH  12  13
BRANCH  12  17
ATOM     17  C   UNL     1     -17.490  12.222 -29.154  1.00  0.00    -0.006 C 
ATOM     18  C   UNL     1     -17.388  13.420 -28.197  1.00  0.00     0.008 C 
ATOM     19  C   UNL     1     -18.918  12.110 -29.715  1.00  0.00     0.008 C 
ENDBRANCH  12  17
ENDBRANCH  11  12
ENDBRANCH   1  11
TORSDOF 1
ENDMDL
