MODEL 1
REMARK VINA RESULT:    -3.539      0.000      0.000
REMARK INTER + INTRA:          -4.190
REMARK INTER:                  -4.159
REMARK INTRA:                  -0.031
REMARK UNBOUND:                -0.031
REMARK SMILES O=C([O-])CCC(=O)[O-]
REMARK SMILES IDX 4 1 2 2 1 3 3 4 5 5 6 6 7 7 8 8
REMARK H PARENT
REMARK Flexibility Score: inf
ROOT
ATOM      1  C   UNL     1      13.806 -52.745  21.150  1.00  0.00     0.059 C 
ENDROOT
BRANCH   1   2
ATOM      2  C   UNL     1      15.194 -52.844  20.595  1.00  0.00     0.042 C 
ATOM      3  O   UNL     1      15.398 -52.658  19.366  1.00  0.00    -0.550 OA
ATOM      4  O   UNL     1      16.265 -53.099  21.439  1.00  0.00    -0.550 OA
ENDBRANCH   1   2
BRANCH   1   5
ATOM      5  C   UNL     1      13.720 -53.329  22.565  1.00  0.00     0.059 C 
BRANCH   5   6
ATOM      6  C   UNL     1      12.416 -52.994  23.221  1.00  0.00     0.042 C 
ATOM      7  O   UNL     1      11.390 -53.684  22.985  1.00  0.00    -0.550 OA
ATOM      8  O   UNL     1      12.325 -51.893  24.064  1.00  0.00    -0.550 OA
ENDBRANCH   5   6
ENDBRANCH   1   5
TORSDOF 3
ENDMDL
MODEL 2
REMARK VINA RESULT:    -3.538      1.362      1.787
REMARK INTER + INTRA:          -4.189
REMARK INTER:                  -4.124
REMARK INTRA:                  -0.065
REMARK UNBOUND:                -0.031
REMARK SMILES O=C([O-])CCC(=O)[O-]
REMARK SMILES IDX 4 1 2 2 1 3 3 4 5 5 6 6 7 7 8 8
REMARK H PARENT
REMARK Flexibility Score: inf
ROOT
ATOM      1  C   UNL     1      15.044 -53.082  21.334  1.00  0.00     0.059 C 
ENDROOT
BRANCH   1   2
ATOM      2  C   UNL     1      15.045 -52.728  19.877  1.00  0.00     0.042 C 
ATOM      3  O   UNL     1      13.972 -52.754  19.219  1.00  0.00    -0.550 OA
ATOM      4  O   UNL     1      16.222 -52.328  19.259  1.00  0.00    -0.550 OA
ENDBRANCH   1   2
BRANCH   1   5
ATOM      5  C   UNL     1      13.708 -52.735  21.999  1.00  0.00     0.059 C 
BRANCH   5   6
ATOM      6  C   UNL     1      13.166 -53.892  22.782  1.00  0.00     0.042 C 
ATOM      7  O   UNL     1      11.983 -53.870  23.210  1.00  0.00    -0.550 OA
ATOM      8  O   UNL     1      13.982 -54.978  23.072  1.00  0.00    -0.550 OA
ENDBRANCH   5   6
ENDBRANCH   1   5
TORSDOF 3
ENDMDL
MODEL 3
REMARK VINA RESULT:    -3.529      0.265      4.351
REMARK INTER + INTRA:          -4.179
REMARK INTER:                  -4.143
REMARK INTRA:                  -0.036
REMARK UNBOUND:                -0.031
REMARK SMILES O=C([O-])CCC(=O)[O-]
REMARK SMILES IDX 4 1 2 2 1 3 3 4 5 5 6 6 7 7 8 8
REMARK H PARENT
REMARK Flexibility Score: inf
ROOT
ATOM      1  C   UNL     1      13.611 -53.438  22.633  1.00  0.00     0.059 C 
ENDROOT
BRANCH   1   2
ATOM      2  C   UNL     1      12.336 -52.958  23.258  1.00  0.00     0.042 C 
ATOM      3  O   UNL     1      12.348 -51.971  24.041  1.00  0.00    -0.550 OA
ATOM      4  O   UNL     1      11.133 -53.574  22.945  1.00  0.00    -0.550 OA
ENDBRANCH   1   2
BRANCH   1   5
ATOM      5  C   UNL     1      13.907 -52.707  21.319  1.00  0.00     0.059 C 
BRANCH   5   6
ATOM      6  C   UNL     1      15.342 -52.857  20.917  1.00  0.00     0.042 C 
ATOM      7  O   UNL     1      16.218 -53.132  21.777  1.00  0.00    -0.550 OA
ATOM      8  O   UNL     1      15.717 -52.652  19.595  1.00  0.00    -0.550 OA
ENDBRANCH   5   6
ENDBRANCH   1   5
TORSDOF 3
ENDMDL
MODEL 4
REMARK VINA RESULT:    -3.528      2.096      4.116
REMARK INTER + INTRA:          -4.178
REMARK INTER:                  -4.058
REMARK INTRA:                  -0.120
REMARK UNBOUND:                -0.031
REMARK SMILES O=C([O-])CCC(=O)[O-]
REMARK SMILES IDX 4 1 2 2 1 3 3 4 5 5 6 6 7 7 8 8
REMARK H PARENT
REMARK Flexibility Score: inf
ROOT
ATOM      1  C   UNL     1      13.534 -53.155  22.551  1.00  0.00     0.059 C 
ENDROOT
BRANCH   1   2
ATOM      2  C   UNL     1      12.283 -52.782  23.288  1.00  0.00     0.042 C 
ATOM      3  O   UNL     1      12.294 -51.828  24.110  1.00  0.00    -0.550 OA
ATOM      4  O   UNL     1      11.099 -53.460  23.036  1.00  0.00    -0.550 OA
ENDBRANCH   1   2
BRANCH   1   5
ATOM      5  C   UNL     1      13.898 -54.628  22.764  1.00  0.00     0.059 C 
BRANCH   5   6
ATOM      6  C   UNL     1      13.779 -55.414  21.494  1.00  0.00     0.042 C 
ATOM      7  O   UNL     1      12.677 -55.482  20.890  1.00  0.00    -0.550 OA
ATOM      8  O   UNL     1      14.878 -56.106  21.001  1.00  0.00    -0.550 OA
ENDBRANCH   5   6
ENDBRANCH   1   5
TORSDOF 3
ENDMDL
MODEL 5
REMARK VINA RESULT:    -3.516      1.360      4.057
REMARK INTER + INTRA:          -4.164
REMARK INTER:                  -4.098
REMARK INTRA:                  -0.066
REMARK UNBOUND:                -0.031
REMARK SMILES O=C([O-])CCC(=O)[O-]
REMARK SMILES IDX 4 1 2 2 1 3 3 4 5 5 6 6 7 7 8 8
REMARK H PARENT
REMARK Flexibility Score: inf
ROOT
ATOM      1  C   UNL     1      13.670 -52.697  21.972  1.00  0.00     0.059 C 
ENDROOT
BRANCH   1   2
ATOM      2  C   UNL     1      13.086 -53.853  22.728  1.00  0.00     0.042 C 
ATOM      3  O   UNL     1      11.856 -53.876  22.998  1.00  0.00    -0.550 OA
ATOM      4  O   UNL     1      13.892 -54.920  23.098  1.00  0.00    -0.550 OA
ENDBRANCH   1   2
BRANCH   1   5
ATOM      5  C   UNL     1      15.035 -53.047  21.371  1.00  0.00     0.059 C 
BRANCH   5   6
ATOM      6  C   UNL     1      15.092 -52.725  19.909  1.00  0.00     0.042 C 
ATOM      7  O   UNL     1      14.062 -52.835  19.194  1.00  0.00    -0.550 OA
ATOM      8  O   UNL     1      16.294 -52.342  19.328  1.00  0.00    -0.550 OA
ENDBRANCH   5   6
ENDBRANCH   1   5
TORSDOF 3
ENDMDL
MODEL 6
REMARK VINA RESULT:    -3.497      2.093      2.579
REMARK INTER + INTRA:          -4.142
REMARK INTER:                  -4.024
REMARK INTRA:                  -0.118
REMARK UNBOUND:                -0.031
REMARK SMILES O=C([O-])CCC(=O)[O-]
REMARK SMILES IDX 4 1 2 2 1 3 3 4 5 5 6 6 7 7 8 8
REMARK H PARENT
REMARK Flexibility Score: inf
ROOT
ATOM      1  C   UNL     1      14.083 -54.644  22.714  1.00  0.00     0.059 C 
ENDROOT
BRANCH   1   2
ATOM      2  C   UNL     1      13.971 -55.468  21.467  1.00  0.00     0.042 C 
ATOM      3  O   UNL     1      12.904 -55.462  20.798  1.00  0.00    -0.550 OA
ATOM      4  O   UNL     1      15.058 -56.209  21.022  1.00  0.00    -0.550 OA
ENDBRANCH   1   2
BRANCH   1   5
ATOM      5  C   UNL     1      13.622 -53.202  22.481  1.00  0.00     0.059 C 
BRANCH   5   6
ATOM      6  C   UNL     1      12.366 -52.896  23.239  1.00  0.00     0.042 C 
ATOM      7  O   UNL     1      12.361 -52.001  24.124  1.00  0.00    -0.550 OA
ATOM      8  O   UNL     1      11.211 -53.628  22.994  1.00  0.00    -0.550 OA
ENDBRANCH   5   6
ENDBRANCH   1   5
TORSDOF 3
ENDMDL
MODEL 7
REMARK VINA RESULT:    -3.491      1.322      4.151
REMARK INTER + INTRA:          -4.134
REMARK INTER:                  -4.026
REMARK INTRA:                  -0.108
REMARK UNBOUND:                -0.031
REMARK SMILES O=C([O-])CCC(=O)[O-]
REMARK SMILES IDX 4 1 2 2 1 3 3 4 5 5 6 6 7 7 8 8
REMARK H PARENT
REMARK Flexibility Score: inf
ROOT
ATOM      1  C   UNL     1      13.471 -53.596  22.738  1.00  0.00     0.059 C 
ENDROOT
BRANCH   1   2
ATOM      2  C   UNL     1      12.255 -52.954  23.335  1.00  0.00     0.042 C 
ATOM      3  O   UNL     1      12.376 -51.960  24.100  1.00  0.00    -0.550 OA
ATOM      4  O   UNL     1      10.991 -53.426  23.015  1.00  0.00    -0.550 OA
ENDBRANCH   1   2
BRANCH   1   5
ATOM      5  C   UNL     1      14.071 -52.739  21.619  1.00  0.00     0.059 C 
BRANCH   5   6
ATOM      6  C   UNL     1      13.695 -53.259  20.265  1.00  0.00     0.042 C 
ATOM      7  O   UNL     1      14.173 -52.732  19.227  1.00  0.00    -0.550 OA
ATOM      8  O   UNL     1      12.784 -54.301  20.150  1.00  0.00    -0.550 OA
ENDBRANCH   5   6
ENDBRANCH   1   5
TORSDOF 3
ENDMDL
MODEL 8
REMARK VINA RESULT:    -3.481      1.160      1.868
REMARK INTER + INTRA:          -4.123
REMARK INTER:                  -4.025
REMARK INTRA:                  -0.098
REMARK UNBOUND:                -0.031
REMARK SMILES O=C([O-])CCC(=O)[O-]
REMARK SMILES IDX 4 1 2 2 1 3 3 4 5 5 6 6 7 7 8 8
REMARK H PARENT
REMARK Flexibility Score: inf
ROOT
ATOM      1  C   UNL     1      14.167 -52.704  21.688  1.00  0.00     0.059 C 
ENDROOT
BRANCH   1   2
ATOM      2  C   UNL     1      13.905 -53.077  20.260  1.00  0.00     0.042 C 
ATOM      3  O   UNL     1      14.655 -52.645  19.345  1.00  0.00    -0.550 OA
ATOM      4  O   UNL     1      12.858 -53.933  19.946  1.00  0.00    -0.550 OA
ENDBRANCH   1   2
BRANCH   1   5
ATOM      5  C   UNL     1      13.441 -53.639  22.659  1.00  0.00     0.059 C 
BRANCH   5   6
ATOM      6  C   UNL     1      12.247 -52.975  23.276  1.00  0.00     0.042 C 
ATOM      7  O   UNL     1      12.398 -52.007  24.066  1.00  0.00    -0.550 OA
ATOM      8  O   UNL     1      10.971 -53.452  23.007  1.00  0.00    -0.550 OA
ENDBRANCH   5   6
ENDBRANCH   1   5
TORSDOF 3
ENDMDL
MODEL 9
REMARK VINA RESULT:    -3.451      2.078      2.778
REMARK INTER + INTRA:          -4.087
REMARK INTER:                  -4.053
REMARK INTRA:                  -0.033
REMARK UNBOUND:                -0.031
REMARK SMILES O=C([O-])CCC(=O)[O-]
REMARK SMILES IDX 4 1 2 2 1 3 3 4 5 5 6 6 7 7 8 8
REMARK H PARENT
REMARK Flexibility Score: inf
ROOT
ATOM      1  C   UNL     1      13.922 -55.045  22.452  1.00  0.00     0.059 C 
ENDROOT
BRANCH   1   2
ATOM      2  C   UNL     1      15.336 -55.536  22.370  1.00  0.00     0.042 C 
ATOM      3  O   UNL     1      16.119 -55.375  23.343  1.00  0.00    -0.550 OA
ATOM      4  O   UNL     1      15.775 -56.207  21.237  1.00  0.00    -0.550 OA
ENDBRANCH   1   2
BRANCH   1   5
ATOM      5  C   UNL     1      13.861 -53.526  22.643  1.00  0.00     0.059 C 
BRANCH   5   6
ATOM      6  C   UNL     1      12.529 -53.090  23.172  1.00  0.00     0.042 C 
ATOM      7  O   UNL     1      12.431 -52.036  23.853  1.00  0.00    -0.550 OA
ATOM      8  O   UNL     1      11.403 -53.871  22.946  1.00  0.00    -0.550 OA
ENDBRANCH   5   6
ENDBRANCH   1   5
TORSDOF 3
ENDMDL
