MODEL 1
REMARK VINA RESULT:    -3.177      0.000      0.000
REMARK INTER + INTRA:          -3.577
REMARK INTER:                  -3.549
REMARK INTRA:                  -0.029
REMARK UNBOUND:                -0.029
REMARK SMILES CC(C)CC=O
REMARK SMILES IDX 4 1 2 2 1 3 3 4 5 5 6 6
REMARK H PARENT
REMARK Flexibility Score: inf
ROOT
ATOM      1  C   UNL     1      24.080  57.045  -8.859  1.00  0.00     0.075 C 
ENDROOT
BRANCH   1   2
ATOM      2  C   UNL     1      24.052  55.514  -8.665  1.00  0.00    -0.010 C 
ATOM      3  C   UNL     1      25.438  55.007  -8.250  1.00  0.00     0.008 C 
ATOM      4  C   UNL     1      23.008  55.101  -7.616  1.00  0.00     0.008 C 
ENDBRANCH   1   2
BRANCH   1   5
ATOM      5  C   UNL     1      25.478  57.580  -8.991  1.00  0.00     0.224 C 
ATOM      6  O   UNL     1      25.655  58.740  -9.325  1.00  0.00    -0.303 OA
ENDBRANCH   1   5
TORSDOF 2
ENDMDL
MODEL 2
REMARK VINA RESULT:    -3.146      2.483      3.328
REMARK INTER + INTRA:          -3.543
REMARK INTER:                  -3.512
REMARK INTRA:                  -0.031
REMARK UNBOUND:                -0.029
REMARK SMILES CC(C)CC=O
REMARK SMILES IDX 4 1 2 2 1 3 3 4 5 5 6 6
REMARK H PARENT
REMARK Flexibility Score: inf
ROOT
ATOM      1  C   UNL     1      23.297  55.994  -8.307  1.00  0.00     0.075 C 
ENDROOT
BRANCH   1   2
ATOM      2  C   UNL     1      24.707  55.901  -8.927  1.00  0.00    -0.010 C 
ATOM      3  C   UNL     1      25.379  57.279  -8.925  1.00  0.00     0.008 C 
ATOM      4  C   UNL     1      25.586  54.890  -8.173  1.00  0.00     0.008 C 
ENDBRANCH   1   2
BRANCH   1   5
ATOM      5  C   UNL     1      22.862  54.702  -7.675  1.00  0.00     0.224 C 
ATOM      6  O   UNL     1      22.498  54.688  -6.511  1.00  0.00    -0.303 OA
ENDBRANCH   1   5
TORSDOF 2
ENDMDL
MODEL 3
REMARK VINA RESULT:    -3.062     15.390     16.731
REMARK INTER + INTRA:          -3.448
REMARK INTER:                  -3.416
REMARK INTRA:                  -0.032
REMARK UNBOUND:                -0.029
REMARK SMILES CC(C)CC=O
REMARK SMILES IDX 4 1 2 2 1 3 3 4 5 5 6 6
REMARK H PARENT
REMARK Flexibility Score: inf
ROOT
ATOM      1  C   UNL     1      19.189  43.414   1.266  1.00  0.00     0.075 C 
ENDROOT
BRANCH   1   2
ATOM      2  C   UNL     1      18.599  44.095   0.012  1.00  0.00    -0.010 C 
ATOM      3  C   UNL     1      17.119  44.427   0.236  1.00  0.00     0.008 C 
ATOM      4  C   UNL     1      19.373  45.372  -0.349  1.00  0.00     0.008 C 
ENDBRANCH   1   2
BRANCH   1   5
ATOM      5  C   UNL     1      20.646  43.086   1.108  1.00  0.00     0.224 C 
ATOM      6  O   UNL     1      21.003  42.317   0.231  1.00  0.00    -0.303 OA
ENDBRANCH   1   5
TORSDOF 2
ENDMDL
MODEL 4
REMARK VINA RESULT:    -3.052     16.771     17.414
REMARK INTER + INTRA:          -3.437
REMARK INTER:                  -3.369
REMARK INTRA:                  -0.068
REMARK UNBOUND:                -0.029
REMARK SMILES CC(C)CC=O
REMARK SMILES IDX 4 1 2 2 1 3 3 4 5 5 6 6
REMARK H PARENT
REMARK Flexibility Score: inf
ROOT
ATOM      1  C   UNL     1      14.827  42.199 -14.045  1.00  0.00     0.075 C 
ENDROOT
BRANCH   1   2
ATOM      2  C   UNL     1      14.744  43.518 -14.842  1.00  0.00    -0.010 C 
ATOM      3  C   UNL     1      14.317  44.668 -13.921  1.00  0.00     0.008 C 
ATOM      4  C   UNL     1      16.086  43.856 -15.510  1.00  0.00     0.008 C 
ENDBRANCH   1   2
BRANCH   1   5
ATOM      5  C   UNL     1      16.141  42.042 -13.333  1.00  0.00     0.224 C 
ATOM      6  O   UNL     1      16.198  42.194 -12.124  1.00  0.00    -0.303 OA
ENDBRANCH   1   5
TORSDOF 2
ENDMDL
MODEL 5
REMARK VINA RESULT:    -2.972     15.706     16.951
REMARK INTER + INTRA:          -3.348
REMARK INTER:                  -3.311
REMARK INTRA:                  -0.037
REMARK UNBOUND:                -0.029
REMARK SMILES CC(C)CC=O
REMARK SMILES IDX 4 1 2 2 1 3 3 4 5 5 6 6
REMARK H PARENT
REMARK Flexibility Score: inf
ROOT
ATOM      1  C   UNL     1      18.035  43.809   1.591  1.00  0.00     0.075 C 
ENDROOT
BRANCH   1   2
ATOM      2  C   UNL     1      19.433  44.296   1.155  1.00  0.00    -0.010 C 
ATOM      3  C   UNL     1      20.401  43.110   1.056  1.00  0.00     0.008 C 
ATOM      4  C   UNL     1      19.375  45.037  -0.190  1.00  0.00     0.008 C 
ENDBRANCH   1   2
BRANCH   1   5
ATOM      5  C   UNL     1      16.967  44.176   0.602  1.00  0.00     0.224 C 
ATOM      6  O   UNL     1      16.006  44.836   0.963  1.00  0.00    -0.303 OA
ENDBRANCH   1   5
TORSDOF 2
ENDMDL
MODEL 6
REMARK VINA RESULT:    -2.945     15.883     17.233
REMARK INTER + INTRA:          -3.318
REMARK INTER:                  -3.300
REMARK INTRA:                  -0.018
REMARK UNBOUND:                -0.029
REMARK SMILES CC(C)CC=O
REMARK SMILES IDX 4 1 2 2 1 3 3 4 5 5 6 6
REMARK H PARENT
REMARK Flexibility Score: inf
ROOT
ATOM      1  C   UNL     1      18.156  43.873   1.728  1.00  0.00     0.075 C 
ENDROOT
BRANCH   1   2
ATOM      2  C   UNL     1      19.129  43.668   0.548  1.00  0.00    -0.010 C 
ATOM      3  C   UNL     1      19.379  44.999  -0.171  1.00  0.00     0.008 C 
ATOM      4  C   UNL     1      20.464  43.070   1.018  1.00  0.00     0.008 C 
ENDBRANCH   1   2
BRANCH   1   5
ATOM      5  C   UNL     1      16.742  44.094   1.272  1.00  0.00     0.224 C 
ATOM      6  O   UNL     1      15.953  44.673   2.002  1.00  0.00    -0.303 OA
ENDBRANCH   1   5
TORSDOF 2
ENDMDL
MODEL 7
REMARK VINA RESULT:    -2.911     13.937     15.037
REMARK INTER + INTRA:          -3.280
REMARK INTER:                  -3.272
REMARK INTRA:                  -0.008
REMARK UNBOUND:                -0.029
REMARK SMILES CC(C)CC=O
REMARK SMILES IDX 4 1 2 2 1 3 3 4 5 5 6 6
REMARK H PARENT
REMARK Flexibility Score: inf
ROOT
ATOM      1  C   UNL     1      28.893  44.812  -0.360  1.00  0.00     0.075 C 
ENDROOT
BRANCH   1   2
ATOM      2  C   UNL     1      30.378  45.051  -0.013  1.00  0.00    -0.010 C 
ATOM      3  C   UNL     1      30.549  45.211   1.503  1.00  0.00     0.008 C 
ATOM      4  C   UNL     1      31.265  43.904  -0.521  1.00  0.00     0.008 C 
ENDBRANCH   1   2
BRANCH   1   5
ATOM      5  C   UNL     1      28.127  46.094  -0.514  1.00  0.00     0.224 C 
ATOM      6  O   UNL     1      27.717  46.428  -1.614  1.00  0.00    -0.303 OA
ENDBRANCH   1   5
TORSDOF 2
ENDMDL
MODEL 8
REMARK VINA RESULT:    -2.842     17.090     17.191
REMARK INTER + INTRA:          -3.202
REMARK INTER:                  -3.171
REMARK INTRA:                  -0.031
REMARK UNBOUND:                -0.029
REMARK SMILES CC(C)CC=O
REMARK SMILES IDX 4 1 2 2 1 3 3 4 5 5 6 6
REMARK H PARENT
REMARK Flexibility Score: inf
ROOT
ATOM      1  C   UNL     1      16.367  42.453 -14.189  1.00  0.00     0.075 C 
ENDROOT
BRANCH   1   2
ATOM      2  C   UNL     1      15.579  41.896 -12.984  1.00  0.00    -0.010 C 
ATOM      3  C   UNL     1      16.544  41.471 -11.871  1.00  0.00     0.008 C 
ATOM      4  C   UNL     1      14.580  42.930 -12.442  1.00  0.00     0.008 C 
ENDBRANCH   1   2
BRANCH   1   5
ATOM      5  C   UNL     1      15.550  43.402 -15.018  1.00  0.00     0.224 C 
ATOM      6  O   UNL     1      16.108  44.226 -15.725  1.00  0.00    -0.303 OA
ENDBRANCH   1   5
TORSDOF 2
ENDMDL
MODEL 9
REMARK VINA RESULT:    -2.787      5.811      7.176
REMARK INTER + INTRA:          -3.141
REMARK INTER:                  -3.104
REMARK INTRA:                  -0.037
REMARK UNBOUND:                -0.029
REMARK SMILES CC(C)CC=O
REMARK SMILES IDX 4 1 2 2 1 3 3 4 5 5 6 6
REMARK H PARENT
REMARK Flexibility Score: inf
ROOT
ATOM      1  C   UNL     1      29.325  57.733 -13.137  1.00  0.00     0.075 C 
ENDROOT
BRANCH   1   2
ATOM      2  C   UNL     1      29.205  58.915 -12.152  1.00  0.00    -0.010 C 
ATOM      3  C   UNL     1      27.944  58.763 -11.293  1.00  0.00     0.008 C 
ATOM      4  C   UNL     1      30.443  59.020 -11.249  1.00  0.00     0.008 C 
ENDBRANCH   1   2
BRANCH   1   5
ATOM      5  C   UNL     1      30.745  57.275 -13.312  1.00  0.00     0.224 C 
ATOM      6  O   UNL     1      30.988  56.087 -13.443  1.00  0.00    -0.303 OA
ENDBRANCH   1   5
TORSDOF 2
ENDMDL
