MODEL 1
REMARK VINA RESULT:    -2.177      0.000      0.000
REMARK INTER + INTRA:          -2.177
REMARK INTER:                  -2.177
REMARK INTRA:                   0.000
REMARK UNBOUND:                 0.000
REMARK SMILES CC(=O)[O-]
REMARK SMILES IDX 1 1 2 2 3 3 4 4
REMARK H PARENT
REMARK Flexibility Score: inf
ROOT
ATOM      1  C   UNL     1     -12.343   6.281 -15.485  1.00  0.00     0.063 C 
ATOM      2  C   UNL     1     -13.516   7.173 -15.251  1.00  0.00     0.038 C 
ATOM      3  O   UNL     1     -14.678   6.692 -15.219  1.00  0.00    -0.550 OA
ATOM      4  O   UNL     1     -13.333   8.544 -15.124  1.00  0.00    -0.550 OA
ENDROOT
TORSDOF 0
ENDMDL
MODEL 2
REMARK VINA RESULT:    -2.164      1.369      1.664
REMARK INTER + INTRA:          -2.164
REMARK INTER:                  -2.164
REMARK INTRA:                   0.000
REMARK UNBOUND:                 0.000
REMARK SMILES CC(=O)[O-]
REMARK SMILES IDX 1 1 2 2 3 3 4 4
REMARK H PARENT
REMARK Flexibility Score: inf
ROOT
ATOM      1  C   UNL     1     -14.572   6.480 -15.495  1.00  0.00     0.063 C 
ATOM      2  C   UNL     1     -13.320   7.248 -15.239  1.00  0.00     0.038 C 
ATOM      3  O   UNL     1     -12.229   6.641 -15.081  1.00  0.00    -0.550 OA
ATOM      4  O   UNL     1     -13.364   8.631 -15.119  1.00  0.00    -0.550 OA
ENDROOT
TORSDOF 0
ENDMDL
MODEL 3
REMARK VINA RESULT:    -2.154      1.649      2.006
REMARK INTER + INTRA:          -2.154
REMARK INTER:                  -2.154
REMARK INTRA:                   0.000
REMARK UNBOUND:                 0.000
REMARK SMILES CC(=O)[O-]
REMARK SMILES IDX 1 1 2 2 3 3 4 4
REMARK H PARENT
REMARK Flexibility Score: inf
ROOT
ATOM      1  C   UNL     1     -12.852   5.098 -16.435  1.00  0.00     0.063 C 
ATOM      2  C   UNL     1     -12.719   6.243 -15.488  1.00  0.00     0.038 C 
ATOM      3  O   UNL     1     -11.624   6.457 -14.907  1.00  0.00    -0.550 OA
ATOM      4  O   UNL     1     -13.820   7.041 -15.203  1.00  0.00    -0.550 OA
ENDROOT
TORSDOF 0
ENDMDL
MODEL 4
REMARK VINA RESULT:    -2.140      1.405      2.000
REMARK INTER + INTRA:          -2.140
REMARK INTER:                  -2.140
REMARK INTRA:                   0.000
REMARK UNBOUND:                 0.000
REMARK SMILES CC(=O)[O-]
REMARK SMILES IDX 1 1 2 2 3 3 4 4
REMARK H PARENT
REMARK Flexibility Score: inf
ROOT
ATOM      1  C   UNL     1     -14.679   6.658 -15.448  1.00  0.00     0.063 C 
ATOM      2  C   UNL     1     -13.391   7.368 -15.201  1.00  0.00     0.038 C 
ATOM      3  O   UNL     1     -13.362   8.625 -15.153  1.00  0.00    -0.550 OA
ATOM      4  O   UNL     1     -12.211   6.645 -15.078  1.00  0.00    -0.550 OA
ENDROOT
TORSDOF 0
ENDMDL
MODEL 5
REMARK VINA RESULT:    -2.067     15.031     15.345
REMARK INTER + INTRA:          -2.067
REMARK INTER:                  -2.067
REMARK INTRA:                   0.000
REMARK UNBOUND:                 0.000
REMARK SMILES CC(=O)[O-]
REMARK SMILES IDX 1 1 2 2 3 3 4 4
REMARK H PARENT
REMARK Flexibility Score: inf
ROOT
ATOM      1  C   UNL     1      -4.177  -2.858  -6.229  1.00  0.00     0.063 C 
ATOM      2  C   UNL     1      -4.475  -1.417  -6.473  1.00  0.00     0.038 C 
ATOM      3  O   UNL     1      -3.535  -0.604  -6.671  1.00  0.00    -0.550 OA
ATOM      4  O   UNL     1      -5.785  -0.960  -6.427  1.00  0.00    -0.550 OA
ENDROOT
TORSDOF 0
ENDMDL
MODEL 6
REMARK VINA RESULT:    -2.045     11.067     11.513
REMARK INTER + INTRA:          -2.045
REMARK INTER:                  -2.045
REMARK INTRA:                   0.000
REMARK UNBOUND:                 0.000
REMARK SMILES CC(=O)[O-]
REMARK SMILES IDX 1 1 2 2 3 3 4 4
REMARK H PARENT
REMARK Flexibility Score: inf
ROOT
ATOM      1  C   UNL     1      -4.081   4.044 -13.127  1.00  0.00     0.063 C 
ATOM      2  C   UNL     1      -3.152   3.431 -12.135  1.00  0.00     0.038 C 
ATOM      3  O   UNL     1      -2.354   2.526 -12.494  1.00  0.00    -0.550 OA
ATOM      4  O   UNL     1      -3.204   3.817 -10.802  1.00  0.00    -0.550 OA
ENDROOT
TORSDOF 0
ENDMDL
MODEL 7
REMARK VINA RESULT:    -1.978     18.137     18.608
REMARK INTER + INTRA:          -1.978
REMARK INTER:                  -1.978
REMARK INTRA:                   0.000
REMARK UNBOUND:                 0.000
REMARK SMILES CC(=O)[O-]
REMARK SMILES IDX 1 1 2 2 3 3 4 4
REMARK H PARENT
REMARK Flexibility Score: inf
ROOT
ATOM      1  C   UNL     1     -18.605  -6.276  -4.626  1.00  0.00     0.063 C 
ATOM      2  C   UNL     1     -17.435  -6.844  -3.895  1.00  0.00     0.038 C 
ATOM      3  O   UNL     1     -16.716  -6.099  -3.179  1.00  0.00    -0.550 OA
ATOM      4  O   UNL     1     -17.104  -8.184  -4.047  1.00  0.00    -0.550 OA
ENDROOT
TORSDOF 0
ENDMDL
MODEL 8
REMARK VINA RESULT:    -1.959     15.027     15.359
REMARK INTER + INTRA:          -1.959
REMARK INTER:                  -1.959
REMARK INTRA:                   0.000
REMARK UNBOUND:                 0.000
REMARK SMILES CC(=O)[O-]
REMARK SMILES IDX 1 1 2 2 3 3 4 4
REMARK H PARENT
REMARK Flexibility Score: inf
ROOT
ATOM      1  C   UNL     1      -3.325  -0.371  -6.485  1.00  0.00     0.063 C 
ATOM      2  C   UNL     1      -4.419  -1.385  -6.506  1.00  0.00     0.038 C 
ATOM      3  O   UNL     1      -5.621  -1.019  -6.441  1.00  0.00    -0.550 OA
ATOM      4  O   UNL     1      -4.111  -2.739  -6.541  1.00  0.00    -0.550 OA
ENDROOT
TORSDOF 0
ENDMDL
MODEL 9
REMARK VINA RESULT:    -1.933     13.774     14.019
REMARK INTER + INTRA:          -1.933
REMARK INTER:                  -1.933
REMARK INTRA:                   0.000
REMARK UNBOUND:                 0.000
REMARK SMILES CC(=O)[O-]
REMARK SMILES IDX 1 1 2 2 3 3 4 4
REMARK H PARENT
REMARK Flexibility Score: inf
ROOT
ATOM      1  C   UNL     1      -4.381   1.864  -5.366  1.00  0.00     0.063 C 
ATOM      2  C   UNL     1      -5.180   0.859  -6.125  1.00  0.00     0.038 C 
ATOM      3  O   UNL     1      -6.350   1.134  -6.498  1.00  0.00    -0.550 OA
ATOM      4  O   UNL     1      -4.655  -0.402  -6.375  1.00  0.00    -0.550 OA
ENDROOT
TORSDOF 0
ENDMDL
