MODEL 1
REMARK VINA RESULT:    -4.952      0.000      0.000
REMARK INTER + INTRA:         -10.293
REMARK INTER:                  -7.991
REMARK INTRA:                  -2.301
REMARK UNBOUND:                -2.301
REMARK SMILES C=C(CC[C@@H](C(=O)[O-])[C@@H]1[C@@H](O)C[C@]2(C)C3=CC[C@H](C(=C)C)[C@](C)(CCC(=O)[O-])C3=CC[C@@]12C)C(C)C
REMARK SMILES IDX 5 1 9 2 22 3 29 4 18 5 23 6 15 7 30 8 17 9 13 10 16 11 31 12
REMARK SMILES IDX 32 13 12 14 14 15 33 16 10 17 24 18 25 19 26 20 27 21 28 22
REMARK SMILES IDX 19 23 20 24 21 25 11 26 6 28 7 29 8 30 4 31 3 32 2 33 1 34
REMARK SMILES IDX 34 35 35 36 36 37
REMARK H PARENT 11 27
REMARK Flexibility Score: inf
ROOT
ATOM      1  C   UNL     1      -4.343  -2.687  11.348  1.00  0.00     0.042 C 
ENDROOT
BRANCH   1   2
ATOM      2  C   UNL     1      -5.785  -2.099  11.599  1.00  0.00     0.034 C 
ATOM      3  C   UNL     1      -8.563   2.420   8.946  1.00  0.00    -0.000 C 
ATOM      4  C   UNL     1      -7.797   1.282   9.653  1.00  0.00    -0.042 C 
ATOM      5  C   UNL     1      -9.930   1.904   8.328  1.00  0.00     0.028 C 
ATOM      6  C   UNL     1      -8.871   3.469  10.047  1.00  0.00     0.017 C 
ATOM      7  C   UNL     1      -8.526   0.033  10.081  1.00  0.00    -0.042 C 
ATOM      8  C   UNL     1      -6.505   1.463  10.066  1.00  0.00    -0.022 C 
ATOM      9  C   UNL     1     -10.692   0.965   9.277  1.00  0.00     0.036 C 
ATOM     10  C   UNL     1      -7.810  -0.892  11.052  1.00  0.00     0.001 C 
ATOM     11  C   UNL     1      -9.840  -0.121   9.853  1.00  0.00    -0.022 C 
ATOM     12  C   UNL     1      -5.680   0.414  10.804  1.00  0.00     0.035 C 
ATOM     13  C   UNL     1      -6.306  -0.988  10.647  1.00  0.00    -0.014 C 
ATOM     14  C   UNL     1      -8.219  -2.372  11.114  1.00  0.00     0.044 C 
ATOM     15  C   UNL     1      -8.084  -0.279  12.467  1.00  0.00     0.017 C 
ATOM     16  C   UNL     1      -6.100  -1.438   9.161  1.00  0.00     0.013 C 
ATOM     17  C   UNL     1      -6.966  -3.115  11.658  1.00  0.00     0.119 C 
BRANCH   3  18
ATOM     18  C   UNL     1      -7.679   3.084   7.831  1.00  0.00     0.018 C 
BRANCH  18  19
ATOM     19  C   UNL     1      -7.701   4.628   7.792  1.00  0.00     0.053 C 
BRANCH  19  20
ATOM     20  C   UNL     1      -8.212   5.103   6.470  1.00  0.00     0.041 C 
ATOM     21  O   UNL     1      -9.452   5.152   6.250  1.00  0.00    -0.550 OA
ATOM     22  O   UNL     1      -7.321   5.567   5.510  1.00  0.00    -0.550 OA
ENDBRANCH  19  20
ENDBRANCH  18  19
ENDBRANCH   3  18
BRANCH   5  23
ATOM     23  C   UNL     1      -9.865   1.288   6.920  1.00  0.00    -0.076 C 
ATOM     24  C   UNL     1     -10.562   1.846   5.911  1.00  0.00     0.008 C 
ATOM     25  C   UNL     1      -9.132   0.006   6.626  1.00  0.00     0.039 C 
ENDBRANCH   5  23
BRANCH  17  26
ATOM     26  O   UNL     1      -7.167  -3.530  12.984  1.00  0.00    -0.393 OA
ATOM     27  H   UNL     1      -7.894  -4.205  12.970  1.00  0.00     0.210 HD
ENDBRANCH  17  26
ENDBRANCH   1   2
BRANCH   1  28
ATOM     28  C   UNL     1      -4.167  -4.141  11.721  1.00  0.00     0.045 C 
ATOM     29  O   UNL     1      -4.113  -5.033  10.832  1.00  0.00    -0.550 OA
ATOM     30  O   UNL     1      -4.177  -4.524  13.057  1.00  0.00    -0.550 OA
ENDBRANCH   1  28
BRANCH   1  31
ATOM     31  C   UNL     1      -3.242  -1.862  12.076  1.00  0.00     0.014 C 
BRANCH  31  32
ATOM     32  C   UNL     1      -2.442  -0.876  11.198  1.00  0.00     0.031 C 
BRANCH  32  33
ATOM     33  C   UNL     1      -2.320   0.513  11.804  1.00  0.00    -0.075 C 
ATOM     34  C   UNL     1      -2.557   0.672  13.122  1.00  0.00     0.008 C 
BRANCH  33  35
ATOM     35  C   UNL     1      -1.662   1.655  11.037  1.00  0.00     0.008 C 
ATOM     36  C   UNL     1      -0.249   1.911  11.580  1.00  0.00     0.012 C 
ATOM     37  C   UNL     1      -1.634   1.420   9.520  1.00  0.00     0.012 C 
ENDBRANCH  33  35
ENDBRANCH  32  33
ENDBRANCH  31  32
ENDBRANCH   1  31
TORSDOF 11
ENDMDL
MODEL 2
REMARK VINA RESULT:    -4.555      3.175      7.293
REMARK INTER + INTRA:          -9.653
REMARK INTER:                  -7.233
REMARK INTRA:                  -2.420
REMARK UNBOUND:                -2.301
REMARK SMILES C=C(CC[C@@H](C(=O)[O-])[C@@H]1[C@@H](O)C[C@]2(C)C3=CC[C@H](C(=C)C)[C@](C)(CCC(=O)[O-])C3=CC[C@@]12C)C(C)C
REMARK SMILES IDX 5 1 9 2 22 3 29 4 18 5 23 6 15 7 30 8 17 9 13 10 16 11 31 12
REMARK SMILES IDX 32 13 12 14 14 15 33 16 10 17 24 18 25 19 26 20 27 21 28 22
REMARK SMILES IDX 19 23 20 24 21 25 11 26 6 28 7 29 8 30 4 31 3 32 2 33 1 34
REMARK SMILES IDX 34 35 35 36 36 37
REMARK H PARENT 11 27
REMARK Flexibility Score: inf
ROOT
ATOM      1  C   UNL     1      -8.858   0.211   9.725  1.00  0.00     0.042 C 
ENDROOT
BRANCH   1   2
ATOM      2  C   UNL     1      -7.938   0.725  10.899  1.00  0.00     0.034 C 
ATOM      3  C   UNL     1      -2.154   2.037  10.903  1.00  0.00    -0.000 C 
ATOM      4  C   UNL     1      -3.645   1.639  10.885  1.00  0.00    -0.042 C 
ATOM      5  C   UNL     1      -1.958   3.537  11.381  1.00  0.00     0.028 C 
ATOM      6  C   UNL     1      -1.477   1.088  11.927  1.00  0.00     0.017 C 
ATOM      7  C   UNL     1      -4.648   2.434  11.684  1.00  0.00    -0.042 C 
ATOM      8  C   UNL     1      -4.047   0.467  10.305  1.00  0.00    -0.022 C 
ATOM      9  C   UNL     1      -2.842   3.895  12.585  1.00  0.00     0.036 C 
ATOM     10  C   UNL     1      -6.019   1.811  11.895  1.00  0.00     0.001 C 
ATOM     11  C   UNL     1      -4.274   3.497  12.414  1.00  0.00    -0.022 C 
ATOM     12  C   UNL     1      -5.490  -0.028  10.271  1.00  0.00     0.035 C 
ATOM     13  C   UNL     1      -6.473   1.122  10.571  1.00  0.00    -0.014 C 
ATOM     14  C   UNL     1      -7.215   2.725  12.205  1.00  0.00     0.044 C 
ATOM     15  C   UNL     1      -5.841   0.853  13.121  1.00  0.00     0.017 C 
ATOM     16  C   UNL     1      -6.462   2.091   9.341  1.00  0.00     0.013 C 
ATOM     17  C   UNL     1      -8.465   1.927  11.740  1.00  0.00     0.119 C 
BRANCH   3  18
ATOM     18  C   UNL     1      -1.500   1.826   9.491  1.00  0.00     0.018 C 
BRANCH  18  19
ATOM     19  C   UNL     1      -0.398   0.747   9.420  1.00  0.00     0.053 C 
BRANCH  19  20
ATOM     20  C   UNL     1       0.900   1.362   9.006  1.00  0.00     0.041 C 
ATOM     21  O   UNL     1       1.317   2.405   9.576  1.00  0.00    -0.550 OA
ATOM     22  O   UNL     1       1.688   0.737   8.046  1.00  0.00    -0.550 OA
ENDBRANCH  19  20
ENDBRANCH  18  19
ENDBRANCH   3  18
BRANCH   5  23
ATOM     23  C   UNL     1      -2.072   4.628  10.302  1.00  0.00    -0.076 C 
ATOM     24  C   UNL     1      -0.956   5.182   9.789  1.00  0.00     0.008 C 
ATOM     25  C   UNL     1      -3.393   5.197   9.856  1.00  0.00     0.039 C 
ENDBRANCH   5  23
BRANCH  17  26
ATOM     26  O   UNL     1      -9.194   1.451  12.841  1.00  0.00    -0.393 OA
ATOM     27  H   UNL     1      -9.162   0.460  12.803  1.00  0.00     0.210 HD
ENDBRANCH  17  26
ENDBRANCH   1   2
BRANCH   1  28
ATOM     28  C   UNL     1      -9.968   1.152   9.317  1.00  0.00     0.045 C 
ATOM     29  O   UNL     1      -9.836   1.910   8.319  1.00  0.00    -0.550 OA
ATOM     30  O   UNL     1     -11.104   1.274  10.108  1.00  0.00    -0.550 OA
ENDBRANCH   1  28
BRANCH   1  31
ATOM     31  C   UNL     1      -9.489  -1.176  10.043  1.00  0.00     0.014 C 
BRANCH  31  32
ATOM     32  C   UNL     1      -9.239  -1.726  11.463  1.00  0.00     0.031 C 
BRANCH  32  33
ATOM     33  C   UNL     1      -8.746  -3.164  11.478  1.00  0.00    -0.075 C 
ATOM     34  C   UNL     1      -9.443  -4.098  10.800  1.00  0.00     0.008 C 
BRANCH  33  35
ATOM     35  C   UNL     1      -7.351  -3.517  11.983  1.00  0.00     0.008 C 
ATOM     36  C   UNL     1      -6.368  -3.601  10.806  1.00  0.00     0.012 C 
ATOM     37  C   UNL     1      -6.840  -2.547  13.058  1.00  0.00     0.012 C 
ENDBRANCH  33  35
ENDBRANCH  32  33
ENDBRANCH  31  32
ENDBRANCH   1  31
TORSDOF 11
ENDMDL
MODEL 3
REMARK VINA RESULT:    -4.548      2.983      8.144
REMARK INTER + INTRA:          -9.641
REMARK INTER:                  -7.567
REMARK INTRA:                  -2.074
REMARK UNBOUND:                -2.301
REMARK SMILES C=C(CC[C@@H](C(=O)[O-])[C@@H]1[C@@H](O)C[C@]2(C)C3=CC[C@H](C(=C)C)[C@](C)(CCC(=O)[O-])C3=CC[C@@]12C)C(C)C
REMARK SMILES IDX 5 1 9 2 22 3 29 4 18 5 23 6 15 7 30 8 17 9 13 10 16 11 31 12
REMARK SMILES IDX 32 13 12 14 14 15 33 16 10 17 24 18 25 19 26 20 27 21 28 22
REMARK SMILES IDX 19 23 20 24 21 25 11 26 6 28 7 29 8 30 4 31 3 32 2 33 1 34
REMARK SMILES IDX 34 35 35 36 36 37
REMARK H PARENT 11 27
REMARK Flexibility Score: inf
ROOT
ATOM      1  C   UNL     1      -9.572   1.469   6.759  1.00  0.00     0.042 C 
ENDROOT
BRANCH   1   2
ATOM      2  C   UNL     1      -9.235   0.881   8.183  1.00  0.00     0.034 C 
ATOM      3  C   UNL     1      -4.001   0.292  10.912  1.00  0.00    -0.000 C 
ATOM      4  C   UNL     1      -5.342   0.410  10.157  1.00  0.00    -0.042 C 
ATOM      5  C   UNL     1      -4.046   1.056  12.301  1.00  0.00     0.028 C 
ATOM      6  C   UNL     1      -3.799  -1.224  11.176  1.00  0.00     0.017 C 
ATOM      7  C   UNL     1      -6.600   0.778  10.905  1.00  0.00    -0.042 C 
ATOM      8  C   UNL     1      -5.447   0.006   8.854  1.00  0.00    -0.022 C 
ATOM      9  C   UNL     1      -5.359   0.820  13.065  1.00  0.00     0.036 C 
ATOM     10  C   UNL     1      -7.924   0.556  10.191  1.00  0.00     0.001 C 
ATOM     11  C   UNL     1      -6.582   1.017  12.226  1.00  0.00    -0.022 C 
ATOM     12  C   UNL     1      -6.736   0.049   8.038  1.00  0.00     0.035 C 
ATOM     13  C   UNL     1      -7.773   0.982   8.697  1.00  0.00    -0.014 C 
ATOM     14  C   UNL     1      -9.154   1.366  10.630  1.00  0.00     0.044 C 
ATOM     15  C   UNL     1      -8.259  -0.955  10.425  1.00  0.00     0.017 C 
ATOM     16  C   UNL     1      -7.264   2.454   8.529  1.00  0.00     0.013 C 
ATOM     17  C   UNL     1     -10.084   1.397   9.384  1.00  0.00     0.119 C 
BRANCH   3  18
ATOM     18  C   UNL     1      -2.814   0.827  10.034  1.00  0.00     0.018 C 
BRANCH  18  19
ATOM     19  C   UNL     1      -1.476   0.072  10.189  1.00  0.00     0.053 C 
BRANCH  19  20
ATOM     20  C   UNL     1      -0.341   1.043  10.248  1.00  0.00     0.041 C 
ATOM     21  O   UNL     1      -0.566   2.272  10.408  1.00  0.00    -0.550 OA
ATOM     22  O   UNL     1       0.969   0.579  10.209  1.00  0.00    -0.550 OA
ENDBRANCH  19  20
ENDBRANCH  18  19
ENDBRANCH   3  18
BRANCH   5  23
ATOM     23  C   UNL     1      -3.717   2.559  12.275  1.00  0.00    -0.076 C 
ATOM     24  C   UNL     1      -2.736   3.044  13.061  1.00  0.00     0.008 C 
ATOM     25  C   UNL     1      -4.519   3.555  11.480  1.00  0.00     0.039 C 
ENDBRANCH   5  23
BRANCH  17  26
ATOM     26  O   UNL     1     -11.198   0.564   9.569  1.00  0.00    -0.393 OA
ATOM     27  H   UNL     1     -11.202   0.292  10.524  1.00  0.00     0.210 HD
ENDBRANCH  17  26
ENDBRANCH   1   2
BRANCH   1  28
ATOM     28  C   UNL     1     -10.514   2.651   6.757  1.00  0.00     0.045 C 
ATOM     29  O   UNL     1     -11.754   2.488   6.608  1.00  0.00    -0.550 OA
ATOM     30  O   UNL     1     -10.009   3.945   6.806  1.00  0.00    -0.550 OA
ENDBRANCH   1  28
BRANCH   1  31
ATOM     31  C   UNL     1     -10.149   0.386   5.802  1.00  0.00     0.014 C 
BRANCH  31  32
ATOM     32  C   UNL     1     -10.296  -1.032   6.392  1.00  0.00     0.031 C 
BRANCH  32  33
ATOM     33  C   UNL     1     -10.621  -2.092   5.351  1.00  0.00    -0.075 C 
ATOM     34  C   UNL     1     -10.015  -2.030   4.149  1.00  0.00     0.008 C 
BRANCH  33  35
ATOM     35  C   UNL     1     -11.373  -3.364   5.727  1.00  0.00     0.008 C 
ATOM     36  C   UNL     1     -10.619  -4.596   5.205  1.00  0.00     0.012 C 
ATOM     37  C   UNL     1     -11.639  -3.480   7.235  1.00  0.00     0.012 C 
ENDBRANCH  33  35
ENDBRANCH  32  33
ENDBRANCH  31  32
ENDBRANCH   1  31
TORSDOF 11
ENDMDL
MODEL 4
REMARK VINA RESULT:    -4.539      1.150      1.754
REMARK INTER + INTRA:          -9.627
REMARK INTER:                  -7.714
REMARK INTRA:                  -1.913
REMARK UNBOUND:                -2.301
REMARK SMILES C=C(CC[C@@H](C(=O)[O-])[C@@H]1[C@@H](O)C[C@]2(C)C3=CC[C@H](C(=C)C)[C@](C)(CCC(=O)[O-])C3=CC[C@@]12C)C(C)C
REMARK SMILES IDX 5 1 9 2 22 3 29 4 18 5 23 6 15 7 30 8 17 9 13 10 16 11 31 12
REMARK SMILES IDX 32 13 12 14 14 15 33 16 10 17 24 18 25 19 26 20 27 21 28 22
REMARK SMILES IDX 19 23 20 24 21 25 11 26 6 28 7 29 8 30 4 31 3 32 2 33 1 34
REMARK SMILES IDX 34 35 35 36 36 37
REMARK H PARENT 11 27
REMARK Flexibility Score: inf
ROOT
ATOM      1  C   UNL     1      -4.120  -1.223  11.080  1.00  0.00     0.042 C 
ENDROOT
BRANCH   1   2
ATOM      2  C   UNL     1      -5.626  -0.821  11.322  1.00  0.00     0.034 C 
ATOM      3  C   UNL     1      -9.057   3.014   8.372  1.00  0.00    -0.000 C 
ATOM      4  C   UNL     1      -8.126   2.061   9.152  1.00  0.00    -0.042 C 
ATOM      5  C   UNL     1     -10.349   2.260   7.843  1.00  0.00     0.028 C 
ATOM      6  C   UNL     1      -9.490   4.104   9.388  1.00  0.00     0.017 C 
ATOM      7  C   UNL     1      -8.665   0.767   9.708  1.00  0.00    -0.042 C 
ATOM      8  C   UNL     1      -6.865   2.456   9.509  1.00  0.00    -0.022 C 
ATOM      9  C   UNL     1     -10.954   1.314   8.891  1.00  0.00     0.036 C 
ATOM     10  C   UNL     1      -7.809   0.041  10.734  1.00  0.00     0.001 C 
ATOM     11  C   UNL     1      -9.948   0.412   9.533  1.00  0.00    -0.022 C 
ATOM     12  C   UNL     1      -5.889   1.601  10.311  1.00  0.00     0.035 C 
ATOM     13  C   UNL     1      -6.314   0.118  10.294  1.00  0.00    -0.014 C 
ATOM     14  C   UNL     1      -8.004  -1.470  10.935  1.00  0.00     0.044 C 
ATOM     15  C   UNL     1      -8.142   0.734  12.098  1.00  0.00     0.017 C 
ATOM     16  C   UNL     1      -6.072  -0.430   8.847  1.00  0.00     0.013 C 
ATOM     17  C   UNL     1      -6.651  -1.981  11.504  1.00  0.00     0.119 C 
BRANCH   3  18
ATOM     18  C   UNL     1      -8.295   3.691   7.179  1.00  0.00     0.018 C 
BRANCH  18  19
ATOM     19  C   UNL     1      -8.601   5.188   6.954  1.00  0.00     0.053 C 
BRANCH  19  20
ATOM     20  C   UNL     1      -9.543   5.354   5.805  1.00  0.00     0.041 C 
ATOM     21  O   UNL     1      -9.130   5.219   4.622  1.00  0.00    -0.550 OA
ATOM     22  O   UNL     1     -10.894   5.577   6.044  1.00  0.00    -0.550 OA
ENDBRANCH  19  20
ENDBRANCH  18  19
ENDBRANCH   3  18
BRANCH   5  23
ATOM     23  C   UNL     1     -10.222   1.535   6.491  1.00  0.00    -0.076 C 
ATOM     24  C   UNL     1     -10.913   1.981   5.424  1.00  0.00     0.008 C 
ATOM     25  C   UNL     1      -9.432   0.265   6.321  1.00  0.00     0.039 C 
ENDBRANCH   5  23
BRANCH  17  26
ATOM     26  O   UNL     1      -6.768  -2.299  12.866  1.00  0.00    -0.393 OA
ATOM     27  H   UNL     1      -6.896  -3.281  12.925  1.00  0.00     0.210 HD
ENDBRANCH  17  26
ENDBRANCH   1   2
BRANCH   1  28
ATOM     28  C   UNL     1      -3.640  -2.422  11.865  1.00  0.00     0.045 C 
ATOM     29  O   UNL     1      -3.631  -2.407  13.125  1.00  0.00    -0.550 OA
ATOM     30  O   UNL     1      -3.094  -3.516  11.203  1.00  0.00    -0.550 OA
ENDBRANCH   1  28
BRANCH   1  31
ATOM     31  C   UNL     1      -3.148  -0.040  11.357  1.00  0.00     0.014 C 
BRANCH  31  32
ATOM     32  C   UNL     1      -2.414   0.538  10.129  1.00  0.00     0.031 C 
BRANCH  32  33
ATOM     33  C   UNL     1      -0.953   0.865  10.393  1.00  0.00    -0.075 C 
ATOM     34  C   UNL     1      -0.004   0.238   9.669  1.00  0.00     0.008 C 
BRANCH  33  35
ATOM     35  C   UNL     1      -0.553   2.075  11.230  1.00  0.00     0.008 C 
ATOM     36  C   UNL     1      -1.549   3.223  11.009  1.00  0.00     0.012 C 
ATOM     37  C   UNL     1      -0.411   1.750  12.724  1.00  0.00     0.012 C 
ENDBRANCH  33  35
ENDBRANCH  32  33
ENDBRANCH  31  32
ENDBRANCH   1  31
TORSDOF 11
ENDMDL
MODEL 5
REMARK VINA RESULT:    -4.499      3.106      7.696
REMARK INTER + INTRA:          -9.562
REMARK INTER:                  -8.573
REMARK INTRA:                  -0.989
REMARK UNBOUND:                -2.301
REMARK SMILES C=C(CC[C@@H](C(=O)[O-])[C@@H]1[C@@H](O)C[C@]2(C)C3=CC[C@H](C(=C)C)[C@](C)(CCC(=O)[O-])C3=CC[C@@]12C)C(C)C
REMARK SMILES IDX 5 1 9 2 22 3 29 4 18 5 23 6 15 7 30 8 17 9 13 10 16 11 31 12
REMARK SMILES IDX 32 13 12 14 14 15 33 16 10 17 24 18 25 19 26 20 27 21 28 22
REMARK SMILES IDX 19 23 20 24 21 25 11 26 6 28 7 29 8 30 4 31 3 32 2 33 1 34
REMARK SMILES IDX 34 35 35 36 36 37
REMARK H PARENT 11 27
REMARK Flexibility Score: inf
ROOT
ATOM      1  C   UNL     1      -9.156   1.313   9.052  1.00  0.00     0.042 C 
ENDROOT
BRANCH   1   2
ATOM      2  C   UNL     1      -8.314   1.614  10.351  1.00  0.00     0.034 C 
ATOM      3  C   UNL     1      -2.435   1.865  11.098  1.00  0.00    -0.000 C 
ATOM      4  C   UNL     1      -3.959   1.742  10.886  1.00  0.00    -0.042 C 
ATOM      5  C   UNL     1      -2.041   3.288  11.678  1.00  0.00     0.028 C 
ATOM      6  C   UNL     1      -2.066   0.775  12.140  1.00  0.00     0.017 C 
ATOM      7  C   UNL     1      -4.899   2.676  11.606  1.00  0.00    -0.042 C 
ATOM      8  C   UNL     1      -4.484   0.681  10.199  1.00  0.00    -0.022 C 
ATOM      9  C   UNL     1      -2.992   3.758  12.790  1.00  0.00     0.036 C 
ATOM     10  C   UNL     1      -6.373   2.303  11.622  1.00  0.00     0.001 C 
ATOM     11  C   UNL     1      -4.439   3.630  12.432  1.00  0.00    -0.022 C 
ATOM     12  C   UNL     1      -5.975   0.455   9.971  1.00  0.00     0.035 C 
ATOM     13  C   UNL     1      -6.773   1.752  10.218  1.00  0.00    -0.014 C 
ATOM     14  C   UNL     1      -7.420   3.407  11.841  1.00  0.00     0.044 C 
ATOM     15  C   UNL     1      -6.518   1.288  12.805  1.00  0.00     0.017 C 
ATOM     16  C   UNL     1      -6.440   2.745   9.053  1.00  0.00     0.013 C 
ATOM     17  C   UNL     1      -8.723   2.862  11.191  1.00  0.00     0.119 C 
BRANCH   3  18
ATOM     18  C   UNL     1      -1.658   1.588   9.762  1.00  0.00     0.018 C 
BRANCH  18  19
ATOM     19  C   UNL     1      -0.783   0.316   9.750  1.00  0.00     0.053 C 
BRANCH  19  20
ATOM     20  C   UNL     1       0.665   0.686   9.709  1.00  0.00     0.041 C 
ATOM     21  O   UNL     1       1.009   1.898   9.726  1.00  0.00    -0.550 OA
ATOM     22  O   UNL     1       1.635  -0.309   9.735  1.00  0.00    -0.550 OA
ENDBRANCH  19  20
ENDBRANCH  18  19
ENDBRANCH   3  18
BRANCH   5  23
ATOM     23  C   UNL     1      -1.829   4.418  10.656  1.00  0.00    -0.076 C 
ATOM     24  C   UNL     1      -0.585   4.868  10.403  1.00  0.00     0.008 C 
ATOM     25  C   UNL     1      -2.971   5.134   9.985  1.00  0.00     0.039 C 
ENDBRANCH   5  23
BRANCH  17  26
ATOM     26  O   UNL     1      -9.655   2.488  12.172  1.00  0.00    -0.393 OA
ATOM     27  H   UNL     1     -10.224   3.281  12.349  1.00  0.00     0.210 HD
ENDBRANCH  17  26
ENDBRANCH   1   2
BRANCH   1  28
ATOM     28  C   UNL     1      -9.116  -0.122   8.577  1.00  0.00     0.045 C 
ATOM     29  O   UNL     1      -9.188  -1.075   9.398  1.00  0.00    -0.550 OA
ATOM     30  O   UNL     1      -8.884  -0.405   7.237  1.00  0.00    -0.550 OA
ENDBRANCH   1  28
BRANCH   1  31
ATOM     31  C   UNL     1      -8.744   2.230   7.864  1.00  0.00     0.014 C 
BRANCH  31  32
ATOM     32  C   UNL     1      -9.717   3.378   7.524  1.00  0.00     0.031 C 
BRANCH  32  33
ATOM     33  C   UNL     1      -9.198   4.312   6.441  1.00  0.00    -0.075 C 
ATOM     34  C   UNL     1     -10.030   4.681   5.447  1.00  0.00     0.008 C 
BRANCH  33  35
ATOM     35  C   UNL     1      -7.882   5.062   6.610  1.00  0.00     0.008 C 
ATOM     36  C   UNL     1      -7.555   5.849   5.331  1.00  0.00     0.012 C 
ATOM     37  C   UNL     1      -7.868   5.981   7.839  1.00  0.00     0.012 C 
ENDBRANCH  33  35
ENDBRANCH  32  33
ENDBRANCH  31  32
ENDBRANCH   1  31
TORSDOF 11
ENDMDL
MODEL 6
REMARK VINA RESULT:    -4.399      1.687      2.590
REMARK INTER + INTRA:          -9.401
REMARK INTER:                  -7.372
REMARK INTRA:                  -2.028
REMARK UNBOUND:                -2.301
REMARK SMILES C=C(CC[C@@H](C(=O)[O-])[C@@H]1[C@@H](O)C[C@]2(C)C3=CC[C@H](C(=C)C)[C@](C)(CCC(=O)[O-])C3=CC[C@@]12C)C(C)C
REMARK SMILES IDX 5 1 9 2 22 3 29 4 18 5 23 6 15 7 30 8 17 9 13 10 16 11 31 12
REMARK SMILES IDX 32 13 12 14 14 15 33 16 10 17 24 18 25 19 26 20 27 21 28 22
REMARK SMILES IDX 19 23 20 24 21 25 11 26 6 28 7 29 8 30 4 31 3 32 2 33 1 34
REMARK SMILES IDX 34 35 35 36 36 37
REMARK H PARENT 11 27
REMARK Flexibility Score: inf
ROOT
ATOM      1  C   UNL     1      -5.762  -1.008  10.207  1.00  0.00     0.042 C 
ENDROOT
BRANCH   1   2
ATOM      2  C   UNL     1      -7.148  -0.275  10.380  1.00  0.00     0.034 C 
ATOM      3  C   UNL     1      -9.611   4.018   7.112  1.00  0.00    -0.000 C 
ATOM      4  C   UNL     1      -8.924   2.938   7.973  1.00  0.00    -0.042 C 
ATOM      5  C   UNL     1     -11.027   3.530   6.588  1.00  0.00     0.028 C 
ATOM      6  C   UNL     1      -9.813   5.238   8.049  1.00  0.00     0.017 C 
ATOM      7  C   UNL     1      -9.741   1.828   8.587  1.00  0.00    -0.042 C 
ATOM      8  C   UNL     1      -7.613   3.071   8.344  1.00  0.00    -0.022 C 
ATOM      9  C   UNL     1     -11.842   2.806   7.671  1.00  0.00     0.036 C 
ATOM     10  C   UNL     1      -9.081   1.001   9.678  1.00  0.00     0.001 C 
ATOM     11  C   UNL     1     -11.067   1.750   8.395  1.00  0.00    -0.022 C 
ATOM     12  C   UNL     1      -6.860   2.078   9.223  1.00  0.00     0.035 C 
ATOM     13  C   UNL     1      -7.598   0.724   9.280  1.00  0.00    -0.014 C 
ATOM     14  C   UNL     1      -9.605  -0.417   9.961  1.00  0.00     0.044 C 
ATOM     15  C   UNL     1      -9.277   1.834  10.989  1.00  0.00     0.017 C 
ATOM     16  C   UNL     1      -7.458   0.046   7.875  1.00  0.00     0.013 C 
ATOM     17  C   UNL     1      -8.405  -1.172  10.599  1.00  0.00     0.119 C 
BRANCH   3  18
ATOM     18  C   UNL     1      -8.700   4.437   5.904  1.00  0.00     0.018 C 
BRANCH  18  19
ATOM     19  C   UNL     1      -8.785   5.922   5.487  1.00  0.00     0.053 C 
BRANCH  19  20
ATOM     20  C   UNL     1      -9.635   6.067   4.267  1.00  0.00     0.041 C 
ATOM     21  O   UNL     1     -10.754   6.641   4.338  1.00  0.00    -0.550 OA
ATOM     22  O   UNL     1      -9.155   5.639   3.034  1.00  0.00    -0.550 OA
ENDBRANCH  19  20
ENDBRANCH  18  19
ENDBRANCH   3  18
BRANCH   5  23
ATOM     23  C   UNL     1     -11.039   2.711   5.286  1.00  0.00    -0.076 C 
ATOM     24  C   UNL     1     -11.699   3.176   4.208  1.00  0.00     0.008 C 
ATOM     25  C   UNL     1     -10.427   1.339   5.182  1.00  0.00     0.039 C 
ENDBRANCH   5  23
BRANCH  17  26
ATOM     26  O   UNL     1      -8.611  -1.370  11.973  1.00  0.00    -0.393 OA
ATOM     27  H   UNL     1      -7.745  -1.669  12.356  1.00  0.00     0.210 HD
ENDBRANCH  17  26
ENDBRANCH   1   2
BRANCH   1  28
ATOM     28  C   UNL     1      -5.749  -2.464  10.615  1.00  0.00     0.045 C 
ATOM     29  O   UNL     1      -5.663  -2.793  11.828  1.00  0.00    -0.550 OA
ATOM     30  O   UNL     1      -5.717  -3.459   9.645  1.00  0.00    -0.550 OA
ENDBRANCH   1  28
BRANCH   1  31
ATOM     31  C   UNL     1      -4.617  -0.280  10.969  1.00  0.00     0.014 C 
BRANCH  31  32
ATOM     32  C   UNL     1      -3.550   0.409  10.093  1.00  0.00     0.031 C 
BRANCH  32  33
ATOM     33  C   UNL     1      -2.683   1.397  10.857  1.00  0.00    -0.075 C 
ATOM     34  C   UNL     1      -3.282   2.336  11.618  1.00  0.00     0.008 C 
BRANCH  33  35
ATOM     35  C   UNL     1      -1.184   1.173  11.018  1.00  0.00     0.008 C 
ATOM     36  C   UNL     1      -0.631   0.407   9.806  1.00  0.00     0.012 C 
ATOM     37  C   UNL     1      -0.404   2.475  11.247  1.00  0.00     0.012 C 
ENDBRANCH  33  35
ENDBRANCH  32  33
ENDBRANCH  31  32
ENDBRANCH   1  31
TORSDOF 11
ENDMDL
MODEL 7
REMARK VINA RESULT:    -4.372      1.771      2.335
REMARK INTER + INTRA:          -9.358
REMARK INTER:                  -7.756
REMARK INTRA:                  -1.602
REMARK UNBOUND:                -2.301
REMARK SMILES C=C(CC[C@@H](C(=O)[O-])[C@@H]1[C@@H](O)C[C@]2(C)C3=CC[C@H](C(=C)C)[C@](C)(CCC(=O)[O-])C3=CC[C@@]12C)C(C)C
REMARK SMILES IDX 5 1 9 2 22 3 29 4 18 5 23 6 15 7 30 8 17 9 13 10 16 11 31 12
REMARK SMILES IDX 32 13 12 14 14 15 33 16 10 17 24 18 25 19 26 20 27 21 28 22
REMARK SMILES IDX 19 23 20 24 21 25 11 26 6 28 7 29 8 30 4 31 3 32 2 33 1 34
REMARK SMILES IDX 34 35 35 36 36 37
REMARK H PARENT 11 27
REMARK Flexibility Score: inf
ROOT
ATOM      1  C   UNL     1      -4.145  -0.263  10.682  1.00  0.00     0.042 C 
ENDROOT
BRANCH   1   2
ATOM      2  C   UNL     1      -5.712  -0.222  10.861  1.00  0.00     0.034 C 
ATOM      3  C   UNL     1      -9.845   2.469   7.565  1.00  0.00    -0.000 C 
ATOM      4  C   UNL     1      -8.744   1.822   8.433  1.00  0.00    -0.042 C 
ATOM      5  C   UNL     1     -10.896   1.392   7.063  1.00  0.00     0.028 C 
ATOM      6  C   UNL     1     -10.566   3.485   8.489  1.00  0.00     0.017 C 
ATOM      7  C   UNL     1      -8.978   0.475   9.069  1.00  0.00    -0.042 C 
ATOM      8  C   UNL     1      -7.629   2.532   8.788  1.00  0.00    -0.022 C 
ATOM      9  C   UNL     1     -11.298   0.397   8.163  1.00  0.00     0.036 C 
ATOM     10  C   UNL     1      -8.014   0.046  10.163  1.00  0.00     0.001 C 
ATOM     11  C   UNL     1     -10.130  -0.191   8.891  1.00  0.00    -0.022 C 
ATOM     12  C   UNL     1      -6.509   1.993   9.671  1.00  0.00     0.035 C 
ATOM     13  C   UNL     1      -6.565   0.454   9.752  1.00  0.00    -0.014 C 
ATOM     14  C   UNL     1      -7.849  -1.452  10.469  1.00  0.00     0.044 C 
ATOM     15  C   UNL     1      -8.556   0.725  11.466  1.00  0.00     0.017 C 
ATOM     16  C   UNL     1      -6.142  -0.113   8.355  1.00  0.00     0.013 C 
ATOM     17  C   UNL     1      -6.435  -1.582  11.104  1.00  0.00     0.119 C 
BRANCH   3  18
ATOM     18  C   UNL     1      -9.221   3.231   6.343  1.00  0.00     0.018 C 
BRANCH  18  19
ATOM     19  C   UNL     1      -9.842   4.610   6.028  1.00  0.00     0.053 C 
BRANCH  19  20
ATOM     20  C   UNL     1     -10.488   4.588   4.680  1.00  0.00     0.041 C 
ATOM     21  O   UNL     1     -11.709   4.302   4.567  1.00  0.00    -0.550 OA
ATOM     22  O   UNL     1      -9.759   4.965   3.558  1.00  0.00    -0.550 OA
ENDBRANCH  19  20
ENDBRANCH  18  19
ENDBRANCH   3  18
BRANCH   5  23
ATOM     23  C   UNL     1     -10.546   0.633   5.771  1.00  0.00    -0.076 C 
ATOM     24  C   UNL     1     -11.303   0.801   4.669  1.00  0.00     0.008 C 
ATOM     25  C   UNL     1      -9.443  -0.390   5.701  1.00  0.00     0.039 C 
ENDBRANCH   5  23
BRANCH  17  26
ATOM     26  O   UNL     1      -6.526  -1.829  12.482  1.00  0.00    -0.393 OA
ATOM     27  H   UNL     1      -5.907  -1.197  12.932  1.00  0.00     0.210 HD
ENDBRANCH  17  26
ENDBRANCH   1   2
BRANCH   1  28
ATOM     28  C   UNL     1      -3.413  -1.182  11.633  1.00  0.00     0.045 C 
ATOM     29  O   UNL     1      -3.002  -2.310  11.252  1.00  0.00    -0.550 OA
ATOM     30  O   UNL     1      -3.285  -0.839  12.974  1.00  0.00    -0.550 OA
ENDBRANCH   1  28
BRANCH   1  31
ATOM     31  C   UNL     1      -3.509   1.154  10.788  1.00  0.00     0.014 C 
BRANCH  31  32
ATOM     32  C   UNL     1      -2.243   1.393   9.939  1.00  0.00     0.031 C 
BRANCH  32  33
ATOM     33  C   UNL     1      -1.228   2.308  10.608  1.00  0.00    -0.075 C 
ATOM     34  C   UNL     1      -0.190   1.756  11.267  1.00  0.00     0.008 C 
BRANCH  33  35
ATOM     35  C   UNL     1      -1.192   3.802  10.307  1.00  0.00     0.008 C 
ATOM     36  C   UNL     1      -2.127   4.556  11.265  1.00  0.00     0.012 C 
ATOM     37  C   UNL     1       0.226   4.388  10.348  1.00  0.00     0.012 C 
ENDBRANCH  33  35
ENDBRANCH  32  33
ENDBRANCH  31  32
ENDBRANCH   1  31
TORSDOF 11
ENDMDL
MODEL 8
REMARK VINA RESULT:    -4.313      1.691      8.497
REMARK INTER + INTRA:          -9.261
REMARK INTER:                  -6.763
REMARK INTRA:                  -2.498
REMARK UNBOUND:                -2.301
REMARK SMILES C=C(CC[C@@H](C(=O)[O-])[C@@H]1[C@@H](O)C[C@]2(C)C3=CC[C@H](C(=C)C)[C@](C)(CCC(=O)[O-])C3=CC[C@@]12C)C(C)C
REMARK SMILES IDX 5 1 9 2 22 3 29 4 18 5 23 6 15 7 30 8 17 9 13 10 16 11 31 12
REMARK SMILES IDX 32 13 12 14 14 15 33 16 10 17 24 18 25 19 26 20 27 21 28 22
REMARK SMILES IDX 19 23 20 24 21 25 11 26 6 28 7 29 8 30 4 31 3 32 2 33 1 34
REMARK SMILES IDX 34 35 35 36 36 37
REMARK H PARENT 11 27
REMARK Flexibility Score: inf
ROOT
ATOM      1  C   UNL     1      -9.874   3.121   7.386  1.00  0.00     0.042 C 
ENDROOT
BRANCH   1   2
ATOM      2  C   UNL     1      -9.425   2.938   8.887  1.00  0.00     0.034 C 
ATOM      3  C   UNL     1      -6.389  -1.472  11.437  1.00  0.00    -0.000 C 
ATOM      4  C   UNL     1      -7.221  -0.365  10.757  1.00  0.00    -0.042 C 
ATOM      5  C   UNL     1      -5.089  -0.881  12.129  1.00  0.00     0.028 C 
ATOM      6  C   UNL     1      -7.309  -2.080  12.528  1.00  0.00     0.017 C 
ATOM      7  C   UNL     1      -7.031   1.077  11.158  1.00  0.00    -0.042 C 
ATOM      8  C   UNL     1      -8.262  -0.684   9.928  1.00  0.00    -0.022 C 
ATOM      9  C   UNL     1      -5.365   0.423  12.892  1.00  0.00     0.036 C 
ATOM     10  C   UNL     1      -8.090   2.070  10.708  1.00  0.00     0.001 C 
ATOM     11  C   UNL     1      -6.138   1.428  12.098  1.00  0.00    -0.022 C 
ATOM     12  C   UNL     1      -9.163   0.338   9.242  1.00  0.00     0.035 C 
ATOM     13  C   UNL     1      -8.510   1.736   9.243  1.00  0.00    -0.014 C 
ATOM     14  C   UNL     1      -7.722   3.559  10.603  1.00  0.00     0.044 C 
ATOM     15  C   UNL     1      -9.231   1.952  11.775  1.00  0.00     0.017 C 
ATOM     16  C   UNL     1      -7.297   1.695   8.253  1.00  0.00     0.013 C 
ATOM     17  C   UNL     1      -8.724   4.150   9.571  1.00  0.00     0.119 C 
BRANCH   3  18
ATOM     18  C   UNL     1      -5.996  -2.591  10.408  1.00  0.00     0.018 C 
BRANCH  18  19
ATOM     19  C   UNL     1      -6.426  -4.026  10.785  1.00  0.00     0.053 C 
BRANCH  19  20
ATOM     20  C   UNL     1      -5.229  -4.842  11.155  1.00  0.00     0.041 C 
ATOM     21  O   UNL     1      -4.467  -4.463  12.084  1.00  0.00    -0.550 OA
ATOM     22  O   UNL     1      -5.003  -6.062  10.528  1.00  0.00    -0.550 OA
ENDBRANCH  19  20
ENDBRANCH  18  19
ENDBRANCH   3  18
BRANCH   5  23
ATOM     23  C   UNL     1      -3.845  -0.715  11.238  1.00  0.00    -0.076 C 
ATOM     24  C   UNL     1      -2.785  -1.527  11.409  1.00  0.00     0.008 C 
ATOM     25  C   UNL     1      -3.707   0.399  10.234  1.00  0.00     0.039 C 
ENDBRANCH   5  23
BRANCH  17  26
ATOM     26  O   UNL     1      -9.682   4.955  10.207  1.00  0.00    -0.393 OA
ATOM     27  H   UNL     1      -9.212   5.769  10.524  1.00  0.00     0.210 HD
ENDBRANCH  17  26
ENDBRANCH   1   2
BRANCH   1  28
ATOM     28  C   UNL     1      -9.551   4.466   6.776  1.00  0.00     0.045 C 
ATOM     29  O   UNL     1     -10.439   5.351   6.659  1.00  0.00    -0.550 OA
ATOM     30  O   UNL     1      -8.294   4.700   6.232  1.00  0.00    -0.550 OA
ENDBRANCH   1  28
BRANCH   1  31
ATOM     31  C   UNL     1     -11.396   2.854   7.195  1.00  0.00     0.014 C 
BRANCH  31  32
ATOM     32  C   UNL     1     -11.775   1.480   6.605  1.00  0.00     0.031 C 
BRANCH  32  33
ATOM     33  C   UNL     1     -10.919   1.074   5.414  1.00  0.00    -0.075 C 
ATOM     34  C   UNL     1     -10.873   1.886   4.339  1.00  0.00     0.008 C 
BRANCH  33  35
ATOM     35  C   UNL     1      -9.901  -0.055   5.522  1.00  0.00     0.008 C 
ATOM     36  C   UNL     1     -10.489  -1.223   6.328  1.00  0.00     0.012 C 
ATOM     37  C   UNL     1      -9.389  -0.533   4.156  1.00  0.00     0.012 C 
ENDBRANCH  33  35
ENDBRANCH  32  33
ENDBRANCH  31  32
ENDBRANCH   1  31
TORSDOF 11
ENDMDL
MODEL 9
REMARK VINA RESULT:    -4.297      3.284      8.411
REMARK INTER + INTRA:          -9.236
REMARK INTER:                  -7.380
REMARK INTRA:                  -1.856
REMARK UNBOUND:                -2.301
REMARK SMILES C=C(CC[C@@H](C(=O)[O-])[C@@H]1[C@@H](O)C[C@]2(C)C3=CC[C@H](C(=C)C)[C@](C)(CCC(=O)[O-])C3=CC[C@@]12C)C(C)C
REMARK SMILES IDX 5 1 9 2 22 3 29 4 18 5 23 6 15 7 30 8 17 9 13 10 16 11 31 12
REMARK SMILES IDX 32 13 12 14 14 15 33 16 10 17 24 18 25 19 26 20 27 21 28 22
REMARK SMILES IDX 19 23 20 24 21 25 11 26 6 28 7 29 8 30 4 31 3 32 2 33 1 34
REMARK SMILES IDX 34 35 35 36 36 37
REMARK H PARENT 11 27
REMARK Flexibility Score: inf
ROOT
ATOM      1  C   UNL     1      -9.115   2.895   9.377  1.00  0.00     0.042 C 
ENDROOT
BRANCH   1   2
ATOM      2  C   UNL     1      -8.181   2.970  10.647  1.00  0.00     0.034 C 
ATOM      3  C   UNL     1      -2.370   1.898  11.159  1.00  0.00    -0.000 C 
ATOM      4  C   UNL     1      -3.890   2.120  11.006  1.00  0.00    -0.042 C 
ATOM      5  C   UNL     1      -1.650   3.184  11.746  1.00  0.00     0.028 C 
ATOM      6  C   UNL     1      -2.215   0.729  12.167  1.00  0.00     0.017 C 
ATOM      7  C   UNL     1      -4.574   3.221  11.779  1.00  0.00    -0.042 C 
ATOM      8  C   UNL     1      -4.662   1.219  10.324  1.00  0.00    -0.022 C 
ATOM      9  C   UNL     1      -2.433   3.825  12.903  1.00  0.00     0.036 C 
ATOM     10  C   UNL     1      -6.092   3.182  11.849  1.00  0.00     0.001 C 
ATOM     11  C   UNL     1      -3.885   4.029  12.601  1.00  0.00    -0.022 C 
ATOM     12  C   UNL     1      -6.173   1.333  10.153  1.00  0.00     0.035 C 
ATOM     13  C   UNL     1      -6.654   2.768  10.453  1.00  0.00    -0.014 C 
ATOM     14  C   UNL     1      -6.860   4.484  12.128  1.00  0.00     0.044 C 
ATOM     15  C   UNL     1      -6.416   2.195  13.020  1.00  0.00     0.017 C 
ATOM     16  C   UNL     1      -6.151   3.692   9.292  1.00  0.00     0.013 C 
ATOM     17  C   UNL     1      -8.274   4.257  11.522  1.00  0.00     0.119 C 
BRANCH   3  18
ATOM     18  C   UNL     1      -1.722   1.490   9.789  1.00  0.00     0.018 C 
BRANCH  18  19
ATOM     19  C   UNL     1      -0.879   0.196   9.808  1.00  0.00     0.053 C 
BRANCH  19  20
ATOM     20  C   UNL     1       0.574   0.526   9.681  1.00  0.00     0.041 C 
ATOM     21  O   UNL     1       0.939   1.717   9.497  1.00  0.00    -0.550 OA
ATOM     22  O   UNL     1       1.527  -0.472   9.847  1.00  0.00    -0.550 OA
ENDBRANCH  19  20
ENDBRANCH  18  19
ENDBRANCH   3  18
BRANCH   5  23
ATOM     23  C   UNL     1      -1.230   4.265  10.735  1.00  0.00    -0.076 C 
ATOM     24  C   UNL     1       0.073   4.572  10.586  1.00  0.00     0.008 C 
ATOM     25  C   UNL     1      -2.226   5.087   9.961  1.00  0.00     0.039 C 
ENDBRANCH   5  23
BRANCH  17  26
ATOM     26  O   UNL     1      -9.229   4.073  12.534  1.00  0.00    -0.393 OA
ATOM     27  H   UNL     1      -9.206   4.883  13.106  1.00  0.00     0.210 HD
ENDBRANCH  17  26
ENDBRANCH   1   2
BRANCH   1  28
ATOM     28  C   UNL     1     -10.198   3.949   9.312  1.00  0.00     0.045 C 
ATOM     29  O   UNL     1     -10.076   4.952   8.560  1.00  0.00    -0.550 OA
ATOM     30  O   UNL     1     -11.290   3.879  10.168  1.00  0.00    -0.550 OA
ENDBRANCH   1  28
BRANCH   1  31
ATOM     31  C   UNL     1      -9.786   1.499   9.228  1.00  0.00     0.014 C 
BRANCH  31  32
ATOM     32  C   UNL     1     -10.569   1.259   7.921  1.00  0.00     0.031 C 
BRANCH  32  33
ATOM     33  C   UNL     1      -9.741   0.596   6.831  1.00  0.00    -0.075 C 
ATOM     34  C   UNL     1      -8.555   0.046   7.159  1.00  0.00     0.008 C 
BRANCH  33  35
ATOM     35  C   UNL     1     -10.340   0.281   5.465  1.00  0.00     0.008 C 
ATOM     36  C   UNL     1     -10.626   1.582   4.701  1.00  0.00     0.012 C 
ATOM     37  C   UNL     1      -9.466  -0.666   4.630  1.00  0.00     0.012 C 
ENDBRANCH  33  35
ENDBRANCH  32  33
ENDBRANCH  31  32
ENDBRANCH   1  31
TORSDOF 11
ENDMDL
