MODEL 1
REMARK VINA RESULT:    -5.480      0.000      0.000
REMARK INTER + INTRA:         -11.341
REMARK INTER:                 -10.606
REMARK INTRA:                  -0.736
REMARK UNBOUND:                -0.736
REMARK SMILES CCCCCC=CCC=CCCCCCCCCOC(C)=O
REMARK SMILES IDX 12 1 11 2 10 3 9 4 8 5 7 6 6 7 5 8 4 9 3 10 2 11 1 12 13 13
REMARK SMILES IDX 14 14 15 15 16 16 17 17 18 18 19 19 20 20 22 21 21 22
REMARK H PARENT
REMARK Flexibility Score: inf
ROOT
ATOM      1  C   UNL     1      52.347  -4.945  -5.097  1.00  0.00     0.004 C 
ENDROOT
BRANCH   1   2
ATOM      2  C   UNL     1      53.489  -4.034  -5.568  1.00  0.00     0.027 C 
BRANCH   2   3
ATOM      3  C   UNL     1      54.801  -4.384  -4.916  1.00  0.00    -0.031 C 
ATOM      4  C   UNL     1      55.769  -3.469  -4.750  1.00  0.00    -0.027 C 
BRANCH   4   5
ATOM      5  C   UNL     1      57.066  -3.811  -4.074  1.00  0.00     0.054 C 
BRANCH   5   6
ATOM      6  C   UNL     1      57.500  -2.686  -3.178  1.00  0.00    -0.027 C 
ATOM      7  C   UNL     1      58.486  -1.845  -3.525  1.00  0.00    -0.031 C 
BRANCH   7   8
ATOM      8  C   UNL     1      58.936  -0.743  -2.607  1.00  0.00     0.027 C 
BRANCH   8   9
ATOM      9  C   UNL     1      60.251  -0.123  -3.101  1.00  0.00     0.004 C 
BRANCH   9  10
ATOM     10  C   UNL     1      60.116   1.377  -3.409  1.00  0.00     0.000 C 
BRANCH  10  11
ATOM     11  C   UNL     1      58.653   1.844  -3.423  1.00  0.00    -0.003 C 
ATOM     12  C   UNL     1      58.561   3.362  -3.290  1.00  0.00     0.004 C 
ENDBRANCH  10  11
ENDBRANCH   9  10
ENDBRANCH   8   9
ENDBRANCH   7   8
ENDBRANCH   5   6
ENDBRANCH   4   5
ENDBRANCH   2   3
ENDBRANCH   1   2
BRANCH   1  13
ATOM     13  C   UNL     1      50.993  -4.214  -5.086  1.00  0.00     0.000 C 
BRANCH  13  14
ATOM     14  C   UNL     1      49.864  -5.073  -4.493  1.00  0.00     0.000 C 
BRANCH  14  15
ATOM     15  C   UNL     1      50.263  -6.551  -4.346  1.00  0.00     0.000 C 
BRANCH  15  16
ATOM     16  C   UNL     1      49.202  -7.386  -3.606  1.00  0.00     0.003 C 
BRANCH  16  17
ATOM     17  C   UNL     1      48.797  -6.844  -2.223  1.00  0.00     0.042 C 
BRANCH  17  18
ATOM     18  C   UNL     1      48.385  -7.950  -1.242  1.00  0.00     0.233 C 
BRANCH  18  19
ATOM     19  O   UNL     1      46.989  -7.869  -0.961  1.00  0.00    -0.466 OA
BRANCH  19  20
ATOM     20  C   UNL     1      46.458  -7.103   0.083  1.00  0.00     0.302 C 
ATOM     21  O   UNL     1      47.203  -6.630   0.983  1.00  0.00    -0.253 OA
ATOM     22  C   UNL     1      44.995  -6.825   0.122  1.00  0.00     0.139 C 
ENDBRANCH  19  20
ENDBRANCH  18  19
ENDBRANCH  17  18
ENDBRANCH  16  17
ENDBRANCH  15  16
ENDBRANCH  14  15
ENDBRANCH  13  14
ENDBRANCH   1  13
TORSDOF 16
ENDMDL
MODEL 2
REMARK VINA RESULT:    -5.465      4.382     11.473
REMARK INTER + INTRA:         -11.312
REMARK INTER:                 -10.423
REMARK INTRA:                  -0.889
REMARK UNBOUND:                -0.736
REMARK SMILES CCCCCC=CCC=CCCCCCCCCOC(C)=O
REMARK SMILES IDX 12 1 11 2 10 3 9 4 8 5 7 6 6 7 5 8 4 9 3 10 2 11 1 12 13 13
REMARK SMILES IDX 14 14 15 15 16 16 17 17 18 18 19 19 20 20 22 21 21 22
REMARK H PARENT
REMARK Flexibility Score: inf
ROOT
ATOM      1  C   UNL     1      53.551  -4.572  -4.744  1.00  0.00     0.004 C 
ENDROOT
BRANCH   1   2
ATOM      2  C   UNL     1      52.088  -4.217  -5.042  1.00  0.00     0.027 C 
BRANCH   2   3
ATOM      3  C   UNL     1      51.234  -5.442  -5.234  1.00  0.00    -0.031 C 
ATOM      4  C   UNL     1      50.086  -5.612  -4.558  1.00  0.00    -0.027 C 
BRANCH   4   5
ATOM      5  C   UNL     1      49.220  -6.820  -4.771  1.00  0.00     0.054 C 
BRANCH   5   6
ATOM      6  C   UNL     1      48.501  -7.177  -3.501  1.00  0.00    -0.027 C 
ATOM      7  C   UNL     1      49.159  -7.575  -2.403  1.00  0.00    -0.031 C 
BRANCH   7   8
ATOM      8  C   UNL     1      48.427  -7.963  -1.147  1.00  0.00     0.027 C 
BRANCH   8   9
ATOM      9  C   UNL     1      48.107  -6.724  -0.297  1.00  0.00     0.004 C 
BRANCH   9  10
ATOM     10  C   UNL     1      46.947  -6.966   0.682  1.00  0.00     0.000 C 
BRANCH  10  11
ATOM     11  C   UNL     1      45.603  -7.155  -0.035  1.00  0.00    -0.003 C 
ATOM     12  C   UNL     1      44.469  -6.484   0.737  1.00  0.00     0.004 C 
ENDBRANCH  10  11
ENDBRANCH   9  10
ENDBRANCH   8   9
ENDBRANCH   7   8
ENDBRANCH   5   6
ENDBRANCH   4   5
ENDBRANCH   2   3
ENDBRANCH   1   2
BRANCH   1  13
ATOM     13  C   UNL     1      54.529  -3.772  -5.623  1.00  0.00     0.000 C 
BRANCH  13  14
ATOM     14  C   UNL     1      55.662  -3.128  -4.808  1.00  0.00     0.000 C 
BRANCH  14  15
ATOM     15  C   UNL     1      56.957  -3.957  -4.840  1.00  0.00     0.000 C 
BRANCH  15  16
ATOM     16  C   UNL     1      58.077  -3.350  -3.974  1.00  0.00     0.003 C 
BRANCH  16  17
ATOM     17  C   UNL     1      57.701  -3.109  -2.501  1.00  0.00     0.042 C 
BRANCH  17  18
ATOM     18  C   UNL     1      57.835  -1.639  -2.081  1.00  0.00     0.233 C 
BRANCH  18  19
ATOM     19  O   UNL     1      58.234  -0.839  -3.192  1.00  0.00    -0.466 OA
BRANCH  19  20
ATOM     20  C   UNL     1      59.377  -0.029  -3.185  1.00  0.00     0.302 C 
ATOM     21  O   UNL     1      59.444   1.003  -3.905  1.00  0.00    -0.253 OA
ATOM     22  C   UNL     1      60.522  -0.381  -2.298  1.00  0.00     0.139 C 
ENDBRANCH  19  20
ENDBRANCH  18  19
ENDBRANCH  17  18
ENDBRANCH  16  17
ENDBRANCH  15  16
ENDBRANCH  14  15
ENDBRANCH  13  14
ENDBRANCH   1  13
TORSDOF 16
ENDMDL
MODEL 3
REMARK VINA RESULT:    -5.439      3.653      5.607
REMARK INTER + INTRA:         -11.263
REMARK INTER:                  -9.045
REMARK INTRA:                  -2.218
REMARK UNBOUND:                -0.736
REMARK SMILES CCCCCC=CCC=CCCCCCCCCOC(C)=O
REMARK SMILES IDX 12 1 11 2 10 3 9 4 8 5 7 6 6 7 5 8 4 9 3 10 2 11 1 12 13 13
REMARK SMILES IDX 14 14 15 15 16 16 17 17 18 18 19 19 20 20 22 21 21 22
REMARK H PARENT
REMARK Flexibility Score: inf
ROOT
ATOM      1  C   UNL     1      47.865  -7.576  -7.553  1.00  0.00     0.004 C 
ENDROOT
BRANCH   1   2
ATOM      2  C   UNL     1      48.810  -7.407  -8.751  1.00  0.00     0.027 C 
BRANCH   2   3
ATOM      3  C   UNL     1      49.652  -6.163  -8.640  1.00  0.00    -0.031 C 
ATOM      4  C   UNL     1      50.972  -6.183  -8.882  1.00  0.00    -0.027 C 
BRANCH   4   5
ATOM      5  C   UNL     1      51.805  -4.936  -8.799  1.00  0.00     0.054 C 
BRANCH   5   6
ATOM      6  C   UNL     1      52.455  -4.832  -7.448  1.00  0.00    -0.027 C 
ATOM      7  C   UNL     1      51.848  -4.229  -6.415  1.00  0.00    -0.031 C 
BRANCH   7   8
ATOM      8  C   UNL     1      52.521  -4.100  -5.077  1.00  0.00     0.027 C 
BRANCH   8   9
ATOM      9  C   UNL     1      53.969  -4.608  -5.143  1.00  0.00     0.004 C 
BRANCH   9  10
ATOM     10  C   UNL     1      54.979  -3.475  -5.391  1.00  0.00     0.000 C 
BRANCH  10  11
ATOM     11  C   UNL     1      56.284  -3.980  -6.023  1.00  0.00    -0.003 C 
ATOM     12  C   UNL     1      56.126  -4.168  -7.530  1.00  0.00     0.004 C 
ENDBRANCH  10  11
ENDBRANCH   9  10
ENDBRANCH   8   9
ENDBRANCH   7   8
ENDBRANCH   5   6
ENDBRANCH   4   5
ENDBRANCH   2   3
ENDBRANCH   1   2
BRANCH   1  13
ATOM     13  C   UNL     1      48.045  -6.456  -6.514  1.00  0.00     0.000 C 
BRANCH  13  14
ATOM     14  C   UNL     1      48.366  -6.999  -5.112  1.00  0.00     0.000 C 
BRANCH  14  15
ATOM     15  C   UNL     1      49.539  -6.259  -4.447  1.00  0.00     0.000 C 
BRANCH  15  16
ATOM     16  C   UNL     1      50.769  -7.160  -4.230  1.00  0.00     0.003 C 
BRANCH  16  17
ATOM     17  C   UNL     1      50.505  -8.433  -3.404  1.00  0.00     0.042 C 
BRANCH  17  18
ATOM     18  C   UNL     1      50.565  -8.189  -1.890  1.00  0.00     0.233 C 
BRANCH  18  19
ATOM     19  O   UNL     1      49.354  -8.615  -1.271  1.00  0.00    -0.466 OA
BRANCH  19  20
ATOM     20  C   UNL     1      48.187  -7.842  -1.251  1.00  0.00     0.302 C 
ATOM     21  O   UNL     1      48.243  -6.586  -1.153  1.00  0.00    -0.253 OA
ATOM     22  C   UNL     1      46.860  -8.509  -1.370  1.00  0.00     0.139 C 
ENDBRANCH  19  20
ENDBRANCH  18  19
ENDBRANCH  17  18
ENDBRANCH  16  17
ENDBRANCH  15  16
ENDBRANCH  14  15
ENDBRANCH  13  14
ENDBRANCH   1  13
TORSDOF 16
ENDMDL
MODEL 4
REMARK VINA RESULT:    -5.417      5.235      9.375
REMARK INTER + INTRA:         -11.219
REMARK INTER:                  -9.303
REMARK INTRA:                  -1.915
REMARK UNBOUND:                -0.736
REMARK SMILES CCCCCC=CCC=CCCCCCCCCOC(C)=O
REMARK SMILES IDX 12 1 11 2 10 3 9 4 8 5 7 6 6 7 5 8 4 9 3 10 2 11 1 12 13 13
REMARK SMILES IDX 14 14 15 15 16 16 17 17 18 18 19 19 20 20 22 21 21 22
REMARK H PARENT
REMARK Flexibility Score: inf
ROOT
ATOM      1  C   UNL     1      53.068  -5.041  -4.575  1.00  0.00     0.004 C 
ENDROOT
BRANCH   1   2
ATOM      2  C   UNL     1      51.944  -4.336  -5.345  1.00  0.00     0.027 C 
BRANCH   2   3
ATOM      3  C   UNL     1      50.775  -5.249  -5.608  1.00  0.00    -0.031 C 
ATOM      4  C   UNL     1      49.808  -5.433  -4.696  1.00  0.00    -0.027 C 
BRANCH   4   5
ATOM      5  C   UNL     1      48.628  -6.321  -4.971  1.00  0.00     0.054 C 
BRANCH   5   6
ATOM      6  C   UNL     1      48.435  -7.295  -3.842  1.00  0.00    -0.027 C 
ATOM      7  C   UNL     1      48.981  -7.096  -2.634  1.00  0.00    -0.031 C 
BRANCH   7   8
ATOM      8  C   UNL     1      48.811  -8.093  -1.522  1.00  0.00     0.027 C 
BRANCH   8   9
ATOM      9  C   UNL     1      47.391  -8.025  -0.941  1.00  0.00     0.004 C 
BRANCH   9  10
ATOM     10  C   UNL     1      47.207  -6.847   0.030  1.00  0.00     0.000 C 
BRANCH  10  11
ATOM     11  C   UNL     1      45.792  -6.788   0.621  1.00  0.00    -0.003 C 
ATOM     12  C   UNL     1      44.746  -7.188  -0.417  1.00  0.00     0.004 C 
ENDBRANCH  10  11
ENDBRANCH   9  10
ENDBRANCH   8   9
ENDBRANCH   7   8
ENDBRANCH   5   6
ENDBRANCH   4   5
ENDBRANCH   2   3
ENDBRANCH   1   2
BRANCH   1  13
ATOM     13  C   UNL     1      53.406  -6.416  -5.177  1.00  0.00     0.000 C 
BRANCH  13  14
ATOM     14  C   UNL     1      53.485  -7.522  -4.112  1.00  0.00     0.000 C 
BRANCH  14  15
ATOM     15  C   UNL     1      52.608  -7.223  -2.885  1.00  0.00     0.000 C 
BRANCH  15  16
ATOM     16  C   UNL     1      53.128  -7.893  -1.600  1.00  0.00     0.003 C 
BRANCH  16  17
ATOM     17  C   UNL     1      54.618  -7.650  -1.297  1.00  0.00     0.042 C 
BRANCH  17  18
ATOM     18  C   UNL     1      54.861  -6.388  -0.458  1.00  0.00     0.233 C 
BRANCH  18  19
ATOM     19  O   UNL     1      53.713  -6.090   0.335  1.00  0.00    -0.466 OA
BRANCH  19  20
ATOM     20  C   UNL     1      53.754  -5.962   1.729  1.00  0.00     0.302 C 
ATOM     21  O   UNL     1      54.815  -6.192   2.369  1.00  0.00    -0.253 OA
ATOM     22  C   UNL     1      52.533  -5.529   2.464  1.00  0.00     0.139 C 
ENDBRANCH  19  20
ENDBRANCH  18  19
ENDBRANCH  17  18
ENDBRANCH  16  17
ENDBRANCH  15  16
ENDBRANCH  14  15
ENDBRANCH  13  14
ENDBRANCH   1  13
TORSDOF 16
ENDMDL
MODEL 5
REMARK VINA RESULT:    -5.416      5.461      9.906
REMARK INTER + INTRA:         -11.218
REMARK INTER:                  -9.066
REMARK INTRA:                  -2.152
REMARK UNBOUND:                -0.736
REMARK SMILES CCCCCC=CCC=CCCCCCCCCOC(C)=O
REMARK SMILES IDX 12 1 11 2 10 3 9 4 8 5 7 6 6 7 5 8 4 9 3 10 2 11 1 12 13 13
REMARK SMILES IDX 14 14 15 15 16 16 17 17 18 18 19 19 20 20 22 21 21 22
REMARK H PARENT
REMARK Flexibility Score: inf
ROOT
ATOM      1  C   UNL     1      58.061   1.858  -3.058  1.00  0.00     0.004 C 
ENDROOT
BRANCH   1   2
ATOM      2  C   UNL     1      57.760   1.901  -1.554  1.00  0.00     0.027 C 
BRANCH   2   3
ATOM      3  C   UNL     1      57.725   0.526  -0.941  1.00  0.00    -0.031 C 
ATOM      4  C   UNL     1      58.590   0.161   0.019  1.00  0.00    -0.027 C 
BRANCH   4   5
ATOM      5  C   UNL     1      58.535  -1.200   0.649  1.00  0.00     0.054 C 
BRANCH   5   6
ATOM      6  C   UNL     1      57.115  -1.687   0.717  1.00  0.00    -0.027 C 
ATOM      7  C   UNL     1      56.791  -2.847   1.307  1.00  0.00    -0.031 C 
BRANCH   7   8
ATOM      8  C   UNL     1      55.372  -3.342   1.339  1.00  0.00     0.027 C 
BRANCH   8   9
ATOM      9  C   UNL     1      55.299  -4.757   1.932  1.00  0.00     0.004 C 
BRANCH   9  10
ATOM     10  C   UNL     1      54.120  -5.569   1.373  1.00  0.00     0.000 C 
BRANCH  10  11
ATOM     11  C   UNL     1      53.145  -6.020   2.471  1.00  0.00    -0.003 C 
ATOM     12  C   UNL     1      51.939  -5.086   2.551  1.00  0.00     0.004 C 
ENDBRANCH  10  11
ENDBRANCH   9  10
ENDBRANCH   8   9
ENDBRANCH   7   8
ENDBRANCH   5   6
ENDBRANCH   4   5
ENDBRANCH   2   3
ENDBRANCH   1   2
BRANCH   1  13
ATOM     13  C   UNL     1      59.549   2.118  -3.356  1.00  0.00     0.000 C 
BRANCH  13  14
ATOM     14  C   UNL     1      60.267   0.871  -3.896  1.00  0.00     0.000 C 
BRANCH  14  15
ATOM     15  C   UNL     1      60.797  -0.038  -2.774  1.00  0.00     0.000 C 
BRANCH  15  16
ATOM     16  C   UNL     1      60.398  -1.513  -2.960  1.00  0.00     0.003 C 
BRANCH  16  17
ATOM     17  C   UNL     1      58.901  -1.752  -3.230  1.00  0.00     0.042 C 
BRANCH  17  18
ATOM     18  C   UNL     1      58.543  -3.240  -3.352  1.00  0.00     0.233 C 
BRANCH  18  19
ATOM     19  O   UNL     1      57.770  -3.658  -2.229  1.00  0.00    -0.466 OA
BRANCH  19  20
ATOM     20  C   UNL     1      57.090  -4.881  -2.177  1.00  0.00     0.302 C 
ATOM     21  O   UNL     1      56.326  -5.238  -3.113  1.00  0.00    -0.253 OA
ATOM     22  C   UNL     1      57.288  -5.783  -1.007  1.00  0.00     0.139 C 
ENDBRANCH  19  20
ENDBRANCH  18  19
ENDBRANCH  17  18
ENDBRANCH  16  17
ENDBRANCH  15  16
ENDBRANCH  14  15
ENDBRANCH  13  14
ENDBRANCH   1  13
TORSDOF 16
ENDMDL
MODEL 6
REMARK VINA RESULT:    -5.360      3.842     10.797
REMARK INTER + INTRA:         -11.110
REMARK INTER:                  -9.794
REMARK INTRA:                  -1.316
REMARK UNBOUND:                -0.736
REMARK SMILES CCCCCC=CCC=CCCCCCCCCOC(C)=O
REMARK SMILES IDX 12 1 11 2 10 3 9 4 8 5 7 6 6 7 5 8 4 9 3 10 2 11 1 12 13 13
REMARK SMILES IDX 14 14 15 15 16 16 17 17 18 18 19 19 20 20 22 21 21 22
REMARK H PARENT
REMARK Flexibility Score: inf
ROOT
ATOM      1  C   UNL     1      59.146  -3.020  -4.004  1.00  0.00     0.004 C 
ENDROOT
BRANCH   1   2
ATOM      2  C   UNL     1      58.012  -3.931  -3.513  1.00  0.00     0.027 C 
BRANCH   2   3
ATOM      3  C   UNL     1      56.655  -3.412  -3.908  1.00  0.00    -0.031 C 
ATOM      4  C   UNL     1      56.062  -3.792  -5.051  1.00  0.00    -0.027 C 
BRANCH   4   5
ATOM      5  C   UNL     1      54.696  -3.296  -5.430  1.00  0.00     0.054 C 
BRANCH   5   6
ATOM      6  C   UNL     1      53.716  -4.435  -5.452  1.00  0.00    -0.027 C 
ATOM      7  C   UNL     1      52.398  -4.238  -5.298  1.00  0.00    -0.031 C 
BRANCH   7   8
ATOM      8  C   UNL     1      51.429  -5.388  -5.287  1.00  0.00     0.027 C 
BRANCH   8   9
ATOM      9  C   UNL     1      50.088  -4.967  -4.668  1.00  0.00     0.004 C 
BRANCH   9  10
ATOM     10  C   UNL     1      48.913  -5.816  -5.177  1.00  0.00     0.000 C 
BRANCH  10  11
ATOM     11  C   UNL     1      48.675  -7.066  -4.318  1.00  0.00    -0.003 C 
ATOM     12  C   UNL     1      48.871  -6.759  -2.835  1.00  0.00     0.004 C 
ENDBRANCH  10  11
ENDBRANCH   9  10
ENDBRANCH   8   9
ENDBRANCH   7   8
ENDBRANCH   5   6
ENDBRANCH   4   5
ENDBRANCH   2   3
ENDBRANCH   1   2
BRANCH   1  13
ATOM     13  C   UNL     1      59.047  -1.604  -3.410  1.00  0.00     0.000 C 
BRANCH  13  14
ATOM     14  C   UNL     1      60.377  -1.123  -2.810  1.00  0.00     0.000 C 
BRANCH  14  15
ATOM     15  C   UNL     1      60.566   0.398  -2.938  1.00  0.00     0.000 C 
BRANCH  15  16
ATOM     16  C   UNL     1      59.545   1.051  -3.888  1.00  0.00     0.003 C 
BRANCH  16  17
ATOM     17  C   UNL     1      58.724   2.198  -3.271  1.00  0.00     0.042 C 
BRANCH  17  18
ATOM     18  C   UNL     1      58.439   1.996  -1.777  1.00  0.00     0.233 C 
BRANCH  18  19
ATOM     19  O   UNL     1      57.422   1.014  -1.594  1.00  0.00    -0.466 OA
BRANCH  19  20
ATOM     20  C   UNL     1      57.461   0.045  -0.584  1.00  0.00     0.302 C 
ATOM     21  O   UNL     1      56.525  -0.788  -0.448  1.00  0.00    -0.253 OA
ATOM     22  C   UNL     1      58.636  -0.016   0.331  1.00  0.00     0.139 C 
ENDBRANCH  19  20
ENDBRANCH  18  19
ENDBRANCH  17  18
ENDBRANCH  16  17
ENDBRANCH  15  16
ENDBRANCH  14  15
ENDBRANCH  13  14
ENDBRANCH   1  13
TORSDOF 16
ENDMDL
MODEL 7
REMARK VINA RESULT:    -5.218      4.896     11.419
REMARK INTER + INTRA:         -10.834
REMARK INTER:                  -9.993
REMARK INTRA:                  -0.841
REMARK UNBOUND:                -0.736
REMARK SMILES CCCCCC=CCC=CCCCCCCCCOC(C)=O
REMARK SMILES IDX 12 1 11 2 10 3 9 4 8 5 7 6 6 7 5 8 4 9 3 10 2 11 1 12 13 13
REMARK SMILES IDX 14 14 15 15 16 16 17 17 18 18 19 19 20 20 22 21 21 22
REMARK H PARENT
REMARK Flexibility Score: inf
ROOT
ATOM      1  C   UNL     1      55.817  -4.708  -4.327  1.00  0.00     0.004 C 
ENDROOT
BRANCH   1   2
ATOM      2  C   UNL     1      55.232  -3.479  -5.038  1.00  0.00     0.027 C 
BRANCH   2   3
ATOM      3  C   UNL     1      53.923  -3.784  -5.717  1.00  0.00    -0.031 C 
ATOM      4  C   UNL     1      52.882  -4.293  -5.041  1.00  0.00    -0.027 C 
BRANCH   4   5
ATOM      5  C   UNL     1      51.568  -4.570  -5.714  1.00  0.00     0.054 C 
BRANCH   5   6
ATOM      6  C   UNL     1      50.840  -5.675  -5.001  1.00  0.00    -0.027 C 
ATOM      7  C   UNL     1      49.615  -5.498  -4.485  1.00  0.00    -0.031 C 
BRANCH   7   8
ATOM      8  C   UNL     1      48.909  -6.599  -3.744  1.00  0.00     0.027 C 
BRANCH   8   9
ATOM      9  C   UNL     1      49.920  -7.582  -3.134  1.00  0.00     0.004 C 
BRANCH   9  10
ATOM     10  C   UNL     1      49.551  -7.990  -1.699  1.00  0.00     0.000 C 
BRANCH  10  11
ATOM     11  C   UNL     1      48.262  -7.314  -1.209  1.00  0.00    -0.003 C 
ATOM     12  C   UNL     1      47.171  -8.347  -0.932  1.00  0.00     0.004 C 
ENDBRANCH  10  11
ENDBRANCH   9  10
ENDBRANCH   8   9
ENDBRANCH   7   8
ENDBRANCH   5   6
ENDBRANCH   4   5
ENDBRANCH   2   3
ENDBRANCH   1   2
BRANCH   1  13
ATOM     13  C   UNL     1      57.107  -4.370  -3.559  1.00  0.00     0.000 C 
BRANCH  13  14
ATOM     14  C   UNL     1      58.167  -3.705  -4.452  1.00  0.00     0.000 C 
BRANCH  14  15
ATOM     15  C   UNL     1      59.418  -3.279  -3.665  1.00  0.00     0.000 C 
BRANCH  15  16
ATOM     16  C   UNL     1      59.114  -2.228  -2.581  1.00  0.00     0.003 C 
BRANCH  16  17
ATOM     17  C   UNL     1      58.680  -0.850  -3.115  1.00  0.00     0.042 C 
BRANCH  17  18
ATOM     18  C   UNL     1      59.845   0.143  -3.228  1.00  0.00     0.233 C 
BRANCH  18  19
ATOM     19  O   UNL     1      59.411   1.346  -3.858  1.00  0.00    -0.466 OA
BRANCH  19  20
ATOM     20  C   UNL     1      58.875   2.432  -3.155  1.00  0.00     0.302 C 
ATOM     21  O   UNL     1      59.438   3.559  -3.177  1.00  0.00    -0.253 OA
ATOM     22  C   UNL     1      57.610   2.259  -2.388  1.00  0.00     0.139 C 
ENDBRANCH  19  20
ENDBRANCH  18  19
ENDBRANCH  17  18
ENDBRANCH  16  17
ENDBRANCH  15  16
ENDBRANCH  14  15
ENDBRANCH  13  14
ENDBRANCH   1  13
TORSDOF 16
ENDMDL
MODEL 8
REMARK VINA RESULT:    -5.197      7.509     10.585
REMARK INTER + INTRA:         -10.794
REMARK INTER:                  -7.631
REMARK INTRA:                  -3.162
REMARK UNBOUND:                -0.736
REMARK SMILES CCCCCC=CCC=CCCCCCCCCOC(C)=O
REMARK SMILES IDX 12 1 11 2 10 3 9 4 8 5 7 6 6 7 5 8 4 9 3 10 2 11 1 12 13 13
REMARK SMILES IDX 14 14 15 15 16 16 17 17 18 18 19 19 20 20 22 21 21 22
REMARK H PARENT
REMARK Flexibility Score: inf
ROOT
ATOM      1  C   UNL     1      58.291   1.626  -3.138  1.00  0.00     0.004 C 
ENDROOT
BRANCH   1   2
ATOM      2  C   UNL     1      57.880   2.209  -1.779  1.00  0.00     0.027 C 
BRANCH   2   3
ATOM      3  C   UNL     1      58.165   1.262  -0.643  1.00  0.00    -0.031 C 
ATOM      4  C   UNL     1      57.555   0.070  -0.552  1.00  0.00    -0.027 C 
BRANCH   4   5
ATOM      5  C   UNL     1      57.862  -0.886   0.565  1.00  0.00     0.054 C 
BRANCH   5   6
ATOM      6  C   UNL     1      57.453  -2.281   0.184  1.00  0.00    -0.027 C 
ATOM      7  C   UNL     1      57.841  -2.842  -0.971  1.00  0.00    -0.031 C 
BRANCH   7   8
ATOM      8  C   UNL     1      57.399  -4.226  -1.358  1.00  0.00     0.027 C 
BRANCH   8   9
ATOM      9  C   UNL     1      58.174  -4.723  -2.587  1.00  0.00     0.004 C 
BRANCH   9  10
ATOM     10  C   UNL     1      57.611  -4.164  -3.904  1.00  0.00     0.000 C 
BRANCH  10  11
ATOM     11  C   UNL     1      58.713  -3.841  -4.924  1.00  0.00    -0.003 C 
ATOM     12  C   UNL     1      60.015  -4.555  -4.570  1.00  0.00     0.004 C 
ENDBRANCH  10  11
ENDBRANCH   9  10
ENDBRANCH   8   9
ENDBRANCH   7   8
ENDBRANCH   5   6
ENDBRANCH   4   5
ENDBRANCH   2   3
ENDBRANCH   1   2
BRANCH   1  13
ATOM     13  C   UNL     1      59.744   1.980  -3.501  1.00  0.00     0.000 C 
BRANCH  13  14
ATOM     14  C   UNL     1      60.671   0.754  -3.478  1.00  0.00     0.000 C 
BRANCH  14  15
ATOM     15  C   UNL     1      59.896  -0.572  -3.406  1.00  0.00     0.000 C 
BRANCH  15  16
ATOM     16  C   UNL     1      60.513  -1.573  -2.413  1.00  0.00     0.003 C 
BRANCH  16  17
ATOM     17  C   UNL     1      61.326  -0.938  -1.269  1.00  0.00     0.042 C 
BRANCH  17  18
ATOM     18  C   UNL     1      62.488  -1.821  -0.797  1.00  0.00     0.233 C 
BRANCH  18  19
ATOM     19  O   UNL     1      62.463  -1.958   0.622  1.00  0.00    -0.466 OA
BRANCH  19  20
ATOM     20  C   UNL     1      61.386  -2.516   1.321  1.00  0.00     0.302 C 
ATOM     21  O   UNL     1      60.830  -1.889   2.263  1.00  0.00    -0.253 OA
ATOM     22  C   UNL     1      60.876  -3.862   0.934  1.00  0.00     0.139 C 
ENDBRANCH  19  20
ENDBRANCH  18  19
ENDBRANCH  17  18
ENDBRANCH  16  17
ENDBRANCH  15  16
ENDBRANCH  14  15
ENDBRANCH  13  14
ENDBRANCH   1  13
TORSDOF 16
ENDMDL
MODEL 9
REMARK VINA RESULT:    -5.144      4.791      9.611
REMARK INTER + INTRA:         -10.690
REMARK INTER:                  -8.983
REMARK INTRA:                  -1.708
REMARK UNBOUND:                -0.736
REMARK SMILES CCCCCC=CCC=CCCCCCCCCOC(C)=O
REMARK SMILES IDX 12 1 11 2 10 3 9 4 8 5 7 6 6 7 5 8 4 9 3 10 2 11 1 12 13 13
REMARK SMILES IDX 14 14 15 15 16 16 17 17 18 18 19 19 20 20 22 21 21 22
REMARK H PARENT
REMARK Flexibility Score: inf
ROOT
ATOM      1  C   UNL     1      60.005   1.053  -3.877  1.00  0.00     0.004 C 
ENDROOT
BRANCH   1   2
ATOM      2  C   UNL     1      60.825   0.242  -2.864  1.00  0.00     0.027 C 
BRANCH   2   3
ATOM      3  C   UNL     1      60.336  -1.177  -2.743  1.00  0.00    -0.031 C 
ATOM      4  C   UNL     1      59.305  -1.630  -3.472  1.00  0.00    -0.027 C 
BRANCH   4   5
ATOM      5  C   UNL     1      58.837  -3.054  -3.371  1.00  0.00     0.054 C 
BRANCH   5   6
ATOM      6  C   UNL     1      57.340  -3.120  -3.487  1.00  0.00    -0.027 C 
ATOM      7  C   UNL     1      56.732  -3.444  -4.638  1.00  0.00    -0.031 C 
BRANCH   7   8
ATOM      8  C   UNL     1      55.233  -3.473  -4.752  1.00  0.00     0.027 C 
BRANCH   8   9
ATOM      9  C   UNL     1      54.800  -3.655  -6.214  1.00  0.00     0.004 C 
BRANCH   9  10
ATOM     10  C   UNL     1      53.371  -4.205  -6.341  1.00  0.00     0.000 C 
BRANCH  10  11
ATOM     11  C   UNL     1      52.752  -4.552  -4.979  1.00  0.00    -0.003 C 
ATOM     12  C   UNL     1      51.268  -4.195  -4.943  1.00  0.00     0.004 C 
ENDBRANCH  10  11
ENDBRANCH   9  10
ENDBRANCH   8   9
ENDBRANCH   7   8
ENDBRANCH   5   6
ENDBRANCH   4   5
ENDBRANCH   2   3
ENDBRANCH   1   2
BRANCH   1  13
ATOM     13  C   UNL     1      59.417   2.331  -3.252  1.00  0.00     0.000 C 
BRANCH  13  14
ATOM     14  C   UNL     1      57.973   2.136  -2.763  1.00  0.00     0.000 C 
BRANCH  14  15
ATOM     15  C   UNL     1      57.889   1.915  -1.243  1.00  0.00     0.000 C 
BRANCH  15  16
ATOM     16  C   UNL     1      57.567   0.457  -0.867  1.00  0.00     0.003 C 
BRANCH  16  17
ATOM     17  C   UNL     1      58.428  -0.127   0.268  1.00  0.00     0.042 C 
BRANCH  17  18
ATOM     18  C   UNL     1      58.564  -1.654   0.193  1.00  0.00     0.233 C 
BRANCH  18  19
ATOM     19  O   UNL     1      57.797  -2.272   1.225  1.00  0.00    -0.466 OA
BRANCH  19  20
ATOM     20  C   UNL     1      58.170  -3.470   1.847  1.00  0.00     0.302 C 
ATOM     21  O   UNL     1      59.041  -3.483   2.757  1.00  0.00    -0.253 OA
ATOM     22  C   UNL     1      57.513  -4.744   1.442  1.00  0.00     0.139 C 
ENDBRANCH  19  20
ENDBRANCH  18  19
ENDBRANCH  17  18
ENDBRANCH  16  17
ENDBRANCH  15  16
ENDBRANCH  14  15
ENDBRANCH  13  14
ENDBRANCH   1  13
TORSDOF 16
ENDMDL
