MODEL 1
REMARK VINA RESULT:    -3.689      0.000      0.000
REMARK INTER + INTRA:          -5.669
REMARK INTER:                  -5.199
REMARK INTRA:                  -0.470
REMARK UNBOUND:                -0.470
REMARK SMILES CCCCCCCCC(=O)[O-]
REMARK SMILES IDX 6 1 7 2 8 3 9 4 10 5 11 6 5 7 4 8 3 9 2 10 1 11
REMARK H PARENT
REMARK Flexibility Score: inf
ROOT
ATOM      1  C   UNL     1      -5.688 -65.623  -1.232  1.00  0.00     0.000 C 
ENDROOT
BRANCH   1   2
ATOM      2  C   UNL     1      -5.435 -66.957  -1.959  1.00  0.00     0.006 C 
BRANCH   2   3
ATOM      3  C   UNL     1      -4.400 -66.873  -3.092  1.00  0.00     0.053 C 
BRANCH   3   4
ATOM      4  C   UNL     1      -4.617 -67.936  -4.125  1.00  0.00     0.041 C 
ATOM      5  O   UNL     1      -5.209 -69.005  -3.820  1.00  0.00    -0.550 OA
ATOM      6  O   UNL     1      -4.193 -67.732  -5.432  1.00  0.00    -0.550 OA
ENDBRANCH   3   4
ENDBRANCH   2   3
ENDBRANCH   1   2
BRANCH   1   7
ATOM      7  C   UNL     1      -7.148 -65.386  -0.797  1.00  0.00     0.000 C 
BRANCH   7   8
ATOM      8  C   UNL     1      -7.481 -65.957   0.598  1.00  0.00    -0.000 C 
BRANCH   8   9
ATOM      9  C   UNL     1      -8.725 -66.862   0.577  1.00  0.00    -0.000 C 
BRANCH   9  10
ATOM     10  C   UNL     1      -9.190 -67.192  -0.850  1.00  0.00    -0.003 C 
ATOM     11  C   UNL     1      -8.947 -68.653  -1.227  1.00  0.00     0.004 C 
ENDBRANCH   9  10
ENDBRANCH   8   9
ENDBRANCH   7   8
ENDBRANCH   1   7
TORSDOF 7
ENDMDL
MODEL 2
REMARK VINA RESULT:    -3.655      0.936      1.115
REMARK INTER + INTRA:          -5.621
REMARK INTER:                  -5.160
REMARK INTRA:                  -0.461
REMARK UNBOUND:                -0.470
REMARK SMILES CCCCCCCCC(=O)[O-]
REMARK SMILES IDX 6 1 7 2 8 3 9 4 10 5 11 6 5 7 4 8 3 9 2 10 1 11
REMARK H PARENT
REMARK Flexibility Score: inf
ROOT
ATOM      1  C   UNL     1      -5.403 -65.135  -0.168  1.00  0.00     0.000 C 
ENDROOT
BRANCH   1   2
ATOM      2  C   UNL     1      -4.506 -65.840  -1.202  1.00  0.00     0.006 C 
BRANCH   2   3
ATOM      3  C   UNL     1      -5.222 -66.921  -2.029  1.00  0.00     0.053 C 
BRANCH   3   4
ATOM      4  C   UNL     1      -4.540 -67.164  -3.339  1.00  0.00     0.041 C 
ATOM      5  O   UNL     1      -4.755 -68.228  -3.978  1.00  0.00    -0.550 OA
ATOM      6  O   UNL     1      -3.691 -66.202  -3.870  1.00  0.00    -0.550 OA
ENDBRANCH   3   4
ENDBRANCH   2   3
ENDBRANCH   1   2
BRANCH   1   7
ATOM      7  C   UNL     1      -6.913 -65.404  -0.326  1.00  0.00     0.000 C 
BRANCH   7   8
ATOM      8  C   UNL     1      -7.578 -65.976   0.944  1.00  0.00    -0.000 C 
BRANCH   8   9
ATOM      9  C   UNL     1      -8.876 -66.740   0.630  1.00  0.00    -0.000 C 
BRANCH   9  10
ATOM     10  C   UNL     1      -8.975 -67.153  -0.847  1.00  0.00    -0.003 C 
ATOM     11  C   UNL     1      -9.296 -68.637  -1.024  1.00  0.00     0.004 C 
ENDBRANCH   9  10
ENDBRANCH   8   9
ENDBRANCH   7   8
ENDBRANCH   1   7
TORSDOF 7
ENDMDL
MODEL 3
REMARK VINA RESULT:    -3.524      1.393      1.990
REMARK INTER + INTRA:          -5.436
REMARK INTER:                  -5.151
REMARK INTRA:                  -0.284
REMARK UNBOUND:                -0.470
REMARK SMILES CCCCCCCCC(=O)[O-]
REMARK SMILES IDX 6 1 7 2 8 3 9 4 10 5 11 6 5 7 4 8 3 9 2 10 1 11
REMARK H PARENT
REMARK Flexibility Score: inf
ROOT
ATOM      1  C   UNL     1      -5.083 -67.248  -2.242  1.00  0.00     0.000 C 
ENDROOT
BRANCH   1   2
ATOM      2  C   UNL     1      -4.390 -66.784  -3.537  1.00  0.00     0.006 C 
BRANCH   2   3
ATOM      3  C   UNL     1      -4.320 -67.856  -4.636  1.00  0.00     0.053 C 
BRANCH   3   4
ATOM      4  C   UNL     1      -4.346 -67.252  -6.007  1.00  0.00     0.041 C 
ATOM      5  O   UNL     1      -4.654 -66.041  -6.161  1.00  0.00    -0.550 OA
ATOM      6  O   UNL     1      -3.999 -68.021  -7.111  1.00  0.00    -0.550 OA
ENDBRANCH   3   4
ENDBRANCH   2   3
ENDBRANCH   1   2
BRANCH   1   7
ATOM      7  C   UNL     1      -5.191 -66.173  -1.142  1.00  0.00     0.000 C 
BRANCH   7   8
ATOM      8  C   UNL     1      -6.600 -65.555  -1.014  1.00  0.00    -0.000 C 
BRANCH   8   9
ATOM      9  C   UNL     1      -7.531 -66.402  -0.129  1.00  0.00    -0.000 C 
BRANCH   9  10
ATOM     10  C   UNL     1      -8.897 -66.657  -0.784  1.00  0.00    -0.003 C 
ATOM     11  C   UNL     1      -9.157 -68.139  -1.048  1.00  0.00     0.004 C 
ENDBRANCH   9  10
ENDBRANCH   8   9
ENDBRANCH   7   8
ENDBRANCH   1   7
TORSDOF 7
ENDMDL
MODEL 4
REMARK VINA RESULT:    -3.422      1.118      2.051
REMARK INTER + INTRA:          -5.293
REMARK INTER:                  -4.996
REMARK INTRA:                  -0.297
REMARK UNBOUND:                -0.470
REMARK SMILES CCCCCCCCC(=O)[O-]
REMARK SMILES IDX 6 1 7 2 8 3 9 4 10 5 11 6 5 7 4 8 3 9 2 10 1 11
REMARK H PARENT
REMARK Flexibility Score: inf
ROOT
ATOM      1  C   UNL     1      -5.385 -65.318  -1.139  1.00  0.00     0.000 C 
ENDROOT
BRANCH   1   2
ATOM      2  C   UNL     1      -5.102 -66.601  -1.942  1.00  0.00     0.006 C 
BRANCH   2   3
ATOM      3  C   UNL     1      -4.346 -66.368  -3.260  1.00  0.00     0.053 C 
BRANCH   3   4
ATOM      4  C   UNL     1      -4.352 -67.588  -4.130  1.00  0.00     0.041 C 
ATOM      5  O   UNL     1      -3.611 -67.645  -5.147  1.00  0.00    -0.550 OA
ATOM      6  O   UNL     1      -5.151 -68.674  -3.797  1.00  0.00    -0.550 OA
ENDBRANCH   3   4
ENDBRANCH   2   3
ENDBRANCH   1   2
BRANCH   1   7
ATOM      7  C   UNL     1      -6.511 -65.442  -0.093  1.00  0.00     0.000 C 
BRANCH   7   8
ATOM      8  C   UNL     1      -7.583 -66.491  -0.456  1.00  0.00    -0.000 C 
BRANCH   8   9
ATOM      9  C   UNL     1      -8.657 -66.630   0.636  1.00  0.00    -0.000 C 
BRANCH   9  10
ATOM     10  C   UNL     1      -8.213 -66.032   1.980  1.00  0.00    -0.003 C 
ATOM     11  C   UNL     1      -8.309 -67.032   3.132  1.00  0.00     0.004 C 
ENDBRANCH   9  10
ENDBRANCH   8   9
ENDBRANCH   7   8
ENDBRANCH   1   7
TORSDOF 7
ENDMDL
MODEL 5
REMARK VINA RESULT:    -3.351      1.203      1.547
REMARK INTER + INTRA:          -5.192
REMARK INTER:                  -4.897
REMARK INTRA:                  -0.295
REMARK UNBOUND:                -0.470
REMARK SMILES CCCCCCCCC(=O)[O-]
REMARK SMILES IDX 6 1 7 2 8 3 9 4 10 5 11 6 5 7 4 8 3 9 2 10 1 11
REMARK H PARENT
REMARK Flexibility Score: inf
ROOT
ATOM      1  C   UNL     1      -5.192 -66.499  -1.417  1.00  0.00     0.000 C 
ENDROOT
BRANCH   1   2
ATOM      2  C   UNL     1      -4.405 -66.019  -2.651  1.00  0.00     0.006 C 
BRANCH   2   3
ATOM      3  C   UNL     1      -4.266 -67.073  -3.761  1.00  0.00     0.053 C 
BRANCH   3   4
ATOM      4  C   UNL     1      -4.105 -66.443  -5.111  1.00  0.00     0.041 C 
ATOM      5  O   UNL     1      -4.594 -66.997  -6.131  1.00  0.00    -0.550 OA
ATOM      6  O   UNL     1      -3.443 -65.229  -5.236  1.00  0.00    -0.550 OA
ENDBRANCH   3   4
ENDBRANCH   2   3
ENDBRANCH   1   2
BRANCH   1   7
ATOM      7  C   UNL     1      -6.476 -65.701  -1.114  1.00  0.00     0.000 C 
BRANCH   7   8
ATOM      8  C   UNL     1      -6.889 -65.730   0.372  1.00  0.00    -0.000 C 
BRANCH   8   9
ATOM      9  C   UNL     1      -8.206 -66.493   0.598  1.00  0.00    -0.000 C 
BRANCH   9  10
ATOM     10  C   UNL     1      -8.958 -66.772  -0.713  1.00  0.00    -0.003 C 
ATOM     11  C   UNL     1      -9.387 -68.233  -0.848  1.00  0.00     0.004 C 
ENDBRANCH   9  10
ENDBRANCH   8   9
ENDBRANCH   7   8
ENDBRANCH   1   7
TORSDOF 7
ENDMDL
MODEL 6
REMARK VINA RESULT:    -3.336      3.076      5.426
REMARK INTER + INTRA:          -5.171
REMARK INTER:                  -4.869
REMARK INTRA:                  -0.301
REMARK UNBOUND:                -0.470
REMARK SMILES CCCCCCCCC(=O)[O-]
REMARK SMILES IDX 6 1 7 2 8 3 9 4 10 5 11 6 5 7 4 8 3 9 2 10 1 11
REMARK H PARENT
REMARK Flexibility Score: inf
ROOT
ATOM      1  C   UNL     1      -4.788 -65.844  -0.858  1.00  0.00     0.000 C 
ENDROOT
BRANCH   1   2
ATOM      2  C   UNL     1      -5.995 -65.397  -0.012  1.00  0.00     0.006 C 
BRANCH   2   3
ATOM      3  C   UNL     1      -7.339 -65.988  -0.467  1.00  0.00     0.053 C 
BRANCH   3   4
ATOM      4  C   UNL     1      -8.343 -64.920  -0.772  1.00  0.00     0.041 C 
ATOM      5  O   UNL     1      -9.459 -64.913  -0.189  1.00  0.00    -0.550 OA
ATOM      6  O   UNL     1      -8.033 -63.913  -1.677  1.00  0.00    -0.550 OA
ENDBRANCH   3   4
ENDBRANCH   2   3
ENDBRANCH   1   2
BRANCH   1   7
ATOM      7  C   UNL     1      -5.124 -66.811  -2.010  1.00  0.00     0.000 C 
BRANCH   7   8
ATOM      8  C   UNL     1      -4.347 -66.520  -3.312  1.00  0.00    -0.000 C 
BRANCH   8   9
ATOM      9  C   UNL     1      -4.356 -67.717  -4.278  1.00  0.00    -0.000 C 
BRANCH   9  10
ATOM     10  C   UNL     1      -4.242 -67.288  -5.750  1.00  0.00    -0.003 C 
ATOM     11  C   UNL     1      -4.591 -65.816  -5.964  1.00  0.00     0.004 C 
ENDBRANCH   9  10
ENDBRANCH   8   9
ENDBRANCH   7   8
ENDBRANCH   1   7
TORSDOF 7
ENDMDL
MODEL 7
REMARK VINA RESULT:    -3.332      2.958      5.636
REMARK INTER + INTRA:          -5.166
REMARK INTER:                  -4.882
REMARK INTRA:                  -0.284
REMARK UNBOUND:                -0.470
REMARK SMILES CCCCCCCCC(=O)[O-]
REMARK SMILES IDX 6 1 7 2 8 3 9 4 10 5 11 6 5 7 4 8 3 9 2 10 1 11
REMARK H PARENT
REMARK Flexibility Score: inf
ROOT
ATOM      1  C   UNL     1      -5.134 -66.797  -1.880  1.00  0.00     0.000 C 
ENDROOT
BRANCH   1   2
ATOM      2  C   UNL     1      -5.974 -65.645  -1.298  1.00  0.00     0.006 C 
BRANCH   2   3
ATOM      3  C   UNL     1      -7.011 -66.083  -0.252  1.00  0.00     0.053 C 
BRANCH   3   4
ATOM      4  C   UNL     1      -8.412 -65.935  -0.758  1.00  0.00     0.041 C 
ATOM      5  O   UNL     1      -8.814 -64.826  -1.196  1.00  0.00    -0.550 OA
ATOM      6  O   UNL     1      -9.264 -67.033  -0.775  1.00  0.00    -0.550 OA
ENDBRANCH   3   4
ENDBRANCH   2   3
ENDBRANCH   1   2
BRANCH   1   7
ATOM      7  C   UNL     1      -4.420 -66.474  -3.208  1.00  0.00     0.000 C 
BRANCH   7   8
ATOM      8  C   UNL     1      -4.358 -67.667  -4.186  1.00  0.00    -0.000 C 
BRANCH   8   9
ATOM      9  C   UNL     1      -4.303 -67.215  -5.655  1.00  0.00    -0.000 C 
BRANCH   9  10
ATOM     10  C   UNL     1      -4.325 -65.686  -5.803  1.00  0.00    -0.003 C 
ATOM     11  C   UNL     1      -5.391 -65.204  -6.788  1.00  0.00     0.004 C 
ENDBRANCH   9  10
ENDBRANCH   8   9
ENDBRANCH   7   8
ENDBRANCH   1   7
TORSDOF 7
ENDMDL
MODEL 8
REMARK VINA RESULT:    -3.304      2.924      5.489
REMARK INTER + INTRA:          -5.127
REMARK INTER:                  -4.899
REMARK INTRA:                  -0.228
REMARK UNBOUND:                -0.470
REMARK SMILES CCCCCCCCC(=O)[O-]
REMARK SMILES IDX 6 1 7 2 8 3 9 4 10 5 11 6 5 7 4 8 3 9 2 10 1 11
REMARK H PARENT
REMARK Flexibility Score: inf
ROOT
ATOM      1  C   UNL     1      -6.183 -66.131  -0.781  1.00  0.00     0.000 C 
ENDROOT
BRANCH   1   2
ATOM      2  C   UNL     1      -7.120 -64.909  -0.746  1.00  0.00     0.006 C 
BRANCH   2   3
ATOM      3  C   UNL     1      -8.598 -65.238  -1.013  1.00  0.00     0.053 C 
BRANCH   3   4
ATOM      4  C   UNL     1      -9.079 -66.376  -0.167  1.00  0.00     0.041 C 
ATOM      5  O   UNL     1      -9.167 -66.244   1.082  1.00  0.00    -0.550 OA
ATOM      6  O   UNL     1      -9.460 -67.571  -0.763  1.00  0.00    -0.550 OA
ENDBRANCH   3   4
ENDBRANCH   2   3
ENDBRANCH   1   2
BRANCH   1   7
ATOM      7  C   UNL     1      -4.974 -65.995  -1.728  1.00  0.00     0.000 C 
BRANCH   7   8
ATOM      8  C   UNL     1      -4.844 -67.154  -2.739  1.00  0.00    -0.000 C 
BRANCH   8   9
ATOM      9  C   UNL     1      -4.020 -66.760  -3.977  1.00  0.00    -0.000 C 
BRANCH   9  10
ATOM     10  C   UNL     1      -4.217 -67.733  -5.150  1.00  0.00    -0.003 C 
ATOM     11  C   UNL     1      -4.423 -67.014  -6.484  1.00  0.00     0.004 C 
ENDBRANCH   9  10
ENDBRANCH   8   9
ENDBRANCH   7   8
ENDBRANCH   1   7
TORSDOF 7
ENDMDL
MODEL 9
REMARK VINA RESULT:    -3.295      2.750      4.804
REMARK INTER + INTRA:          -5.113
REMARK INTER:                  -4.676
REMARK INTRA:                  -0.437
REMARK UNBOUND:                -0.470
REMARK SMILES CCCCCCCCC(=O)[O-]
REMARK SMILES IDX 6 1 7 2 8 3 9 4 10 5 11 6 5 7 4 8 3 9 2 10 1 11
REMARK H PARENT
REMARK Flexibility Score: inf
ROOT
ATOM      1  C   UNL     1      -6.265 -65.029   1.354  1.00  0.00     0.000 C 
ENDROOT
BRANCH   1   2
ATOM      2  C   UNL     1      -7.801 -65.130   1.343  1.00  0.00     0.006 C 
BRANCH   2   3
ATOM      3  C   UNL     1      -8.341 -66.522   0.978  1.00  0.00     0.053 C 
BRANCH   3   4
ATOM      4  C   UNL     1      -8.783 -66.593  -0.451  1.00  0.00     0.041 C 
ATOM      5  O   UNL     1      -9.121 -67.695  -0.957  1.00  0.00    -0.550 OA
ATOM      6  O   UNL     1      -8.850 -65.435  -1.215  1.00  0.00    -0.550 OA
ENDBRANCH   3   4
ENDBRANCH   2   3
ENDBRANCH   1   2
BRANCH   1   7
ATOM      7  C   UNL     1      -5.622 -64.752  -0.020  1.00  0.00     0.000 C 
BRANCH   7   8
ATOM      8  C   UNL     1      -4.658 -65.862  -0.490  1.00  0.00    -0.000 C 
BRANCH   8   9
ATOM      9  C   UNL     1      -5.158 -66.570  -1.761  1.00  0.00    -0.000 C 
BRANCH   9  10
ATOM     10  C   UNL     1      -4.450 -66.071  -3.030  1.00  0.00    -0.003 C 
ATOM     11  C   UNL     1      -4.207 -67.186  -4.047  1.00  0.00     0.004 C 
ENDBRANCH   9  10
ENDBRANCH   8   9
ENDBRANCH   7   8
ENDBRANCH   1   7
TORSDOF 7
ENDMDL
