MODEL 1
REMARK VINA RESULT:    -4.754      0.000      0.000
REMARK INTER + INTRA:          -6.713
REMARK INTER:                  -6.421
REMARK INTRA:                  -0.292
REMARK UNBOUND:                -0.292
REMARK SMILES CCCCCCC=CC(=O)[O-]
REMARK SMILES IDX 5 1 6 2 7 3 8 4 9 5 10 6 11 7 4 8 3 9 2 10 1 11
REMARK H PARENT
REMARK Flexibility Score: inf
ROOT
ATOM      1  C   UNL     1    -142.988 103.577  32.869  1.00  0.00     0.004 C 
ENDROOT
BRANCH   1   2
ATOM      2  C   UNL     1    -143.677 102.201  32.852  1.00  0.00     0.027 C 
BRANCH   2   3
ATOM      3  C   UNL     1    -142.973 101.191  33.714  1.00  0.00    -0.025 C 
ATOM      4  C   UNL     1    -143.637 100.440  34.597  1.00  0.00     0.020 C 
BRANCH   4   5
ATOM      5  C   UNL     1    -142.960  99.447  35.443  1.00  0.00     0.064 C 
ATOM      6  O   UNL     1    -141.910  98.888  35.028  1.00  0.00    -0.545 OA
ATOM      7  O   UNL     1    -143.462  99.111  36.695  1.00  0.00    -0.545 OA
ENDBRANCH   4   5
ENDBRANCH   2   3
ENDBRANCH   1   2
BRANCH   1   8
ATOM      8  C   UNL     1    -142.496 104.018  34.259  1.00  0.00     0.000 C 
BRANCH   8   9
ATOM      9  C   UNL     1    -142.118 105.508  34.311  1.00  0.00    -0.000 C 
BRANCH   9  10
ATOM     10  C   UNL     1    -142.108 106.063  35.743  1.00  0.00    -0.003 C 
ATOM     11  C   UNL     1    -142.532 105.024  36.781  1.00  0.00     0.004 C 
ENDBRANCH   9  10
ENDBRANCH   8   9
ENDBRANCH   1   8
TORSDOF 6
ENDMDL
MODEL 2
REMARK VINA RESULT:    -4.696     19.895     21.804
REMARK INTER + INTRA:          -6.634
REMARK INTER:                  -6.046
REMARK INTRA:                  -0.588
REMARK UNBOUND:                -0.292
REMARK SMILES CCCCCCC=CC(=O)[O-]
REMARK SMILES IDX 5 1 6 2 7 3 8 4 9 5 10 6 11 7 4 8 3 9 2 10 1 11
REMARK H PARENT
REMARK Flexibility Score: inf
ROOT
ATOM      1  C   UNL     1    -129.999 116.656  42.538  1.00  0.00     0.004 C 
ENDROOT
BRANCH   1   2
ATOM      2  C   UNL     1    -129.022 117.618  43.240  1.00  0.00     0.027 C 
BRANCH   2   3
ATOM      3  C   UNL     1    -129.343 117.806  44.696  1.00  0.00    -0.025 C 
ATOM      4  C   UNL     1    -130.451 117.295  45.240  1.00  0.00     0.020 C 
BRANCH   4   5
ATOM      5  C   UNL     1    -130.772 117.468  46.664  1.00  0.00     0.064 C 
ATOM      6  O   UNL     1    -131.003 116.457  47.378  1.00  0.00    -0.545 OA
ATOM      7  O   UNL     1    -130.829 118.734  47.236  1.00  0.00    -0.545 OA
ENDBRANCH   4   5
ENDBRANCH   2   3
ENDBRANCH   1   2
BRANCH   1   8
ATOM      8  C   UNL     1    -129.364 115.324  42.100  1.00  0.00     0.000 C 
BRANCH   8   9
ATOM      9  C   UNL     1    -130.132 114.099  42.624  1.00  0.00    -0.000 C 
BRANCH   9  10
ATOM     10  C   UNL     1    -129.350 113.331  43.700  1.00  0.00    -0.003 C 
ATOM     11  C   UNL     1    -129.466 113.972  45.083  1.00  0.00     0.004 C 
ENDBRANCH   9  10
ENDBRANCH   8   9
ENDBRANCH   1   8
TORSDOF 6
ENDMDL
MODEL 3
REMARK VINA RESULT:    -4.689      3.135      5.209
REMARK INTER + INTRA:          -6.625
REMARK INTER:                  -6.299
REMARK INTRA:                  -0.326
REMARK UNBOUND:                -0.292
REMARK SMILES CCCCCCC=CC(=O)[O-]
REMARK SMILES IDX 5 1 6 2 7 3 8 4 9 5 10 6 11 7 4 8 3 9 2 10 1 11
REMARK H PARENT
REMARK Flexibility Score: inf
ROOT
ATOM      1  C   UNL     1    -143.241 102.082  33.109  1.00  0.00     0.004 C 
ENDROOT
BRANCH   1   2
ATOM      2  C   UNL     1    -143.255 103.450  32.402  1.00  0.00     0.027 C 
BRANCH   2   3
ATOM      3  C   UNL     1    -142.842 104.574  33.311  1.00  0.00    -0.025 C 
ATOM      4  C   UNL     1    -142.519 104.357  34.589  1.00  0.00     0.020 C 
BRANCH   4   5
ATOM      5  C   UNL     1    -142.110 105.448  35.486  1.00  0.00     0.064 C 
ATOM      6  O   UNL     1    -141.385 106.378  35.045  1.00  0.00    -0.545 OA
ATOM      7  O   UNL     1    -142.510 105.468  36.818  1.00  0.00    -0.545 OA
ENDBRANCH   4   5
ENDBRANCH   2   3
ENDBRANCH   1   2
BRANCH   1   8
ATOM      8  C   UNL     1    -143.249 100.878  32.150  1.00  0.00     0.000 C 
BRANCH   8   9
ATOM      9  C   UNL     1    -142.831  99.567  32.839  1.00  0.00    -0.000 C 
BRANCH   9  10
ATOM     10  C   UNL     1    -142.317  99.792  34.268  1.00  0.00    -0.003 C 
ATOM     11  C   UNL     1    -143.209  99.141  35.325  1.00  0.00     0.004 C 
ENDBRANCH   9  10
ENDBRANCH   8   9
ENDBRANCH   1   8
TORSDOF 6
ENDMDL
MODEL 4
REMARK VINA RESULT:    -4.652      3.290      5.516
REMARK INTER + INTRA:          -6.576
REMARK INTER:                  -6.194
REMARK INTRA:                  -0.382
REMARK UNBOUND:                -0.292
REMARK SMILES CCCCCCC=CC(=O)[O-]
REMARK SMILES IDX 5 1 6 2 7 3 8 4 9 5 10 6 11 7 4 8 3 9 2 10 1 11
REMARK H PARENT
REMARK Flexibility Score: inf
ROOT
ATOM      1  C   UNL     1    -143.873 101.528  33.499  1.00  0.00     0.004 C 
ENDROOT
BRANCH   1   2
ATOM      2  C   UNL     1    -142.895 102.705  33.327  1.00  0.00     0.027 C 
BRANCH   2   3
ATOM      3  C   UNL     1    -142.876 103.620  34.519  1.00  0.00    -0.025 C 
ATOM      4  C   UNL     1    -142.226 104.787  34.496  1.00  0.00     0.020 C 
BRANCH   4   5
ATOM      5  C   UNL     1    -142.204 105.692  35.654  1.00  0.00     0.064 C 
ATOM      6  O   UNL     1    -141.918 106.906  35.490  1.00  0.00    -0.545 OA
ATOM      7  O   UNL     1    -142.493 105.226  36.932  1.00  0.00    -0.545 OA
ENDBRANCH   4   5
ENDBRANCH   2   3
ENDBRANCH   1   2
BRANCH   1   8
ATOM      8  C   UNL     1    -143.573 100.633  34.715  1.00  0.00     0.000 C 
BRANCH   8   9
ATOM      9  C   UNL     1    -143.458  99.145  34.343  1.00  0.00    -0.000 C 
BRANCH   9  10
ATOM     10  C   UNL     1    -142.329  98.875  33.337  1.00  0.00    -0.003 C 
ATOM     11  C   UNL     1    -140.941  99.112  33.932  1.00  0.00     0.004 C 
ENDBRANCH   9  10
ENDBRANCH   8   9
ENDBRANCH   1   8
TORSDOF 6
ENDMDL
MODEL 5
REMARK VINA RESULT:    -4.605     18.881     21.029
REMARK INTER + INTRA:          -6.511
REMARK INTER:                  -6.308
REMARK INTRA:                  -0.203
REMARK UNBOUND:                -0.292
REMARK SMILES CCCCCCC=CC(=O)[O-]
REMARK SMILES IDX 5 1 6 2 7 3 8 4 9 5 10 6 11 7 4 8 3 9 2 10 1 11
REMARK H PARENT
REMARK Flexibility Score: inf
ROOT
ATOM      1  C   UNL     1    -129.652 116.792  44.992  1.00  0.00     0.004 C 
ENDROOT
BRANCH   1   2
ATOM      2  C   UNL     1    -129.767 116.910  43.461  1.00  0.00     0.027 C 
BRANCH   2   3
ATOM      3  C   UNL     1    -129.775 115.572  42.778  1.00  0.00    -0.025 C 
ATOM      4  C   UNL     1    -129.682 114.432  43.469  1.00  0.00     0.020 C 
BRANCH   4   5
ATOM      5  C   UNL     1    -129.693 113.117  42.812  1.00  0.00     0.064 C 
ATOM      6  O   UNL     1    -129.350 112.094  43.461  1.00  0.00    -0.545 OA
ATOM      7  O   UNL     1    -130.076 112.985  41.482  1.00  0.00    -0.545 OA
ENDBRANCH   4   5
ENDBRANCH   2   3
ENDBRANCH   1   2
BRANCH   1   8
ATOM      8  C   UNL     1    -130.175 118.020  45.759  1.00  0.00     0.000 C 
BRANCH   8   9
ATOM      9  C   UNL     1    -131.270 117.661  46.778  1.00  0.00    -0.000 C 
BRANCH   9  10
ATOM     10  C   UNL     1    -131.891 118.903  47.435  1.00  0.00    -0.003 C 
ATOM     11  C   UNL     1    -133.418 118.843  47.481  1.00  0.00     0.004 C 
ENDBRANCH   9  10
ENDBRANCH   8   9
ENDBRANCH   1   8
TORSDOF 6
ENDMDL
MODEL 6
REMARK VINA RESULT:    -4.559      3.117      5.434
REMARK INTER + INTRA:          -6.449
REMARK INTER:                  -5.805
REMARK INTRA:                  -0.644
REMARK UNBOUND:                -0.292
REMARK SMILES CCCCCCC=CC(=O)[O-]
REMARK SMILES IDX 5 1 6 2 7 3 8 4 9 5 10 6 11 7 4 8 3 9 2 10 1 11
REMARK H PARENT
REMARK Flexibility Score: inf
ROOT
ATOM      1  C   UNL     1    -143.587  99.808  34.918  1.00  0.00     0.004 C 
ENDROOT
BRANCH   1   2
ATOM      2  C   UNL     1    -143.564 101.199  35.577  1.00  0.00     0.027 C 
BRANCH   2   3
ATOM      3  C   UNL     1    -143.542 102.315  34.571  1.00  0.00    -0.025 C 
ATOM      4  C   UNL     1    -142.697 103.344  34.685  1.00  0.00     0.020 C 
BRANCH   4   5
ATOM      5  C   UNL     1    -142.664 104.439  33.704  1.00  0.00     0.064 C 
ATOM      6  O   UNL     1    -142.220 105.566  34.046  1.00  0.00    -0.545 OA
ATOM      7  O   UNL     1    -143.118 104.249  32.404  1.00  0.00    -0.545 OA
ENDBRANCH   4   5
ENDBRANCH   2   3
ENDBRANCH   1   2
BRANCH   1   8
ATOM      8  C   UNL     1    -142.193  99.224  34.628  1.00  0.00     0.000 C 
BRANCH   8   9
ATOM      9  C   UNL     1    -141.811  99.305  33.141  1.00  0.00    -0.000 C 
BRANCH   9  10
ATOM     10  C   UNL     1    -143.032  99.508  32.231  1.00  0.00    -0.003 C 
ATOM     11  C   UNL     1    -142.908 100.747  31.345  1.00  0.00     0.004 C 
ENDBRANCH   9  10
ENDBRANCH   8   9
ENDBRANCH   1   8
TORSDOF 6
ENDMDL
MODEL 7
REMARK VINA RESULT:    -4.505     14.869     16.249
REMARK INTER + INTRA:          -6.377
REMARK INTER:                  -6.146
REMARK INTRA:                  -0.230
REMARK UNBOUND:                -0.292
REMARK SMILES CCCCCCC=CC(=O)[O-]
REMARK SMILES IDX 5 1 6 2 7 3 8 4 9 5 10 6 11 7 4 8 3 9 2 10 1 11
REMARK H PARENT
REMARK Flexibility Score: inf
ROOT
ATOM      1  C   UNL     1    -129.713 108.535  42.456  1.00  0.00     0.004 C 
ENDROOT
BRANCH   1   2
ATOM      2  C   UNL     1    -128.305 107.938  42.279  1.00  0.00     0.027 C 
BRANCH   2   3
ATOM      3  C   UNL     1    -128.297 106.732  41.383  1.00  0.00    -0.025 C 
ATOM      4  C   UNL     1    -129.348 106.421  40.618  1.00  0.00     0.020 C 
BRANCH   4   5
ATOM      5  C   UNL     1    -129.351 105.246  39.734  1.00  0.00     0.064 C 
ATOM      6  O   UNL     1    -129.250 104.094  40.231  1.00  0.00    -0.545 OA
ATOM      7  O   UNL     1    -129.461 105.388  38.356  1.00  0.00    -0.545 OA
ENDBRANCH   4   5
ENDBRANCH   2   3
ENDBRANCH   1   2
BRANCH   1   8
ATOM      8  C   UNL     1    -130.010 109.037  43.880  1.00  0.00     0.000 C 
BRANCH   8   9
ATOM      9  C   UNL     1    -131.199 108.311  44.531  1.00  0.00    -0.000 C 
BRANCH   9  10
ATOM     10  C   UNL     1    -131.562 108.891  45.906  1.00  0.00    -0.003 C 
ATOM     11  C   UNL     1    -130.737 108.282  47.039  1.00  0.00     0.004 C 
ENDBRANCH   9  10
ENDBRANCH   8   9
ENDBRANCH   1   8
TORSDOF 6
ENDMDL
MODEL 8
REMARK VINA RESULT:    -4.471     13.701     15.286
REMARK INTER + INTRA:          -6.331
REMARK INTER:                  -5.806
REMARK INTRA:                  -0.524
REMARK UNBOUND:                -0.292
REMARK SMILES CCCCCCC=CC(=O)[O-]
REMARK SMILES IDX 5 1 6 2 7 3 8 4 9 5 10 6 11 7 4 8 3 9 2 10 1 11
REMARK H PARENT
REMARK Flexibility Score: inf
ROOT
ATOM      1  C   UNL     1    -129.642 108.156  41.821  1.00  0.00     0.004 C 
ENDROOT
BRANCH   1   2
ATOM      2  C   UNL     1    -128.320 107.371  41.908  1.00  0.00     0.027 C 
BRANCH   2   3
ATOM      3  C   UNL     1    -128.275 106.209  40.956  1.00  0.00    -0.025 C 
ATOM      4  C   UNL     1    -129.392 105.636  40.497  1.00  0.00     0.020 C 
BRANCH   4   5
ATOM      5  C   UNL     1    -129.360 104.502  39.562  1.00  0.00     0.064 C 
ATOM      6  O   UNL     1    -128.978 103.373  39.968  1.00  0.00    -0.545 OA
ATOM      7  O   UNL     1    -129.743 104.657  38.235  1.00  0.00    -0.545 OA
ENDBRANCH   4   5
ENDBRANCH   2   3
ENDBRANCH   1   2
BRANCH   1   8
ATOM      8  C   UNL     1    -129.514 109.531  41.140  1.00  0.00     0.000 C 
BRANCH   8   9
ATOM      9  C   UNL     1    -129.577 109.443  39.606  1.00  0.00    -0.000 C 
BRANCH   9  10
ATOM     10  C   UNL     1    -130.742 108.571  39.114  1.00  0.00    -0.003 C 
ATOM     11  C   UNL     1    -132.029 109.370  38.907  1.00  0.00     0.004 C 
ENDBRANCH   9  10
ENDBRANCH   8   9
ENDBRANCH   1   8
TORSDOF 6
ENDMDL
MODEL 9
REMARK VINA RESULT:    -4.395     13.929     15.268
REMARK INTER + INTRA:          -6.228
REMARK INTER:                  -5.974
REMARK INTRA:                  -0.254
REMARK UNBOUND:                -0.292
REMARK SMILES CCCCCCC=CC(=O)[O-]
REMARK SMILES IDX 5 1 6 2 7 3 8 4 9 5 10 6 11 7 4 8 3 9 2 10 1 11
REMARK H PARENT
REMARK Flexibility Score: inf
ROOT
ATOM      1  C   UNL     1    -129.684 109.413  40.638  1.00  0.00     0.004 C 
ENDROOT
BRANCH   1   2
ATOM      2  C   UNL     1    -130.410 108.723  39.469  1.00  0.00     0.027 C 
BRANCH   2   3
ATOM      3  C   UNL     1    -129.758 107.430  39.066  1.00  0.00    -0.025 C 
ATOM      4  C   UNL     1    -130.416 106.269  39.113  1.00  0.00     0.020 C 
BRANCH   4   5
ATOM      5  C   UNL     1    -129.790 104.999  38.717  1.00  0.00     0.064 C 
ATOM      6  O   UNL     1    -129.793 104.655  37.506  1.00  0.00    -0.545 OA
ATOM      7  O   UNL     1    -129.194 104.170  39.661  1.00  0.00    -0.545 OA
ENDBRANCH   4   5
ENDBRANCH   2   3
ENDBRANCH   1   2
BRANCH   1   8
ATOM      8  C   UNL     1    -129.267 108.460  41.772  1.00  0.00     0.000 C 
BRANCH   8   9
ATOM      9  C   UNL     1    -129.572 109.028  43.168  1.00  0.00    -0.000 C 
BRANCH   9  10
ATOM     10  C   UNL     1    -130.761 108.326  43.842  1.00  0.00    -0.003 C 
ATOM     11  C   UNL     1    -130.924 108.721  45.310  1.00  0.00     0.004 C 
ENDBRANCH   9  10
ENDBRANCH   8   9
ENDBRANCH   1   8
TORSDOF 6
ENDMDL
