MODEL 1
REMARK VINA RESULT:    -6.295      0.000      0.000
REMARK INTER + INTRA:          -6.295
REMARK INTER:                  -6.295
REMARK INTRA:                   0.000
REMARK UNBOUND:                 0.000
REMARK SMILES O=c1ccc2ccccc2o1
REMARK SMILES IDX 7 1 8 2 9 3 10 4 5 5 6 6 4 7 3 8 2 9 1 10 11 11
REMARK H PARENT
REMARK Flexibility Score: inf
ROOT
ATOM      1  C   UNL     1      -0.706  -5.810 -30.527  1.00  0.00     0.001 A 
ATOM      2  C   UNL     1      -1.021  -6.547 -29.380  1.00  0.00     0.004 A 
ATOM      3  C   UNL     1      -0.046  -7.336 -28.761  1.00  0.00     0.048 A 
ATOM      4  C   UNL     1       1.249  -7.392 -29.289  1.00  0.00     0.138 A 
ATOM      5  C   UNL     1       1.567  -6.649 -30.447  1.00  0.00     0.018 A 
ATOM      6  C   UNL     1       0.586  -5.859 -31.063  1.00  0.00     0.012 A 
ATOM      7  C   UNL     1       2.870  -6.724 -30.950  1.00  0.00     0.019 A 
ATOM      8  C   UNL     1       3.809  -7.525 -30.300  1.00  0.00     0.094 A 
ATOM      9  C   UNL     1       3.422  -8.233 -29.158  1.00  0.00     0.336 A 
ATOM     10  O   UNL     1       4.255  -8.961 -28.558  1.00  0.00    -0.246 OA
ATOM     11  O   UNL     1       2.176  -8.144 -28.699  1.00  0.00    -0.423 OA
ENDROOT
TORSDOF 0
ENDMDL
MODEL 2
REMARK VINA RESULT:    -5.347      1.656      2.582
REMARK INTER + INTRA:          -5.347
REMARK INTER:                  -5.347
REMARK INTRA:                   0.000
REMARK UNBOUND:                 0.000
REMARK SMILES O=c1ccc2ccccc2o1
REMARK SMILES IDX 7 1 8 2 9 3 10 4 5 5 6 6 4 7 3 8 2 9 1 10 11 11
REMARK H PARENT
REMARK Flexibility Score: inf
ROOT
ATOM      1  C   UNL     1      -1.980  -5.693 -31.843  1.00  0.00     0.001 A 
ATOM      2  C   UNL     1      -1.170  -4.602 -31.511  1.00  0.00     0.004 A 
ATOM      3  C   UNL     1      -0.043  -4.783 -30.702  1.00  0.00     0.048 A 
ATOM      4  C   UNL     1       0.277  -6.057 -30.219  1.00  0.00     0.138 A 
ATOM      5  C   UNL     1      -0.542  -7.158 -30.554  1.00  0.00     0.018 A 
ATOM      6  C   UNL     1      -1.669  -6.972 -31.366  1.00  0.00     0.012 A 
ATOM      7  C   UNL     1      -0.197  -8.420 -30.058  1.00  0.00     0.019 A 
ATOM      8  C   UNL     1       0.935  -8.552 -29.254  1.00  0.00     0.094 A 
ATOM      9  C   UNL     1       1.699  -7.416 -28.964  1.00  0.00     0.336 A 
ATOM     10  O   UNL     1       2.723  -7.516 -28.240  1.00  0.00    -0.246 OA
ATOM     11  O   UNL     1       1.349  -6.227 -29.449  1.00  0.00    -0.423 OA
ENDROOT
TORSDOF 0
ENDMDL
MODEL 3
REMARK VINA RESULT:    -5.224      1.355      2.187
REMARK INTER + INTRA:          -5.224
REMARK INTER:                  -5.224
REMARK INTRA:                   0.000
REMARK UNBOUND:                 0.000
REMARK SMILES O=c1ccc2ccccc2o1
REMARK SMILES IDX 7 1 8 2 9 3 10 4 5 5 6 6 4 7 3 8 2 9 1 10 11 11
REMARK H PARENT
REMARK Flexibility Score: inf
ROOT
ATOM      1  C   UNL     1      -1.403  -6.258 -29.809  1.00  0.00     0.001 A 
ATOM      2  C   UNL     1      -1.085  -5.901 -31.123  1.00  0.00     0.004 A 
ATOM      3  C   UNL     1       0.205  -6.115 -31.618  1.00  0.00     0.048 A 
ATOM      4  C   UNL     1       1.185  -6.687 -30.798  1.00  0.00     0.138 A 
ATOM      5  C   UNL     1       0.864  -7.047 -29.470  1.00  0.00     0.018 A 
ATOM      6  C   UNL     1      -0.432  -6.830 -28.980  1.00  0.00     0.012 A 
ATOM      7  C   UNL     1       1.862  -7.617 -28.674  1.00  0.00     0.019 A 
ATOM      8  C   UNL     1       3.135  -7.811 -29.209  1.00  0.00     0.094 A 
ATOM      9  C   UNL     1       3.381  -7.431 -30.533  1.00  0.00     0.336 A 
ATOM     10  O   UNL     1       4.523  -7.598 -31.033  1.00  0.00    -0.246 OA
ATOM     11  O   UNL     1       2.413  -6.890 -31.269  1.00  0.00    -0.423 OA
ENDROOT
TORSDOF 0
ENDMDL
MODEL 4
REMARK VINA RESULT:    -5.127      2.034      4.408
REMARK INTER + INTRA:          -5.127
REMARK INTER:                  -5.127
REMARK INTRA:                   0.000
REMARK UNBOUND:                 0.000
REMARK SMILES O=c1ccc2ccccc2o1
REMARK SMILES IDX 7 1 8 2 9 3 10 4 5 5 6 6 4 7 3 8 2 9 1 10 11 11
REMARK H PARENT
REMARK Flexibility Score: inf
ROOT
ATOM      1  C   UNL     1       3.479  -8.194 -29.313  1.00  0.00     0.001 A 
ATOM      2  C   UNL     1       3.837  -7.375 -30.389  1.00  0.00     0.004 A 
ATOM      3  C   UNL     1       2.889  -6.535 -30.980  1.00  0.00     0.048 A 
ATOM      4  C   UNL     1       1.575  -6.512 -30.498  1.00  0.00     0.138 A 
ATOM      5  C   UNL     1       1.212  -7.339 -29.412  1.00  0.00     0.018 A 
ATOM      6  C   UNL     1       2.168  -8.179 -28.823  1.00  0.00     0.012 A 
ATOM      7  C   UNL     1      -0.107  -7.295 -28.952  1.00  0.00     0.019 A 
ATOM      8  C   UNL     1      -1.020  -6.442 -29.573  1.00  0.00     0.094 A 
ATOM      9  C   UNL     1      -0.590  -5.651 -30.643  1.00  0.00     0.336 A 
ATOM     10  O   UNL     1      -1.398  -4.875 -31.216  1.00  0.00    -0.246 OA
ATOM     11  O   UNL     1       0.672  -5.712 -31.062  1.00  0.00    -0.423 OA
ENDROOT
TORSDOF 0
ENDMDL
MODEL 5
REMARK VINA RESULT:    -4.651      2.545      4.164
REMARK INTER + INTRA:          -4.651
REMARK INTER:                  -4.651
REMARK INTRA:                   0.000
REMARK UNBOUND:                 0.000
REMARK SMILES O=c1ccc2ccccc2o1
REMARK SMILES IDX 7 1 8 2 9 3 10 4 5 5 6 6 4 7 3 8 2 9 1 10 11 11
REMARK H PARENT
REMARK Flexibility Score: inf
ROOT
ATOM      1  C   UNL     1       2.521  -6.872 -29.593  1.00  0.00     0.001 A 
ATOM      2  C   UNL     1       2.198  -8.109 -29.025  1.00  0.00     0.004 A 
ATOM      3  C   UNL     1       0.975  -8.721 -29.319  1.00  0.00     0.048 A 
ATOM      4  C   UNL     1       0.068  -8.095 -30.182  1.00  0.00     0.138 A 
ATOM      5  C   UNL     1       0.393  -6.845 -30.754  1.00  0.00     0.018 A 
ATOM      6  C   UNL     1       1.621  -6.237 -30.456  1.00  0.00     0.012 A 
ATOM      7  C   UNL     1      -0.533  -6.243 -31.613  1.00  0.00     0.019 A 
ATOM      8  C   UNL     1      -1.740  -6.890 -31.876  1.00  0.00     0.094 A 
ATOM      9  C   UNL     1      -1.995  -8.126 -31.274  1.00  0.00     0.336 A 
ATOM     10  O   UNL     1      -3.079  -8.724 -31.499  1.00  0.00    -0.246 OA
ATOM     11  O   UNL     1      -1.097  -8.677 -30.461  1.00  0.00    -0.423 OA
ENDROOT
TORSDOF 0
ENDMDL
MODEL 6
REMARK VINA RESULT:    -4.377     10.767     11.661
REMARK INTER + INTRA:          -4.377
REMARK INTER:                  -4.377
REMARK INTRA:                   0.000
REMARK UNBOUND:                 0.000
REMARK SMILES O=c1ccc2ccccc2o1
REMARK SMILES IDX 7 1 8 2 9 3 10 4 5 5 6 6 4 7 3 8 2 9 1 10 11 11
REMARK H PARENT
REMARK Flexibility Score: inf
ROOT
ATOM      1  C   UNL     1       3.420   4.220 -30.679  1.00  0.00     0.001 A 
ATOM      2  C   UNL     1       3.910   2.997 -30.206  1.00  0.00     0.004 A 
ATOM      3  C   UNL     1       3.574   2.554 -28.923  1.00  0.00     0.048 A 
ATOM      4  C   UNL     1       2.747   3.333 -28.106  1.00  0.00     0.138 A 
ATOM      5  C   UNL     1       2.253   4.567 -28.583  1.00  0.00     0.018 A 
ATOM      6  C   UNL     1       2.593   5.007 -29.870  1.00  0.00     0.012 A 
ATOM      7  C   UNL     1       1.428   5.324 -27.744  1.00  0.00     0.019 A 
ATOM      8  C   UNL     1       1.120   4.841 -26.472  1.00  0.00     0.094 A 
ATOM      9  C   UNL     1       1.645   3.610 -26.067  1.00  0.00     0.336 A 
ATOM     10  O   UNL     1       1.378   3.159 -24.923  1.00  0.00    -0.246 OA
ATOM     11  O   UNL     1       2.427   2.910 -26.885  1.00  0.00    -0.423 OA
ENDROOT
TORSDOF 0
ENDMDL
MODEL 7
REMARK VINA RESULT:    -4.312     10.265     11.486
REMARK INTER + INTRA:          -4.312
REMARK INTER:                  -4.312
REMARK INTRA:                   0.000
REMARK UNBOUND:                 0.000
REMARK SMILES O=c1ccc2ccccc2o1
REMARK SMILES IDX 7 1 8 2 9 3 10 4 5 5 6 6 4 7 3 8 2 9 1 10 11 11
REMARK H PARENT
REMARK Flexibility Score: inf
ROOT
ATOM      1  C   UNL     1      10.303  -0.993 -22.187  1.00  0.00     0.001 A 
ATOM      2  C   UNL     1      10.702  -2.139 -21.492  1.00  0.00     0.004 A 
ATOM      3  C   UNL     1       9.795  -3.182 -21.276  1.00  0.00     0.048 A 
ATOM      4  C   UNL     1       8.484  -3.081 -21.755  1.00  0.00     0.138 A 
ATOM      5  C   UNL     1       8.081  -1.923 -22.456  1.00  0.00     0.018 A 
ATOM      6  C   UNL     1       8.994  -0.881 -22.670  1.00  0.00     0.012 A 
ATOM      7  C   UNL     1       6.764  -1.851 -22.923  1.00  0.00     0.019 A 
ATOM      8  C   UNL     1       5.895  -2.915 -22.684  1.00  0.00     0.094 A 
ATOM      9  C   UNL     1       6.364  -4.031 -21.982  1.00  0.00     0.336 A 
ATOM     10  O   UNL     1       5.594  -5.000 -21.756  1.00  0.00    -0.246 OA
ATOM     11  O   UNL     1       7.621  -4.074 -21.548  1.00  0.00    -0.423 OA
ENDROOT
TORSDOF 0
ENDMDL
MODEL 8
REMARK VINA RESULT:    -4.191      1.502      2.063
REMARK INTER + INTRA:          -4.191
REMARK INTER:                  -4.191
REMARK INTRA:                   0.000
REMARK UNBOUND:                 0.000
REMARK SMILES O=c1ccc2ccccc2o1
REMARK SMILES IDX 7 1 8 2 9 3 10 4 5 5 6 6 4 7 3 8 2 9 1 10 11 11
REMARK H PARENT
REMARK Flexibility Score: inf
ROOT
ATOM      1  C   UNL     1      -1.750  -5.438 -31.981  1.00  0.00     0.001 A 
ATOM      2  C   UNL     1      -2.392  -6.646 -31.689  1.00  0.00     0.004 A 
ATOM      3  C   UNL     1      -1.732  -7.633 -30.950  1.00  0.00     0.048 A 
ATOM      4  C   UNL     1      -0.424  -7.416 -30.501  1.00  0.00     0.138 A 
ATOM      5  C   UNL     1       0.224  -6.196 -30.797  1.00  0.00     0.018 A 
ATOM      6  C   UNL     1      -0.443  -5.210 -31.538  1.00  0.00     0.012 A 
ATOM      7  C   UNL     1       1.531  -6.007 -30.334  1.00  0.00     0.019 A 
ATOM      8  C   UNL     1       2.150  -7.019 -29.601  1.00  0.00     0.094 A 
ATOM      9  C   UNL     1       1.446  -8.201 -29.346  1.00  0.00     0.336 A 
ATOM     10  O   UNL     1       1.988  -9.125 -28.687  1.00  0.00    -0.246 OA
ATOM     11  O   UNL     1       0.204  -8.355 -29.798  1.00  0.00    -0.423 OA
ENDROOT
TORSDOF 0
ENDMDL
MODEL 9
REMARK VINA RESULT:    -4.064     10.703     11.333
REMARK INTER + INTRA:          -4.064
REMARK INTER:                  -4.064
REMARK INTRA:                   0.000
REMARK UNBOUND:                 0.000
REMARK SMILES O=c1ccc2ccccc2o1
REMARK SMILES IDX 7 1 8 2 9 3 10 4 5 5 6 6 4 7 3 8 2 9 1 10 11 11
REMARK H PARENT
REMARK Flexibility Score: inf
ROOT
ATOM      1  C   UNL     1       1.170   4.863 -26.462  1.00  0.00     0.001 A 
ATOM      2  C   UNL     1       1.668   3.623 -26.048  1.00  0.00     0.004 A 
ATOM      3  C   UNL     1       2.465   2.863 -26.910  1.00  0.00     0.048 A 
ATOM      4  C   UNL     1       2.766   3.340 -28.190  1.00  0.00     0.138 A 
ATOM      5  C   UNL     1       2.263   4.592 -28.608  1.00  0.00     0.018 A 
ATOM      6  C   UNL     1       1.464   5.350 -27.740  1.00  0.00     0.012 A 
ATOM      7  C   UNL     1       2.581   5.043 -29.893  1.00  0.00     0.019 A 
ATOM      8  C   UNL     1       3.379   4.250 -30.718  1.00  0.00     0.094 A 
ATOM      9  C   UNL     1       3.842   3.021 -30.237  1.00  0.00     0.336 A 
ATOM     10  O   UNL     1       4.563   2.293 -30.967  1.00  0.00    -0.246 OA
ATOM     11  O   UNL     1       3.525   2.615 -29.010  1.00  0.00    -0.423 OA
ENDROOT
TORSDOF 0
ENDMDL
