MODEL 1
REMARK VINA RESULT:    -4.145      0.000      0.000
REMARK INTER + INTRA:         -10.035
REMARK INTER:                  -7.537
REMARK INTRA:                  -2.499
REMARK UNBOUND:                -2.499
REMARK SMILES CCCCCCCCCCCCCC[C@H](C)C(=O)[O-]
REMARK SMILES IDX 9 1 10 2 11 3 12 4 13 5 14 6 15 7 16 8 17 9 18 10 19 11 8 12
REMARK SMILES IDX 7 13 6 14 5 15 4 16 3 17 2 18 1 19
REMARK H PARENT
REMARK Flexibility Score: inf
ROOT
ATOM      1  C   UNL     1       8.909 -17.908  22.032  1.00  0.00     0.000 C 
ENDROOT
BRANCH   1   2
ATOM      2  C   UNL     1       9.117 -19.017  23.076  1.00  0.00     0.000 C 
BRANCH   2   3
ATOM      3  C   UNL     1       7.916 -19.176  24.025  1.00  0.00     0.000 C 
BRANCH   3   4
ATOM      4  C   UNL     1       8.102 -18.469  25.385  1.00  0.00     0.000 C 
BRANCH   4   5
ATOM      5  C   UNL     1       7.357 -17.123  25.449  1.00  0.00     0.001 C 
BRANCH   5   6
ATOM      6  C   UNL     1       8.266 -15.970  25.932  1.00  0.00     0.009 C 
BRANCH   6   7
ATOM      7  C   UNL     1       8.768 -15.018  24.821  1.00  0.00     0.032 C 
ATOM      8  C   UNL     1       7.792 -14.906  23.642  1.00  0.00     0.014 C 
BRANCH   7   9
ATOM      9  C   UNL     1      10.162 -15.379  24.372  1.00  0.00     0.044 C 
ATOM     10  O   UNL     1      10.835 -16.252  24.983  1.00  0.00    -0.550 OA
ATOM     11  O   UNL     1      10.731 -14.710  23.297  1.00  0.00    -0.550 OA
ENDBRANCH   7   9
ENDBRANCH   6   7
ENDBRANCH   5   6
ENDBRANCH   4   5
ENDBRANCH   3   4
ENDBRANCH   2   3
ENDBRANCH   1   2
BRANCH   1  12
ATOM     12  C   UNL     1       7.475 -17.882  21.479  1.00  0.00     0.000 C 
BRANCH  12  13
ATOM     13  C   UNL     1       7.401 -18.351  20.016  1.00  0.00    -0.000 C 
BRANCH  13  14
ATOM     14  C   UNL     1       8.701 -18.086  19.233  1.00  0.00    -0.000 C 
BRANCH  14  15
ATOM     15  C   UNL     1       9.139 -19.212  18.271  1.00  0.00    -0.000 C 
BRANCH  15  16
ATOM     16  C   UNL     1       8.806 -20.643  18.740  1.00  0.00    -0.000 C 
BRANCH  16  17
ATOM     17  C   UNL     1       9.635 -21.108  19.959  1.00  0.00    -0.000 C 
BRANCH  17  18
ATOM     18  C   UNL     1       8.960 -22.229  20.766  1.00  0.00    -0.003 C 
ATOM     19  C   UNL     1       7.535 -21.879  21.190  1.00  0.00     0.004 C 
ENDBRANCH  17  18
ENDBRANCH  16  17
ENDBRANCH  15  16
ENDBRANCH  14  15
ENDBRANCH  13  14
ENDBRANCH  12  13
ENDBRANCH   1  12
TORSDOF 14
ENDMDL
MODEL 2
REMARK VINA RESULT:    -4.111      2.839      5.505
REMARK INTER + INTRA:          -9.974
REMARK INTER:                  -7.119
REMARK INTRA:                  -2.855
REMARK UNBOUND:                -2.499
REMARK SMILES CCCCCCCCCCCCCC[C@H](C)C(=O)[O-]
REMARK SMILES IDX 9 1 10 2 11 3 12 4 13 5 14 6 15 7 16 8 17 9 18 10 19 11 8 12
REMARK SMILES IDX 7 13 6 14 5 15 4 16 3 17 2 18 1 19
REMARK H PARENT
REMARK Flexibility Score: inf
ROOT
ATOM      1  C   UNL     1       7.245 -16.472  22.700  1.00  0.00     0.000 C 
ENDROOT
BRANCH   1   2
ATOM      2  C   UNL     1       6.475 -17.115  23.865  1.00  0.00     0.000 C 
BRANCH   2   3
ATOM      3  C   UNL     1       7.292 -18.196  24.595  1.00  0.00     0.000 C 
BRANCH   3   4
ATOM      4  C   UNL     1       7.861 -19.282  23.657  1.00  0.00     0.000 C 
BRANCH   4   5
ATOM      5  C   UNL     1       6.794 -20.312  23.243  1.00  0.00     0.001 C 
BRANCH   5   6
ATOM      6  C   UNL     1       6.569 -20.344  21.714  1.00  0.00     0.009 C 
BRANCH   6   7
ATOM      7  C   UNL     1       7.736 -19.786  20.866  1.00  0.00     0.032 C 
ATOM      8  C   UNL     1       7.287 -18.723  19.855  1.00  0.00     0.014 C 
BRANCH   7   9
ATOM      9  C   UNL     1       8.522 -20.896  20.213  1.00  0.00     0.044 C 
ATOM     10  O   UNL     1       8.111 -22.087  20.242  1.00  0.00    -0.550 OA
ATOM     11  O   UNL     1       9.739 -20.610  19.609  1.00  0.00    -0.550 OA
ENDBRANCH   7   9
ENDBRANCH   6   7
ENDBRANCH   5   6
ENDBRANCH   4   5
ENDBRANCH   3   4
ENDBRANCH   2   3
ENDBRANCH   1   2
BRANCH   1  12
ATOM     12  C   UNL     1       7.449 -14.960  22.892  1.00  0.00     0.000 C 
BRANCH  12  13
ATOM     13  C   UNL     1       8.164 -14.627  24.213  1.00  0.00    -0.000 C 
BRANCH  13  14
ATOM     14  C   UNL     1       9.695 -14.763  24.118  1.00  0.00    -0.000 C 
BRANCH  14  15
ATOM     15  C   UNL     1      10.304 -15.965  24.874  1.00  0.00    -0.000 C 
BRANCH  15  16
ATOM     16  C   UNL     1      10.842 -17.099  23.978  1.00  0.00    -0.000 C 
BRANCH  16  17
ATOM     17  C   UNL     1      11.171 -16.651  22.535  1.00  0.00    -0.000 C 
BRANCH  17  18
ATOM     18  C   UNL     1      10.582 -17.577  21.458  1.00  0.00    -0.003 C 
ATOM     19  C   UNL     1      10.474 -16.902  20.091  1.00  0.00     0.004 C 
ENDBRANCH  17  18
ENDBRANCH  16  17
ENDBRANCH  15  16
ENDBRANCH  14  15
ENDBRANCH  13  14
ENDBRANCH  12  13
ENDBRANCH   1  12
TORSDOF 14
ENDMDL
MODEL 3
REMARK VINA RESULT:    -4.077      2.880      6.222
REMARK INTER + INTRA:          -9.912
REMARK INTER:                  -7.300
REMARK INTRA:                  -2.612
REMARK UNBOUND:                -2.499
REMARK SMILES CCCCCCCCCCCCCC[C@H](C)C(=O)[O-]
REMARK SMILES IDX 9 1 10 2 11 3 12 4 13 5 14 6 15 7 16 8 17 9 18 10 19 11 8 12
REMARK SMILES IDX 7 13 6 14 5 15 4 16 3 17 2 18 1 19
REMARK H PARENT
REMARK Flexibility Score: inf
ROOT
ATOM      1  C   UNL     1       6.365 -17.245  23.644  1.00  0.00     0.000 C 
ENDROOT
BRANCH   1   2
ATOM      2  C   UNL     1       6.666 -15.796  23.228  1.00  0.00     0.000 C 
BRANCH   2   3
ATOM      3  C   UNL     1       7.434 -15.705  21.897  1.00  0.00     0.000 C 
BRANCH   3   4
ATOM      4  C   UNL     1       7.442 -17.024  21.094  1.00  0.00     0.000 C 
BRANCH   4   5
ATOM      5  C   UNL     1       8.852 -17.633  20.989  1.00  0.00     0.001 C 
BRANCH   5   6
ATOM      6  C   UNL     1       8.923 -19.058  21.586  1.00  0.00     0.009 C 
BRANCH   6   7
ATOM      7  C   UNL     1       7.886 -20.059  21.023  1.00  0.00     0.032 C 
ATOM      8  C   UNL     1       6.940 -20.610  22.098  1.00  0.00     0.014 C 
BRANCH   7   9
ATOM      9  C   UNL     1       8.553 -21.159  20.236  1.00  0.00     0.044 C 
ATOM     10  O   UNL     1       8.393 -22.370  20.548  1.00  0.00    -0.550 OA
ATOM     11  O   UNL     1       9.392 -20.834  19.179  1.00  0.00    -0.550 OA
ENDBRANCH   7   9
ENDBRANCH   6   7
ENDBRANCH   5   6
ENDBRANCH   4   5
ENDBRANCH   3   4
ENDBRANCH   2   3
ENDBRANCH   1   2
BRANCH   1  12
ATOM     12  C   UNL     1       6.689 -17.512  25.122  1.00  0.00     0.000 C 
BRANCH  12  13
ATOM     13  C   UNL     1       7.514 -18.796  25.320  1.00  0.00    -0.000 C 
BRANCH  13  14
ATOM     14  C   UNL     1       8.939 -18.522  25.835  1.00  0.00    -0.000 C 
BRANCH  14  15
ATOM     15  C   UNL     1       9.906 -17.890  24.810  1.00  0.00    -0.000 C 
BRANCH  15  16
ATOM     16  C   UNL     1      10.549 -16.558  25.250  1.00  0.00    -0.000 C 
BRANCH  16  17
ATOM     17  C   UNL     1      10.124 -15.347  24.389  1.00  0.00    -0.000 C 
BRANCH  17  18
ATOM     18  C   UNL     1      10.915 -15.222  23.077  1.00  0.00    -0.003 C 
ATOM     19  C   UNL     1      12.388 -15.595  23.234  1.00  0.00     0.004 C 
ENDBRANCH  17  18
ENDBRANCH  16  17
ENDBRANCH  15  16
ENDBRANCH  14  15
ENDBRANCH  13  14
ENDBRANCH  12  13
ENDBRANCH   1  12
TORSDOF 14
ENDMDL
MODEL 4
REMARK VINA RESULT:    -4.035      1.889      3.756
REMARK INTER + INTRA:          -9.836
REMARK INTER:                  -7.247
REMARK INTRA:                  -2.588
REMARK UNBOUND:                -2.499
REMARK SMILES CCCCCCCCCCCCCC[C@H](C)C(=O)[O-]
REMARK SMILES IDX 9 1 10 2 11 3 12 4 13 5 14 6 15 7 16 8 17 9 18 10 19 11 8 12
REMARK SMILES IDX 7 13 6 14 5 15 4 16 3 17 2 18 1 19
REMARK H PARENT
REMARK Flexibility Score: inf
ROOT
ATOM      1  C   UNL     1       7.074 -15.676  21.557  1.00  0.00     0.000 C 
ENDROOT
BRANCH   1   2
ATOM      2  C   UNL     1       6.999 -15.580  23.089  1.00  0.00     0.000 C 
BRANCH   2   3
ATOM      3  C   UNL     1       8.058 -14.633  23.680  1.00  0.00     0.000 C 
BRANCH   3   4
ATOM      4  C   UNL     1       8.642 -15.118  25.025  1.00  0.00     0.000 C 
BRANCH   4   5
ATOM      5  C   UNL     1      10.054 -15.712  24.867  1.00  0.00     0.001 C 
BRANCH   5   6
ATOM      6  C   UNL     1      10.741 -15.254  23.560  1.00  0.00     0.009 C 
BRANCH   6   7
ATOM      7  C   UNL     1      11.300 -16.394  22.677  1.00  0.00     0.032 C 
ATOM      8  C   UNL     1      10.812 -17.783  23.111  1.00  0.00     0.014 C 
BRANCH   7   9
ATOM      9  C   UNL     1      12.803 -16.327  22.575  1.00  0.00     0.044 C 
ATOM     10  O   UNL     1      13.456 -15.436  23.183  1.00  0.00    -0.550 OA
ATOM     11  O   UNL     1      13.477 -17.229  21.763  1.00  0.00    -0.550 OA
ENDBRANCH   7   9
ENDBRANCH   6   7
ENDBRANCH   5   6
ENDBRANCH   4   5
ENDBRANCH   3   4
ENDBRANCH   2   3
ENDBRANCH   1   2
BRANCH   1  12
ATOM     12  C   UNL     1       7.946 -16.850  21.083  1.00  0.00     0.000 C 
BRANCH  12  13
ATOM     13  C   UNL     1       7.188 -17.806  20.147  1.00  0.00    -0.000 C 
BRANCH  13  14
ATOM     14  C   UNL     1       7.755 -19.238  20.162  1.00  0.00    -0.000 C 
BRANCH  14  15
ATOM     15  C   UNL     1       8.159 -19.779  21.550  1.00  0.00    -0.000 C 
BRANCH  15  16
ATOM     16  C   UNL     1       6.995 -20.305  22.415  1.00  0.00    -0.000 C 
BRANCH  16  17
ATOM     17  C   UNL     1       6.514 -19.302  23.488  1.00  0.00    -0.000 C 
BRANCH  17  18
ATOM     18  C   UNL     1       7.587 -18.968  24.537  1.00  0.00    -0.003 C 
ATOM     19  C   UNL     1       7.011 -18.297  25.783  1.00  0.00     0.004 C 
ENDBRANCH  17  18
ENDBRANCH  16  17
ENDBRANCH  15  16
ENDBRANCH  14  15
ENDBRANCH  13  14
ENDBRANCH  12  13
ENDBRANCH   1  12
TORSDOF 14
ENDMDL
MODEL 5
REMARK VINA RESULT:    -4.030      2.399      5.861
REMARK INTER + INTRA:          -9.827
REMARK INTER:                  -6.995
REMARK INTRA:                  -2.832
REMARK UNBOUND:                -2.499
REMARK SMILES CCCCCCCCCCCCCC[C@H](C)C(=O)[O-]
REMARK SMILES IDX 9 1 10 2 11 3 12 4 13 5 14 6 15 7 16 8 17 9 18 10 19 11 8 12
REMARK SMILES IDX 7 13 6 14 5 15 4 16 3 17 2 18 1 19
REMARK H PARENT
REMARK Flexibility Score: inf
ROOT
ATOM      1  C   UNL     1       7.876 -14.722  23.626  1.00  0.00     0.000 C 
ENDROOT
BRANCH   1   2
ATOM      2  C   UNL     1       6.954 -15.877  23.202  1.00  0.00     0.000 C 
BRANCH   2   3
ATOM      3  C   UNL     1       7.155 -16.293  21.734  1.00  0.00     0.000 C 
BRANCH   3   4
ATOM      4  C   UNL     1       7.214 -17.822  21.525  1.00  0.00     0.000 C 
BRANCH   4   5
ATOM      5  C   UNL     1       7.351 -18.587  22.854  1.00  0.00     0.001 C 
BRANCH   5   6
ATOM      6  C   UNL     1       7.841 -20.039  22.648  1.00  0.00     0.009 C 
BRANCH   6   7
ATOM      7  C   UNL     1       8.373 -20.359  21.232  1.00  0.00     0.032 C 
ATOM      8  C   UNL     1       7.845 -21.690  20.680  1.00  0.00     0.014 C 
BRANCH   7   9
ATOM      9  C   UNL     1       9.878 -20.279  21.176  1.00  0.00     0.044 C 
ATOM     10  O   UNL     1      10.461 -19.652  20.251  1.00  0.00    -0.550 OA
ATOM     11  O   UNL     1      10.635 -20.942  22.132  1.00  0.00    -0.550 OA
ENDBRANCH   7   9
ENDBRANCH   6   7
ENDBRANCH   5   6
ENDBRANCH   4   5
ENDBRANCH   3   4
ENDBRANCH   2   3
ENDBRANCH   1   2
BRANCH   1  12
ATOM     12  C   UNL     1       8.565 -14.984  24.975  1.00  0.00     0.000 C 
BRANCH  12  13
ATOM     13  C   UNL     1       8.015 -16.233  25.684  1.00  0.00    -0.000 C 
BRANCH  13  14
ATOM     14  C   UNL     1       9.075 -17.335  25.868  1.00  0.00    -0.000 C 
BRANCH  14  15
ATOM     15  C   UNL     1      10.519 -16.839  26.095  1.00  0.00    -0.000 C 
BRANCH  15  16
ATOM     16  C   UNL     1      11.502 -17.133  24.943  1.00  0.00    -0.000 C 
BRANCH  16  17
ATOM     17  C   UNL     1      10.831 -17.738  23.690  1.00  0.00    -0.000 C 
BRANCH  17  18
ATOM     18  C   UNL     1      10.798 -16.778  22.489  1.00  0.00    -0.003 C 
ATOM     19  C   UNL     1      11.493 -15.447  22.775  1.00  0.00     0.004 C 
ENDBRANCH  17  18
ENDBRANCH  16  17
ENDBRANCH  15  16
ENDBRANCH  14  15
ENDBRANCH  13  14
ENDBRANCH  12  13
ENDBRANCH   1  12
TORSDOF 14
ENDMDL
MODEL 6
REMARK VINA RESULT:    -4.016      2.680      5.919
REMARK INTER + INTRA:          -9.802
REMARK INTER:                  -7.315
REMARK INTRA:                  -2.487
REMARK UNBOUND:                -2.499
REMARK SMILES CCCCCCCCCCCCCC[C@H](C)C(=O)[O-]
REMARK SMILES IDX 9 1 10 2 11 3 12 4 13 5 14 6 15 7 16 8 17 9 18 10 19 11 8 12
REMARK SMILES IDX 7 13 6 14 5 15 4 16 3 17 2 18 1 19
REMARK H PARENT
REMARK Flexibility Score: inf
ROOT
ATOM      1  C   UNL     1       7.511 -15.040  23.056  1.00  0.00     0.000 C 
ENDROOT
BRANCH   1   2
ATOM      2  C   UNL     1       6.707 -16.318  23.343  1.00  0.00     0.000 C 
BRANCH   2   3
ATOM      3  C   UNL     1       7.101 -17.489  22.427  1.00  0.00     0.000 C 
BRANCH   3   4
ATOM      4  C   UNL     1       8.110 -17.102  21.324  1.00  0.00     0.000 C 
BRANCH   4   5
ATOM      5  C   UNL     1       9.254 -18.125  21.196  1.00  0.00     0.001 C 
BRANCH   5   6
ATOM      6  C   UNL     1       8.885 -19.499  21.801  1.00  0.00     0.009 C 
BRANCH   6   7
ATOM      7  C   UNL     1       8.947 -20.690  20.815  1.00  0.00     0.032 C 
ATOM      8  C   UNL     1       7.918 -21.783  21.131  1.00  0.00     0.014 C 
BRANCH   7   9
ATOM      9  C   UNL     1      10.347 -21.242  20.706  1.00  0.00     0.044 C 
ATOM     10  O   UNL     1      10.998 -21.151  19.631  1.00  0.00    -0.550 OA
ATOM     11  O   UNL     1      10.910 -21.902  21.790  1.00  0.00    -0.550 OA
ENDBRANCH   7   9
ENDBRANCH   6   7
ENDBRANCH   5   6
ENDBRANCH   4   5
ENDBRANCH   3   4
ENDBRANCH   2   3
ENDBRANCH   1   2
BRANCH   1  12
ATOM     12  C   UNL     1       8.475 -14.681  24.199  1.00  0.00     0.000 C 
BRANCH  12  13
ATOM     13  C   UNL     1       9.949 -14.892  23.813  1.00  0.00    -0.000 C 
BRANCH  13  14
ATOM     14  C   UNL     1      10.484 -16.277  24.220  1.00  0.00    -0.000 C 
BRANCH  14  15
ATOM     15  C   UNL     1      10.644 -16.509  25.739  1.00  0.00    -0.000 C 
BRANCH  15  16
ATOM     16  C   UNL     1      10.065 -17.839  26.264  1.00  0.00    -0.000 C 
BRANCH  16  17
ATOM     17  C   UNL     1       9.103 -18.534  25.274  1.00  0.00    -0.000 C 
BRANCH  17  18
ATOM     18  C   UNL     1       7.732 -18.867  25.886  1.00  0.00    -0.003 C 
ATOM     19  C   UNL     1       6.979 -19.942  25.105  1.00  0.00     0.004 C 
ENDBRANCH  17  18
ENDBRANCH  16  17
ENDBRANCH  15  16
ENDBRANCH  14  15
ENDBRANCH  13  14
ENDBRANCH  12  13
ENDBRANCH   1  12
TORSDOF 14
ENDMDL
MODEL 7
REMARK VINA RESULT:    -4.014      2.312      4.426
REMARK INTER + INTRA:          -9.799
REMARK INTER:                  -7.373
REMARK INTRA:                  -2.426
REMARK UNBOUND:                -2.499
REMARK SMILES CCCCCCCCCCCCCC[C@H](C)C(=O)[O-]
REMARK SMILES IDX 9 1 10 2 11 3 12 4 13 5 14 6 15 7 16 8 17 9 18 10 19 11 8 12
REMARK SMILES IDX 7 13 6 14 5 15 4 16 3 17 2 18 1 19
REMARK H PARENT
REMARK Flexibility Score: inf
ROOT
ATOM      1  C   UNL     1       7.869 -15.927  22.873  1.00  0.00     0.000 C 
ENDROOT
BRANCH   1   2
ATOM      2  C   UNL     1       8.385 -14.706  23.651  1.00  0.00     0.000 C 
BRANCH   2   3
ATOM      3  C   UNL     1       9.726 -14.972  24.357  1.00  0.00     0.000 C 
BRANCH   3   4
ATOM      4  C   UNL     1      10.910 -15.175  23.386  1.00  0.00     0.000 C 
BRANCH   4   5
ATOM      5  C   UNL     1      11.777 -16.387  23.770  1.00  0.00     0.001 C 
BRANCH   5   6
ATOM      6  C   UNL     1      10.990 -17.716  23.709  1.00  0.00     0.009 C 
BRANCH   6   7
ATOM      7  C   UNL     1      11.183 -18.652  24.925  1.00  0.00     0.032 C 
ATOM      8  C   UNL     1      10.654 -18.050  26.234  1.00  0.00     0.014 C 
BRANCH   7   9
ATOM      9  C   UNL     1      12.615 -19.109  25.049  1.00  0.00     0.044 C 
ATOM     10  O   UNL     1      13.147 -19.825  24.159  1.00  0.00    -0.550 OA
ATOM     11  O   UNL     1      13.346 -18.774  26.180  1.00  0.00    -0.550 OA
ENDBRANCH   7   9
ENDBRANCH   6   7
ENDBRANCH   5   6
ENDBRANCH   4   5
ENDBRANCH   3   4
ENDBRANCH   2   3
ENDBRANCH   1   2
BRANCH   1  12
ATOM     12  C   UNL     1       6.365 -16.165  23.083  1.00  0.00     0.000 C 
BRANCH  12  13
ATOM     13  C   UNL     1       6.083 -17.361  24.009  1.00  0.00    -0.000 C 
BRANCH  13  14
ATOM     14  C   UNL     1       7.367 -18.036  24.527  1.00  0.00    -0.000 C 
BRANCH  14  15
ATOM     15  C   UNL     1       7.614 -19.473  24.020  1.00  0.00    -0.000 C 
BRANCH  15  16
ATOM     16  C   UNL     1       6.412 -20.135  23.315  1.00  0.00    -0.000 C 
BRANCH  16  17
ATOM     17  C   UNL     1       6.604 -20.311  21.791  1.00  0.00    -0.000 C 
BRANCH  17  18
ATOM     18  C   UNL     1       7.922 -19.717  21.268  1.00  0.00    -0.003 C 
ATOM     19  C   UNL     1       7.706 -18.574  20.277  1.00  0.00     0.004 C 
ENDBRANCH  17  18
ENDBRANCH  16  17
ENDBRANCH  15  16
ENDBRANCH  14  15
ENDBRANCH  13  14
ENDBRANCH  12  13
ENDBRANCH   1  12
TORSDOF 14
ENDMDL
MODEL 8
REMARK VINA RESULT:    -3.993      2.753      5.819
REMARK INTER + INTRA:          -9.760
REMARK INTER:                  -6.858
REMARK INTRA:                  -2.902
REMARK UNBOUND:                -2.499
REMARK SMILES CCCCCCCCCCCCCC[C@H](C)C(=O)[O-]
REMARK SMILES IDX 9 1 10 2 11 3 12 4 13 5 14 6 15 7 16 8 17 9 18 10 19 11 8 12
REMARK SMILES IDX 7 13 6 14 5 15 4 16 3 17 2 18 1 19
REMARK H PARENT
REMARK Flexibility Score: inf
ROOT
ATOM      1  C   UNL     1       6.762 -17.584  25.399  1.00  0.00     0.000 C 
ENDROOT
BRANCH   1   2
ATOM      2  C   UNL     1       6.188 -17.519  23.974  1.00  0.00     0.000 C 
BRANCH   2   3
ATOM      3  C   UNL     1       6.478 -16.179  23.275  1.00  0.00     0.000 C 
BRANCH   3   4
ATOM      4  C   UNL     1       7.785 -16.178  22.453  1.00  0.00     0.000 C 
BRANCH   4   5
ATOM      5  C   UNL     1       7.702 -17.105  21.226  1.00  0.00     0.001 C 
BRANCH   5   6
ATOM      6  C   UNL     1       8.947 -18.011  21.088  1.00  0.00     0.009 C 
BRANCH   6   7
ATOM      7  C   UNL     1       9.167 -19.008  22.250  1.00  0.00     0.032 C 
ATOM      8  C   UNL     1      10.648 -19.205  22.599  1.00  0.00     0.014 C 
BRANCH   7   9
ATOM      9  C   UNL     1       8.466 -20.318  21.992  1.00  0.00     0.044 C 
ATOM     10  O   UNL     1       9.058 -21.269  21.414  1.00  0.00    -0.550 OA
ATOM     11  O   UNL     1       7.134 -20.466  22.356  1.00  0.00    -0.550 OA
ENDBRANCH   7   9
ENDBRANCH   6   7
ENDBRANCH   5   6
ENDBRANCH   4   5
ENDBRANCH   3   4
ENDBRANCH   2   3
ENDBRANCH   1   2
BRANCH   1  12
ATOM     12  C   UNL     1       7.615 -18.841  25.633  1.00  0.00     0.000 C 
BRANCH  12  13
ATOM     13  C   UNL     1       9.094 -18.508  25.890  1.00  0.00    -0.000 C 
BRANCH  13  14
ATOM     14  C   UNL     1       9.381 -16.995  25.880  1.00  0.00    -0.000 C 
BRANCH  14  15
ATOM     15  C   UNL     1      10.752 -16.581  25.304  1.00  0.00    -0.000 C 
BRANCH  15  16
ATOM     16  C   UNL     1      10.696 -15.588  24.125  1.00  0.00    -0.000 C 
BRANCH  16  17
ATOM     17  C   UNL     1      11.982 -15.563  23.268  1.00  0.00    -0.000 C 
BRANCH  17  18
ATOM     18  C   UNL     1      11.710 -15.587  21.755  1.00  0.00    -0.003 C 
ATOM     19  C   UNL     1      12.626 -16.550  21.003  1.00  0.00     0.004 C 
ENDBRANCH  17  18
ENDBRANCH  16  17
ENDBRANCH  15  16
ENDBRANCH  14  15
ENDBRANCH  13  14
ENDBRANCH  12  13
ENDBRANCH   1  12
TORSDOF 14
ENDMDL
MODEL 9
REMARK VINA RESULT:    -3.988      1.817      4.268
REMARK INTER + INTRA:          -9.750
REMARK INTER:                  -6.895
REMARK INTRA:                  -2.854
REMARK UNBOUND:                -2.499
REMARK SMILES CCCCCCCCCCCCCC[C@H](C)C(=O)[O-]
REMARK SMILES IDX 9 1 10 2 11 3 12 4 13 5 14 6 15 7 16 8 17 9 18 10 19 11 8 12
REMARK SMILES IDX 7 13 6 14 5 15 4 16 3 17 2 18 1 19
REMARK H PARENT
REMARK Flexibility Score: inf
ROOT
ATOM      1  C   UNL     1       9.065 -20.481  21.049  1.00  0.00     0.000 C 
ENDROOT
BRANCH   1   2
ATOM      2  C   UNL     1      10.094 -19.592  20.333  1.00  0.00     0.000 C 
BRANCH   2   3
ATOM      3  C   UNL     1      11.181 -19.056  21.280  1.00  0.00     0.000 C 
BRANCH   3   4
ATOM      4  C   UNL     1      11.340 -19.883  22.574  1.00  0.00     0.000 C 
BRANCH   4   5
ATOM      5  C   UNL     1      11.513 -18.992  23.818  1.00  0.00     0.001 C 
BRANCH   5   6
ATOM      6  C   UNL     1      10.421 -17.903  23.917  1.00  0.00     0.009 C 
BRANCH   6   7
ATOM      7  C   UNL     1      10.851 -16.605  24.642  1.00  0.00     0.032 C 
ATOM      8  C   UNL     1      10.013 -16.312  25.893  1.00  0.00     0.014 C 
BRANCH   7   9
ATOM      9  C   UNL     1      10.887 -15.431  23.696  1.00  0.00     0.044 C 
ATOM     10  O   UNL     1      10.068 -14.479  23.810  1.00  0.00    -0.550 OA
ATOM     11  O   UNL     1      11.806 -15.417  22.655  1.00  0.00    -0.550 OA
ENDBRANCH   7   9
ENDBRANCH   6   7
ENDBRANCH   5   6
ENDBRANCH   4   5
ENDBRANCH   3   4
ENDBRANCH   2   3
ENDBRANCH   1   2
BRANCH   1  12
ATOM     12  C   UNL     1       7.617 -20.118  20.680  1.00  0.00     0.000 C 
BRANCH  12  13
ATOM     13  C   UNL     1       6.708 -19.998  21.915  1.00  0.00    -0.000 C 
BRANCH  13  14
ATOM     14  C   UNL     1       7.491 -20.019  23.242  1.00  0.00    -0.000 C 
BRANCH  14  15
ATOM     15  C   UNL     1       6.992 -19.039  24.325  1.00  0.00    -0.000 C 
BRANCH  15  16
ATOM     16  C   UNL     1       6.168 -17.845  23.800  1.00  0.00    -0.000 C 
BRANCH  16  17
ATOM     17  C   UNL     1       7.009 -16.575  23.538  1.00  0.00    -0.000 C 
BRANCH  17  18
ATOM     18  C   UNL     1       6.982 -16.115  22.071  1.00  0.00    -0.003 C 
ATOM     19  C   UNL     1       8.251 -16.490  21.308  1.00  0.00     0.004 C 
ENDBRANCH  17  18
ENDBRANCH  16  17
ENDBRANCH  15  16
ENDBRANCH  14  15
ENDBRANCH  13  14
ENDBRANCH  12  13
ENDBRANCH   1  12
TORSDOF 14
ENDMDL
