MODEL 1
REMARK VINA RESULT:    -3.692      0.000      0.000
REMARK INTER + INTRA:          -5.645
REMARK INTER:                  -5.634
REMARK INTRA:                  -0.012
REMARK UNBOUND:                -0.012
REMARK SMILES CC1=CCC[C@@H](C)C(=O)C[C@H](C(C)C)C(=O)C1
REMARK SMILES IDX 8 1 9 2 6 3 7 4 5 5 4 6 3 7 2 8 1 9 10 11 11 12 15 13 16 14
REMARK SMILES IDX 17 15 12 17 13 18 14 19
REMARK H PARENT
REMARK Flexibility Score: 70.00
ROOT
ATOM      1  C   UNL     1     -14.671  11.691 -27.503  1.00  0.00     0.136 C 
ATOM      2  O   UNL     1     -15.433  11.850 -26.560  1.00  0.00    -0.299 OA
ENDROOT
BRANCH   1   3
ATOM      3  C   UNL     1     -13.178  11.813 -27.254  1.00  0.00     0.053 C 
ATOM      4  C   UNL     1     -12.895  12.581 -25.957  1.00  0.00     0.016 C 
BRANCH   3   5
ATOM      5  C   UNL     1     -12.438  12.452 -28.446  1.00  0.00     0.015 C 
BRANCH   5   6
ATOM      6  C   UNL     1     -12.810  13.937 -28.653  1.00  0.00     0.028 C 
BRANCH   6   7
ATOM      7  C   UNL     1     -12.648  14.336 -30.100  1.00  0.00    -0.028 C 
ATOM      8  C   UNL     1     -13.657  14.685 -30.935  1.00  0.00    -0.070 CG0
ATOM      9  C   UNL     1     -13.294  15.107 -32.336  1.00  0.00     0.039 C 
ATOM     10  G   UNL     1     -15.128  14.607 -30.546  1.00  0.00     0.000 G0
ENDBRANCH   6   7
ENDBRANCH   5   6
ENDBRANCH   3   5
ENDBRANCH   1   3
BRANCH   1  11
ATOM     11  C   UNL     1     -15.264  11.389 -28.865  1.00  0.00     0.087 C 
BRANCH  11  12
ATOM     12  C   UNL     1     -16.264  12.465 -29.369  1.00  0.00     0.066 C 
BRANCH  12  13
ATOM     13  C   UNL     1     -15.749  13.211 -30.598  1.00  0.00     0.140 C 
ATOM     14  O   UNL     1     -15.827  12.663 -31.687  1.00  0.00    -0.299 OA
BRANCH  13  15
ATOM     15  C   UNL     1     -15.137  14.600 -30.559  1.00  0.00     0.106 CG0
ATOM     16  G   UNL     1     -13.665  14.697 -30.937  1.00  0.00     0.000 G0
ENDBRANCH  13  15
ENDBRANCH  12  13
BRANCH  12  17
ATOM     17  C   UNL     1     -17.691  11.867 -29.584  1.00  0.00    -0.006 C 
ATOM     18  C   UNL     1     -18.746  12.886 -30.053  1.00  0.00     0.008 C 
ATOM     19  C   UNL     1     -18.191  11.156 -28.319  1.00  0.00     0.008 C 
ENDBRANCH  12  17
ENDBRANCH  11  12
ENDBRANCH   1  11
TORSDOF 1
ENDMDL
MODEL 2
REMARK VINA RESULT:    -3.617     10.652     13.481
REMARK INTER + INTRA:          -5.532
REMARK INTER:                  -5.670
REMARK INTRA:                   0.138
REMARK UNBOUND:                -0.012
REMARK SMILES CC1=CCC[C@@H](C)C(=O)C[C@H](C(C)C)C(=O)C1
REMARK SMILES IDX 8 1 9 2 6 3 7 4 5 5 4 6 3 7 2 8 1 9 10 11 11 12 15 13 16 14
REMARK SMILES IDX 17 15 12 17 13 18 14 19
REMARK H PARENT
REMARK Flexibility Score: 70.00
ROOT
ATOM      1  C   UNL     1     -29.489  13.950 -30.687  1.00  0.00     0.136 C 
ATOM      2  O   UNL     1     -30.579  14.445 -30.432  1.00  0.00    -0.299 OA
ENDROOT
BRANCH   1   3
ATOM      3  C   UNL     1     -29.090  12.675 -29.965  1.00  0.00     0.053 C 
ATOM      4  C   UNL     1     -29.443  12.750 -28.474  1.00  0.00     0.016 C 
BRANCH   3   5
ATOM      5  C   UNL     1     -27.599  12.336 -30.164  1.00  0.00     0.015 C 
BRANCH   5   6
ATOM      6  C   UNL     1     -26.686  13.026 -29.125  1.00  0.00     0.028 C 
BRANCH   6   7
ATOM      7  C   UNL     1     -25.539  13.734 -29.802  1.00  0.00    -0.028 C 
ATOM      8  C   UNL     1     -25.467  15.067 -30.035  1.00  0.00    -0.070 CG0
ATOM      9  C   UNL     1     -24.212  15.600 -30.679  1.00  0.00     0.039 C 
ATOM     10  G   UNL     1     -26.611  16.029 -29.741  1.00  0.00     0.000 G0
ENDBRANCH   6   7
ENDBRANCH   5   6
ENDBRANCH   3   5
ENDBRANCH   1   3
BRANCH   1  11
ATOM     11  C   UNL     1     -28.602  14.643 -31.702  1.00  0.00     0.087 C 
BRANCH  11  12
ATOM     12  C   UNL     1     -28.577  16.190 -31.562  1.00  0.00     0.066 C 
BRANCH  12  13
ATOM     13  C   UNL     1     -27.279  16.699 -30.940  1.00  0.00     0.140 C 
ATOM     14  O   UNL     1     -26.745  17.684 -31.427  1.00  0.00    -0.299 OA
BRANCH  13  15
ATOM     15  C   UNL     1     -26.597  16.057 -29.745  1.00  0.00     0.106 CG0
ATOM     16  G   UNL     1     -25.475  15.075 -30.058  1.00  0.00     0.000 G0
ENDBRANCH  13  15
ENDBRANCH  12  13
BRANCH  12  17
ATOM     17  C   UNL     1     -28.909  16.893 -32.917  1.00  0.00    -0.006 C 
ATOM     18  C   UNL     1     -29.305  18.377 -32.786  1.00  0.00     0.008 C 
ATOM     19  C   UNL     1     -30.003  16.135 -33.683  1.00  0.00     0.008 C 
ENDBRANCH  12  17
ENDBRANCH  11  12
ENDBRANCH   1  11
TORSDOF 1
ENDMDL
MODEL 3
REMARK VINA RESULT:    -3.556      1.797      4.029
REMARK INTER + INTRA:          -5.439
REMARK INTER:                  -5.478
REMARK INTRA:                   0.040
REMARK UNBOUND:                -0.012
REMARK SMILES CC1=CCC[C@@H](C)C(=O)C[C@H](C(C)C)C(=O)C1
REMARK SMILES IDX 8 1 9 2 6 3 7 4 5 5 4 6 3 7 2 8 1 9 10 11 11 12 15 13 16 14
REMARK SMILES IDX 17 15 12 17 13 18 14 19
REMARK H PARENT
REMARK Flexibility Score: 70.00
ROOT
ATOM      1  C   UNL     1     -17.325  12.113 -28.035  1.00  0.00     0.136 C 
ATOM      2  O   UNL     1     -18.036  11.223 -27.590  1.00  0.00    -0.299 OA
ENDROOT
BRANCH   1   3
ATOM      3  C   UNL     1     -17.789  12.856 -29.275  1.00  0.00     0.053 C 
ATOM      4  C   UNL     1     -19.279  13.206 -29.184  1.00  0.00     0.016 C 
BRANCH   3   5
ATOM      5  C   UNL     1     -17.481  12.077 -30.570  1.00  0.00     0.015 C 
BRANCH   5   6
ATOM      6  C   UNL     1     -16.176  12.546 -31.252  1.00  0.00     0.028 C 
BRANCH   6   7
ATOM      7  C   UNL     1     -15.973  14.030 -31.065  1.00  0.00    -0.028 C 
ATOM      8  C   UNL     1     -14.873  14.609 -30.527  1.00  0.00    -0.070 CG0
ATOM      9  C   UNL     1     -14.830  16.116 -30.471  1.00  0.00     0.039 C 
ATOM     10  G   UNL     1     -13.723  13.816 -29.922  1.00  0.00     0.000 G0
ENDBRANCH   6   7
ENDBRANCH   5   6
ENDBRANCH   3   5
ENDBRANCH   1   3
BRANCH   1  11
ATOM     11  C   UNL     1     -16.020  12.415 -27.324  1.00  0.00     0.087 C 
BRANCH  11  12
ATOM     12  C   UNL     1     -14.756  12.059 -28.154  1.00  0.00     0.066 C 
BRANCH  12  13
ATOM     13  C   UNL     1     -13.921  13.289 -28.501  1.00  0.00     0.140 C 
ATOM     14  O   UNL     1     -13.376  13.900 -27.594  1.00  0.00    -0.299 OA
BRANCH  13  15
ATOM     15  C   UNL     1     -13.720  13.813 -29.912  1.00  0.00     0.106 CG0
ATOM     16  G   UNL     1     -14.878  14.604 -30.507  1.00  0.00     0.000 G0
ENDBRANCH  13  15
ENDBRANCH  12  13
BRANCH  12  17
ATOM     17  C   UNL     1     -13.915  10.938 -27.464  1.00  0.00    -0.006 C 
ATOM     18  C   UNL     1     -13.979  10.948 -25.925  1.00  0.00     0.008 C 
ATOM     19  C   UNL     1     -12.449  10.985 -27.918  1.00  0.00     0.008 C 
ENDBRANCH  12  17
ENDBRANCH  11  12
ENDBRANCH   1  11
TORSDOF 1
ENDMDL
MODEL 4
REMARK VINA RESULT:    -2.867     11.312     14.244
REMARK INTER + INTRA:          -4.388
REMARK INTER:                  -4.960
REMARK INTRA:                   0.573
REMARK UNBOUND:                -0.012
REMARK SMILES CC1=CCC[C@@H](C)C(=O)C[C@H](C(C)C)C(=O)C1
REMARK SMILES IDX 8 1 9 2 6 3 7 4 5 5 4 6 3 7 2 8 1 9 10 11 11 12 15 13 16 14
REMARK SMILES IDX 17 15 12 17 13 18 14 19
REMARK H PARENT
REMARK Flexibility Score: 70.00
ROOT
ATOM      1  C   UNL     1     -26.762  14.628 -30.229  1.00  0.00     0.136 C 
ATOM      2  O   UNL     1     -26.357  14.310 -29.119  1.00  0.00    -0.299 OA
ENDROOT
BRANCH   1   3
ATOM      3  C   UNL     1     -26.112  15.814 -30.921  1.00  0.00     0.053 C 
ATOM      4  C   UNL     1     -24.653  15.980 -30.479  1.00  0.00     0.016 C 
BRANCH   3   5
ATOM      5  C   UNL     1     -26.906  17.118 -30.712  1.00  0.00     0.015 C 
BRANCH   5   6
ATOM      6  C   UNL     1     -26.948  18.001 -31.980  1.00  0.00     0.028 C 
BRANCH   6   7
ATOM      7  C   UNL     1     -28.369  18.363 -32.337  1.00  0.00    -0.028 C 
ATOM      8  C   UNL     1     -29.355  17.478 -32.624  1.00  0.00    -0.070 CG0
ATOM      9  C   UNL     1     -30.731  18.028 -32.906  1.00  0.00     0.039 C 
ATOM     10  G   UNL     1     -29.123  15.977 -32.739  1.00  0.00     0.000 G0
ENDBRANCH   6   7
ENDBRANCH   5   6
ENDBRANCH   3   5
ENDBRANCH   1   3
BRANCH   1  11
ATOM     11  C   UNL     1     -27.892  13.825 -30.842  1.00  0.00     0.087 C 
BRANCH  11  12
ATOM     12  C   UNL     1     -29.304  14.401 -30.547  1.00  0.00     0.066 C 
BRANCH  12  13
ATOM     13  C   UNL     1     -29.910  15.107 -31.758  1.00  0.00     0.140 C 
ATOM     14  O   UNL     1     -31.106  14.976 -31.971  1.00  0.00    -0.299 OA
BRANCH  13  15
ATOM     15  C   UNL     1     -29.121  15.968 -32.727  1.00  0.00     0.106 CG0
ATOM     16  G   UNL     1     -29.345  17.471 -32.628  1.00  0.00     0.000 G0
ENDBRANCH  13  15
ENDBRANCH  12  13
BRANCH  12  17
ATOM     17  C   UNL     1     -30.253  13.314 -29.949  1.00  0.00    -0.006 C 
ATOM     18  C   UNL     1     -29.858  12.827 -28.541  1.00  0.00     0.008 C 
ATOM     19  C   UNL     1     -30.381  12.109 -30.892  1.00  0.00     0.008 C 
ENDBRANCH  12  17
ENDBRANCH  11  12
ENDBRANCH   1  11
TORSDOF 1
ENDMDL
MODEL 5
REMARK VINA RESULT:    -2.806     10.949     13.318
REMARK INTER + INTRA:          -4.294
REMARK INTER:                  -4.515
REMARK INTRA:                   0.221
REMARK UNBOUND:                -0.012
REMARK SMILES CC1=CCC[C@@H](C)C(=O)C[C@H](C(C)C)C(=O)C1
REMARK SMILES IDX 8 1 9 2 6 3 7 4 5 5 4 6 3 7 2 8 1 9 10 11 11 12 15 13 16 14
REMARK SMILES IDX 17 15 12 17 13 18 14 19
REMARK H PARENT
REMARK Flexibility Score: 70.00
ROOT
ATOM      1  C   UNL     1     -25.359  13.679 -29.927  1.00  0.00     0.136 C 
ATOM      2  O   UNL     1     -24.574  14.242 -30.677  1.00  0.00    -0.299 OA
ENDROOT
BRANCH   1   3
ATOM      3  C   UNL     1     -24.976  12.319 -29.370  1.00  0.00     0.053 C 
ATOM      4  C   UNL     1     -25.398  11.193 -30.321  1.00  0.00     0.016 C 
BRANCH   3   5
ATOM      5  C   UNL     1     -25.541  12.088 -27.954  1.00  0.00     0.015 C 
BRANCH   5   6
ATOM      6  C   UNL     1     -26.533  10.904 -27.894  1.00  0.00     0.028 C 
BRANCH   6   7
ATOM      7  C   UNL     1     -27.919  11.380 -27.534  1.00  0.00    -0.028 C 
ATOM      8  C   UNL     1     -28.864  11.783 -28.417  1.00  0.00    -0.070 CG0
ATOM      9  C   UNL     1     -30.214  12.175 -27.871  1.00  0.00     0.039 C 
ATOM     10  G   UNL     1     -28.605  11.920 -29.912  1.00  0.00     0.000 G0
ENDBRANCH   6   7
ENDBRANCH   5   6
ENDBRANCH   3   5
ENDBRANCH   1   3
BRANCH   1  11
ATOM     11  C   UNL     1     -26.669  14.370 -29.604  1.00  0.00     0.087 C 
BRANCH  11  12
ATOM     12  C   UNL     1     -27.708  14.316 -30.757  1.00  0.00     0.066 C 
BRANCH  12  13
ATOM     13  C   UNL     1     -28.834  13.321 -30.483  1.00  0.00     0.140 C 
ATOM     14  O   UNL     1     -29.981  13.653 -30.740  1.00  0.00    -0.299 OA
BRANCH  13  15
ATOM     15  C   UNL     1     -28.624  11.934 -29.903  1.00  0.00     0.106 CG0
ATOM     16  G   UNL     1     -28.879  11.784 -28.409  1.00  0.00     0.000 G0
ENDBRANCH  13  15
ENDBRANCH  12  13
BRANCH  12  17
ATOM     17  C   UNL     1     -28.240  15.741 -31.116  1.00  0.00    -0.006 C 
ATOM     18  C   UNL     1     -28.856  15.856 -32.523  1.00  0.00     0.008 C 
ATOM     19  C   UNL     1     -27.144  16.802 -30.947  1.00  0.00     0.008 C 
ENDBRANCH  12  17
ENDBRANCH  11  12
ENDBRANCH   1  11
TORSDOF 1
ENDMDL
MODEL 6
REMARK VINA RESULT:    -2.802     10.727     14.017
REMARK INTER + INTRA:          -4.287
REMARK INTER:                  -4.646
REMARK INTRA:                   0.359
REMARK UNBOUND:                -0.012
REMARK SMILES CC1=CCC[C@@H](C)C(=O)C[C@H](C(C)C)C(=O)C1
REMARK SMILES IDX 8 1 9 2 6 3 7 4 5 5 4 6 3 7 2 8 1 9 10 11 11 12 15 13 16 14
REMARK SMILES IDX 17 15 12 17 13 18 14 19
REMARK H PARENT
REMARK Flexibility Score: 70.00
ROOT
ATOM      1  C   UNL     1     -28.507  12.330 -28.963  1.00  0.00     0.136 C 
ATOM      2  O   UNL     1     -28.176  12.800 -27.884  1.00  0.00    -0.299 OA
ENDROOT
BRANCH   1   3
ATOM      3  C   UNL     1     -29.989  12.212 -29.274  1.00  0.00     0.053 C 
ATOM      4  C   UNL     1     -30.242  11.175 -30.376  1.00  0.00     0.016 C 
BRANCH   3   5
ATOM      5  C   UNL     1     -30.618  13.571 -29.638  1.00  0.00     0.015 C 
BRANCH   5   6
ATOM      6  C   UNL     1     -30.943  13.694 -31.144  1.00  0.00     0.028 C 
BRANCH   6   7
ATOM      7  C   UNL     1     -30.568  15.059 -31.666  1.00  0.00    -0.028 C 
ATOM      8  C   UNL     1     -29.356  15.403 -32.164  1.00  0.00    -0.070 CG0
ATOM      9  C   UNL     1     -29.185  16.807 -32.690  1.00  0.00     0.039 C 
ATOM     10  G   UNL     1     -28.153  14.468 -32.155  1.00  0.00     0.000 G0
ENDBRANCH   6   7
ENDBRANCH   5   6
ENDBRANCH   3   5
ENDBRANCH   1   3
BRANCH   1  11
ATOM     11  C   UNL     1     -27.419  11.887 -29.921  1.00  0.00     0.087 C 
BRANCH  11  12
ATOM     12  C   UNL     1     -26.561  13.054 -30.479  1.00  0.00     0.066 C 
BRANCH  12  13
ATOM     13  C   UNL     1     -27.402  14.277 -30.839  1.00  0.00     0.140 C 
ATOM     14  O   UNL     1     -27.496  15.181 -30.021  1.00  0.00    -0.299 OA
BRANCH  13  15
ATOM     15  C   UNL     1     -28.138  14.449 -32.154  1.00  0.00     0.106 CG0
ATOM     16  G   UNL     1     -29.335  15.391 -32.138  1.00  0.00     0.000 G0
ENDBRANCH  13  15
ENDBRANCH  12  13
BRANCH  12  17
ATOM     17  C   UNL     1     -25.374  13.401 -29.524  1.00  0.00    -0.006 C 
ATOM     18  C   UNL     1     -24.334  14.368 -30.122  1.00  0.00     0.008 C 
ATOM     19  C   UNL     1     -24.669  12.130 -29.031  1.00  0.00     0.008 C 
ENDBRANCH  12  17
ENDBRANCH  11  12
ENDBRANCH   1  11
TORSDOF 1
ENDMDL
MODEL 7
REMARK VINA RESULT:    -2.749     10.659     13.905
REMARK INTER + INTRA:          -4.206
REMARK INTER:                  -4.211
REMARK INTRA:                   0.004
REMARK UNBOUND:                -0.012
REMARK SMILES CC1=CCC[C@@H](C)C(=O)C[C@H](C(C)C)C(=O)C1
REMARK SMILES IDX 8 1 9 2 6 3 7 4 5 5 4 6 3 7 2 8 1 9 10 11 11 12 15 13 16 14
REMARK SMILES IDX 17 15 12 17 13 18 14 19
REMARK H PARENT
REMARK Flexibility Score: 70.00
ROOT
ATOM      1  C   UNL     1     -30.251  14.686 -31.562  1.00  0.00     0.136 C 
ATOM      2  O   UNL     1     -31.017  13.917 -32.127  1.00  0.00    -0.299 OA
ENDROOT
BRANCH   1   3
ATOM      3  C   UNL     1     -30.019  16.055 -32.176  1.00  0.00     0.053 C 
ATOM      4  C   UNL     1     -30.863  16.242 -33.443  1.00  0.00     0.016 C 
BRANCH   3   5
ATOM      5  C   UNL     1     -28.528  16.322 -32.460  1.00  0.00     0.015 C 
BRANCH   5   6
ATOM      6  C   UNL     1     -27.896  17.309 -31.452  1.00  0.00     0.028 C 
BRANCH   6   7
ATOM      7  C   UNL     1     -26.430  17.010 -31.253  1.00  0.00    -0.028 C 
ATOM      8  C   UNL     1     -25.930  16.006 -30.494  1.00  0.00    -0.070 CG0
ATOM      9  C   UNL     1     -24.433  15.830 -30.459  1.00  0.00     0.039 C 
ATOM     10  G   UNL     1     -26.799  15.100 -29.631  1.00  0.00     0.000 G0
ENDBRANCH   6   7
ENDBRANCH   5   6
ENDBRANCH   3   5
ENDBRANCH   1   3
BRANCH   1  11
ATOM     11  C   UNL     1     -29.575  14.222 -30.287  1.00  0.00     0.087 C 
BRANCH  11  12
ATOM     12  C   UNL     1     -28.461  13.164 -30.516  1.00  0.00     0.066 C 
BRANCH  12  13
ATOM     13  C   UNL     1     -27.071  13.699 -30.181  1.00  0.00     0.140 C 
ATOM     14  O   UNL     1     -26.106  12.972 -30.366  1.00  0.00    -0.299 OA
BRANCH  13  15
ATOM     15  C   UNL     1     -26.801  15.085 -29.626  1.00  0.00     0.106 CG0
ATOM     16  G   UNL     1     -25.929  15.995 -30.481  1.00  0.00     0.000 G0
ENDBRANCH  13  15
ENDBRANCH  12  13
BRANCH  12  17
ATOM     17  C   UNL     1     -28.783  11.825 -29.778  1.00  0.00    -0.006 C 
ATOM     18  C   UNL     1     -30.196  11.272 -30.045  1.00  0.00     0.008 C 
ATOM     19  C   UNL     1     -28.561  11.958 -28.265  1.00  0.00     0.008 C 
ENDBRANCH  12  17
ENDBRANCH  11  12
ENDBRANCH   1  11
TORSDOF 1
ENDMDL
MODEL 8
REMARK VINA RESULT:    -2.746     10.503     13.262
REMARK INTER + INTRA:          -4.202
REMARK INTER:                  -4.821
REMARK INTRA:                   0.620
REMARK UNBOUND:                -0.012
REMARK SMILES CC1=CCC[C@@H](C)C(=O)C[C@H](C(C)C)C(=O)C1
REMARK SMILES IDX 8 1 9 2 6 3 7 4 5 5 4 6 3 7 2 8 1 9 10 11 11 12 15 13 16 14
REMARK SMILES IDX 17 15 12 17 13 18 14 19
REMARK H PARENT
REMARK Flexibility Score: 70.00
ROOT
ATOM      1  C   UNL     1     -28.681  14.480 -31.178  1.00  0.00     0.136 C 
ATOM      2  O   UNL     1     -29.143  15.610 -31.256  1.00  0.00    -0.299 OA
ENDROOT
BRANCH   1   3
ATOM      3  C   UNL     1     -29.629  13.332 -30.876  1.00  0.00     0.053 C 
ATOM      4  C   UNL     1     -31.092  13.778 -30.991  1.00  0.00     0.016 C 
BRANCH   3   5
ATOM      5  C   UNL     1     -29.351  12.694 -29.501  1.00  0.00     0.015 C 
BRANCH   5   6
ATOM      6  C   UNL     1     -28.842  11.238 -29.610  1.00  0.00     0.028 C 
BRANCH   6   7
ATOM      7  C   UNL     1     -27.802  10.951 -28.555  1.00  0.00    -0.028 C 
ATOM      8  C   UNL     1     -26.487  11.267 -28.644  1.00  0.00    -0.070 CG0
ATOM      9  C   UNL     1     -25.608  10.947 -27.461  1.00  0.00     0.039 C 
ATOM     10  G   UNL     1     -25.853  11.860 -29.895  1.00  0.00     0.000 G0
ENDBRANCH   6   7
ENDBRANCH   5   6
ENDBRANCH   3   5
ENDBRANCH   1   3
BRANCH   1  11
ATOM     11  C   UNL     1     -27.191  14.295 -31.381  1.00  0.00     0.087 C 
BRANCH  11  12
ATOM     12  C   UNL     1     -26.351  14.496 -30.090  1.00  0.00     0.066 C 
BRANCH  12  13
ATOM     13  C   UNL     1     -25.421  13.318 -29.810  1.00  0.00     0.140 C 
ATOM     14  O   UNL     1     -24.262  13.550 -29.498  1.00  0.00    -0.299 OA
BRANCH  13  15
ATOM     15  C   UNL     1     -25.840  11.861 -29.896  1.00  0.00     0.106 CG0
ATOM     16  G   UNL     1     -26.496  11.275 -28.653  1.00  0.00     0.000 G0
ENDBRANCH  13  15
ENDBRANCH  12  13
BRANCH  12  17
ATOM     17  C   UNL     1     -25.598  15.865 -30.103  1.00  0.00    -0.006 C 
ATOM     18  C   UNL     1     -26.489  17.081 -30.422  1.00  0.00     0.008 C 
ATOM     19  C   UNL     1     -24.406  15.834 -31.071  1.00  0.00     0.008 C 
ENDBRANCH  12  17
ENDBRANCH  11  12
ENDBRANCH   1  11
TORSDOF 1
ENDMDL
MODEL 9
REMARK VINA RESULT:    -2.652     10.992     14.079
REMARK INTER + INTRA:          -4.058
REMARK INTER:                  -4.466
REMARK INTRA:                   0.407
REMARK UNBOUND:                -0.012
REMARK SMILES CC1=CCC[C@@H](C)C(=O)C[C@H](C(C)C)C(=O)C1
REMARK SMILES IDX 8 1 9 2 6 3 7 4 5 5 4 6 3 7 2 8 1 9 10 11 11 12 15 13 16 14
REMARK SMILES IDX 17 15 12 17 13 18 14 19
REMARK H PARENT
REMARK Flexibility Score: 70.00
ROOT
ATOM      1  C   UNL     1     -28.518  18.105 -32.371  1.00  0.00     0.136 C 
ATOM      2  O   UNL     1     -28.479  17.122 -33.098  1.00  0.00    -0.299 OA
ENDROOT
BRANCH   1   3
ATOM      3  C   UNL     1     -29.582  19.157 -32.636  1.00  0.00     0.053 C 
ATOM      4  C   UNL     1     -30.975  18.522 -32.729  1.00  0.00     0.016 C 
BRANCH   3   5
ATOM      5  C   UNL     1     -29.272  19.996 -33.891  1.00  0.00     0.015 C 
BRANCH   5   6
ATOM      6  C   UNL     1     -28.080  20.959 -33.685  1.00  0.00     0.028 C 
BRANCH   6   7
ATOM      7  C   UNL     1     -26.890  20.525 -34.506  1.00  0.00    -0.028 C 
ATOM      8  C   UNL     1     -25.718  20.066 -34.006  1.00  0.00    -0.070 CG0
ATOM      9  C   UNL     1     -24.660  19.628 -34.988  1.00  0.00     0.039 C 
ATOM     10  G   UNL     1     -25.400  20.035 -32.517  1.00  0.00     0.000 G0
ENDBRANCH   6   7
ENDBRANCH   5   6
ENDBRANCH   3   5
ENDBRANCH   1   3
BRANCH   1  11
ATOM     11  C   UNL     1     -27.498  18.217 -31.255  1.00  0.00     0.087 C 
BRANCH  11  12
ATOM     12  C   UNL     1     -26.115  17.603 -31.604  1.00  0.00     0.066 C 
BRANCH  12  13
ATOM     13  C   UNL     1     -25.070  18.667 -31.929  1.00  0.00     0.140 C 
ATOM     14  O   UNL     1     -23.894  18.418 -31.705  1.00  0.00    -0.299 OA
BRANCH  13  15
ATOM     15  C   UNL     1     -25.393  20.030 -32.516  1.00  0.00     0.106 CG0
ATOM     16  G   UNL     1     -25.700  20.065 -34.007  1.00  0.00     0.000 G0
ENDBRANCH  13  15
ENDBRANCH  12  13
BRANCH  12  17
ATOM     17  C   UNL     1     -25.635  16.608 -30.500  1.00  0.00    -0.006 C 
ATOM     18  C   UNL     1     -24.307  15.895 -30.818  1.00  0.00     0.008 C 
ATOM     19  C   UNL     1     -26.716  15.564 -30.186  1.00  0.00     0.008 C 
ENDBRANCH  12  17
ENDBRANCH  11  12
ENDBRANCH   1  11
TORSDOF 1
ENDMDL
