MODEL 1
REMARK VINA RESULT:    -6.424      0.000      0.000
REMARK INTER + INTRA:          -7.827
REMARK INTER:                  -7.551
REMARK INTRA:                  -0.277
REMARK UNBOUND:                -0.277
REMARK SMILES O=c1cc(-c2ccc(O)c(O)c2)oc2cc(O)cc(O)c12
REMARK SMILES IDX 4 1 3 2 2 3 1 4 21 5 19 6 18 7 16 8 15 9 14 10 13 11 5 12
REMARK SMILES IDX 6 13 7 14 8 15 12 16 10 17 9 18 11 20 20 22 17 24
REMARK H PARENT 9 19 11 21 20 23 17 25
REMARK Flexibility Score: inf
ROOT
ATOM      1  C   UNL     1      -9.781   4.075  23.909  1.00  0.00     0.138 A 
ATOM      2  C   UNL     1     -10.235   5.307  24.409  1.00  0.00     0.100 A 
ATOM      3  C   UNL     1     -11.555   5.697  24.181  1.00  0.00     0.197 A 
ATOM      4  O   UNL     1     -11.952   6.804  24.634  1.00  0.00    -0.289 OA
ATOM      5  C   UNL     1     -12.416   4.847  23.458  1.00  0.00     0.107 A 
ATOM      6  C   UNL     1     -13.766   5.165  23.182  1.00  0.00     0.134 A 
ATOM      7  C   UNL     1     -14.559   4.263  22.458  1.00  0.00     0.093 A 
ATOM      8  C   UNL     1     -14.030   3.051  22.008  1.00  0.00     0.123 A 
ATOM      9  C   UNL     1     -12.696   2.731  22.278  1.00  0.00     0.094 A 
ATOM     10  C   UNL     1     -11.888   3.618  22.996  1.00  0.00     0.146 A 
ATOM     11  O   UNL     1     -10.622   3.292  23.238  1.00  0.00    -0.456 OA
ENDROOT
BRANCH   1  12
ATOM     12  C   UNL     1      -8.387   3.609  24.122  1.00  0.00     0.021 A 
ATOM     13  C   UNL     1      -8.158   2.291  24.556  1.00  0.00     0.016 A 
ATOM     14  C   UNL     1      -6.855   1.826  24.756  1.00  0.00     0.051 A 
ATOM     15  C   UNL     1      -5.762   2.665  24.516  1.00  0.00     0.157 A 
ATOM     16  C   UNL     1      -7.281   4.443  23.870  1.00  0.00     0.062 A 
ATOM     17  C   UNL     1      -5.974   3.974  24.070  1.00  0.00     0.158 A 
BRANCH  15  18
ATOM     18  O   UNL     1      -4.461   2.204  24.716  1.00  0.00    -0.504 OA
ATOM     19  H   UNL     1      -4.004   1.599  24.044  1.00  0.00     0.293 HD
ENDBRANCH  15  18
BRANCH  17  20
ATOM     20  O   UNL     1      -4.881   4.803  23.821  1.00  0.00    -0.504 OA
ATOM     21  H   UNL     1      -4.164   4.550  23.152  1.00  0.00     0.293 HD
ENDBRANCH  17  20
ENDBRANCH   1  12
BRANCH   6  22
ATOM     22  O   UNL     1     -14.324   6.368  23.619  1.00  0.00    -0.507 OA
ATOM     23  H   UNL     1     -13.902   6.911  24.364  1.00  0.00     0.293 HD
ENDBRANCH   6  22
BRANCH   8  24
ATOM     24  O   UNL     1     -14.840   2.172  21.292  1.00  0.00    -0.508 OA
ATOM     25  H   UNL     1     -15.057   2.329  20.314  1.00  0.00     0.293 HD
ENDBRANCH   8  24
TORSDOF 5
ENDMDL
MODEL 2
REMARK VINA RESULT:    -6.273      2.320      6.804
REMARK INTER + INTRA:          -7.650
REMARK INTER:                  -7.354
REMARK INTRA:                  -0.296
REMARK UNBOUND:                -0.277
REMARK SMILES O=c1cc(-c2ccc(O)c(O)c2)oc2cc(O)cc(O)c12
REMARK SMILES IDX 4 1 3 2 2 3 1 4 21 5 19 6 18 7 16 8 15 9 14 10 13 11 5 12
REMARK SMILES IDX 6 13 7 14 8 15 12 16 10 17 9 18 11 20 20 22 17 24
REMARK H PARENT 9 19 11 21 20 23 17 25
REMARK Flexibility Score: inf
ROOT
ATOM      1  C   UNL     1     -11.952   3.118  23.585  1.00  0.00     0.138 A 
ATOM      2  C   UNL     1     -10.675   2.571  23.793  1.00  0.00     0.100 A 
ATOM      3  C   UNL     1      -9.635   3.396  24.224  1.00  0.00     0.197 A 
ATOM      4  O   UNL     1      -8.494   2.894  24.408  1.00  0.00    -0.289 OA
ATOM      5  C   UNL     1      -9.882   4.764  24.450  1.00  0.00     0.107 A 
ATOM      6  C   UNL     1      -8.886   5.669  24.886  1.00  0.00     0.134 A 
ATOM      7  C   UNL     1      -9.214   7.017  25.092  1.00  0.00     0.093 A 
ATOM      8  C   UNL     1     -10.514   7.477  24.873  1.00  0.00     0.123 A 
ATOM      9  C   UNL     1     -11.504   6.587  24.441  1.00  0.00     0.094 A 
ATOM     10  C   UNL     1     -11.197   5.239  24.228  1.00  0.00     0.146 A 
ATOM     11  O   UNL     1     -12.154   4.414  23.816  1.00  0.00    -0.456 OA
ENDROOT
BRANCH   1  12
ATOM     12  C   UNL     1     -13.095   2.289  23.127  1.00  0.00     0.021 A 
ATOM     13  C   UNL     1     -14.285   2.917  22.717  1.00  0.00     0.016 A 
ATOM     14  C   UNL     1     -15.373   2.159  22.276  1.00  0.00     0.051 A 
ATOM     15  C   UNL     1     -15.287   0.763  22.227  1.00  0.00     0.157 A 
ATOM     16  C   UNL     1     -13.012   0.884  23.063  1.00  0.00     0.062 A 
ATOM     17  C   UNL     1     -14.105   0.125  22.617  1.00  0.00     0.158 A 
BRANCH  15  18
ATOM     18  O   UNL     1     -16.371   0.004  21.788  1.00  0.00    -0.504 OA
ATOM     19  H   UNL     1     -16.681  -0.817  22.292  1.00  0.00     0.293 HD
ENDBRANCH  15  18
BRANCH  17  20
ATOM     20  O   UNL     1     -14.019  -1.265  22.557  1.00  0.00    -0.504 OA
ATOM     21  H   UNL     1     -14.239  -1.846  23.358  1.00  0.00     0.293 HD
ENDBRANCH  17  20
ENDBRANCH   1  12
BRANCH   6  22
ATOM     22  O   UNL     1      -7.578   5.240  25.115  1.00  0.00    -0.507 OA
ATOM     23  H   UNL     1      -7.029   5.593  25.890  1.00  0.00     0.293 HD
ENDBRANCH   6  22
BRANCH   8  24
ATOM     24  O   UNL     1     -10.814   8.821  25.085  1.00  0.00    -0.508 OA
ATOM     25  H   UNL     1     -10.084   9.508  25.234  1.00  0.00     0.293 HD
ENDBRANCH   8  24
TORSDOF 5
ENDMDL
MODEL 3
REMARK VINA RESULT:    -6.256      1.200      3.027
REMARK INTER + INTRA:          -7.629
REMARK INTER:                  -7.346
REMARK INTRA:                  -0.283
REMARK UNBOUND:                -0.277
REMARK SMILES O=c1cc(-c2ccc(O)c(O)c2)oc2cc(O)cc(O)c12
REMARK SMILES IDX 4 1 3 2 2 3 1 4 21 5 19 6 18 7 16 8 15 9 14 10 13 11 5 12
REMARK SMILES IDX 6 13 7 14 8 15 12 16 10 17 9 18 11 20 20 22 17 24
REMARK H PARENT 9 19 11 21 20 23 17 25
REMARK Flexibility Score: inf
ROOT
ATOM      1  C   UNL     1     -10.017   3.085  23.304  1.00  0.00     0.138 A 
ATOM      2  C   UNL     1     -10.486   2.006  22.537  1.00  0.00     0.100 A 
ATOM      3  C   UNL     1     -11.818   1.987  22.120  1.00  0.00     0.197 A 
ATOM      4  O   UNL     1     -12.229   1.015  21.432  1.00  0.00    -0.289 OA
ATOM      5  C   UNL     1     -12.671   3.052  22.470  1.00  0.00     0.107 A 
ATOM      6  C   UNL     1     -14.032   3.111  22.090  1.00  0.00     0.134 A 
ATOM      7  C   UNL     1     -14.815   4.210  22.475  1.00  0.00     0.093 A 
ATOM      8  C   UNL     1     -14.264   5.248  23.229  1.00  0.00     0.123 A 
ATOM      9  C   UNL     1     -12.918   5.196  23.608  1.00  0.00     0.094 A 
ATOM     10  C   UNL     1     -12.121   4.108  23.236  1.00  0.00     0.146 A 
ATOM     11  O   UNL     1     -10.847   4.080  23.610  1.00  0.00    -0.456 OA
ENDROOT
BRANCH   1  12
ATOM     12  C   UNL     1      -8.610   3.159  23.774  1.00  0.00     0.021 A 
ATOM     13  C   UNL     1      -7.953   4.402  23.797  1.00  0.00     0.016 A 
ATOM     14  C   UNL     1      -6.632   4.500  24.242  1.00  0.00     0.051 A 
ATOM     15  C   UNL     1      -5.950   3.359  24.681  1.00  0.00     0.157 A 
ATOM     16  C   UNL     1      -7.921   2.018  24.228  1.00  0.00     0.062 A 
ATOM     17  C   UNL     1      -6.595   2.118  24.677  1.00  0.00     0.158 A 
BRANCH  15  18
ATOM     18  O   UNL     1      -4.631   3.453  25.125  1.00  0.00    -0.504 OA
ATOM     19  H   UNL     1      -4.411   3.642  26.095  1.00  0.00     0.293 HD
ENDBRANCH  15  18
BRANCH  17  20
ATOM     20  O   UNL     1      -5.915   0.986  25.125  1.00  0.00    -0.504 OA
ATOM     21  H   UNL     1      -5.861   0.754  26.110  1.00  0.00     0.293 HD
ENDBRANCH  17  20
ENDBRANCH   1  12
BRANCH   6  22
ATOM     22  O   UNL     1     -14.612   2.090  21.336  1.00  0.00    -0.507 OA
ATOM     23  H   UNL     1     -15.485   2.223  20.839  1.00  0.00     0.293 HD
ENDBRANCH   6  22
BRANCH   8  24
ATOM     24  O   UNL     1     -15.062   6.328  23.598  1.00  0.00    -0.508 OA
ATOM     25  H   UNL     1     -14.675   7.137  24.071  1.00  0.00     0.293 HD
ENDBRANCH   8  24
TORSDOF 5
ENDMDL
MODEL 4
REMARK VINA RESULT:    -6.251      2.392      7.058
REMARK INTER + INTRA:          -7.623
REMARK INTER:                  -7.306
REMARK INTRA:                  -0.317
REMARK UNBOUND:                -0.277
REMARK SMILES O=c1cc(-c2ccc(O)c(O)c2)oc2cc(O)cc(O)c12
REMARK SMILES IDX 4 1 3 2 2 3 1 4 21 5 19 6 18 7 16 8 15 9 14 10 13 11 5 12
REMARK SMILES IDX 6 13 7 14 8 15 12 16 10 17 9 18 11 20 20 22 17 24
REMARK H PARENT 9 19 11 21 20 23 17 25
REMARK Flexibility Score: inf
ROOT
ATOM      1  C   UNL     1     -12.320   3.768  23.331  1.00  0.00     0.138 A 
ATOM      2  C   UNL     1     -11.122   3.072  23.565  1.00  0.00     0.100 A 
ATOM      3  C   UNL     1     -10.017   3.756  24.073  1.00  0.00     0.197 A 
ATOM      4  O   UNL     1      -8.948   3.122  24.280  1.00  0.00    -0.289 OA
ATOM      5  C   UNL     1     -10.120   5.135  24.349  1.00  0.00     0.107 A 
ATOM      6  C   UNL     1      -9.049   5.903  24.863  1.00  0.00     0.134 A 
ATOM      7  C   UNL     1      -9.233   7.270  25.116  1.00  0.00     0.093 A 
ATOM      8  C   UNL     1     -10.464   7.882  24.866  1.00  0.00     0.123 A 
ATOM      9  C   UNL     1     -11.526   7.128  24.356  1.00  0.00     0.094 A 
ATOM     10  C   UNL     1     -11.363   5.764  24.096  1.00  0.00     0.146 A 
ATOM     11  O   UNL     1     -12.386   5.069  23.611  1.00  0.00    -0.456 OA
ENDROOT
BRANCH   1  12
ATOM     12  C   UNL     1     -13.528   3.093  22.792  1.00  0.00     0.021 A 
ATOM     13  C   UNL     1     -13.543   1.691  22.680  1.00  0.00     0.016 A 
ATOM     14  C   UNL     1     -14.670   1.031  22.183  1.00  0.00     0.051 A 
ATOM     15  C   UNL     1     -15.802   1.759  21.800  1.00  0.00     0.157 A 
ATOM     16  C   UNL     1     -14.675   3.817  22.416  1.00  0.00     0.062 A 
ATOM     17  C   UNL     1     -15.807   3.153  21.920  1.00  0.00     0.158 A 
BRANCH  15  18
ATOM     18  O   UNL     1     -16.928   1.103  21.303  1.00  0.00    -0.504 OA
ATOM     19  H   UNL     1     -16.972   0.778  20.344  1.00  0.00     0.293 HD
ENDBRANCH  15  18
BRANCH  17  20
ATOM     20  O   UNL     1     -16.941   3.873  21.547  1.00  0.00    -0.504 OA
ATOM     21  H   UNL     1     -17.101   4.150  20.585  1.00  0.00     0.293 HD
ENDBRANCH  17  20
ENDBRANCH   1  12
BRANCH   6  22
ATOM     22  O   UNL     1      -7.809   5.320  25.125  1.00  0.00    -0.507 OA
ATOM     23  H   UNL     1      -6.940   5.796  24.912  1.00  0.00     0.293 HD
ENDBRANCH   6  22
BRANCH   8  24
ATOM     24  O   UNL     1     -10.620   9.242  25.125  1.00  0.00    -0.508 OA
ATOM     25  H   UNL     1     -10.661   9.923  24.375  1.00  0.00     0.293 HD
ENDBRANCH   8  24
TORSDOF 5
ENDMDL
MODEL 5
REMARK VINA RESULT:    -6.245      1.450      7.333
REMARK INTER + INTRA:          -7.617
REMARK INTER:                  -7.342
REMARK INTRA:                  -0.275
REMARK UNBOUND:                -0.277
REMARK SMILES O=c1cc(-c2ccc(O)c(O)c2)oc2cc(O)cc(O)c12
REMARK SMILES IDX 4 1 3 2 2 3 1 4 21 5 19 6 18 7 16 8 15 9 14 10 13 11 5 12
REMARK SMILES IDX 6 13 7 14 8 15 12 16 10 17 9 18 11 20 20 22 17 24
REMARK H PARENT 9 19 11 21 20 23 17 25
REMARK Flexibility Score: inf
ROOT
ATOM      1  C   UNL     1     -10.281   3.503  24.167  1.00  0.00     0.138 A 
ATOM      2  C   UNL     1     -10.273   2.139  24.503  1.00  0.00     0.100 A 
ATOM      3  C   UNL     1      -9.055   1.492  24.717  1.00  0.00     0.197 A 
ATOM      4  O   UNL     1      -9.058   0.268  25.018  1.00  0.00    -0.289 OA
ATOM      5  C   UNL     1      -7.852   2.217  24.598  1.00  0.00     0.107 A 
ATOM      6  C   UNL     1      -6.577   1.638  24.797  1.00  0.00     0.134 A 
ATOM      7  C   UNL     1      -5.426   2.429  24.665  1.00  0.00     0.093 A 
ATOM      8  C   UNL     1      -5.526   3.784  24.340  1.00  0.00     0.123 A 
ATOM      9  C   UNL     1      -6.784   4.362  24.141  1.00  0.00     0.094 A 
ATOM     10  C   UNL     1      -7.944   3.590  24.267  1.00  0.00     0.146 A 
ATOM     11  O   UNL     1      -9.127   4.161  24.072  1.00  0.00    -0.456 OA
ENDROOT
BRANCH   1  12
ATOM     12  C   UNL     1     -11.546   4.244  23.929  1.00  0.00     0.021 A 
ATOM     13  C   UNL     1     -11.759   5.474  24.575  1.00  0.00     0.016 A 
ATOM     14  C   UNL     1     -12.938   6.194  24.362  1.00  0.00     0.051 A 
ATOM     15  C   UNL     1     -13.918   5.701  23.493  1.00  0.00     0.157 A 
ATOM     16  C   UNL     1     -12.532   3.761  23.046  1.00  0.00     0.062 A 
ATOM     17  C   UNL     1     -13.714   4.485  22.831  1.00  0.00     0.158 A 
BRANCH  15  18
ATOM     18  O   UNL     1     -15.096   6.416  23.279  1.00  0.00    -0.504 OA
ATOM     19  H   UNL     1     -15.456   6.577  22.346  1.00  0.00     0.293 HD
ENDBRANCH  15  18
BRANCH  17  20
ATOM     20  O   UNL     1     -14.688   4.004  21.958  1.00  0.00    -0.504 OA
ATOM     21  H   UNL     1     -14.472   3.783  20.992  1.00  0.00     0.293 HD
ENDBRANCH  17  20
ENDBRANCH   1  12
BRANCH   6  22
ATOM     22  O   UNL     1      -6.444   0.288  25.124  1.00  0.00    -0.507 OA
ATOM     23  H   UNL     1      -5.616  -0.241  24.878  1.00  0.00     0.293 HD
ENDBRANCH   6  22
BRANCH   8  24
ATOM     24  O   UNL     1      -4.368   4.548  24.214  1.00  0.00    -0.508 OA
ATOM     25  H   UNL     1      -4.261   5.231  23.473  1.00  0.00     0.293 HD
ENDBRANCH   8  24
TORSDOF 5
ENDMDL
MODEL 6
REMARK VINA RESULT:    -6.166      2.862      4.915
REMARK INTER + INTRA:          -7.523
REMARK INTER:                  -7.255
REMARK INTRA:                  -0.268
REMARK UNBOUND:                -0.277
REMARK SMILES O=c1cc(-c2ccc(O)c(O)c2)oc2cc(O)cc(O)c12
REMARK SMILES IDX 4 1 3 2 2 3 1 4 21 5 19 6 18 7 16 8 15 9 14 10 13 11 5 12
REMARK SMILES IDX 6 13 7 14 8 15 12 16 10 17 9 18 11 20 20 22 17 24
REMARK H PARENT 9 19 11 21 20 23 17 25
REMARK Flexibility Score: inf
ROOT
ATOM      1  C   UNL     1     -13.190   3.706  23.135  1.00  0.00     0.138 A 
ATOM      2  C   UNL     1     -13.159   2.358  23.527  1.00  0.00     0.100 A 
ATOM      3  C   UNL     1     -14.122   1.477  23.033  1.00  0.00     0.197 A 
ATOM      4  O   UNL     1     -14.086   0.269  23.390  1.00  0.00    -0.289 OA
ATOM      5  C   UNL     1     -15.108   1.951  22.145  1.00  0.00     0.107 A 
ATOM      6  C   UNL     1     -16.120   1.127  21.599  1.00  0.00     0.134 A 
ATOM      7  C   UNL     1     -17.062   1.675  20.717  1.00  0.00     0.093 A 
ATOM      8  C   UNL     1     -17.012   3.027  20.370  1.00  0.00     0.123 A 
ATOM      9  C   UNL     1     -16.014   3.847  20.907  1.00  0.00     0.094 A 
ATOM     10  C   UNL     1     -15.066   3.321  21.789  1.00  0.00     0.146 A 
ATOM     11  O   UNL     1     -14.129   4.121  22.287  1.00  0.00    -0.456 OA
ENDROOT
BRANCH   1  12
ATOM     12  C   UNL     1     -12.191   4.689  23.628  1.00  0.00     0.021 A 
ATOM     13  C   UNL     1     -12.627   5.822  24.337  1.00  0.00     0.016 A 
ATOM     14  C   UNL     1     -11.706   6.757  24.818  1.00  0.00     0.051 A 
ATOM     15  C   UNL     1     -10.336   6.571  24.606  1.00  0.00     0.157 A 
ATOM     16  C   UNL     1     -10.809   4.502  23.430  1.00  0.00     0.062 A 
ATOM     17  C   UNL     1      -9.886   5.440  23.915  1.00  0.00     0.158 A 
BRANCH  15  18
ATOM     18  O   UNL     1      -9.415   7.503  25.083  1.00  0.00    -0.504 OA
ATOM     19  H   UNL     1      -8.464   7.238  25.313  1.00  0.00     0.293 HD
ENDBRANCH  15  18
BRANCH  17  20
ATOM     20  O   UNL     1      -8.519   5.253  23.716  1.00  0.00    -0.504 OA
ATOM     21  H   UNL     1      -8.104   4.328  23.716  1.00  0.00     0.293 HD
ENDBRANCH  17  20
ENDBRANCH   1  12
BRANCH   6  22
ATOM     22  O   UNL     1     -16.195  -0.228  21.925  1.00  0.00    -0.507 OA
ATOM     23  H   UNL     1     -17.051  -0.646  22.272  1.00  0.00     0.293 HD
ENDBRANCH   6  22
BRANCH   8  24
ATOM     24  O   UNL     1     -17.961   3.547  19.492  1.00  0.00    -0.508 OA
ATOM     25  H   UNL     1     -17.839   4.454  19.057  1.00  0.00     0.293 HD
ENDBRANCH   8  24
TORSDOF 5
ENDMDL
MODEL 7
REMARK VINA RESULT:    -6.154      2.122      4.084
REMARK INTER + INTRA:          -7.510
REMARK INTER:                  -7.194
REMARK INTRA:                  -0.316
REMARK UNBOUND:                -0.277
REMARK SMILES O=c1cc(-c2ccc(O)c(O)c2)oc2cc(O)cc(O)c12
REMARK SMILES IDX 4 1 3 2 2 3 1 4 21 5 19 6 18 7 16 8 15 9 14 10 13 11 5 12
REMARK SMILES IDX 6 13 7 14 8 15 12 16 10 17 9 18 11 20 20 22 17 24
REMARK H PARENT 9 19 11 21 20 23 17 25
REMARK Flexibility Score: inf
ROOT
ATOM      1  C   UNL     1     -12.059   2.376  22.865  1.00  0.00     0.138 A 
ATOM      2  C   UNL     1     -12.319   0.996  22.881  1.00  0.00     0.100 A 
ATOM      3  C   UNL     1     -13.584   0.531  22.518  1.00  0.00     0.197 A 
ATOM      4  O   UNL     1     -13.807  -0.709  22.535  1.00  0.00    -0.289 OA
ATOM      5  C   UNL     1     -14.581   1.452  22.138  1.00  0.00     0.107 A 
ATOM      6  C   UNL     1     -15.887   1.067  21.758  1.00  0.00     0.134 A 
ATOM      7  C   UNL     1     -16.821   2.045  21.387  1.00  0.00     0.093 A 
ATOM      8  C   UNL     1     -16.474   3.398  21.388  1.00  0.00     0.123 A 
ATOM      9  C   UNL     1     -15.184   3.786  21.763  1.00  0.00     0.094 A 
ATOM     10  C   UNL     1     -14.239   2.826  22.138  1.00  0.00     0.146 A 
ATOM     11  O   UNL     1     -13.020   3.220  22.492  1.00  0.00    -0.456 OA
ENDROOT
BRANCH   1  12
ATOM     12  C   UNL     1     -10.732   2.928  23.240  1.00  0.00     0.021 A 
ATOM     13  C   UNL     1      -9.630   2.062  23.351  1.00  0.00     0.016 A 
ATOM     14  C   UNL     1      -8.369   2.558  23.696  1.00  0.00     0.051 A 
ATOM     15  C   UNL     1      -8.188   3.926  23.924  1.00  0.00     0.157 A 
ATOM     16  C   UNL     1     -10.539   4.306  23.459  1.00  0.00     0.062 A 
ATOM     17  C   UNL     1      -9.272   4.802  23.803  1.00  0.00     0.158 A 
BRANCH  15  18
ATOM     18  O   UNL     1      -6.931   4.424  24.269  1.00  0.00    -0.504 OA
ATOM     19  H   UNL     1      -6.164   4.428  23.608  1.00  0.00     0.293 HD
ENDBRANCH  15  18
BRANCH  17  20
ATOM     20  O   UNL     1      -9.085   6.166  24.021  1.00  0.00    -0.504 OA
ATOM     21  H   UNL     1      -8.202   6.534  24.357  1.00  0.00     0.293 HD
ENDBRANCH  17  20
ENDBRANCH   1  12
BRANCH   6  22
ATOM     22  O   UNL     1     -16.264  -0.277  21.745  1.00  0.00    -0.507 OA
ATOM     23  H   UNL     1     -15.642  -1.008  22.072  1.00  0.00     0.293 HD
ENDBRANCH   6  22
BRANCH   8  24
ATOM     24  O   UNL     1     -17.421   4.351  21.016  1.00  0.00    -0.508 OA
ATOM     25  H   UNL     1     -17.537   4.632  20.049  1.00  0.00     0.293 HD
ENDBRANCH   8  24
TORSDOF 5
ENDMDL
MODEL 8
REMARK VINA RESULT:    -6.086      1.786      6.788
REMARK INTER + INTRA:          -7.430
REMARK INTER:                  -7.117
REMARK INTRA:                  -0.313
REMARK UNBOUND:                -0.277
REMARK SMILES O=c1cc(-c2ccc(O)c(O)c2)oc2cc(O)cc(O)c12
REMARK SMILES IDX 4 1 3 2 2 3 1 4 21 5 19 6 18 7 16 8 15 9 14 10 13 11 5 12
REMARK SMILES IDX 6 13 7 14 8 15 12 16 10 17 9 18 11 20 20 22 17 24
REMARK H PARENT 9 19 11 21 20 23 17 25
REMARK Flexibility Score: inf
ROOT
ATOM      1  C   UNL     1     -12.633   3.427  23.394  1.00  0.00     0.138 A 
ATOM      2  C   UNL     1     -12.903   4.761  23.740  1.00  0.00     0.100 A 
ATOM      3  C   UNL     1     -11.855   5.593  24.139  1.00  0.00     0.197 A 
ATOM      4  O   UNL     1     -12.107   6.788  24.447  1.00  0.00    -0.289 OA
ATOM      5  C   UNL     1     -10.542   5.083  24.186  1.00  0.00     0.107 A 
ATOM      6  C   UNL     1      -9.425   5.855  24.581  1.00  0.00     0.134 A 
ATOM      7  C   UNL     1      -8.149   5.274  24.597  1.00  0.00     0.093 A 
ATOM      8  C   UNL     1      -7.968   3.940  24.225  1.00  0.00     0.123 A 
ATOM      9  C   UNL     1      -9.069   3.171  23.834  1.00  0.00     0.094 A 
ATOM     10  C   UNL     1     -10.350   3.731  23.813  1.00  0.00     0.146 A 
ATOM     11  O   UNL     1     -11.380   2.979  23.440  1.00  0.00    -0.456 OA
ENDROOT
BRANCH   1  12
ATOM     12  C   UNL     1     -13.708   2.497  22.960  1.00  0.00     0.021 A 
ATOM     13  C   UNL     1     -14.933   3.019  22.511  1.00  0.00     0.016 A 
ATOM     14  C   UNL     1     -15.957   2.166  22.091  1.00  0.00     0.051 A 
ATOM     15  C   UNL     1     -15.770   0.779  22.104  1.00  0.00     0.157 A 
ATOM     16  C   UNL     1     -13.522   1.101  22.959  1.00  0.00     0.062 A 
ATOM     17  C   UNL     1     -14.550   0.246  22.535  1.00  0.00     0.158 A 
BRANCH  15  18
ATOM     18  O   UNL     1     -16.790  -0.075  21.686  1.00  0.00    -0.504 OA
ATOM     19  H   UNL     1     -17.039  -0.901  22.217  1.00  0.00     0.293 HD
ENDBRANCH  15  18
BRANCH  17  20
ATOM     20  O   UNL     1     -14.363  -1.136  22.536  1.00  0.00    -0.504 OA
ATOM     21  H   UNL     1     -13.995  -1.622  21.727  1.00  0.00     0.293 HD
ENDBRANCH  17  20
ENDBRANCH   1  12
BRANCH   6  22
ATOM     22  O   UNL     1      -9.573   7.191  24.957  1.00  0.00    -0.507 OA
ATOM     23  H   UNL     1      -9.213   7.540  25.837  1.00  0.00     0.293 HD
ENDBRANCH   6  22
BRANCH   8  24
ATOM     24  O   UNL     1      -6.689   3.387  24.249  1.00  0.00    -0.508 OA
ATOM     25  H   UNL     1      -6.447   2.587  23.677  1.00  0.00     0.293 HD
ENDBRANCH   8  24
TORSDOF 5
ENDMDL
MODEL 9
REMARK VINA RESULT:    -6.036      1.745      6.929
REMARK INTER + INTRA:          -7.371
REMARK INTER:                  -7.098
REMARK INTRA:                  -0.274
REMARK UNBOUND:                -0.277
REMARK SMILES O=c1cc(-c2ccc(O)c(O)c2)oc2cc(O)cc(O)c12
REMARK SMILES IDX 4 1 3 2 2 3 1 4 21 5 19 6 18 7 16 8 15 9 14 10 13 11 5 12
REMARK SMILES IDX 6 13 7 14 8 15 12 16 10 17 9 18 11 20 20 22 17 24
REMARK H PARENT 9 19 11 21 20 23 17 25
REMARK Flexibility Score: inf
ROOT
ATOM      1  C   UNL     1     -12.893   3.459  23.164  1.00  0.00     0.138 A 
ATOM      2  C   UNL     1     -13.136   4.782  23.566  1.00  0.00     0.100 A 
ATOM      3  C   UNL     1     -12.074   5.574  24.004  1.00  0.00     0.197 A 
ATOM      4  O   UNL     1     -12.303   6.760  24.362  1.00  0.00    -0.289 OA
ATOM      5  C   UNL     1     -10.772   5.036  24.033  1.00  0.00     0.107 A 
ATOM      6  C   UNL     1      -9.641   5.767  24.464  1.00  0.00     0.134 A 
ATOM      7  C   UNL     1      -8.376   5.160  24.459  1.00  0.00     0.093 A 
ATOM      8  C   UNL     1      -8.221   3.840  24.031  1.00  0.00     0.123 A 
ATOM      9  C   UNL     1      -9.336   3.111  23.604  1.00  0.00     0.094 A 
ATOM     10  C   UNL     1     -10.606   3.697  23.603  1.00  0.00     0.146 A 
ATOM     11  O   UNL     1     -11.649   2.983  23.195  1.00  0.00    -0.456 OA
ENDROOT
BRANCH   1  12
ATOM     12  C   UNL     1     -13.984   2.571  22.688  1.00  0.00     0.021 A 
ATOM     13  C   UNL     1     -14.132   1.292  23.254  1.00  0.00     0.016 A 
ATOM     14  C   UNL     1     -15.155   0.441  22.828  1.00  0.00     0.051 A 
ATOM     15  C   UNL     1     -16.052   0.856  21.838  1.00  0.00     0.157 A 
ATOM     16  C   UNL     1     -14.898   2.986  21.700  1.00  0.00     0.062 A 
ATOM     17  C   UNL     1     -15.926   2.131  21.275  1.00  0.00     0.158 A 
BRANCH  15  18
ATOM     18  O   UNL     1     -17.073   0.008  21.410  1.00  0.00    -0.504 OA
ATOM     19  H   UNL     1     -16.898  -0.743  20.753  1.00  0.00     0.293 HD
ENDBRANCH  15  18
BRANCH  17  20
ATOM     20  O   UNL     1     -16.828   2.545  20.296  1.00  0.00    -0.504 OA
ATOM     21  H   UNL     1     -16.517   3.004  19.448  1.00  0.00     0.293 HD
ENDBRANCH  17  20
ENDBRANCH   1  12
BRANCH   6  22
ATOM     22  O   UNL     1      -9.763   7.089  24.897  1.00  0.00    -0.507 OA
ATOM     23  H   UNL     1     -10.409   7.735  24.459  1.00  0.00     0.293 HD
ENDBRANCH   6  22
BRANCH   8  24
ATOM     24  O   UNL     1      -6.954   3.261  24.035  1.00  0.00    -0.508 OA
ATOM     25  H   UNL     1      -6.331   3.355  24.829  1.00  0.00     0.293 HD
ENDBRANCH   8  24
TORSDOF 5
ENDMDL
