MODEL 1
REMARK VINA RESULT:    -3.913      0.000      0.000
REMARK INTER + INTRA:          -5.165
REMARK INTER:                  -5.057
REMARK INTRA:                  -0.108
REMARK UNBOUND:                -0.108
REMARK SMILES CCCCCCC(=O)[O-]
REMARK SMILES IDX 5 1 6 2 7 3 8 4 9 5 4 6 3 7 2 8 1 9
REMARK H PARENT
REMARK Flexibility Score: inf
ROOT
ATOM      1  C   UNL     1      -3.245   8.257  -0.072  1.00  0.00     0.006 C 
ENDROOT
BRANCH   1   2
ATOM      2  C   UNL     1      -4.184   9.434  -0.354  1.00  0.00     0.053 C 
BRANCH   2   3
ATOM      3  C   UNL     1      -4.896   9.238  -1.655  1.00  0.00     0.041 C 
ATOM      4  O   UNL     1      -6.138   9.424  -1.732  1.00  0.00    -0.550 OA
ATOM      5  O   UNL     1      -4.178   8.900  -2.795  1.00  0.00    -0.550 OA
ENDBRANCH   2   3
ENDBRANCH   1   2
BRANCH   1   6
ATOM      6  C   UNL     1      -1.785   8.641  -0.336  1.00  0.00     0.000 C 
BRANCH   6   7
ATOM      7  C   UNL     1      -1.218   7.859  -1.531  1.00  0.00    -0.000 C 
BRANCH   7   8
ATOM      8  C   UNL     1       0.265   8.167  -1.789  1.00  0.00    -0.003 C 
ATOM      9  C   UNL     1       1.183   7.002  -1.418  1.00  0.00     0.004 C 
ENDBRANCH   7   8
ENDBRANCH   6   7
ENDBRANCH   1   6
TORSDOF 5
ENDMDL
MODEL 2
REMARK VINA RESULT:    -3.484     10.758     11.475
REMARK INTER + INTRA:          -4.610
REMARK INTER:                  -4.428
REMARK INTRA:                  -0.183
REMARK UNBOUND:                -0.108
REMARK SMILES CCCCCCC(=O)[O-]
REMARK SMILES IDX 5 1 6 2 7 3 8 4 9 5 4 6 3 7 2 8 1 9
REMARK H PARENT
REMARK Flexibility Score: inf
ROOT
ATOM      1  C   UNL     1      -4.047   5.181   8.030  1.00  0.00     0.006 C 
ENDROOT
BRANCH   1   2
ATOM      2  C   UNL     1      -4.902   5.200   9.301  1.00  0.00     0.053 C 
BRANCH   2   3
ATOM      3  C   UNL     1      -5.578   3.881   9.499  1.00  0.00     0.041 C 
ATOM      4  O   UNL     1      -6.821   3.828   9.687  1.00  0.00    -0.550 OA
ATOM      5  O   UNL     1      -4.841   2.705   9.426  1.00  0.00    -0.550 OA
ENDBRANCH   2   3
ENDBRANCH   1   2
BRANCH   1   6
ATOM      6  C   UNL     1      -2.620   5.660   8.319  1.00  0.00     0.000 C 
BRANCH   6   7
ATOM      7  C   UNL     1      -2.562   6.452   9.634  1.00  0.00    -0.000 C 
BRANCH   7   8
ATOM      8  C   UNL     1      -1.224   7.184   9.824  1.00  0.00    -0.003 C 
ATOM      9  C   UNL     1      -1.403   8.672  10.124  1.00  0.00     0.004 C 
ENDBRANCH   7   8
ENDBRANCH   6   7
ENDBRANCH   1   6
TORSDOF 5
ENDMDL
MODEL 3
REMARK VINA RESULT:    -3.458     10.714     11.977
REMARK INTER + INTRA:          -4.577
REMARK INTER:                  -4.352
REMARK INTRA:                  -0.225
REMARK UNBOUND:                -0.108
REMARK SMILES CCCCCCC(=O)[O-]
REMARK SMILES IDX 5 1 6 2 7 3 8 4 9 5 4 6 3 7 2 8 1 9
REMARK H PARENT
REMARK Flexibility Score: inf
ROOT
ATOM      1  C   UNL     1      -4.212   5.030   7.904  1.00  0.00     0.006 C 
ENDROOT
BRANCH   1   2
ATOM      2  C   UNL     1      -2.854   5.717   8.079  1.00  0.00     0.053 C 
BRANCH   2   3
ATOM      3  C   UNL     1      -2.730   6.292   9.455  1.00  0.00     0.041 C 
ATOM      4  O   UNL     1      -3.761   6.560  10.125  1.00  0.00    -0.550 OA
ATOM      5  O   UNL     1      -1.474   6.482  10.017  1.00  0.00    -0.550 OA
ENDBRANCH   2   3
ENDBRANCH   1   2
BRANCH   1   6
ATOM      6  C   UNL     1      -4.101   3.521   8.150  1.00  0.00     0.000 C 
BRANCH   6   7
ATOM      7  C   UNL     1      -5.321   2.999   8.924  1.00  0.00    -0.000 C 
BRANCH   7   8
ATOM      8  C   UNL     1      -5.947   4.069   9.831  1.00  0.00    -0.003 C 
ATOM      9  C   UNL     1      -7.431   3.817  10.103  1.00  0.00     0.004 C 
ENDBRANCH   7   8
ENDBRANCH   6   7
ENDBRANCH   1   6
TORSDOF 5
ENDMDL
MODEL 4
REMARK VINA RESULT:    -3.434     10.844     11.860
REMARK INTER + INTRA:          -4.546
REMARK INTER:                  -4.320
REMARK INTRA:                  -0.225
REMARK UNBOUND:                -0.108
REMARK SMILES CCCCCCC(=O)[O-]
REMARK SMILES IDX 5 1 6 2 7 3 8 4 9 5 4 6 3 7 2 8 1 9
REMARK H PARENT
REMARK Flexibility Score: inf
ROOT
ATOM      1  C   UNL     1      -2.626   5.675   8.716  1.00  0.00     0.006 C 
ENDROOT
BRANCH   1   2
ATOM      2  C   UNL     1      -2.747   6.597   9.934  1.00  0.00     0.053 C 
BRANCH   2   3
ATOM      3  C   UNL     1      -1.521   7.440  10.078  1.00  0.00     0.041 C 
ATOM      4  O   UNL     1      -0.382   6.903  10.110  1.00  0.00    -0.550 OA
ATOM      5  O   UNL     1      -1.631   8.824  10.125  1.00  0.00    -0.550 OA
ENDBRANCH   2   3
ENDBRANCH   1   2
BRANCH   1   6
ATOM      6  C   UNL     1      -4.009   5.271   8.192  1.00  0.00     0.000 C 
BRANCH   6   7
ATOM      7  C   UNL     1      -4.122   3.745   8.059  1.00  0.00    -0.000 C 
BRANCH   7   8
ATOM      8  C   UNL     1      -5.237   3.157   8.937  1.00  0.00    -0.003 C 
ATOM      9  C   UNL     1      -5.976   4.223   9.746  1.00  0.00     0.004 C 
ENDBRANCH   7   8
ENDBRANCH   6   7
ENDBRANCH   1   6
TORSDOF 5
ENDMDL
MODEL 5
REMARK VINA RESULT:    -3.353     12.589     13.512
REMARK INTER + INTRA:          -4.441
REMARK INTER:                  -4.237
REMARK INTRA:                  -0.204
REMARK UNBOUND:                -0.108
REMARK SMILES CCCCCCC(=O)[O-]
REMARK SMILES IDX 5 1 6 2 7 3 8 4 9 5 4 6 3 7 2 8 1 9
REMARK H PARENT
REMARK Flexibility Score: inf
ROOT
ATOM      1  C   UNL     1      10.067   8.049  -8.026  1.00  0.00     0.006 C 
ENDROOT
BRANCH   1   2
ATOM      2  C   UNL     1       8.991   9.137  -7.959  1.00  0.00     0.053 C 
BRANCH   2   3
ATOM      3  C   UNL     1       8.127   9.097  -9.180  1.00  0.00     0.041 C 
ATOM      4  O   UNL     1       8.324   9.908 -10.122  1.00  0.00    -0.550 OA
ATOM      5  O   UNL     1       7.137   8.130  -9.299  1.00  0.00    -0.550 OA
ENDBRANCH   2   3
ENDBRANCH   1   2
BRANCH   1   6
ATOM      6  C   UNL     1      10.080   7.209  -6.744  1.00  0.00     0.000 C 
BRANCH   6   7
ATOM      7  C   UNL     1       8.676   6.676  -6.421  1.00  0.00    -0.000 C 
BRANCH   7   8
ATOM      8  C   UNL     1       8.692   5.588  -5.337  1.00  0.00    -0.003 C 
ATOM      9  C   UNL     1       9.725   4.495  -5.612  1.00  0.00     0.004 C 
ENDBRANCH   7   8
ENDBRANCH   6   7
ENDBRANCH   1   6
TORSDOF 5
ENDMDL
MODEL 6
REMARK VINA RESULT:    -3.336     12.802     13.725
REMARK INTER + INTRA:          -4.419
REMARK INTER:                  -4.263
REMARK INTRA:                  -0.156
REMARK UNBOUND:                -0.108
REMARK SMILES CCCCCCC(=O)[O-]
REMARK SMILES IDX 5 1 6 2 7 3 8 4 9 5 4 6 3 7 2 8 1 9
REMARK H PARENT
REMARK Flexibility Score: inf
ROOT
ATOM      1  C   UNL     1      10.005   7.232  -6.750  1.00  0.00     0.006 C 
ENDROOT
BRANCH   1   2
ATOM      2  C   UNL     1       8.774   6.414  -6.347  1.00  0.00     0.053 C 
BRANCH   2   3
ATOM      3  C   UNL     1       9.182   5.193  -5.586  1.00  0.00     0.041 C 
ATOM      4  O   UNL     1       8.640   4.924  -4.482  1.00  0.00    -0.550 OA
ATOM      5  O   UNL     1      10.125   4.323  -6.120  1.00  0.00    -0.550 OA
ENDBRANCH   2   3
ENDBRANCH   1   2
BRANCH   1   6
ATOM      6  C   UNL     1       9.723   8.069  -8.003  1.00  0.00     0.000 C 
BRANCH   6   7
ATOM      7  C   UNL     1       8.212   8.227  -8.231  1.00  0.00    -0.000 C 
BRANCH   7   8
ATOM      8  C   UNL     1       7.879   8.761  -9.632  1.00  0.00    -0.003 C 
ATOM      9  C   UNL     1       6.395   8.630  -9.977  1.00  0.00     0.004 C 
ENDBRANCH   7   8
ENDBRANCH   6   7
ENDBRANCH   1   6
TORSDOF 5
ENDMDL
MODEL 7
REMARK VINA RESULT:    -2.826     10.772     11.573
REMARK INTER + INTRA:          -3.760
REMARK INTER:                  -3.585
REMARK INTRA:                  -0.175
REMARK UNBOUND:                -0.108
REMARK SMILES CCCCCCC(=O)[O-]
REMARK SMILES IDX 5 1 6 2 7 3 8 4 9 5 4 6 3 7 2 8 1 9
REMARK H PARENT
REMARK Flexibility Score: inf
ROOT
ATOM      1  C   UNL     1      -4.786   5.788   9.353  1.00  0.00     0.006 C 
ENDROOT
BRANCH   1   2
ATOM      2  C   UNL     1      -3.595   6.366  10.125  1.00  0.00     0.053 C 
BRANCH   2   3
ATOM      3  C   UNL     1      -2.377   6.404   9.259  1.00  0.00     0.041 C 
ATOM      4  O   UNL     1      -1.271   6.769   9.737  1.00  0.00    -0.550 OA
ATOM      5  O   UNL     1      -2.451   5.987   7.936  1.00  0.00    -0.550 OA
ENDBRANCH   2   3
ENDBRANCH   1   2
BRANCH   1   6
ATOM      6  C   UNL     1      -5.420   4.619  10.115  1.00  0.00     0.000 C 
BRANCH   6   7
ATOM      7  C   UNL     1      -5.459   3.352   9.245  1.00  0.00    -0.000 C 
BRANCH   7   8
ATOM      8  C   UNL     1      -4.540   3.450   8.019  1.00  0.00    -0.003 C 
ATOM      9  C   UNL     1      -4.134   2.080   7.474  1.00  0.00     0.004 C 
ENDBRANCH   7   8
ENDBRANCH   6   7
ENDBRANCH   1   6
TORSDOF 5
ENDMDL
MODEL 8
REMARK VINA RESULT:    -2.717     10.252     11.244
REMARK INTER + INTRA:          -3.619
REMARK INTER:                  -3.459
REMARK INTRA:                  -0.161
REMARK UNBOUND:                -0.108
REMARK SMILES CCCCCCC(=O)[O-]
REMARK SMILES IDX 5 1 6 2 7 3 8 4 9 5 4 6 3 7 2 8 1 9
REMARK H PARENT
REMARK Flexibility Score: inf
ROOT
ATOM      1  C   UNL     1      -4.879   5.586   9.524  1.00  0.00     0.006 C 
ENDROOT
BRANCH   1   2
ATOM      2  C   UNL     1      -5.124   4.198  10.125  1.00  0.00     0.053 C 
BRANCH   2   3
ATOM      3  C   UNL     1      -5.986   3.379   9.219  1.00  0.00     0.041 C 
ATOM      4  O   UNL     1      -5.463   2.640   8.344  1.00  0.00    -0.550 OA
ATOM      5  O   UNL     1      -7.366   3.391   9.374  1.00  0.00    -0.550 OA
ENDBRANCH   2   3
ENDBRANCH   1   2
BRANCH   1   6
ATOM      6  C   UNL     1      -3.470   6.089   9.857  1.00  0.00     0.000 C 
BRANCH   6   7
ATOM      7  C   UNL     1      -2.549   5.998   8.630  1.00  0.00    -0.000 C 
BRANCH   7   8
ATOM      8  C   UNL     1      -3.233   5.334   7.426  1.00  0.00    -0.003 C 
ATOM      9  C   UNL     1      -3.422   6.294   6.250  1.00  0.00     0.004 C 
ENDBRANCH   7   8
ENDBRANCH   6   7
ENDBRANCH   1   6
TORSDOF 5
ENDMDL
MODEL 9
REMARK VINA RESULT:    -2.593      3.564      5.394
REMARK INTER + INTRA:          -3.459
REMARK INTER:                  -3.347
REMARK INTRA:                  -0.112
REMARK UNBOUND:                -0.108
REMARK SMILES CCCCCCC(=O)[O-]
REMARK SMILES IDX 5 1 6 2 7 3 8 4 9 5 4 6 3 7 2 8 1 9
REMARK H PARENT
REMARK Flexibility Score: inf
ROOT
ATOM      1  C   UNL     1      -0.986   8.266  -0.880  1.00  0.00     0.006 C 
ENDROOT
BRANCH   1   2
ATOM      2  C   UNL     1      -0.128   7.658  -1.992  1.00  0.00     0.053 C 
BRANCH   2   3
ATOM      3  C   UNL     1       1.285   7.487  -1.532  1.00  0.00     0.041 C 
ATOM      4  O   UNL     1       1.691   6.363  -1.136  1.00  0.00    -0.550 OA
ATOM      5  O   UNL     1       2.168   8.558  -1.587  1.00  0.00    -0.550 OA
ENDBRANCH   2   3
ENDBRANCH   1   2
BRANCH   1   6
ATOM      6  C   UNL     1      -2.472   8.248  -1.258  1.00  0.00     0.000 C 
BRANCH   6   7
ATOM      7  C   UNL     1      -3.353   8.579  -0.043  1.00  0.00    -0.000 C 
BRANCH   7   8
ATOM      8  C   UNL     1      -4.513   9.522  -0.395  1.00  0.00    -0.003 C 
ATOM      9  C   UNL     1      -5.059   9.286  -1.804  1.00  0.00     0.004 C 
ENDBRANCH   7   8
ENDBRANCH   6   7
ENDBRANCH   1   6
TORSDOF 5
ENDMDL
