MODEL 1
REMARK VINA RESULT:    -3.862      0.000      0.000
REMARK INTER + INTRA:          -9.964
REMARK INTER:                  -7.474
REMARK INTRA:                  -2.490
REMARK UNBOUND:                -2.490
REMARK SMILES CCCCCCCCCCCCCCCCCC(=O)[O-]
REMARK SMILES IDX 10 1 11 2 12 3 13 4 14 5 15 6 16 7 17 8 18 9 19 10 20 11
REMARK SMILES IDX 9 12 8 13 7 14 6 15 5 16 4 17 3 18 2 19 1 20
REMARK H PARENT
REMARK Flexibility Score: inf
ROOT
ATOM      1  C   UNL     1       1.893  26.340 112.328  1.00  0.00     0.000 C 
ENDROOT
BRANCH   1   2
ATOM      2  C   UNL     1       2.078  25.082 113.196  1.00  0.00     0.000 C 
BRANCH   2   3
ATOM      3  C   UNL     1       3.088  25.221 114.349  1.00  0.00     0.000 C 
BRANCH   3   4
ATOM      4  C   UNL     1       4.485  24.682 113.990  1.00  0.00     0.000 C 
BRANCH   4   5
ATOM      5  C   UNL     1       4.434  23.584 112.915  1.00  0.00     0.000 C 
BRANCH   5   6
ATOM      6  C   UNL     1       5.357  23.884 111.723  1.00  0.00     0.000 C 
BRANCH   6   7
ATOM      7  C   UNL     1       6.471  24.891 112.062  1.00  0.00     0.006 C 
BRANCH   7   8
ATOM      8  C   UNL     1       7.420  25.193 110.889  1.00  0.00     0.053 C 
BRANCH   8   9
ATOM      9  C   UNL     1       7.249  26.583 110.353  1.00  0.00     0.041 C 
ATOM     10  O   UNL     1       6.843  26.762 109.176  1.00  0.00    -0.550 OA
ATOM     11  O   UNL     1       7.569  27.680 111.144  1.00  0.00    -0.550 OA
ENDBRANCH   8   9
ENDBRANCH   7   8
ENDBRANCH   6   7
ENDBRANCH   5   6
ENDBRANCH   4   5
ENDBRANCH   3   4
ENDBRANCH   2   3
ENDBRANCH   1   2
BRANCH   1  12
ATOM     12  C   UNL     1       2.649  26.261 110.991  1.00  0.00     0.000 C 
BRANCH  12  13
ATOM     13  C   UNL     1       3.547  27.485 110.748  1.00  0.00    -0.000 C 
BRANCH  13  14
ATOM     14  C   UNL     1       4.201  28.010 112.039  1.00  0.00    -0.000 C 
BRANCH  14  15
ATOM     15  C   UNL     1       3.723  29.422 112.410  1.00  0.00    -0.000 C 
BRANCH  15  16
ATOM     16  C   UNL     1       2.741  30.002 111.378  1.00  0.00    -0.000 C 
BRANCH  16  17
ATOM     17  C   UNL     1       1.403  30.424 112.006  1.00  0.00    -0.000 C 
BRANCH  17  18
ATOM     18  C   UNL     1       0.226  29.564 111.523  1.00  0.00    -0.000 C 
BRANCH  18  19
ATOM     19  C   UNL     1      -1.088  30.351 111.581  1.00  0.00    -0.003 C 
ATOM     20  C   UNL     1      -0.831  31.838 111.813  1.00  0.00     0.004 C 
ENDBRANCH  18  19
ENDBRANCH  17  18
ENDBRANCH  16  17
ENDBRANCH  15  16
ENDBRANCH  14  15
ENDBRANCH  13  14
ENDBRANCH  12  13
ENDBRANCH   1  12
TORSDOF 16
ENDMDL
MODEL 2
REMARK VINA RESULT:    -3.820      2.057      3.297
REMARK INTER + INTRA:          -9.884
REMARK INTER:                  -6.611
REMARK INTRA:                  -3.273
REMARK UNBOUND:                -2.490
REMARK SMILES CCCCCCCCCCCCCCCCCC(=O)[O-]
REMARK SMILES IDX 10 1 11 2 12 3 13 4 14 5 15 6 16 7 17 8 18 9 19 10 20 11
REMARK SMILES IDX 9 12 8 13 7 14 6 15 5 16 4 17 3 18 2 19 1 20
REMARK H PARENT
REMARK Flexibility Score: inf
ROOT
ATOM      1  C   UNL     1       1.375  24.559 113.098  1.00  0.00     0.000 C 
ENDROOT
BRANCH   1   2
ATOM      2  C   UNL     1       1.693  23.263 113.866  1.00  0.00     0.000 C 
BRANCH   2   3
ATOM      3  C   UNL     1       3.164  22.812 113.814  1.00  0.00     0.000 C 
BRANCH   3   4
ATOM      4  C   UNL     1       4.092  23.865 113.183  1.00  0.00     0.000 C 
BRANCH   4   5
ATOM      5  C   UNL     1       5.281  24.220 114.090  1.00  0.00     0.000 C 
BRANCH   5   6
ATOM      6  C   UNL     1       6.495  24.731 113.297  1.00  0.00     0.000 C 
BRANCH   6   7
ATOM      7  C   UNL     1       6.374  24.481 111.782  1.00  0.00     0.006 C 
BRANCH   7   8
ATOM      8  C   UNL     1       7.511  25.102 110.952  1.00  0.00     0.053 C 
BRANCH   8   9
ATOM      9  C   UNL     1       7.194  26.492 110.489  1.00  0.00     0.041 C 
ATOM     10  O   UNL     1       7.397  27.474 111.250  1.00  0.00    -0.550 OA
ATOM     11  O   UNL     1       6.646  26.700 109.230  1.00  0.00    -0.550 OA
ENDBRANCH   8   9
ENDBRANCH   7   8
ENDBRANCH   6   7
ENDBRANCH   5   6
ENDBRANCH   4   5
ENDBRANCH   3   4
ENDBRANCH   2   3
ENDBRANCH   1   2
BRANCH   1  12
ATOM     12  C   UNL     1       0.940  25.710 114.020  1.00  0.00     0.000 C 
BRANCH  12  13
ATOM     13  C   UNL     1       1.478  25.555 115.452  1.00  0.00    -0.000 C 
BRANCH  13  14
ATOM     14  C   UNL     1       2.733  26.407 115.712  1.00  0.00    -0.000 C 
BRANCH  14  15
ATOM     15  C   UNL     1       2.817  27.631 114.787  1.00  0.00    -0.000 C 
BRANCH  15  16
ATOM     16  C   UNL     1       4.193  27.766 114.112  1.00  0.00    -0.000 C 
BRANCH  16  17
ATOM     17  C   UNL     1       4.134  27.524 112.596  1.00  0.00    -0.000 C 
BRANCH  17  18
ATOM     18  C   UNL     1       2.905  28.172 111.941  1.00  0.00    -0.000 C 
BRANCH  18  19
ATOM     19  C   UNL     1       2.428  27.350 110.737  1.00  0.00    -0.003 C 
ATOM     20  C   UNL     1       3.387  26.200 110.440  1.00  0.00     0.004 C 
ENDBRANCH  18  19
ENDBRANCH  17  18
ENDBRANCH  16  17
ENDBRANCH  15  16
ENDBRANCH  14  15
ENDBRANCH  13  14
ENDBRANCH  12  13
ENDBRANCH   1  12
TORSDOF 16
ENDMDL
MODEL 3
REMARK VINA RESULT:    -3.818      2.832      6.230
REMARK INTER + INTRA:          -9.880
REMARK INTER:                  -7.968
REMARK INTRA:                  -1.911
REMARK UNBOUND:                -2.490
REMARK SMILES CCCCCCCCCCCCCCCCCC(=O)[O-]
REMARK SMILES IDX 10 1 11 2 12 3 13 4 14 5 15 6 16 7 17 8 18 9 19 10 20 11
REMARK SMILES IDX 9 12 8 13 7 14 6 15 5 16 4 17 3 18 2 19 1 20
REMARK H PARENT
REMARK Flexibility Score: inf
ROOT
ATOM      1  C   UNL     1       1.508  28.375 111.623  1.00  0.00     0.000 C 
ENDROOT
BRANCH   1   2
ATOM      2  C   UNL     1       1.686  27.430 112.826  1.00  0.00     0.000 C 
BRANCH   2   3
ATOM      3  C   UNL     1       2.474  28.016 114.012  1.00  0.00     0.000 C 
BRANCH   3   4
ATOM      4  C   UNL     1       3.946  27.566 114.035  1.00  0.00     0.000 C 
BRANCH   4   5
ATOM      5  C   UNL     1       4.878  28.567 113.333  1.00  0.00     0.000 C 
BRANCH   5   6
ATOM      6  C   UNL     1       5.625  29.473 114.327  1.00  0.00     0.000 C 
BRANCH   6   7
ATOM      7  C   UNL     1       4.920  30.822 114.559  1.00  0.00     0.006 C 
BRANCH   7   8
ATOM      8  C   UNL     1       5.736  32.042 114.097  1.00  0.00     0.053 C 
BRANCH   8   9
ATOM      9  C   UNL     1       7.188  31.932 114.453  1.00  0.00     0.041 C 
ATOM     10  O   UNL     1       7.563  32.114 115.641  1.00  0.00    -0.550 OA
ATOM     11  O   UNL     1       8.130  31.659 113.470  1.00  0.00    -0.550 OA
ENDBRANCH   8   9
ENDBRANCH   7   8
ENDBRANCH   6   7
ENDBRANCH   5   6
ENDBRANCH   4   5
ENDBRANCH   3   4
ENDBRANCH   2   3
ENDBRANCH   1   2
BRANCH   1  12
ATOM     12  C   UNL     1       2.301  27.925 110.385  1.00  0.00     0.000 C 
BRANCH  12  13
ATOM     13  C   UNL     1       2.964  26.551 110.576  1.00  0.00    -0.000 C 
BRANCH  13  14
ATOM     14  C   UNL     1       4.386  26.489 109.991  1.00  0.00    -0.000 C 
BRANCH  14  15
ATOM     15  C   UNL     1       5.398  25.866 110.965  1.00  0.00    -0.000 C 
BRANCH  15  16
ATOM     16  C   UNL     1       6.785  26.526 110.877  1.00  0.00    -0.000 C 
BRANCH  16  17
ATOM     17  C   UNL     1       7.888  25.532 110.480  1.00  0.00    -0.000 C 
BRANCH  17  18
ATOM     18  C   UNL     1       8.550  25.886 109.140  1.00  0.00    -0.000 C 
BRANCH  18  19
ATOM     19  C   UNL     1       7.754  25.305 107.966  1.00  0.00    -0.003 C 
ATOM     20  C   UNL     1       7.043  26.407 107.183  1.00  0.00     0.004 C 
ENDBRANCH  18  19
ENDBRANCH  17  18
ENDBRANCH  16  17
ENDBRANCH  15  16
ENDBRANCH  14  15
ENDBRANCH  13  14
ENDBRANCH  12  13
ENDBRANCH   1  12
TORSDOF 16
ENDMDL
MODEL 4
REMARK VINA RESULT:    -3.802      1.870      3.482
REMARK INTER + INTRA:          -9.848
REMARK INTER:                  -7.790
REMARK INTRA:                  -2.058
REMARK UNBOUND:                -2.490
REMARK SMILES CCCCCCCCCCCCCCCCCC(=O)[O-]
REMARK SMILES IDX 10 1 11 2 12 3 13 4 14 5 15 6 16 7 17 8 18 9 19 10 20 11
REMARK SMILES IDX 9 12 8 13 7 14 6 15 5 16 4 17 3 18 2 19 1 20
REMARK H PARENT
REMARK Flexibility Score: inf
ROOT
ATOM      1  C   UNL     1       1.931  21.375 114.128  1.00  0.00     0.000 C 
ENDROOT
BRANCH   1   2
ATOM      2  C   UNL     1       3.385  21.700 113.737  1.00  0.00     0.000 C 
BRANCH   2   3
ATOM      3  C   UNL     1       4.108  22.694 114.664  1.00  0.00     0.000 C 
BRANCH   3   4
ATOM      4  C   UNL     1       4.924  23.747 113.893  1.00  0.00     0.000 C 
BRANCH   4   5
ATOM      5  C   UNL     1       4.607  23.751 112.389  1.00  0.00     0.000 C 
BRANCH   5   6
ATOM      6  C   UNL     1       5.842  24.067 111.527  1.00  0.00     0.000 C 
BRANCH   6   7
ATOM      7  C   UNL     1       7.034  24.586 112.352  1.00  0.00     0.006 C 
BRANCH   7   8
ATOM      8  C   UNL     1       7.990  25.499 111.563  1.00  0.00     0.053 C 
BRANCH   8   9
ATOM      9  C   UNL     1       7.289  26.672 110.948  1.00  0.00     0.041 C 
ATOM     10  O   UNL     1       7.237  26.794 109.697  1.00  0.00    -0.550 OA
ATOM     11  O   UNL     1       6.720  27.648 111.757  1.00  0.00    -0.550 OA
ENDBRANCH   8   9
ENDBRANCH   7   8
ENDBRANCH   6   7
ENDBRANCH   5   6
ENDBRANCH   4   5
ENDBRANCH   3   4
ENDBRANCH   2   3
ENDBRANCH   1   2
BRANCH   1  12
ATOM     12  C   UNL     1       1.156  22.605 114.628  1.00  0.00     0.000 C 
BRANCH  12  13
ATOM     13  C   UNL     1       0.722  23.534 113.483  1.00  0.00    -0.000 C 
BRANCH  13  14
ATOM     14  C   UNL     1       0.455  24.975 113.954  1.00  0.00    -0.000 C 
BRANCH  14  15
ATOM     15  C   UNL     1       1.740  25.811 114.054  1.00  0.00    -0.000 C 
BRANCH  15  16
ATOM     16  C   UNL     1       2.269  26.245 112.677  1.00  0.00    -0.000 C 
BRANCH  16  17
ATOM     17  C   UNL     1       3.404  27.278 112.778  1.00  0.00    -0.000 C 
BRANCH  17  18
ATOM     18  C   UNL     1       3.153  28.519 111.909  1.00  0.00    -0.000 C 
BRANCH  18  19
ATOM     19  C   UNL     1       2.777  28.119 110.478  1.00  0.00    -0.003 C 
ATOM     20  C   UNL     1       2.312  29.328 109.671  1.00  0.00     0.004 C 
ENDBRANCH  18  19
ENDBRANCH  17  18
ENDBRANCH  16  17
ENDBRANCH  15  16
ENDBRANCH  14  15
ENDBRANCH  13  14
ENDBRANCH  12  13
ENDBRANCH   1  12
TORSDOF 16
ENDMDL
MODEL 5
REMARK VINA RESULT:    -3.798      2.498      6.037
REMARK INTER + INTRA:          -9.841
REMARK INTER:                  -8.017
REMARK INTRA:                  -1.825
REMARK UNBOUND:                -2.490
REMARK SMILES CCCCCCCCCCCCCCCCCC(=O)[O-]
REMARK SMILES IDX 10 1 11 2 12 3 13 4 14 5 15 6 16 7 17 8 18 9 19 10 20 11
REMARK SMILES IDX 9 12 8 13 7 14 6 15 5 16 4 17 3 18 2 19 1 20
REMARK H PARENT
REMARK Flexibility Score: inf
ROOT
ATOM      1  C   UNL     1       1.967  22.135 115.047  1.00  0.00     0.000 C 
ENDROOT
BRANCH   1   2
ATOM      2  C   UNL     1       0.704  22.968 114.761  1.00  0.00     0.000 C 
BRANCH   2   3
ATOM      3  C   UNL     1       0.721  23.756 113.439  1.00  0.00     0.000 C 
BRANCH   3   4
ATOM      4  C   UNL     1       0.949  25.265 113.644  1.00  0.00     0.000 C 
BRANCH   4   5
ATOM      5  C   UNL     1       1.756  25.899 112.500  1.00  0.00     0.000 C 
BRANCH   5   6
ATOM      6  C   UNL     1       2.982  26.679 113.004  1.00  0.00     0.000 C 
BRANCH   6   7
ATOM      7  C   UNL     1       3.729  27.419 111.880  1.00  0.00     0.006 C 
BRANCH   7   8
ATOM      8  C   UNL     1       2.960  27.473 110.548  1.00  0.00     0.053 C 
BRANCH   8   9
ATOM      9  C   UNL     1       2.235  28.770 110.353  1.00  0.00     0.041 C 
ATOM     10  O   UNL     1       1.013  28.773 110.052  1.00  0.00    -0.550 OA
ATOM     11  O   UNL     1       2.915  29.975 110.473  1.00  0.00    -0.550 OA
ENDBRANCH   8   9
ENDBRANCH   7   8
ENDBRANCH   6   7
ENDBRANCH   5   6
ENDBRANCH   4   5
ENDBRANCH   3   4
ENDBRANCH   2   3
ENDBRANCH   1   2
BRANCH   1  12
ATOM     12  C   UNL     1       2.892  22.012 113.825  1.00  0.00     0.000 C 
BRANCH  12  13
ATOM     13  C   UNL     1       4.144  22.897 113.941  1.00  0.00    -0.000 C 
BRANCH  13  14
ATOM     14  C   UNL     1       4.528  23.565 112.609  1.00  0.00    -0.000 C 
BRANCH  14  15
ATOM     15  C   UNL     1       5.871  24.307 112.687  1.00  0.00    -0.000 C 
BRANCH  15  16
ATOM     16  C   UNL     1       6.594  24.361 111.330  1.00  0.00    -0.000 C 
BRANCH  16  17
ATOM     17  C   UNL     1       7.258  25.722 111.068  1.00  0.00    -0.000 C 
BRANCH  17  18
ATOM     18  C   UNL     1       6.958  26.266 109.663  1.00  0.00    -0.000 C 
BRANCH  18  19
ATOM     19  C   UNL     1       7.983  25.750 108.646  1.00  0.00    -0.003 C 
ATOM     20  C   UNL     1       7.397  25.726 107.236  1.00  0.00     0.004 C 
ENDBRANCH  18  19
ENDBRANCH  17  18
ENDBRANCH  16  17
ENDBRANCH  15  16
ENDBRANCH  14  15
ENDBRANCH  13  14
ENDBRANCH  12  13
ENDBRANCH   1  12
TORSDOF 16
ENDMDL
MODEL 6
REMARK VINA RESULT:    -3.782      2.598      5.612
REMARK INTER + INTRA:          -9.809
REMARK INTER:                  -7.627
REMARK INTRA:                  -2.182
REMARK UNBOUND:                -2.490
REMARK SMILES CCCCCCCCCCCCCCCCCC(=O)[O-]
REMARK SMILES IDX 10 1 11 2 12 3 13 4 14 5 15 6 16 7 17 8 18 9 19 10 20 11
REMARK SMILES IDX 9 12 8 13 7 14 6 15 5 16 4 17 3 18 2 19 1 20
REMARK H PARENT
REMARK Flexibility Score: inf
ROOT
ATOM      1  C   UNL     1       2.544  27.078 113.065  1.00  0.00     0.000 C 
ENDROOT
BRANCH   1   2
ATOM      2  C   UNL     1       2.990  27.404 111.628  1.00  0.00     0.000 C 
BRANCH   2   3
ATOM      3  C   UNL     1       3.156  26.188 110.699  1.00  0.00     0.000 C 
BRANCH   3   4
ATOM      4  C   UNL     1       4.626  25.773 110.512  1.00  0.00     0.000 C 
BRANCH   4   5
ATOM      5  C   UNL     1       5.604  26.763 111.165  1.00  0.00     0.000 C 
BRANCH   5   6
ATOM      6  C   UNL     1       7.074  26.357 110.967  1.00  0.00     0.000 C 
BRANCH   6   7
ATOM      7  C   UNL     1       7.270  25.341 109.826  1.00  0.00     0.006 C 
BRANCH   7   8
ATOM      8  C   UNL     1       7.985  25.918 108.591  1.00  0.00     0.053 C 
BRANCH   8   9
ATOM      9  C   UNL     1       7.050  26.161 107.445  1.00  0.00     0.041 C 
ATOM     10  O   UNL     1       7.244  25.594 106.338  1.00  0.00    -0.550 OA
ATOM     11  O   UNL     1       5.982  27.038 107.589  1.00  0.00    -0.550 OA
ENDBRANCH   8   9
ENDBRANCH   7   8
ENDBRANCH   6   7
ENDBRANCH   5   6
ENDBRANCH   4   5
ENDBRANCH   3   4
ENDBRANCH   2   3
ENDBRANCH   1   2
BRANCH   1  12
ATOM     12  C   UNL     1       1.457  25.992 113.123  1.00  0.00     0.000 C 
BRANCH  12  13
ATOM     13  C   UNL     1       1.048  25.641 114.562  1.00  0.00    -0.000 C 
BRANCH  13  14
ATOM     14  C   UNL     1       0.108  24.425 114.636  1.00  0.00    -0.000 C 
BRANCH  14  15
ATOM     15  C   UNL     1       0.545  23.286 113.701  1.00  0.00    -0.000 C 
BRANCH  15  16
ATOM     16  C   UNL     1       1.185  22.112 114.461  1.00  0.00    -0.000 C 
BRANCH  16  17
ATOM     17  C   UNL     1       2.506  21.646 113.827  1.00  0.00    -0.000 C 
BRANCH  17  18
ATOM     18  C   UNL     1       3.722  22.417 114.361  1.00  0.00    -0.000 C 
BRANCH  18  19
ATOM     19  C   UNL     1       4.269  23.381 113.303  1.00  0.00    -0.003 C 
ATOM     20  C   UNL     1       5.319  24.316 113.898  1.00  0.00     0.004 C 
ENDBRANCH  18  19
ENDBRANCH  17  18
ENDBRANCH  16  17
ENDBRANCH  15  16
ENDBRANCH  14  15
ENDBRANCH  13  14
ENDBRANCH  12  13
ENDBRANCH   1  12
TORSDOF 16
ENDMDL
MODEL 7
REMARK VINA RESULT:    -3.736      1.959      3.622
REMARK INTER + INTRA:          -9.720
REMARK INTER:                  -7.105
REMARK INTRA:                  -2.615
REMARK UNBOUND:                -2.490
REMARK SMILES CCCCCCCCCCCCCCCCCC(=O)[O-]
REMARK SMILES IDX 10 1 11 2 12 3 13 4 14 5 15 6 16 7 17 8 18 9 19 10 20 11
REMARK SMILES IDX 9 12 8 13 7 14 6 15 5 16 4 17 3 18 2 19 1 20
REMARK H PARENT
REMARK Flexibility Score: inf
ROOT
ATOM      1  C   UNL     1       3.146  24.893 114.630  1.00  0.00     0.000 C 
ENDROOT
BRANCH   1   2
ATOM      2  C   UNL     1       4.554  24.973 114.014  1.00  0.00     0.000 C 
BRANCH   2   3
ATOM      3  C   UNL     1       4.828  23.980 112.870  1.00  0.00     0.000 C 
BRANCH   3   4
ATOM      4  C   UNL     1       5.379  24.660 111.604  1.00  0.00     0.000 C 
BRANCH   4   5
ATOM      5  C   UNL     1       6.839  24.274 111.317  1.00  0.00     0.000 C 
BRANCH   5   6
ATOM      6  C   UNL     1       7.819  25.428 111.590  1.00  0.00     0.000 C 
BRANCH   6   7
ATOM      7  C   UNL     1       7.859  26.466 110.453  1.00  0.00     0.006 C 
BRANCH   7   8
ATOM      8  C   UNL     1       8.090  25.857 109.059  1.00  0.00     0.053 C 
BRANCH   8   9
ATOM      9  C   UNL     1       6.990  26.190 108.097  1.00  0.00     0.041 C 
ATOM     10  O   UNL     1       7.167  26.045 106.859  1.00  0.00    -0.550 OA
ATOM     11  O   UNL     1       5.780  26.690 108.563  1.00  0.00    -0.550 OA
ENDBRANCH   8   9
ENDBRANCH   7   8
ENDBRANCH   6   7
ENDBRANCH   5   6
ENDBRANCH   4   5
ENDBRANCH   3   4
ENDBRANCH   2   3
ENDBRANCH   1   2
BRANCH   1  12
ATOM     12  C   UNL     1       2.358  26.207 114.495  1.00  0.00     0.000 C 
BRANCH  12  13
ATOM     13  C   UNL     1       1.281  26.139 113.400  1.00  0.00    -0.000 C 
BRANCH  13  14
ATOM     14  C   UNL     1       1.441  27.242 112.338  1.00  0.00    -0.000 C 
BRANCH  14  15
ATOM     15  C   UNL     1       2.462  26.870 111.252  1.00  0.00    -0.000 C 
BRANCH  15  16
ATOM     16  C   UNL     1       3.693  27.792 111.260  1.00  0.00    -0.000 C 
BRANCH  16  17
ATOM     17  C   UNL     1       3.394  29.174 111.863  1.00  0.00    -0.000 C 
BRANCH  17  18
ATOM     18  C   UNL     1       4.409  29.581 112.941  1.00  0.00    -0.000 C 
BRANCH  18  19
ATOM     19  C   UNL     1       5.227  28.372 113.408  1.00  0.00    -0.003 C 
ATOM     20  C   UNL     1       5.419  28.387 114.923  1.00  0.00     0.004 C 
ENDBRANCH  18  19
ENDBRANCH  17  18
ENDBRANCH  16  17
ENDBRANCH  15  16
ENDBRANCH  14  15
ENDBRANCH  13  14
ENDBRANCH  12  13
ENDBRANCH   1  12
TORSDOF 16
ENDMDL
MODEL 8
REMARK VINA RESULT:    -3.705      2.602      4.934
REMARK INTER + INTRA:          -9.660
REMARK INTER:                  -6.931
REMARK INTRA:                  -2.729
REMARK UNBOUND:                -2.490
REMARK SMILES CCCCCCCCCCCCCCCCCC(=O)[O-]
REMARK SMILES IDX 10 1 11 2 12 3 13 4 14 5 15 6 16 7 17 8 18 9 19 10 20 11
REMARK SMILES IDX 9 12 8 13 7 14 6 15 5 16 4 17 3 18 2 19 1 20
REMARK H PARENT
REMARK Flexibility Score: inf
ROOT
ATOM      1  C   UNL     1       3.729  26.355 114.485  1.00  0.00     0.000 C 
ENDROOT
BRANCH   1   2
ATOM      2  C   UNL     1       2.452  26.823 113.764  1.00  0.00     0.000 C 
BRANCH   2   3
ATOM      3  C   UNL     1       2.505  26.764 112.227  1.00  0.00     0.000 C 
BRANCH   3   4
ATOM      4  C   UNL     1       3.067  25.432 111.698  1.00  0.00     0.000 C 
BRANCH   4   5
ATOM      5  C   UNL     1       4.467  25.588 111.082  1.00  0.00     0.000 C 
BRANCH   5   6
ATOM      6  C   UNL     1       5.453  24.519 111.581  1.00  0.00     0.000 C 
BRANCH   6   7
ATOM      7  C   UNL     1       6.562  25.095 112.481  1.00  0.00     0.006 C 
BRANCH   7   8
ATOM      8  C   UNL     1       7.900  25.323 111.756  1.00  0.00     0.053 C 
BRANCH   8   9
ATOM      9  C   UNL     1       7.824  26.420 110.737  1.00  0.00     0.041 C 
ATOM     10  O   UNL     1       8.075  26.178 109.527  1.00  0.00    -0.550 OA
ATOM     11  O   UNL     1       7.506  27.715 111.127  1.00  0.00    -0.550 OA
ENDBRANCH   8   9
ENDBRANCH   7   8
ENDBRANCH   6   7
ENDBRANCH   5   6
ENDBRANCH   4   5
ENDBRANCH   3   4
ENDBRANCH   2   3
ENDBRANCH   1   2
BRANCH   1  12
ATOM     12  C   UNL     1       3.483  25.164 115.427  1.00  0.00     0.000 C 
BRANCH  12  13
ATOM     13  C   UNL     1       4.642  24.154 115.416  1.00  0.00    -0.000 C 
BRANCH  13  14
ATOM     14  C   UNL     1       4.165  22.702 115.235  1.00  0.00    -0.000 C 
BRANCH  14  15
ATOM     15  C   UNL     1       3.612  22.434 113.827  1.00  0.00    -0.000 C 
BRANCH  15  16
ATOM     16  C   UNL     1       2.362  21.538 113.845  1.00  0.00    -0.000 C 
BRANCH  16  17
ATOM     17  C   UNL     1       1.148  22.229 114.487  1.00  0.00    -0.000 C 
BRANCH  17  18
ATOM     18  C   UNL     1       0.690  23.468 113.703  1.00  0.00    -0.000 C 
BRANCH  18  19
ATOM     19  C   UNL     1      -0.523  24.123 114.373  1.00  0.00    -0.003 C 
ATOM     20  C   UNL     1      -0.116  24.872 115.640  1.00  0.00     0.004 C 
ENDBRANCH  18  19
ENDBRANCH  17  18
ENDBRANCH  16  17
ENDBRANCH  15  16
ENDBRANCH  14  15
ENDBRANCH  13  14
ENDBRANCH  12  13
ENDBRANCH   1  12
TORSDOF 16
ENDMDL
MODEL 9
REMARK VINA RESULT:    -3.694      1.585      2.307
REMARK INTER + INTRA:          -9.639
REMARK INTER:                  -6.910
REMARK INTRA:                  -2.729
REMARK UNBOUND:                -2.490
REMARK SMILES CCCCCCCCCCCCCCCCCC(=O)[O-]
REMARK SMILES IDX 10 1 11 2 12 3 13 4 14 5 15 6 16 7 17 8 18 9 19 10 20 11
REMARK SMILES IDX 9 12 8 13 7 14 6 15 5 16 4 17 3 18 2 19 1 20
REMARK H PARENT
REMARK Flexibility Score: inf
ROOT
ATOM      1  C   UNL     1       0.808  25.751 113.369  1.00  0.00     0.000 C 
ENDROOT
BRANCH   1   2
ATOM      2  C   UNL     1       0.550  24.249 113.588  1.00  0.00     0.000 C 
BRANCH   2   3
ATOM      3  C   UNL     1       1.598  23.521 114.450  1.00  0.00     0.000 C 
BRANCH   3   4
ATOM      4  C   UNL     1       1.881  22.088 113.965  1.00  0.00     0.000 C 
BRANCH   4   5
ATOM      5  C   UNL     1       3.377  21.839 113.710  1.00  0.00     0.000 C 
BRANCH   5   6
ATOM      6  C   UNL     1       4.207  23.132 113.761  1.00  0.00     0.000 C 
BRANCH   6   7
ATOM      7  C   UNL     1       4.810  23.515 112.397  1.00  0.00     0.006 C 
BRANCH   7   8
ATOM      8  C   UNL     1       6.012  24.471 112.490  1.00  0.00     0.053 C 
BRANCH   8   9
ATOM      9  C   UNL     1       6.510  24.902 111.144  1.00  0.00     0.041 C 
ATOM     10  O   UNL     1       7.344  24.194 110.522  1.00  0.00    -0.550 OA
ATOM     11  O   UNL     1       6.078  26.100 110.589  1.00  0.00    -0.550 OA
ENDBRANCH   8   9
ENDBRANCH   7   8
ENDBRANCH   6   7
ENDBRANCH   5   6
ENDBRANCH   4   5
ENDBRANCH   3   4
ENDBRANCH   2   3
ENDBRANCH   1   2
BRANCH   1  12
ATOM     12  C   UNL     1       2.169  26.211 113.917  1.00  0.00     0.000 C 
BRANCH  12  13
ATOM     13  C   UNL     1       3.091  26.765 112.819  1.00  0.00    -0.000 C 
BRANCH  13  14
ATOM     14  C   UNL     1       2.623  26.387 111.402  1.00  0.00    -0.000 C 
BRANCH  14  15
ATOM     15  C   UNL     1       2.479  27.610 110.483  1.00  0.00    -0.000 C 
BRANCH  15  16
ATOM     16  C   UNL     1       3.082  28.884 111.099  1.00  0.00    -0.000 C 
BRANCH  16  17
ATOM     17  C   UNL     1       2.036  29.992 111.307  1.00  0.00    -0.000 C 
BRANCH  17  18
ATOM     18  C   UNL     1       0.595  29.469 111.216  1.00  0.00    -0.000 C 
BRANCH  18  19
ATOM     19  C   UNL     1      -0.011  29.287 112.612  1.00  0.00    -0.003 C 
ATOM     20  C   UNL     1       0.837  29.978 113.677  1.00  0.00     0.004 C 
ENDBRANCH  18  19
ENDBRANCH  17  18
ENDBRANCH  16  17
ENDBRANCH  15  16
ENDBRANCH  14  15
ENDBRANCH  13  14
ENDBRANCH  12  13
ENDBRANCH   1  12
TORSDOF 16
ENDMDL
