MODEL 1
REMARK VINA RESULT:    -4.302      0.000      0.000
REMARK INTER + INTRA:          -4.459
REMARK INTER:                  -5.308
REMARK INTRA:                   0.848
REMARK UNBOUND:                 0.848
REMARK SMILES CC1=CC=CC(C)(C)CC1=O
REMARK SMILES IDX 1 1 2 2 3 3 10 4 11 5 9 6 4 8 5 9 6 10 7 11 8 12
REMARK H PARENT
REMARK Flexibility Score: 80.00
ROOT
ATOM      1  C   UNL     1       4.490  14.482  32.507  1.00  0.00     0.048 C 
ATOM      2  C   UNL     1       4.495  14.000  31.076  1.00  0.00    -0.008 C 
ATOM      3  C   UNL     1       5.230  14.693  30.179  1.00  0.00     0.007 C 
ENDROOT
BRANCH   2   4
ATOM      4  C   UNL     1       3.729  12.758  30.786  1.00  0.00     0.159 C 
ATOM      5  O   UNL     1       3.038  12.247  31.709  1.00  0.00    -0.295 OA
BRANCH   4   6
ATOM      6  C   UNL     1       3.752  12.044  29.467  1.00  0.00     0.091 CG0
ATOM      7  G   UNL     1       3.422  12.949  28.258  1.00  0.00     0.000 G0
ENDBRANCH   4   6
ENDBRANCH   2   4
BRANCH   3   8
ATOM      8  C   UNL     1       5.415  14.466  28.728  1.00  0.00    -0.003 C 
ATOM      9  C   UNL     1       4.647  13.759  27.890  1.00  0.00    -0.020 C 
BRANCH   9  10
ATOM     10  C   UNL     1       3.424  12.958  28.264  1.00  0.00    -0.010 CG0
ATOM     11  C   UNL     1       3.058  12.046  27.070  1.00  0.00     0.016 C 
ATOM     12  C   UNL     1       2.225  13.898  28.528  1.00  0.00     0.016 C 
ATOM     13  G   UNL     1       3.752  12.054  29.475  1.00  0.00     0.000 G0
ENDBRANCH   9  10
ENDBRANCH   3   8
TORSDOF 0
ENDMDL
MODEL 2
REMARK VINA RESULT:    -4.251      1.766      3.137
REMARK INTER + INTRA:          -4.396
REMARK INTER:                  -5.253
REMARK INTRA:                   0.857
REMARK UNBOUND:                 0.848
REMARK SMILES CC1=CC=CC(C)(C)CC1=O
REMARK SMILES IDX 1 1 2 2 3 3 10 4 11 5 9 6 4 8 5 9 6 10 7 11 8 12
REMARK H PARENT
REMARK Flexibility Score: 80.00
ROOT
ATOM      1  C   UNL     1       5.691  14.738  28.053  1.00  0.00     0.048 C 
ATOM      2  C   UNL     1       4.686  14.153  29.017  1.00  0.00    -0.008 C 
ATOM      3  C   UNL     1       4.877  14.368  30.337  1.00  0.00     0.007 C 
ENDROOT
BRANCH   2   4
ATOM      4  C   UNL     1       3.531  13.430  28.421  1.00  0.00     0.159 C 
ATOM      5  O   UNL     1       3.509  13.254  27.171  1.00  0.00    -0.295 OA
BRANCH   4   6
ATOM      6  C   UNL     1       2.358  12.924  29.207  1.00  0.00     0.091 CG0
ATOM      7  G   UNL     1       2.746  12.037  30.412  1.00  0.00     0.000 G0
ENDBRANCH   4   6
ENDBRANCH   2   4
BRANCH   3   8
ATOM      8  C   UNL     1       4.077  13.916  31.496  1.00  0.00    -0.003 C 
ATOM      9  C   UNL     1       3.192  12.913  31.559  1.00  0.00    -0.020 C 
BRANCH   9  10
ATOM     10  C   UNL     1       2.754  12.038  30.409  1.00  0.00    -0.010 CG0
ATOM     11  C   UNL     1       1.499  11.250  30.851  1.00  0.00     0.016 C 
ATOM     12  C   UNL     1       3.859  11.015  30.061  1.00  0.00     0.016 C 
ATOM     13  G   UNL     1       2.363  12.928  29.206  1.00  0.00     0.000 G0
ENDBRANCH   9  10
ENDBRANCH   3   8
TORSDOF 0
ENDMDL
MODEL 3
REMARK VINA RESULT:    -4.185      1.513      2.576
REMARK INTER + INTRA:          -4.315
REMARK INTER:                  -5.157
REMARK INTRA:                   0.842
REMARK UNBOUND:                 0.848
REMARK SMILES CC1=CC=CC(C)(C)CC1=O
REMARK SMILES IDX 1 1 2 2 3 3 10 4 11 5 9 6 4 8 5 9 6 10 7 11 8 12
REMARK H PARENT
REMARK Flexibility Score: 80.00
ROOT
ATOM      1  C   UNL     1       4.514  14.330  32.495  1.00  0.00     0.048 C 
ATOM      2  C   UNL     1       3.782  13.672  31.350  1.00  0.00    -0.008 C 
ATOM      3  C   UNL     1       2.730  12.878  31.645  1.00  0.00     0.007 C 
ENDROOT
BRANCH   2   4
ATOM      4  C   UNL     1       4.253  14.003  29.977  1.00  0.00     0.159 C 
ATOM      5  O   UNL     1       5.266  14.745  29.850  1.00  0.00    -0.295 OA
BRANCH   4   6
ATOM      6  C   UNL     1       3.575  13.542  28.722  1.00  0.00     0.091 CG0
ATOM      7  G   UNL     1       3.314  12.018  28.673  1.00  0.00     0.000 G0
ENDBRANCH   4   6
ENDBRANCH   2   4
BRANCH   3   8
ATOM      8  C   UNL     1       1.844  12.106  30.747  1.00  0.00    -0.003 C 
ATOM      9  C   UNL     1       2.075  11.704  29.490  1.00  0.00    -0.020 C 
BRANCH   9  10
ATOM     10  C   UNL     1       3.300  12.018  28.666  1.00  0.00    -0.010 CG0
ATOM     11  C   UNL     1       3.001  11.647  27.195  1.00  0.00     0.016 C 
ATOM     12  C   UNL     1       4.499  11.163  29.137  1.00  0.00     0.016 C 
ATOM     13  G   UNL     1       3.587  13.536  28.729  1.00  0.00     0.000 G0
ENDBRANCH   9  10
ENDBRANCH   3   8
TORSDOF 0
ENDMDL
MODEL 4
REMARK VINA RESULT:    -4.138      1.801      3.895
REMARK INTER + INTRA:          -4.257
REMARK INTER:                  -5.087
REMARK INTRA:                   0.829
REMARK UNBOUND:                 0.848
REMARK SMILES CC1=CC=CC(C)(C)CC1=O
REMARK SMILES IDX 1 1 2 2 3 3 10 4 11 5 9 6 4 8 5 9 6 10 7 11 8 12
REMARK H PARENT
REMARK Flexibility Score: 80.00
ROOT
ATOM      1  C   UNL     1       2.931  11.680  26.390  1.00  0.00     0.048 C 
ATOM      2  C   UNL     1       3.416  11.934  27.798  1.00  0.00    -0.008 C 
ATOM      3  C   UNL     1       3.561  10.871  28.618  1.00  0.00     0.007 C 
ENDROOT
BRANCH   2   4
ATOM      4  C   UNL     1       3.750  13.342  28.146  1.00  0.00     0.159 C 
ATOM      5  O   UNL     1       3.529  14.243  27.290  1.00  0.00    -0.295 OA
BRANCH   4   6
ATOM      6  C   UNL     1       4.373  13.763  29.443  1.00  0.00     0.091 CG0
ATOM      7  G   UNL     1       3.635  13.233  30.695  1.00  0.00     0.000 G0
ENDBRANCH   4   6
ENDBRANCH   2   4
BRANCH   3   8
ATOM      8  C   UNL     1       4.001  10.816  30.030  1.00  0.00    -0.003 C 
ATOM      9  C   UNL     1       4.019  11.801  30.937  1.00  0.00    -0.020 C 
BRANCH   9  10
ATOM     10  C   UNL     1       3.647  13.244  30.693  1.00  0.00    -0.010 CG0
ATOM     11  C   UNL     1       4.150  14.082  31.891  1.00  0.00     0.016 C 
ATOM     12  C   UNL     1       2.111  13.397  30.616  1.00  0.00     0.016 C 
ATOM     13  G   UNL     1       4.362  13.750  29.419  1.00  0.00     0.000 G0
ENDBRANCH   9  10
ENDBRANCH   3   8
TORSDOF 0
ENDMDL
MODEL 5
REMARK VINA RESULT:    -4.116      2.087      3.605
REMARK INTER + INTRA:          -4.230
REMARK INTER:                  -5.075
REMARK INTRA:                   0.845
REMARK UNBOUND:                 0.848
REMARK SMILES CC1=CC=CC(C)(C)CC1=O
REMARK SMILES IDX 1 1 2 2 3 3 10 4 11 5 9 6 4 8 5 9 6 10 7 11 8 12
REMARK H PARENT
REMARK Flexibility Score: 80.00
ROOT
ATOM      1  C   UNL     1      -0.028  14.035  28.736  1.00  0.00     0.048 C 
ATOM      2  C   UNL     1       1.236  13.552  29.407  1.00  0.00    -0.008 C 
ATOM      3  C   UNL     1       2.369  13.517  28.672  1.00  0.00     0.007 C 
ENDROOT
BRANCH   2   4
ATOM      4  C   UNL     1       1.135  13.204  30.851  1.00  0.00     0.159 C 
ATOM      5  O   UNL     1       0.000  13.239  31.401  1.00  0.00    -0.295 OA
BRANCH   4   6
ATOM      6  C   UNL     1       2.309  12.849  31.714  1.00  0.00     0.091 CG0
ATOM      7  G   UNL     1       3.191  11.717  31.139  1.00  0.00     0.000 G0
ENDBRANCH   4   6
ENDBRANCH   2   4
BRANCH   3   8
ATOM      8  C   UNL     1       3.732  13.086  29.052  1.00  0.00    -0.003 C 
ATOM      9  C   UNL     1       4.106  12.301  30.070  1.00  0.00    -0.020 C 
BRANCH   9  10
ATOM     10  C   UNL     1       3.197  11.720  31.126  1.00  0.00    -0.010 CG0
ATOM     11  C   UNL     1       4.077  11.170  32.273  1.00  0.00     0.016 C 
ATOM     12  C   UNL     1       2.383  10.541  30.545  1.00  0.00     0.016 C 
ATOM     13  G   UNL     1       2.300  12.838  31.705  1.00  0.00     0.000 G0
ENDBRANCH   9  10
ENDBRANCH   3   8
TORSDOF 0
ENDMDL
MODEL 6
REMARK VINA RESULT:    -4.116      1.585      2.799
REMARK INTER + INTRA:          -4.230
REMARK INTER:                  -5.077
REMARK INTRA:                   0.847
REMARK UNBOUND:                 0.848
REMARK SMILES CC1=CC=CC(C)(C)CC1=O
REMARK SMILES IDX 1 1 2 2 3 3 10 4 11 5 9 6 4 8 5 9 6 10 7 11 8 12
REMARK H PARENT
REMARK Flexibility Score: 80.00
ROOT
ATOM      1  C   UNL     1       5.950  14.839  28.341  1.00  0.00     0.048 C 
ATOM      2  C   UNL     1       4.917  13.819  28.759  1.00  0.00    -0.008 C 
ATOM      3  C   UNL     1       4.496  12.930  27.833  1.00  0.00     0.007 C 
ENDROOT
BRANCH   2   4
ATOM      4  C   UNL     1       4.489  13.847  30.184  1.00  0.00     0.159 C 
ATOM      5  O   UNL     1       4.939  14.759  30.931  1.00  0.00    -0.295 OA
BRANCH   4   6
ATOM      6  C   UNL     1       3.580  12.831  30.809  1.00  0.00     0.091 CG0
ATOM      7  G   UNL     1       2.267  12.598  30.025  1.00  0.00     0.000 G0
ENDBRANCH   4   6
ENDBRANCH   2   4
BRANCH   3   8
ATOM      8  C   UNL     1       3.501  11.842  27.949  1.00  0.00    -0.003 C 
ATOM      9  C   UNL     1       2.523  11.697  28.852  1.00  0.00    -0.020 C 
BRANCH   9  10
ATOM     10  C   UNL     1       2.255  12.606  30.027  1.00  0.00    -0.010 CG0
ATOM     11  C   UNL     1       1.261  11.893  30.974  1.00  0.00     0.016 C 
ATOM     12  C   UNL     1       1.597  13.921  29.551  1.00  0.00     0.016 C 
ATOM     13  G   UNL     1       3.571  12.844  30.804  1.00  0.00     0.000 G0
ENDBRANCH   9  10
ENDBRANCH   3   8
TORSDOF 0
ENDMDL
MODEL 7
REMARK VINA RESULT:    -4.084      1.898      2.716
REMARK INTER + INTRA:          -4.190
REMARK INTER:                  -5.278
REMARK INTRA:                   1.088
REMARK UNBOUND:                 0.848
REMARK SMILES CC1=CC=CC(C)(C)CC1=O
REMARK SMILES IDX 1 1 2 2 3 3 10 4 11 5 9 6 4 8 5 9 6 10 7 11 8 12
REMARK H PARENT
REMARK Flexibility Score: 80.00
ROOT
ATOM      1  C   UNL     1       0.507  12.732  32.096  1.00  0.00     0.048 C 
ATOM      2  C   UNL     1       1.580  13.180  31.133  1.00  0.00    -0.008 C 
ATOM      3  C   UNL     1       2.860  13.171  31.564  1.00  0.00     0.007 C 
ENDROOT
BRANCH   2   4
ATOM      4  C   UNL     1       1.137  13.543  29.760  1.00  0.00     0.159 C 
ATOM      5  O   UNL     1      -0.053  13.289  29.423  1.00  0.00    -0.295 OA
BRANCH   4   6
ATOM      6  C   UNL     1       2.028  14.161  28.724  1.00  0.00     0.091 CG0
ATOM      7  G   UNL     1       3.326  13.365  28.457  1.00  0.00     0.000 G0
ENDBRANCH   4   6
ENDBRANCH   2   4
BRANCH   3   8
ATOM      8  C   UNL     1       4.101  13.560  30.858  1.00  0.00    -0.003 C 
ATOM      9  C   UNL     1       4.308  13.682  29.541  1.00  0.00    -0.020 C 
BRANCH   9  10
ATOM     10  C   UNL     1       3.311  13.375  28.451  1.00  0.00    -0.010 CG0
ATOM     11  C   UNL     1       2.992  11.863  28.498  1.00  0.00     0.016 C 
ATOM     12  C   UNL     1       3.917  13.688  27.063  1.00  0.00     0.016 C 
ATOM     13  G   UNL     1       2.000  14.151  28.718  1.00  0.00     0.000 G0
ENDBRANCH   9  10
ENDBRANCH   3   8
TORSDOF 0
ENDMDL
MODEL 8
REMARK VINA RESULT:    -4.030      2.193      4.138
REMARK INTER + INTRA:          -4.124
REMARK INTER:                  -4.981
REMARK INTRA:                   0.857
REMARK UNBOUND:                 0.848
REMARK SMILES CC1=CC=CC(C)(C)CC1=O
REMARK SMILES IDX 1 1 2 2 3 3 10 4 11 5 9 6 4 8 5 9 6 10 7 11 8 12
REMARK H PARENT
REMARK Flexibility Score: 80.00
ROOT
ATOM      1  C   UNL     1       0.326  14.393  28.398  1.00  0.00     0.048 C 
ATOM      2  C   UNL     1       0.905  13.444  29.420  1.00  0.00    -0.008 C 
ATOM      3  C   UNL     1       0.261  13.318  30.601  1.00  0.00     0.007 C 
ENDROOT
BRANCH   2   4
ATOM      4  C   UNL     1       2.116  12.681  29.014  1.00  0.00     0.159 C 
ATOM      5  O   UNL     1       2.648  12.943  27.900  1.00  0.00    -0.295 OA
BRANCH   4   6
ATOM      6  C   UNL     1       2.730  11.581  29.828  1.00  0.00     0.091 CG0
ATOM      7  G   UNL     1       3.042  11.982  31.289  1.00  0.00     0.000 G0
ENDBRANCH   4   6
ENDBRANCH   2   4
BRANCH   3   8
ATOM      8  C   UNL     1       0.595  12.485  31.778  1.00  0.00    -0.003 C 
ATOM      9  C   UNL     1       1.771  11.935  32.104  1.00  0.00    -0.020 C 
BRANCH   9  10
ATOM     10  C   UNL     1       3.037  11.987  31.283  1.00  0.00    -0.010 CG0
ATOM     11  C   UNL     1       4.033  10.957  31.864  1.00  0.00     0.016 C 
ATOM     12  C   UNL     1       3.686  13.386  31.386  1.00  0.00     0.016 C 
ATOM     13  G   UNL     1       2.721  11.581  29.825  1.00  0.00     0.000 G0
ENDBRANCH   9  10
ENDBRANCH   3   8
TORSDOF 0
ENDMDL
MODEL 9
REMARK VINA RESULT:    -3.905      1.903      3.090
REMARK INTER + INTRA:          -3.970
REMARK INTER:                  -5.076
REMARK INTRA:                   1.106
REMARK UNBOUND:                 0.848
REMARK SMILES CC1=CC=CC(C)(C)CC1=O
REMARK SMILES IDX 1 1 2 2 3 3 10 4 11 5 9 6 4 8 5 9 6 10 7 11 8 12
REMARK H PARENT
REMARK Flexibility Score: 80.00
ROOT
ATOM      1  C   UNL     1      -0.387  12.687  31.832  1.00  0.00     0.048 C 
ATOM      2  C   UNL     1       0.604  12.871  30.707  1.00  0.00    -0.008 C 
ATOM      3  C   UNL     1       0.468  13.959  29.917  1.00  0.00     0.007 C 
ENDROOT
BRANCH   2   4
ATOM      4  C   UNL     1       1.689  11.859  30.598  1.00  0.00     0.159 C 
ATOM      5  O   UNL     1       1.855  11.049  31.552  1.00  0.00    -0.295 OA
BRANCH   4   6
ATOM      6  C   UNL     1       2.634  11.759  29.438  1.00  0.00     0.091 CG0
ATOM      7  G   UNL     1       3.415  13.063  29.152  1.00  0.00     0.000 G0
ENDBRANCH   4   6
ENDBRANCH   2   4
BRANCH   3   8
ATOM      8  C   UNL     1       1.270  14.389  28.750  1.00  0.00    -0.003 C 
ATOM      9  C   UNL     1       2.501  13.999  28.394  1.00  0.00    -0.020 C 
BRANCH   9  10
ATOM     10  C   UNL     1       3.394  13.056  29.164  1.00  0.00    -0.010 CG0
ATOM     11  C   UNL     1       3.750  13.721  30.514  1.00  0.00     0.016 C 
ATOM     12  C   UNL     1       4.711  12.813  28.392  1.00  0.00     0.016 C 
ATOM     13  G   UNL     1       2.626  11.747  29.461  1.00  0.00     0.000 G0
ENDBRANCH   9  10
ENDBRANCH   3   8
TORSDOF 0
ENDMDL
