MODEL 1
REMARK VINA RESULT:    -6.527      0.000      0.000
REMARK INTER + INTRA:         -10.921
REMARK INTER:                  -9.389
REMARK INTRA:                  -1.532
REMARK UNBOUND:                -1.532
REMARK SMILES O=c1c(O[C@@H]2O[C@@H](CO)[C@H](O)[C@@H](O)[C@H]2O)c(-c2ccc(O)cc2)oc2cc(O)cc(O)c12
REMARK SMILES IDX 4 1 3 2 16 3 24 4 2 5 25 6 1 7 32 8 26 9 30 10 27 11 29 12
REMARK SMILES IDX 17 13 18 14 19 15 20 16 23 17 22 18 21 19 31 21 28 23 5 25
REMARK SMILES IDX 14 26 6 27 12 28 7 29 10 30 15 31 13 33 8 35 9 36 11 38
REMARK H PARENT 21 20 31 22 28 24 15 32 13 34 9 37 11 39
REMARK Flexibility Score: inf
ROOT
ATOM      1  O   UNL     1       8.585  85.968  81.650  1.00  0.00    -0.454 OA
ENDROOT
BRANCH   1   2
ATOM      2  C   UNL     1       7.849  85.211  80.716  1.00  0.00     0.214 A 
ATOM      3  C   UNL     1       8.411  85.012  79.439  1.00  0.00     0.180 A 
ATOM      4  O   UNL     1       7.721  84.386  78.494  1.00  0.00    -0.452 OA
ATOM      5  C   UNL     1       6.568  84.675  80.975  1.00  0.00     0.239 A 
ATOM      6  C   UNL     1       6.508  83.886  78.688  1.00  0.00     0.146 A 
ATOM      7  O   UNL     1       6.046  84.796  82.115  1.00  0.00    -0.285 OA
ATOM      8  C   UNL     1       5.876  83.997  79.948  1.00  0.00     0.111 A 
ATOM      9  C   UNL     1       5.861  83.243  77.629  1.00  0.00     0.094 A 
ATOM     10  C   UNL     1       4.587  83.434  80.124  1.00  0.00     0.134 A 
ATOM     11  C   UNL     1       4.587  82.698  77.806  1.00  0.00     0.123 A 
ATOM     12  C   UNL     1       3.956  82.792  79.049  1.00  0.00     0.093 A 
BRANCH   3  13
ATOM     13  C   UNL     1       9.757  85.522  79.098  1.00  0.00     0.021 A 
ATOM     14  C   UNL     1      10.894  84.865  79.595  1.00  0.00     0.016 A 
ATOM     15  C   UNL     1      12.174  85.333  79.283  1.00  0.00     0.047 A 
ATOM     16  C   UNL     1      12.331  86.475  78.485  1.00  0.00     0.115 A 
ATOM     17  C   UNL     1       9.921  86.676  78.310  1.00  0.00     0.016 A 
ATOM     18  C   UNL     1      11.202  87.145  78.003  1.00  0.00     0.047 A 
BRANCH  16  19
ATOM     19  O   UNL     1      13.602  86.951  78.167  1.00  0.00    -0.508 OA
ATOM     20  H   UNL     1      14.352  86.322  77.906  1.00  0.00     0.293 HD
ENDBRANCH  16  19
ENDBRANCH   3  13
BRANCH  10  21
ATOM     21  O   UNL     1       3.935  83.501  81.355  1.00  0.00    -0.507 OA
ATOM     22  H   UNL     1       2.938  83.348  81.440  1.00  0.00     0.293 HD
ENDBRANCH  10  21
BRANCH  11  23
ATOM     23  O   UNL     1       3.936  82.057  76.753  1.00  0.00    -0.508 OA
ATOM     24  H   UNL     1       3.164  81.422  76.916  1.00  0.00     0.293 HD
ENDBRANCH  11  23
ENDBRANCH   1   2
BRANCH   1  25
ATOM     25  C   UNL     1       8.544  87.387  81.843  1.00  0.00     0.339 C 
ATOM     26  C   UNL     1       8.225  87.707  83.325  1.00  0.00     0.214 C 
ATOM     27  O   UNL     1       9.754  88.004  81.431  1.00  0.00    -0.332 OA
ATOM     28  C   UNL     1       9.479  88.169  84.106  1.00  0.00     0.180 C 
ATOM     29  C   UNL     1      10.886  87.438  82.079  1.00  0.00     0.179 C 
ATOM     30  C   UNL     1      10.750  87.427  83.634  1.00  0.00     0.177 C 
BRANCH  26  31
ATOM     31  O   UNL     1       7.223  88.693  83.390  1.00  0.00    -0.384 OA
ATOM     32  H   UNL     1       7.665  89.565  83.212  1.00  0.00     0.211 HD
ENDBRANCH  26  31
BRANCH  28  33
ATOM     33  O   UNL     1       9.654  89.556  83.937  1.00  0.00    -0.387 OA
ATOM     34  H   UNL     1      10.169  89.879  84.722  1.00  0.00     0.211 HD
ENDBRANCH  28  33
BRANCH  29  35
ATOM     35  C   UNL     1      12.131  88.217  81.631  1.00  0.00     0.191 C 
BRANCH  35  36
ATOM     36  O   UNL     1      11.866  89.595  81.643  1.00  0.00    -0.394 OA
ATOM     37  H   UNL     1      11.927  89.896  80.698  1.00  0.00     0.210 HD
ENDBRANCH  35  36
ENDBRANCH  29  35
BRANCH  30  38
ATOM     38  O   UNL     1      10.794  86.106  84.125  1.00  0.00    -0.387 OA
ATOM     39  H   UNL     1      11.371  86.089  84.929  1.00  0.00     0.211 HD
ENDBRANCH  30  38
ENDBRANCH   1  25
TORSDOF 11
ENDMDL
MODEL 2
REMARK VINA RESULT:    -6.314      2.593      4.474
REMARK INTER + INTRA:         -10.614
REMARK INTER:                  -9.211
REMARK INTRA:                  -1.403
REMARK UNBOUND:                -1.532
REMARK SMILES O=c1c(O[C@@H]2O[C@@H](CO)[C@H](O)[C@@H](O)[C@H]2O)c(-c2ccc(O)cc2)oc2cc(O)cc(O)c12
REMARK SMILES IDX 4 1 3 2 16 3 24 4 2 5 25 6 1 7 32 8 26 9 30 10 27 11 29 12
REMARK SMILES IDX 17 13 18 14 19 15 20 16 23 17 22 18 21 19 31 21 28 23 5 25
REMARK SMILES IDX 14 26 6 27 12 28 7 29 10 30 15 31 13 33 8 35 9 36 11 38
REMARK H PARENT 21 20 31 22 28 24 15 32 13 34 9 37 11 39
REMARK Flexibility Score: inf
ROOT
ATOM      1  O   UNL     1      10.028  85.957  80.177  1.00  0.00    -0.454 OA
ENDROOT
BRANCH   1   2
ATOM      2  C   UNL     1       8.985  85.205  80.753  1.00  0.00     0.214 A 
ATOM      3  C   UNL     1       7.686  85.372  80.233  1.00  0.00     0.180 A 
ATOM      4  O   UNL     1       6.654  84.759  80.799  1.00  0.00    -0.452 OA
ATOM      5  C   UNL     1       9.161  84.325  81.843  1.00  0.00     0.239 A 
ATOM      6  C   UNL     1       6.772  83.941  81.836  1.00  0.00     0.146 A 
ATOM      7  O   UNL     1      10.311  84.116  82.313  1.00  0.00    -0.285 OA
ATOM      8  C   UNL     1       8.040  83.675  82.403  1.00  0.00     0.111 A 
ATOM      9  C   UNL     1       5.624  83.342  82.362  1.00  0.00     0.094 A 
ATOM     10  C   UNL     1       8.130  82.781  83.499  1.00  0.00     0.134 A 
ATOM     11  C   UNL     1       5.718  82.468  83.449  1.00  0.00     0.123 A 
ATOM     12  C   UNL     1       6.967  82.189  84.012  1.00  0.00     0.093 A 
BRANCH   3  13
ATOM     13  C   UNL     1       7.423  86.258  79.077  1.00  0.00     0.021 A 
ATOM     14  C   UNL     1       6.884  87.537  79.292  1.00  0.00     0.016 A 
ATOM     15  C   UNL     1       6.629  88.386  78.211  1.00  0.00     0.047 A 
ATOM     16  C   UNL     1       6.894  87.959  76.902  1.00  0.00     0.115 A 
ATOM     17  C   UNL     1       7.673  85.831  77.760  1.00  0.00     0.016 A 
ATOM     18  C   UNL     1       7.413  86.681  76.681  1.00  0.00     0.047 A 
BRANCH  16  19
ATOM     19  O   UNL     1       6.643  88.798  75.817  1.00  0.00    -0.508 OA
ATOM     20  H   UNL     1       7.060  88.627  74.910  1.00  0.00     0.293 HD
ENDBRANCH  16  19
ENDBRANCH   3  13
BRANCH  10  21
ATOM     21  O   UNL     1       9.361  82.473  84.076  1.00  0.00    -0.507 OA
ATOM     22  H   UNL     1       9.927  83.177  84.535  1.00  0.00     0.293 HD
ENDBRANCH  10  21
BRANCH  11  23
ATOM     23  O   UNL     1       4.577  81.868  83.979  1.00  0.00    -0.508 OA
ATOM     24  H   UNL     1       3.866  81.464  83.383  1.00  0.00     0.293 HD
ENDBRANCH  11  23
ENDBRANCH   1   2
BRANCH   1  25
ATOM     25  C   UNL     1      10.436  87.286  80.523  1.00  0.00     0.339 C 
ATOM     26  C   UNL     1      11.649  87.230  81.484  1.00  0.00     0.214 C 
ATOM     27  O   UNL     1      10.727  88.059  79.368  1.00  0.00    -0.332 OA
ATOM     28  C   UNL     1      12.977  87.578  80.769  1.00  0.00     0.180 C 
ATOM     29  C   UNL     1      11.699  87.431  78.540  1.00  0.00     0.179 C 
ATOM     30  C   UNL     1      12.999  87.049  79.316  1.00  0.00     0.177 C 
BRANCH  26  31
ATOM     31  O   UNL     1      11.437  88.107  82.564  1.00  0.00    -0.384 OA
ATOM     32  H   UNL     1      10.454  88.174  82.691  1.00  0.00     0.211 HD
ENDBRANCH  26  31
BRANCH  28  33
ATOM     33  O   UNL     1      13.158  88.974  80.765  1.00  0.00    -0.387 OA
ATOM     34  H   UNL     1      13.571  89.209  79.893  1.00  0.00     0.211 HD
ENDBRANCH  28  33
BRANCH  29  35
ATOM     35  C   UNL     1      12.003  88.372  77.366  1.00  0.00     0.191 C 
BRANCH  35  36
ATOM     36  O   UNL     1      12.576  89.563  77.840  1.00  0.00    -0.394 OA
ATOM     37  H   UNL     1      13.539  89.521  77.598  1.00  0.00     0.210 HD
ENDBRANCH  35  36
ENDBRANCH  29  35
BRANCH  30  38
ATOM     38  O   UNL     1      13.209  85.657  79.272  1.00  0.00    -0.387 OA
ATOM     39  H   UNL     1      12.797  85.251  80.074  1.00  0.00     0.211 HD
ENDBRANCH  30  38
ENDBRANCH   1  25
TORSDOF 11
ENDMDL
MODEL 3
REMARK VINA RESULT:    -6.285      2.905      6.274
REMARK INTER + INTRA:         -10.573
REMARK INTER:                  -9.476
REMARK INTRA:                  -1.097
REMARK UNBOUND:                -1.532
REMARK SMILES O=c1c(O[C@@H]2O[C@@H](CO)[C@H](O)[C@@H](O)[C@H]2O)c(-c2ccc(O)cc2)oc2cc(O)cc(O)c12
REMARK SMILES IDX 4 1 3 2 16 3 24 4 2 5 25 6 1 7 32 8 26 9 30 10 27 11 29 12
REMARK SMILES IDX 17 13 18 14 19 15 20 16 23 17 22 18 21 19 31 21 28 23 5 25
REMARK SMILES IDX 14 26 6 27 12 28 7 29 10 30 15 31 13 33 8 35 9 36 11 38
REMARK H PARENT 21 20 31 22 28 24 15 32 13 34 9 37 11 39
REMARK Flexibility Score: inf
ROOT
ATOM      1  O   UNL     1       9.215  86.260  80.442  1.00  0.00    -0.454 OA
ENDROOT
BRANCH   1   2
ATOM      2  C   UNL     1       8.849  87.118  79.385  1.00  0.00     0.214 A 
ATOM      3  C   UNL     1       7.669  86.823  78.676  1.00  0.00     0.180 A 
ATOM      4  O   UNL     1       7.327  87.544  77.615  1.00  0.00    -0.452 OA
ATOM      5  C   UNL     1       9.617  88.231  78.976  1.00  0.00     0.239 A 
ATOM      6  C   UNL     1       8.029  88.584  77.183  1.00  0.00     0.146 A 
ATOM      7  O   UNL     1      10.658  88.553  79.607  1.00  0.00    -0.285 OA
ATOM      8  C   UNL     1       9.207  88.985  77.855  1.00  0.00     0.111 A 
ATOM      9  C   UNL     1       7.587  89.280  76.055  1.00  0.00     0.094 A 
ATOM     10  C   UNL     1       9.921  90.112  77.377  1.00  0.00     0.134 A 
ATOM     11  C   UNL     1       8.301  90.386  75.584  1.00  0.00     0.123 A 
ATOM     12  C   UNL     1       9.462  90.798  76.244  1.00  0.00     0.093 A 
BRANCH   3  13
ATOM     13  C   UNL     1       6.798  85.689  79.058  1.00  0.00     0.021 A 
ATOM     14  C   UNL     1       6.486  84.704  78.107  1.00  0.00     0.016 A 
ATOM     15  C   UNL     1       5.664  83.626  78.451  1.00  0.00     0.047 A 
ATOM     16  C   UNL     1       5.132  83.531  79.745  1.00  0.00     0.115 A 
ATOM     17  C   UNL     1       6.249  85.595  80.350  1.00  0.00     0.016 A 
ATOM     18  C   UNL     1       5.425  84.518  80.689  1.00  0.00     0.047 A 
BRANCH  16  19
ATOM     19  O   UNL     1       4.312  82.461  80.098  1.00  0.00    -0.508 OA
ATOM     20  H   UNL     1       4.198  81.659  79.491  1.00  0.00     0.293 HD
ENDBRANCH  16  19
ENDBRANCH   3  13
BRANCH  10  21
ATOM     21  O   UNL     1      11.076  90.556  78.019  1.00  0.00    -0.507 OA
ATOM     22  H   UNL     1      11.618  89.950  78.623  1.00  0.00     0.293 HD
ENDBRANCH  10  21
BRANCH  11  23
ATOM     23  O   UNL     1       7.867  91.084  74.459  1.00  0.00    -0.508 OA
ATOM     24  H   UNL     1       8.471  91.230  73.660  1.00  0.00     0.293 HD
ENDBRANCH  11  23
ENDBRANCH   1   2
BRANCH   1  25
ATOM     25  C   UNL     1      10.095  85.131  80.379  1.00  0.00     0.339 C 
ATOM     26  C   UNL     1      11.549  85.580  80.668  1.00  0.00     0.214 C 
ATOM     27  O   UNL     1       9.686  84.103  81.269  1.00  0.00    -0.332 OA
ATOM     28  C   UNL     1      12.009  85.190  82.094  1.00  0.00     0.180 C 
ATOM     29  C   UNL     1       9.563  84.574  82.605  1.00  0.00     0.179 C 
ATOM     30  C   UNL     1      10.852  85.293  83.114  1.00  0.00     0.177 C 
BRANCH  26  31
ATOM     31  O   UNL     1      12.415  85.021  79.710  1.00  0.00    -0.384 OA
ATOM     32  H   UNL     1      13.290  84.883  80.159  1.00  0.00     0.211 HD
ENDBRANCH  26  31
BRANCH  28  33
ATOM     33  O   UNL     1      12.512  83.876  82.083  1.00  0.00    -0.387 OA
ATOM     34  H   UNL     1      11.730  83.268  82.015  1.00  0.00     0.211 HD
ENDBRANCH  28  33
BRANCH  29  35
ATOM     35  C   UNL     1       9.195  83.382  83.499  1.00  0.00     0.191 C 
BRANCH  35  36
ATOM     36  O   UNL     1      10.350  82.862  84.107  1.00  0.00    -0.394 OA
ATOM     37  H   UNL     1      10.307  83.138  85.060  1.00  0.00     0.210 HD
ENDBRANCH  35  36
ENDBRANCH  29  35
BRANCH  30  38
ATOM     38  O   UNL     1      10.571  86.632  83.450  1.00  0.00    -0.387 OA
ATOM     39  H   UNL     1      11.226  87.215  82.991  1.00  0.00     0.211 HD
ENDBRANCH  30  38
ENDBRANCH   1  25
TORSDOF 11
ENDMDL
MODEL 4
REMARK VINA RESULT:    -6.199      2.500      6.803
REMARK INTER + INTRA:         -10.449
REMARK INTER:                  -8.739
REMARK INTRA:                  -1.710
REMARK UNBOUND:                -1.532
REMARK SMILES O=c1c(O[C@@H]2O[C@@H](CO)[C@H](O)[C@@H](O)[C@H]2O)c(-c2ccc(O)cc2)oc2cc(O)cc(O)c12
REMARK SMILES IDX 4 1 3 2 16 3 24 4 2 5 25 6 1 7 32 8 26 9 30 10 27 11 29 12
REMARK SMILES IDX 17 13 18 14 19 15 20 16 23 17 22 18 21 19 31 21 28 23 5 25
REMARK SMILES IDX 14 26 6 27 12 28 7 29 10 30 15 31 13 33 8 35 9 36 11 38
REMARK H PARENT 21 20 31 22 28 24 15 32 13 34 9 37 11 39
REMARK Flexibility Score: inf
ROOT
ATOM      1  O   UNL     1       9.657  86.273  81.401  1.00  0.00    -0.454 OA
ENDROOT
BRANCH   1   2
ATOM      2  C   UNL     1      10.054  87.162  80.381  1.00  0.00     0.214 A 
ATOM      3  C   UNL     1       9.267  87.220  79.215  1.00  0.00     0.180 A 
ATOM      4  O   UNL     1       9.646  87.971  78.187  1.00  0.00    -0.452 OA
ATOM      5  C   UNL     1      11.213  87.966  80.448  1.00  0.00     0.239 A 
ATOM      6  C   UNL     1      10.737  88.724  78.200  1.00  0.00     0.146 A 
ATOM      7  O   UNL     1      11.923  87.973  81.488  1.00  0.00    -0.285 OA
ATOM      8  C   UNL     1      11.570  88.766  79.342  1.00  0.00     0.111 A 
ATOM      9  C   UNL     1      11.053  89.481  77.068  1.00  0.00     0.094 A 
ATOM     10  C   UNL     1      12.718  89.598  79.326  1.00  0.00     0.134 A 
ATOM     11  C   UNL     1      12.191  90.292  77.055  1.00  0.00     0.123 A 
ATOM     12  C   UNL     1      13.017  90.350  78.181  1.00  0.00     0.093 A 
BRANCH   3  13
ATOM     13  C   UNL     1       8.025  86.426  79.078  1.00  0.00     0.021 A 
ATOM     14  C   UNL     1       6.822  86.926  79.601  1.00  0.00     0.016 A 
ATOM     15  C   UNL     1       5.639  86.189  79.482  1.00  0.00     0.047 A 
ATOM     16  C   UNL     1       5.651  84.936  78.852  1.00  0.00     0.115 A 
ATOM     17  C   UNL     1       8.033  85.163  78.460  1.00  0.00     0.016 A 
ATOM     18  C   UNL     1       6.850  84.426  78.345  1.00  0.00     0.047 A 
BRANCH  16  19
ATOM     19  O   UNL     1       4.479  84.193  78.727  1.00  0.00    -0.508 OA
ATOM     20  H   UNL     1       3.951  83.897  79.538  1.00  0.00     0.293 HD
ENDBRANCH  16  19
ENDBRANCH   3  13
BRANCH  10  21
ATOM     21  O   UNL     1      13.556  89.687  80.436  1.00  0.00    -0.507 OA
ATOM     22  H   UNL     1      13.485  89.040  81.212  1.00  0.00     0.293 HD
ENDBRANCH  10  21
BRANCH  11  23
ATOM     23  O   UNL     1      12.512  91.047  75.929  1.00  0.00    -0.508 OA
ATOM     24  H   UNL     1      11.934  91.030  75.098  1.00  0.00     0.293 HD
ENDBRANCH  11  23
ENDBRANCH   1   2
BRANCH   1  25
ATOM     25  C   UNL     1      10.158  84.954  81.647  1.00  0.00     0.339 C 
ATOM     26  C   UNL     1      10.707  84.860  83.092  1.00  0.00     0.214 C 
ATOM     27  O   UNL     1       9.165  83.967  81.407  1.00  0.00    -0.332 OA
ATOM     28  C   UNL     1       9.744  84.098  84.035  1.00  0.00     0.180 C 
ATOM     29  C   UNL     1       7.984  84.208  82.162  1.00  0.00     0.179 C 
ATOM     30  C   UNL     1       8.264  84.379  83.688  1.00  0.00     0.177 C 
BRANCH  26  31
ATOM     31  O   UNL     1      11.967  84.234  83.079  1.00  0.00    -0.384 OA
ATOM     32  H   UNL     1      12.390  84.420  83.959  1.00  0.00     0.211 HD
ENDBRANCH  26  31
BRANCH  28  33
ATOM     33  O   UNL     1       9.995  82.716  83.946  1.00  0.00    -0.387 OA
ATOM     34  H   UNL     1       9.963  82.356  84.872  1.00  0.00     0.211 HD
ENDBRANCH  28  33
BRANCH  29  35
ATOM     35  C   UNL     1       7.006  83.055  81.897  1.00  0.00     0.191 C 
BRANCH  35  36
ATOM     36  O   UNL     1       7.479  81.876  82.495  1.00  0.00    -0.394 OA
ATOM     37  H   UNL     1       7.445  82.032  83.476  1.00  0.00     0.210 HD
ENDBRANCH  35  36
ENDBRANCH  29  35
BRANCH  30  38
ATOM     38  O   UNL     1       7.860  85.656  84.124  1.00  0.00    -0.387 OA
ATOM     39  H   UNL     1       7.800  85.646  85.112  1.00  0.00     0.211 HD
ENDBRANCH  30  38
ENDBRANCH   1  25
TORSDOF 11
ENDMDL
MODEL 5
REMARK VINA RESULT:    -6.164      2.138      6.550
REMARK INTER + INTRA:         -10.399
REMARK INTER:                  -9.983
REMARK INTRA:                  -0.416
REMARK UNBOUND:                -1.532
REMARK SMILES O=c1c(O[C@@H]2O[C@@H](CO)[C@H](O)[C@@H](O)[C@H]2O)c(-c2ccc(O)cc2)oc2cc(O)cc(O)c12
REMARK SMILES IDX 4 1 3 2 16 3 24 4 2 5 25 6 1 7 32 8 26 9 30 10 27 11 29 12
REMARK SMILES IDX 17 13 18 14 19 15 20 16 23 17 22 18 21 19 31 21 28 23 5 25
REMARK SMILES IDX 14 26 6 27 12 28 7 29 10 30 15 31 13 33 8 35 9 36 11 38
REMARK H PARENT 21 20 31 22 28 24 15 32 13 34 9 37 11 39
REMARK Flexibility Score: inf
ROOT
ATOM      1  O   UNL     1       8.996  84.628  81.324  1.00  0.00    -0.454 OA
ENDROOT
BRANCH   1   2
ATOM      2  C   UNL     1       9.579  85.488  80.372  1.00  0.00     0.214 A 
ATOM      3  C   UNL     1       9.127  85.402  79.041  1.00  0.00     0.180 A 
ATOM      4  O   UNL     1       9.706  86.123  78.089  1.00  0.00    -0.452 OA
ATOM      5  C   UNL     1      10.614  86.402  80.670  1.00  0.00     0.239 A 
ATOM      6  C   UNL     1      10.694  86.977  78.321  1.00  0.00     0.146 A 
ATOM      7  O   UNL     1      11.021  86.539  81.855  1.00  0.00    -0.285 OA
ATOM      8  C   UNL     1      11.189  87.166  79.632  1.00  0.00     0.111 A 
ATOM      9  C   UNL     1      11.239  87.692  77.251  1.00  0.00     0.094 A 
ATOM     10  C   UNL     1      12.232  88.102  79.845  1.00  0.00     0.134 A 
ATOM     11  C   UNL     1      12.274  88.606  77.466  1.00  0.00     0.123 A 
ATOM     12  C   UNL     1      12.765  88.809  78.759  1.00  0.00     0.093 A 
BRANCH   3  13
ATOM     13  C   UNL     1       8.031  84.486  78.654  1.00  0.00     0.021 A 
ATOM     14  C   UNL     1       6.736  84.996  78.466  1.00  0.00     0.016 A 
ATOM     15  C   UNL     1       5.688  84.145  78.100  1.00  0.00     0.047 A 
ATOM     16  C   UNL     1       5.921  82.772  77.935  1.00  0.00     0.115 A 
ATOM     17  C   UNL     1       8.254  83.106  78.501  1.00  0.00     0.016 A 
ATOM     18  C   UNL     1       7.204  82.257  78.139  1.00  0.00     0.047 A 
BRANCH  16  19
ATOM     19  O   UNL     1       4.884  81.915  77.571  1.00  0.00    -0.508 OA
ATOM     20  H   UNL     1       4.752  81.021  78.026  1.00  0.00     0.293 HD
ENDBRANCH  16  19
ENDBRANCH   3  13
BRANCH  10  21
ATOM     21  O   UNL     1      12.737  88.336  81.123  1.00  0.00    -0.507 OA
ATOM     22  H   UNL     1      12.414  87.814  81.929  1.00  0.00     0.293 HD
ENDBRANCH  10  21
BRANCH  11  23
ATOM     23  O   UNL     1      12.822  89.321  76.403  1.00  0.00    -0.508 OA
ATOM     24  H   UNL     1      12.975  88.891  75.499  1.00  0.00     0.293 HD
ENDBRANCH  11  23
ENDBRANCH   1   2
BRANCH   1  25
ATOM     25  C   UNL     1       8.417  84.990  82.583  1.00  0.00     0.339 C 
ATOM     26  C   UNL     1       6.995  85.562  82.363  1.00  0.00     0.214 C 
ATOM     27  O   UNL     1       8.398  83.892  83.483  1.00  0.00    -0.332 OA
ATOM     28  C   UNL     1       5.890  84.547  82.747  1.00  0.00     0.180 C 
ATOM     29  C   UNL     1       7.736  82.762  82.928  1.00  0.00     0.179 C 
ATOM     30  C   UNL     1       6.304  83.097  82.404  1.00  0.00     0.177 C 
BRANCH  26  31
ATOM     31  O   UNL     1       6.842  86.747  83.105  1.00  0.00    -0.384 OA
ATOM     32  H   UNL     1       6.943  86.502  84.063  1.00  0.00     0.211 HD
ENDBRANCH  26  31
BRANCH  28  33
ATOM     33  O   UNL     1       5.619  84.646  84.125  1.00  0.00    -0.387 OA
ATOM     34  H   UNL     1       6.053  85.480  84.446  1.00  0.00     0.211 HD
ENDBRANCH  28  33
BRANCH  29  35
ATOM     35  C   UNL     1       7.698  81.660  83.996  1.00  0.00     0.191 C 
BRANCH  35  36
ATOM     36  O   UNL     1       7.541  80.405  83.388  1.00  0.00    -0.394 OA
ATOM     37  H   UNL     1       6.725  80.472  82.824  1.00  0.00     0.210 HD
ENDBRANCH  35  36
ENDBRANCH  29  35
BRANCH  30  38
ATOM     38  O   UNL     1       6.212  82.843  81.021  1.00  0.00    -0.387 OA
ATOM     39  H   UNL     1       7.059  82.426  80.722  1.00  0.00     0.211 HD
ENDBRANCH  30  38
ENDBRANCH   1  25
TORSDOF 11
ENDMDL
MODEL 6
REMARK VINA RESULT:    -6.067      1.788      2.611
REMARK INTER + INTRA:         -10.259
REMARK INTER:                  -9.389
REMARK INTRA:                  -0.870
REMARK UNBOUND:                -1.532
REMARK SMILES O=c1c(O[C@@H]2O[C@@H](CO)[C@H](O)[C@@H](O)[C@H]2O)c(-c2ccc(O)cc2)oc2cc(O)cc(O)c12
REMARK SMILES IDX 4 1 3 2 16 3 24 4 2 5 25 6 1 7 32 8 26 9 30 10 27 11 29 12
REMARK SMILES IDX 17 13 18 14 19 15 20 16 23 17 22 18 21 19 31 21 28 23 5 25
REMARK SMILES IDX 14 26 6 27 12 28 7 29 10 30 15 31 13 33 8 35 9 36 11 38
REMARK H PARENT 21 20 31 22 28 24 15 32 13 34 9 37 11 39
REMARK Flexibility Score: inf
ROOT
ATOM      1  O   UNL     1       8.984  85.846  81.600  1.00  0.00    -0.454 OA
ENDROOT
BRANCH   1   2
ATOM      2  C   UNL     1       8.019  85.282  80.740  1.00  0.00     0.214 A 
ATOM      3  C   UNL     1       8.135  85.539  79.360  1.00  0.00     0.180 A 
ATOM      4  O   UNL     1       7.203  85.109  78.518  1.00  0.00    -0.452 OA
ATOM      5  C   UNL     1       6.926  84.508  81.188  1.00  0.00     0.239 A 
ATOM      6  C   UNL     1       6.150  84.398  78.898  1.00  0.00     0.146 A 
ATOM      7  O   UNL     1       6.807  84.222  82.409  1.00  0.00    -0.285 OA
ATOM      8  C   UNL     1       5.968  84.052  80.257  1.00  0.00     0.111 A 
ATOM      9  C   UNL     1       5.223  83.991  77.936  1.00  0.00     0.094 A 
ATOM     10  C   UNL     1       4.841  83.274  80.624  1.00  0.00     0.134 A 
ATOM     11  C   UNL     1       4.109  83.232  78.305  1.00  0.00     0.123 A 
ATOM     12  C   UNL     1       3.922  82.875  79.643  1.00  0.00     0.093 A 
BRANCH   3  13
ATOM     13  C   UNL     1       9.265  86.322  78.811  1.00  0.00     0.021 A 
ATOM     14  C   UNL     1       9.287  87.716  78.975  1.00  0.00     0.016 A 
ATOM     15  C   UNL     1      10.346  88.471  78.461  1.00  0.00     0.047 A 
ATOM     16  C   UNL     1      11.386  87.841  77.762  1.00  0.00     0.115 A 
ATOM     17  C   UNL     1      10.303  85.698  78.096  1.00  0.00     0.016 A 
ATOM     18  C   UNL     1      11.359  86.456  77.580  1.00  0.00     0.047 A 
BRANCH  16  19
ATOM     19  O   UNL     1      12.446  88.584  77.246  1.00  0.00    -0.508 OA
ATOM     20  H   UNL     1      13.308  88.705  77.764  1.00  0.00     0.293 HD
ENDBRANCH  16  19
ENDBRANCH   3  13
BRANCH  10  21
ATOM     21  O   UNL     1       4.632  82.892  81.948  1.00  0.00    -0.507 OA
ATOM     22  H   UNL     1       4.761  81.935  82.255  1.00  0.00     0.293 HD
ENDBRANCH  10  21
BRANCH  11  23
ATOM     23  O   UNL     1       3.179  82.824  77.350  1.00  0.00    -0.508 OA
ATOM     24  H   UNL     1       3.469  82.461  76.450  1.00  0.00     0.293 HD
ENDBRANCH  11  23
ENDBRANCH   1   2
BRANCH   1  25
ATOM     25  C   UNL     1       9.419  85.341  82.867  1.00  0.00     0.339 C 
ATOM     26  C   UNL     1      10.086  83.955  82.680  1.00  0.00     0.214 C 
ATOM     27  O   UNL     1      10.293  86.251  83.518  1.00  0.00    -0.332 OA
ATOM     28  C   UNL     1      11.630  84.032  82.776  1.00  0.00     0.180 C 
ATOM     29  C   UNL     1      11.406  86.594  82.702  1.00  0.00     0.179 C 
ATOM     30  C   UNL     1      12.175  85.345  82.168  1.00  0.00     0.177 C 
BRANCH  26  31
ATOM     31  O   UNL     1       9.586  83.056  83.640  1.00  0.00    -0.384 OA
ATOM     32  H   UNL     1       8.771  82.643  83.250  1.00  0.00     0.211 HD
ENDBRANCH  26  31
BRANCH  28  33
ATOM     33  O   UNL     1      12.022  83.939  84.125  1.00  0.00    -0.387 OA
ATOM     34  H   UNL     1      11.648  84.733  84.590  1.00  0.00     0.211 HD
ENDBRANCH  28  33
BRANCH  29  35
ATOM     35  C   UNL     1      12.328  87.514  83.515  1.00  0.00     0.191 C 
BRANCH  35  36
ATOM     36  O   UNL     1      13.362  86.765  84.098  1.00  0.00    -0.394 OA
ATOM     37  H   UNL     1      13.048  86.525  85.010  1.00  0.00     0.210 HD
ENDBRANCH  35  36
ENDBRANCH  29  35
BRANCH  30  38
ATOM     38  O   UNL     1      12.152  85.315  80.760  1.00  0.00    -0.387 OA
ATOM     39  H   UNL     1      11.309  85.731  80.450  1.00  0.00     0.211 HD
ENDBRANCH  30  38
ENDBRANCH   1  25
TORSDOF 11
ENDMDL
MODEL 7
REMARK VINA RESULT:    -5.900      2.285      7.198
REMARK INTER + INTRA:         -10.019
REMARK INTER:                  -8.546
REMARK INTRA:                  -1.472
REMARK UNBOUND:                -1.532
REMARK SMILES O=c1c(O[C@@H]2O[C@@H](CO)[C@H](O)[C@@H](O)[C@H]2O)c(-c2ccc(O)cc2)oc2cc(O)cc(O)c12
REMARK SMILES IDX 4 1 3 2 16 3 24 4 2 5 25 6 1 7 32 8 26 9 30 10 27 11 29 12
REMARK SMILES IDX 17 13 18 14 19 15 20 16 23 17 22 18 21 19 31 21 28 23 5 25
REMARK SMILES IDX 14 26 6 27 12 28 7 29 10 30 15 31 13 33 8 35 9 36 11 38
REMARK H PARENT 21 20 31 22 28 24 15 32 13 34 9 37 11 39
REMARK Flexibility Score: inf
ROOT
ATOM      1  O   UNL     1       9.336  86.000  81.175  1.00  0.00    -0.454 OA
ENDROOT
BRANCH   1   2
ATOM      2  C   UNL     1      10.450  86.860  81.103  1.00  0.00     0.214 A 
ATOM      3  C   UNL     1      10.610  87.636  79.939  1.00  0.00     0.180 A 
ATOM      4  O   UNL     1      11.689  88.394  79.782  1.00  0.00    -0.452 OA
ATOM      5  C   UNL     1      11.431  86.959  82.114  1.00  0.00     0.239 A 
ATOM      6  C   UNL     1      12.645  88.499  80.696  1.00  0.00     0.146 A 
ATOM      7  O   UNL     1      11.307  86.311  83.188  1.00  0.00    -0.285 OA
ATOM      8  C   UNL     1      12.554  87.792  81.917  1.00  0.00     0.111 A 
ATOM      9  C   UNL     1      13.743  89.323  80.437  1.00  0.00     0.094 A 
ATOM     10  C   UNL     1      13.584  87.944  82.878  1.00  0.00     0.134 A 
ATOM     11  C   UNL     1      14.761  89.462  81.385  1.00  0.00     0.123 A 
ATOM     12  C   UNL     1      14.678  88.775  82.600  1.00  0.00     0.093 A 
BRANCH   3  13
ATOM     13  C   UNL     1       9.613  87.607  78.846  1.00  0.00     0.021 A 
ATOM     14  C   UNL     1       9.797  86.731  77.764  1.00  0.00     0.016 A 
ATOM     15  C   UNL     1       8.865  86.690  76.721  1.00  0.00     0.047 A 
ATOM     16  C   UNL     1       7.748  87.538  76.742  1.00  0.00     0.115 A 
ATOM     17  C   UNL     1       8.498  88.465  78.853  1.00  0.00     0.016 A 
ATOM     18  C   UNL     1       7.570  88.425  77.807  1.00  0.00     0.047 A 
BRANCH  16  19
ATOM     19  O   UNL     1       6.814  87.506  75.709  1.00  0.00    -0.508 OA
ATOM     20  H   UNL     1       6.051  86.840  75.706  1.00  0.00     0.293 HD
ENDBRANCH  16  19
ENDBRANCH   3  13
BRANCH  10  21
ATOM     21  O   UNL     1      13.527  87.282  84.104  1.00  0.00    -0.507 OA
ATOM     22  H   UNL     1      14.225  87.429  84.823  1.00  0.00     0.293 HD
ENDBRANCH  10  21
BRANCH  11  23
ATOM     23  O   UNL     1      15.860  90.280  81.132  1.00  0.00    -0.508 OA
ATOM     24  H   UNL     1      16.450  90.620  81.881  1.00  0.00     0.293 HD
ENDBRANCH  11  23
ENDBRANCH   1   2
BRANCH   1  25
ATOM     25  C   UNL     1       9.347  84.575  81.325  1.00  0.00     0.339 C 
ATOM     26  C   UNL     1       8.472  84.167  82.536  1.00  0.00     0.214 C 
ATOM     27  O   UNL     1       8.920  83.924  80.137  1.00  0.00    -0.332 OA
ATOM     28  C   UNL     1       7.107  83.580  82.101  1.00  0.00     0.180 C 
ATOM     29  C   UNL     1       7.641  84.378  79.713  1.00  0.00     0.179 C 
ATOM     30  C   UNL     1       6.562  84.284  80.836  1.00  0.00     0.177 C 
BRANCH  26  31
ATOM     31  O   UNL     1       9.168  83.235  83.329  1.00  0.00    -0.384 OA
ATOM     32  H   UNL     1       9.928  82.902  82.781  1.00  0.00     0.211 HD
ENDBRANCH  26  31
BRANCH  28  33
ATOM     33  O   UNL     1       7.246  82.202  81.850  1.00  0.00    -0.387 OA
ATOM     34  H   UNL     1       6.872  82.034  80.945  1.00  0.00     0.211 HD
ENDBRANCH  28  33
BRANCH  29  35
ATOM     35  C   UNL     1       7.234  83.566  78.475  1.00  0.00     0.191 C 
BRANCH  35  36
ATOM     36  O   UNL     1       7.409  82.194  78.720  1.00  0.00    -0.394 OA
ATOM     37  H   UNL     1       7.308  81.742  77.841  1.00  0.00     0.210 HD
ENDBRANCH  35  36
ENDBRANCH  29  35
BRANCH  30  38
ATOM     38  O   UNL     1       6.045  85.561  81.133  1.00  0.00    -0.387 OA
ATOM     39  H   UNL     1       5.057  85.502  81.153  1.00  0.00     0.211 HD
ENDBRANCH  30  38
ENDBRANCH   1  25
TORSDOF 11
ENDMDL
MODEL 8
REMARK VINA RESULT:    -5.825      2.694      7.194
REMARK INTER + INTRA:          -9.911
REMARK INTER:                  -8.407
REMARK INTRA:                  -1.504
REMARK UNBOUND:                -1.532
REMARK SMILES O=c1c(O[C@@H]2O[C@@H](CO)[C@H](O)[C@@H](O)[C@H]2O)c(-c2ccc(O)cc2)oc2cc(O)cc(O)c12
REMARK SMILES IDX 4 1 3 2 16 3 24 4 2 5 25 6 1 7 32 8 26 9 30 10 27 11 29 12
REMARK SMILES IDX 17 13 18 14 19 15 20 16 23 17 22 18 21 19 31 21 28 23 5 25
REMARK SMILES IDX 14 26 6 27 12 28 7 29 10 30 15 31 13 33 8 35 9 36 11 38
REMARK H PARENT 21 20 31 22 28 24 15 32 13 34 9 37 11 39
REMARK Flexibility Score: inf
ROOT
ATOM      1  O   UNL     1       8.440  86.043  79.432  1.00  0.00    -0.454 OA
ENDROOT
BRANCH   1   2
ATOM      2  C   UNL     1       9.486  86.966  79.631  1.00  0.00     0.214 A 
ATOM      3  C   UNL     1       9.452  88.169  78.900  1.00  0.00     0.180 A 
ATOM      4  O   UNL     1      10.458  89.032  78.980  1.00  0.00    -0.452 OA
ATOM      5  C   UNL     1      10.582  86.736  80.492  1.00  0.00     0.239 A 
ATOM      6  C   UNL     1      11.516  88.846  79.759  1.00  0.00     0.146 A 
ATOM      7  O   UNL     1      10.632  85.691  81.193  1.00  0.00    -0.285 OA
ATOM      8  C   UNL     1      11.622  87.688  80.565  1.00  0.00     0.111 A 
ATOM      9  C   UNL     1      12.525  89.812  79.775  1.00  0.00     0.094 A 
ATOM     10  C   UNL     1      12.758  87.533  81.399  1.00  0.00     0.134 A 
ATOM     11  C   UNL     1      13.647  89.648  80.593  1.00  0.00     0.123 A 
ATOM     12  C   UNL     1      13.759  88.513  81.401  1.00  0.00     0.093 A 
BRANCH   3  13
ATOM     13  C   UNL     1       8.326  88.494  77.996  1.00  0.00     0.021 A 
ATOM     14  C   UNL     1       7.306  89.352  78.439  1.00  0.00     0.016 A 
ATOM     15  C   UNL     1       6.235  89.669  77.598  1.00  0.00     0.047 A 
ATOM     16  C   UNL     1       6.163  89.118  76.311  1.00  0.00     0.115 A 
ATOM     17  C   UNL     1       8.241  87.934  76.708  1.00  0.00     0.016 A 
ATOM     18  C   UNL     1       7.166  88.250  75.871  1.00  0.00     0.047 A 
BRANCH  16  19
ATOM     19  O   UNL     1       5.100  89.428  75.464  1.00  0.00    -0.508 OA
ATOM     20  H   UNL     1       4.950  90.370  75.127  1.00  0.00     0.293 HD
ENDBRANCH  16  19
ENDBRANCH   3  13
BRANCH  10  21
ATOM     21  O   UNL     1      12.895  86.418  82.225  1.00  0.00    -0.507 OA
ATOM     22  H   UNL     1      12.186  86.166  82.904  1.00  0.00     0.293 HD
ENDBRANCH  10  21
BRANCH  11  23
ATOM     23  O   UNL     1      14.658  90.607  80.612  1.00  0.00    -0.508 OA
ATOM     24  H   UNL     1      15.636  90.346  80.607  1.00  0.00     0.293 HD
ENDBRANCH  11  23
ENDBRANCH   1   2
BRANCH   1  25
ATOM     25  C   UNL     1       7.186  85.989  80.124  1.00  0.00     0.339 C 
ATOM     26  C   UNL     1       6.060  85.583  79.141  1.00  0.00     0.214 C 
ATOM     27  O   UNL     1       7.243  85.108  81.236  1.00  0.00    -0.332 OA
ATOM     28  C   UNL     1       5.624  84.110  79.327  1.00  0.00     0.180 C 
ATOM     29  C   UNL     1       7.670  83.804  80.859  1.00  0.00     0.179 C 
ATOM     30  C   UNL     1       6.821  83.203  79.694  1.00  0.00     0.177 C 
BRANCH  26  31
ATOM     31  O   UNL     1       4.956  86.439  79.308  1.00  0.00    -0.384 OA
ATOM     32  H   UNL     1       4.273  86.162  78.642  1.00  0.00     0.211 HD
ENDBRANCH  26  31
BRANCH  28  33
ATOM     33  O   UNL     1       4.647  84.032  80.337  1.00  0.00    -0.387 OA
ATOM     34  H   UNL     1       4.310  83.098  80.342  1.00  0.00     0.211 HD
ENDBRANCH  28  33
BRANCH  29  35
ATOM     35  C   UNL     1       7.624  82.909  82.105  1.00  0.00     0.191 C 
BRANCH  35  36
ATOM     36  O   UNL     1       6.297  82.555  82.395  1.00  0.00    -0.394 OA
ATOM     37  H   UNL     1       5.939  82.131  81.571  1.00  0.00     0.210 HD
ENDBRANCH  35  36
ENDBRANCH  29  35
BRANCH  30  38
ATOM     38  O   UNL     1       7.636  82.937  78.576  1.00  0.00    -0.387 OA
ATOM     39  H   UNL     1       7.058  82.871  77.775  1.00  0.00     0.211 HD
ENDBRANCH  30  38
ENDBRANCH   1  25
TORSDOF 11
ENDMDL
MODEL 9
REMARK VINA RESULT:    -5.808      3.145      5.894
REMARK INTER + INTRA:          -9.887
REMARK INTER:                  -8.763
REMARK INTRA:                  -1.124
REMARK UNBOUND:                -1.532
REMARK SMILES O=c1c(O[C@@H]2O[C@@H](CO)[C@H](O)[C@@H](O)[C@H]2O)c(-c2ccc(O)cc2)oc2cc(O)cc(O)c12
REMARK SMILES IDX 4 1 3 2 16 3 24 4 2 5 25 6 1 7 32 8 26 9 30 10 27 11 29 12
REMARK SMILES IDX 17 13 18 14 19 15 20 16 23 17 22 18 21 19 31 21 28 23 5 25
REMARK SMILES IDX 14 26 6 27 12 28 7 29 10 30 15 31 13 33 8 35 9 36 11 38
REMARK H PARENT 21 20 31 22 28 24 15 32 13 34 9 37 11 39
REMARK Flexibility Score: inf
ROOT
ATOM      1  O   UNL     1       9.477  86.321  79.400  1.00  0.00    -0.454 OA
ENDROOT
BRANCH   1   2
ATOM      2  C   UNL     1       8.667  87.181  78.632  1.00  0.00     0.214 A 
ATOM      3  C   UNL     1       7.280  86.937  78.611  1.00  0.00     0.180 A 
ATOM      4  O   UNL     1       6.484  87.659  77.832  1.00  0.00    -0.452 OA
ATOM      5  C   UNL     1       9.171  88.248  77.855  1.00  0.00     0.239 A 
ATOM      6  C   UNL     1       6.918  88.656  77.071  1.00  0.00     0.146 A 
ATOM      7  O   UNL     1      10.400  88.525  77.876  1.00  0.00    -0.285 OA
ATOM      8  C   UNL     1       8.288  89.006  77.057  1.00  0.00     0.111 A 
ATOM      9  C   UNL     1       6.001  89.358  76.285  1.00  0.00     0.094 A 
ATOM     10  C   UNL     1       8.713  90.089  76.246  1.00  0.00     0.134 A 
ATOM     11  C   UNL     1       6.428  90.419  75.481  1.00  0.00     0.123 A 
ATOM     12  C   UNL     1       7.778  90.781  75.465  1.00  0.00     0.093 A 
BRANCH   3  13
ATOM     13  C   UNL     1       6.672  85.854  79.415  1.00  0.00     0.021 A 
ATOM     14  C   UNL     1       6.405  84.612  78.817  1.00  0.00     0.016 A 
ATOM     15  C   UNL     1       5.830  83.578  79.562  1.00  0.00     0.047 A 
ATOM     16  C   UNL     1       5.500  83.780  80.910  1.00  0.00     0.115 A 
ATOM     17  C   UNL     1       6.326  86.055  80.764  1.00  0.00     0.016 A 
ATOM     18  C   UNL     1       5.747  85.020  81.506  1.00  0.00     0.047 A 
BRANCH  16  19
ATOM     19  O   UNL     1       4.928  82.756  81.663  1.00  0.00    -0.508 OA
ATOM     20  H   UNL     1       5.088  82.679  82.659  1.00  0.00     0.293 HD
ENDBRANCH  16  19
ENDBRANCH   3  13
BRANCH  10  21
ATOM     21  O   UNL     1      10.050  90.483  76.216  1.00  0.00    -0.507 OA
ATOM     22  H   UNL     1      10.319  91.459  76.214  1.00  0.00     0.293 HD
ENDBRANCH  10  21
BRANCH  11  23
ATOM     23  O   UNL     1       5.519  91.123  74.693  1.00  0.00    -0.508 OA
ATOM     24  H   UNL     1       4.851  90.645  74.101  1.00  0.00     0.293 HD
ENDBRANCH  11  23
ENDBRANCH   1   2
BRANCH   1  25
ATOM     25  C   UNL     1       9.817  86.454  80.785  1.00  0.00     0.339 C 
ATOM     26  C   UNL     1      10.116  85.060  81.390  1.00  0.00     0.214 C 
ATOM     27  O   UNL     1      10.910  87.342  80.969  1.00  0.00    -0.332 OA
ATOM     28  C   UNL     1      11.632  84.821  81.587  1.00  0.00     0.180 C 
ATOM     29  C   UNL     1      12.045  86.953  80.205  1.00  0.00     0.179 C 
ATOM     30  C   UNL     1      12.463  85.470  80.456  1.00  0.00     0.177 C 
BRANCH  26  31
ATOM     31  O   UNL     1       9.441  84.924  82.618  1.00  0.00    -0.384 OA
ATOM     32  H   UNL     1       8.477  84.812  82.406  1.00  0.00     0.211 HD
ENDBRANCH  26  31
BRANCH  28  33
ATOM     33  O   UNL     1      12.035  85.347  82.828  1.00  0.00    -0.387 OA
ATOM     34  H   UNL     1      11.244  85.312  83.427  1.00  0.00     0.211 HD
ENDBRANCH  28  33
BRANCH  29  35
ATOM     35  C   UNL     1      13.191  87.921  80.529  1.00  0.00     0.191 C 
BRANCH  35  36
ATOM     36  O   UNL     1      14.253  87.726  79.631  1.00  0.00    -0.394 OA
ATOM     37  H   UNL     1      13.884  87.192  78.879  1.00  0.00     0.210 HD
ENDBRANCH  35  36
ENDBRANCH  29  35
BRANCH  30  38
ATOM     38  O   UNL     1      12.387  84.727  79.261  1.00  0.00    -0.387 OA
ATOM     39  H   UNL     1      12.670  83.798  79.450  1.00  0.00     0.211 HD
ENDBRANCH  30  38
ENDBRANCH   1  25
TORSDOF 11
ENDMDL
