MODEL 1
REMARK VINA RESULT:    -2.949      0.000      0.000
REMARK INTER + INTRA:          -3.208
REMARK INTER:                  -3.208
REMARK INTRA:                   0.000
REMARK UNBOUND:                 0.000
REMARK SMILES [NH3+]CC(=O)[O-]
REMARK SMILES IDX 2 1 1 2 3 6 4 7 5 8
REMARK H PARENT 1 3 1 4 1 5
REMARK Flexibility Score: inf
ROOT
ATOM      1  C   UNL     1     -26.026  11.203  14.510  1.00  0.00     0.312 C 
ENDROOT
BRANCH   1   2
ATOM      2  N   UNL     1     -25.029  11.159  15.578  1.00  0.00    -0.353 N 
ATOM      3  H   UNL     1     -24.103  10.899  15.170  1.00  0.00     0.344 HD
ATOM      4  H   UNL     1     -24.949  12.097  16.032  1.00  0.00     0.344 HD
ATOM      5  H   UNL     1     -25.299  10.442  16.291  1.00  0.00     0.344 HD
ENDBRANCH   1   2
BRANCH   1   6
ATOM      6  C   UNL     1     -27.344  10.679  14.994  1.00  0.00     0.096 C 
ATOM      7  O   UNL     1     -27.461   9.469  15.322  1.00  0.00    -0.544 OA
ATOM      8  O   UNL     1     -28.452  11.514  15.033  1.00  0.00    -0.544 OA
ENDBRANCH   1   6
TORSDOF 2
ENDMDL
MODEL 2
REMARK VINA RESULT:    -2.899      0.137      1.454
REMARK INTER + INTRA:          -3.153
REMARK INTER:                  -3.153
REMARK INTRA:                   0.000
REMARK UNBOUND:                 0.000
REMARK SMILES [NH3+]CC(=O)[O-]
REMARK SMILES IDX 2 1 1 2 3 6 4 7 5 8
REMARK H PARENT 1 3 1 4 1 5
REMARK Flexibility Score: inf
ROOT
ATOM      1  C   UNL     1     -25.998  11.359  14.503  1.00  0.00     0.312 C 
ENDROOT
BRANCH   1   2
ATOM      2  N   UNL     1     -24.984  11.078  15.517  1.00  0.00    -0.353 N 
ATOM      3  H   UNL     1     -24.298  10.389  15.132  1.00  0.00     0.344 HD
ATOM      4  H   UNL     1     -24.477  11.956  15.772  1.00  0.00     0.344 HD
ATOM      5  H   UNL     1     -25.433  10.669  16.370  1.00  0.00     0.344 HD
ENDBRANCH   1   2
BRANCH   1   6
ATOM      6  C   UNL     1     -27.335  10.835  14.932  1.00  0.00     0.096 C 
ATOM      7  O   UNL     1     -28.331  11.603  14.973  1.00  0.00    -0.544 OA
ATOM      8  O   UNL     1     -27.466   9.513  15.336  1.00  0.00    -0.544 OA
ENDBRANCH   1   6
TORSDOF 2
ENDMDL
MODEL 3
REMARK VINA RESULT:    -2.842      8.179      8.249
REMARK INTER + INTRA:          -3.091
REMARK INTER:                  -3.091
REMARK INTRA:                   0.000
REMARK UNBOUND:                 0.000
REMARK SMILES [NH3+]CC(=O)[O-]
REMARK SMILES IDX 2 1 1 2 3 6 4 7 5 8
REMARK H PARENT 1 3 1 4 1 5
REMARK Flexibility Score: inf
ROOT
ATOM      1  C   UNL     1     -18.882  11.894  15.133  1.00  0.00     0.312 C 
ENDROOT
BRANCH   1   2
ATOM      2  N   UNL     1     -19.250  10.588  14.590  1.00  0.00    -0.353 N 
ATOM      3  H   UNL     1     -18.517   9.890  14.851  1.00  0.00     0.344 HD
ATOM      4  H   UNL     1     -20.167  10.280  14.985  1.00  0.00     0.344 HD
ATOM      5  H   UNL     1     -19.313  10.638  13.546  1.00  0.00     0.344 HD
ENDBRANCH   1   2
BRANCH   1   6
ATOM      6  C   UNL     1     -18.875  11.860  16.631  1.00  0.00     0.096 C 
ATOM      7  O   UNL     1     -18.915  10.759  17.239  1.00  0.00    -0.544 OA
ATOM      8  O   UNL     1     -18.877  13.047  17.353  1.00  0.00    -0.544 OA
ENDBRANCH   1   6
TORSDOF 2
ENDMDL
MODEL 4
REMARK VINA RESULT:    -2.813      7.033      7.410
REMARK INTER + INTRA:          -3.059
REMARK INTER:                  -3.059
REMARK INTRA:                   0.000
REMARK UNBOUND:                 0.000
REMARK SMILES [NH3+]CC(=O)[O-]
REMARK SMILES IDX 2 1 1 2 3 6 4 7 5 8
REMARK H PARENT 1 3 1 4 1 5
REMARK Flexibility Score: inf
ROOT
ATOM      1  C   UNL     1     -21.143   9.612  17.223  1.00  0.00     0.312 C 
ENDROOT
BRANCH   1   2
ATOM      2  N   UNL     1     -20.382  10.103  16.076  1.00  0.00    -0.353 N 
ATOM      3  H   UNL     1     -19.427  10.384  16.395  1.00  0.00     0.344 HD
ATOM      4  H   UNL     1     -20.291   9.350  15.356  1.00  0.00     0.344 HD
ATOM      5  H   UNL     1     -20.859  10.936  15.659  1.00  0.00     0.344 HD
ENDBRANCH   1   2
BRANCH   1   6
ATOM      6  C   UNL     1     -20.361   9.783  18.489  1.00  0.00     0.096 C 
ATOM      7  O   UNL     1     -19.524   8.910  18.838  1.00  0.00    -0.544 OA
ATOM      8  O   UNL     1     -20.596  10.879  19.309  1.00  0.00    -0.544 OA
ENDBRANCH   1   6
TORSDOF 2
ENDMDL
MODEL 5
REMARK VINA RESULT:    -2.784      6.640      6.804
REMARK INTER + INTRA:          -3.029
REMARK INTER:                  -3.029
REMARK INTRA:                   0.000
REMARK UNBOUND:                 0.000
REMARK SMILES [NH3+]CC(=O)[O-]
REMARK SMILES IDX 2 1 1 2 3 6 4 7 5 8
REMARK H PARENT 1 3 1 4 1 5
REMARK Flexibility Score: inf
ROOT
ATOM      1  C   UNL     1     -19.623  11.100  16.464  1.00  0.00     0.312 C 
ENDROOT
BRANCH   1   2
ATOM      2  N   UNL     1     -19.624  10.457  15.151  1.00  0.00    -0.353 N 
ATOM      3  H   UNL     1     -19.831   9.440  15.269  1.00  0.00     0.344 HD
ATOM      4  H   UNL     1     -20.358  10.885  14.542  1.00  0.00     0.344 HD
ATOM      5  H   UNL     1     -18.685  10.562  14.700  1.00  0.00     0.344 HD
ENDBRANCH   1   2
BRANCH   1   6
ATOM      6  C   UNL     1     -20.691  10.517  17.338  1.00  0.00     0.096 C 
ATOM      7  O   UNL     1     -21.187   9.392  17.066  1.00  0.00    -0.544 OA
ATOM      8  O   UNL     1     -21.174  11.239  18.422  1.00  0.00    -0.544 OA
ENDBRANCH   1   6
TORSDOF 2
ENDMDL
MODEL 6
REMARK VINA RESULT:    -2.778      6.664      7.193
REMARK INTER + INTRA:          -3.022
REMARK INTER:                  -3.022
REMARK INTRA:                   0.000
REMARK UNBOUND:                 0.000
REMARK SMILES [NH3+]CC(=O)[O-]
REMARK SMILES IDX 2 1 1 2 3 6 4 7 5 8
REMARK H PARENT 1 3 1 4 1 5
REMARK Flexibility Score: inf
ROOT
ATOM      1  C   UNL     1     -20.086  10.824  16.982  1.00  0.00     0.312 C 
ENDROOT
BRANCH   1   2
ATOM      2  N   UNL     1     -19.961  10.347  15.606  1.00  0.00    -0.353 N 
ATOM      3  H   UNL     1     -19.326   9.517  15.589  1.00  0.00     0.344 HD
ATOM      4  H   UNL     1     -20.898  10.064  15.238  1.00  0.00     0.344 HD
ATOM      5  H   UNL     1     -19.556  11.098  15.001  1.00  0.00     0.344 HD
ENDBRANCH   1   2
BRANCH   1   6
ATOM      6  C   UNL     1     -20.576   9.729  17.880  1.00  0.00     0.096 C 
ATOM      7  O   UNL     1     -21.811   9.567  18.064  1.00  0.00    -0.544 OA
ATOM      8  O   UNL     1     -19.667   8.923  18.552  1.00  0.00    -0.544 OA
ENDBRANCH   1   6
TORSDOF 2
ENDMDL
MODEL 7
REMARK VINA RESULT:    -2.741      6.883      7.237
REMARK INTER + INTRA:          -2.982
REMARK INTER:                  -2.982
REMARK INTRA:                   0.000
REMARK UNBOUND:                 0.000
REMARK SMILES [NH3+]CC(=O)[O-]
REMARK SMILES IDX 2 1 1 2 3 6 4 7 5 8
REMARK H PARENT 1 3 1 4 1 5
REMARK Flexibility Score: inf
ROOT
ATOM      1  C   UNL     1     -33.791   8.458  13.463  1.00  0.00     0.312 C 
ENDROOT
BRANCH   1   2
ATOM      2  N   UNL     1     -34.570   7.272  13.812  1.00  0.00    -0.353 N 
ATOM      3  H   UNL     1     -33.924   6.535  14.177  1.00  0.00     0.344 HD
ATOM      4  H   UNL     1     -35.270   7.507  14.551  1.00  0.00     0.344 HD
ATOM      5  H   UNL     1     -35.060   6.903  12.964  1.00  0.00     0.344 HD
ENDBRANCH   1   2
BRANCH   1   6
ATOM      6  C   UNL     1     -32.329   8.218  13.691  1.00  0.00     0.096 C 
ATOM      7  O   UNL     1     -31.483   8.625  12.853  1.00  0.00    -0.544 OA
ATOM      8  O   UNL     1     -31.908   7.498  14.801  1.00  0.00    -0.544 OA
ENDBRANCH   1   6
TORSDOF 2
ENDMDL
MODEL 8
REMARK VINA RESULT:    -2.736     13.352     13.779
REMARK INTER + INTRA:          -2.976
REMARK INTER:                  -2.976
REMARK INTRA:                   0.000
REMARK UNBOUND:                 0.000
REMARK SMILES [NH3+]CC(=O)[O-]
REMARK SMILES IDX 2 1 1 2 3 6 4 7 5 8
REMARK H PARENT 1 3 1 4 1 5
REMARK Flexibility Score: inf
ROOT
ATOM      1  C   UNL     1     -38.830   3.535  14.871  1.00  0.00     0.312 C 
ENDROOT
BRANCH   1   2
ATOM      2  N   UNL     1     -39.101   4.719  15.684  1.00  0.00    -0.353 N 
ATOM      3  H   UNL     1     -40.075   4.660  16.058  1.00  0.00     0.344 HD
ATOM      4  H   UNL     1     -38.432   4.766  16.485  1.00  0.00     0.344 HD
ATOM      5  H   UNL     1     -39.014   5.583  15.099  1.00  0.00     0.344 HD
ENDBRANCH   1   2
BRANCH   1   6
ATOM      6  C   UNL     1     -37.730   2.718  15.479  1.00  0.00     0.096 C 
ATOM      7  O   UNL     1     -36.746   3.286  16.021  1.00  0.00    -0.544 OA
ATOM      8  O   UNL     1     -37.768   1.332  15.399  1.00  0.00    -0.544 OA
ENDBRANCH   1   6
TORSDOF 2
ENDMDL
MODEL 9
REMARK VINA RESULT:    -2.705      7.041      7.545
REMARK INTER + INTRA:          -2.942
REMARK INTER:                  -2.942
REMARK INTRA:                   0.000
REMARK UNBOUND:                 0.000
REMARK SMILES [NH3+]CC(=O)[O-]
REMARK SMILES IDX 2 1 1 2 3 6 4 7 5 8
REMARK H PARENT 1 3 1 4 1 5
REMARK Flexibility Score: inf
ROOT
ATOM      1  C   UNL     1     -21.433   9.531  17.563  1.00  0.00     0.312 C 
ENDROOT
BRANCH   1   2
ATOM      2  N   UNL     1     -22.622   9.455  18.410  1.00  0.00    -0.353 N 
ATOM      3  H   UNL     1     -22.330   9.235  19.389  1.00  0.00     0.344 HD
ATOM      4  H   UNL     1     -23.125  10.372  18.405  1.00  0.00     0.344 HD
ATOM      5  H   UNL     1     -23.259   8.700  18.067  1.00  0.00     0.344 HD
ENDBRANCH   1   2
BRANCH   1   6
ATOM      6  C   UNL     1     -20.238   9.949  18.365  1.00  0.00     0.096 C 
ATOM      7  O   UNL     1     -19.844  11.144  18.336  1.00  0.00    -0.544 OA
ATOM      8  O   UNL     1     -19.531   9.007  19.100  1.00  0.00    -0.544 OA
ENDBRANCH   1   6
TORSDOF 2
ENDMDL
