MODEL 1
REMARK VINA RESULT:    -3.068      0.000      0.000
REMARK INTER + INTRA:          -4.149
REMARK INTER:                  -4.682
REMARK INTRA:                   0.533
REMARK UNBOUND:                 0.533
REMARK SMILES CC1=CCC[C@@H](C)C(=O)C[C@H](C(C)C)C(=O)C1
REMARK SMILES IDX 8 1 9 2 6 3 7 4 5 5 4 6 3 7 2 8 1 9 10 11 11 12 15 13 16 14
REMARK SMILES IDX 17 15 12 17 13 18 14 19
REMARK H PARENT
REMARK Flexibility Score: 70.00
ROOT
ATOM      1  C   UNL     1      27.816  38.886  18.833  1.00  0.00     0.136 C 
ATOM      2  O   UNL     1      26.942  38.972  17.982  1.00  0.00    -0.299 OA
ENDROOT
BRANCH   1   3
ATOM      3  C   UNL     1      28.190  40.106  19.650  1.00  0.00     0.053 C 
ATOM      4  C   UNL     1      29.091  39.728  20.832  1.00  0.00     0.016 C 
BRANCH   3   5
ATOM      5  C   UNL     1      26.896  40.815  20.120  1.00  0.00     0.015 C 
BRANCH   5   6
ATOM      6  C   UNL     1      26.245  40.255  21.399  1.00  0.00     0.028 C 
BRANCH   6   7
ATOM      7  C   UNL     1      25.008  39.397  21.226  1.00  0.00    -0.028 C 
ATOM      8  C   UNL     1      24.888  38.075  21.498  1.00  0.00    -0.070 CG0
ATOM      9  C   UNL     1      23.519  37.453  21.365  1.00  0.00     0.039 C 
ATOM     10  G   UNL     1      26.054  37.166  21.846  1.00  0.00     0.000 G0
ENDBRANCH   6   7
ENDBRANCH   5   6
ENDBRANCH   3   5
ENDBRANCH   1   3
BRANCH   1  11
ATOM     11  C   UNL     1      28.555  37.579  19.005  1.00  0.00     0.087 C 
BRANCH  11  12
ATOM     12  C   UNL     1      28.269  36.911  20.381  1.00  0.00     0.066 C 
BRANCH  12  13
ATOM     13  C   UNL     1      26.775  36.709  20.594  1.00  0.00     0.140 C 
ATOM     14  O   UNL     1      26.123  36.147  19.726  1.00  0.00    -0.299 OA
BRANCH  13  15
ATOM     15  C   UNL     1      26.069  37.172  21.853  1.00  0.00     0.106 CG0
ATOM     16  G   UNL     1      24.902  38.082  21.512  1.00  0.00     0.000 G0
ENDBRANCH  13  15
ENDBRANCH  12  13
BRANCH  12  17
ATOM     17  C   UNL     1      29.075  35.588  20.565  1.00  0.00    -0.006 C 
ATOM     18  C   UNL     1      29.016  34.643  19.352  1.00  0.00     0.008 C 
ATOM     19  C   UNL     1      28.650  34.842  21.838  1.00  0.00     0.008 C 
ENDBRANCH  12  17
ENDBRANCH  11  12
ENDBRANCH   1  11
TORSDOF 1
ENDMDL
MODEL 2
REMARK VINA RESULT:    -2.970      1.777      3.712
REMARK INTER + INTRA:          -3.999
REMARK INTER:                  -4.669
REMARK INTRA:                   0.670
REMARK UNBOUND:                 0.533
REMARK SMILES CC1=CCC[C@@H](C)C(=O)C[C@H](C(C)C)C(=O)C1
REMARK SMILES IDX 8 1 9 2 6 3 7 4 5 5 4 6 3 7 2 8 1 9 10 11 11 12 15 13 16 14
REMARK SMILES IDX 17 15 12 17 13 18 14 19
REMARK H PARENT
REMARK Flexibility Score: 70.00
ROOT
ATOM      1  C   UNL     1      25.118  37.433  21.063  1.00  0.00     0.136 C 
ATOM      2  O   UNL     1      24.417  36.603  20.500  1.00  0.00    -0.299 OA
ENDROOT
BRANCH   1   3
ATOM      3  C   UNL     1      24.486  38.681  21.641  1.00  0.00     0.053 C 
ATOM      4  C   UNL     1      22.957  38.632  21.529  1.00  0.00     0.016 C 
BRANCH   3   5
ATOM      5  C   UNL     1      25.072  39.922  20.924  1.00  0.00     0.015 C 
BRANCH   5   6
ATOM      6  C   UNL     1      26.410  40.453  21.476  1.00  0.00     0.028 C 
BRANCH   6   7
ATOM      7  C   UNL     1      27.367  41.078  20.483  1.00  0.00    -0.028 C 
ATOM      8  C   UNL     1      27.613  40.665  19.215  1.00  0.00    -0.070 CG0
ATOM      9  C   UNL     1      28.519  41.520  18.362  1.00  0.00     0.039 C 
ATOM     10  G   UNL     1      27.104  39.360  18.630  1.00  0.00     0.000 G0
ENDBRANCH   6   7
ENDBRANCH   5   6
ENDBRANCH   3   5
ENDBRANCH   1   3
BRANCH   1  11
ATOM     11  C   UNL     1      26.615  37.227  21.108  1.00  0.00     0.087 C 
BRANCH  11  12
ATOM     12  C   UNL     1      27.219  36.947  19.702  1.00  0.00     0.066 C 
BRANCH  12  13
ATOM     13  C   UNL     1      27.901  38.188  19.139  1.00  0.00     0.140 C 
ATOM     14  O   UNL     1      29.122  38.233  19.114  1.00  0.00    -0.299 OA
BRANCH  13  15
ATOM     15  C   UNL     1      27.115  39.366  18.599  1.00  0.00     0.106 CG0
ATOM     16  G   UNL     1      27.602  40.666  19.216  1.00  0.00     0.000 G0
ENDBRANCH  13  15
ENDBRANCH  12  13
BRANCH  12  17
ATOM     17  C   UNL     1      28.165  35.707  19.711  1.00  0.00    -0.006 C 
ATOM     18  C   UNL     1      27.471  34.384  19.342  1.00  0.00     0.008 C 
ATOM     19  C   UNL     1      28.894  35.565  21.056  1.00  0.00     0.008 C 
ENDBRANCH  12  17
ENDBRANCH  11  12
ENDBRANCH   1  11
TORSDOF 1
ENDMDL
MODEL 3
REMARK VINA RESULT:    -2.957      1.542      3.885
REMARK INTER + INTRA:          -3.979
REMARK INTER:                  -4.488
REMARK INTRA:                   0.508
REMARK UNBOUND:                 0.533
REMARK SMILES CC1=CCC[C@@H](C)C(=O)C[C@H](C(C)C)C(=O)C1
REMARK SMILES IDX 8 1 9 2 6 3 7 4 5 5 4 6 3 7 2 8 1 9 10 11 11 12 15 13 16 14
REMARK SMILES IDX 17 15 12 17 13 18 14 19
REMARK H PARENT
REMARK Flexibility Score: 70.00
ROOT
ATOM      1  C   UNL     1      28.773  36.619  19.590  1.00  0.00     0.136 C 
ATOM      2  O   UNL     1      29.125  36.742  18.425  1.00  0.00    -0.299 OA
ENDROOT
BRANCH   1   3
ATOM      3  C   UNL     1      28.127  35.327  20.047  1.00  0.00     0.053 C 
ATOM      4  C   UNL     1      29.089  34.143  19.899  1.00  0.00     0.016 C 
BRANCH   3   5
ATOM      5  C   UNL     1      26.820  35.107  19.246  1.00  0.00     0.015 C 
BRANCH   5   6
ATOM      6  C   UNL     1      26.010  36.374  18.910  1.00  0.00     0.028 C 
BRANCH   6   7
ATOM      7  C   UNL     1      24.876  36.737  19.846  1.00  0.00    -0.028 C 
ATOM      8  C   UNL     1      24.931  37.580  20.906  1.00  0.00    -0.070 CG0
ATOM      9  C   UNL     1      23.640  37.888  21.625  1.00  0.00     0.039 C 
ATOM     10  G   UNL     1      26.217  38.164  21.465  1.00  0.00     0.000 G0
ENDBRANCH   6   7
ENDBRANCH   5   6
ENDBRANCH   3   5
ENDBRANCH   1   3
BRANCH   1  11
ATOM     11  C   UNL     1      28.928  37.787  20.536  1.00  0.00     0.087 C 
BRANCH  11  12
ATOM     12  C   UNL     1      28.235  39.076  20.007  1.00  0.00     0.066 C 
BRANCH  12  13
ATOM     13  C   UNL     1      26.801  39.176  20.509  1.00  0.00     0.140 C 
ATOM     14  O   UNL     1      26.095  40.091  20.110  1.00  0.00    -0.299 OA
BRANCH  13  15
ATOM     15  C   UNL     1      26.215  38.172  21.481  1.00  0.00     0.106 CG0
ATOM     16  G   UNL     1      24.920  37.591  20.940  1.00  0.00     0.000 G0
ENDBRANCH  13  15
ENDBRANCH  12  13
BRANCH  12  17
ATOM     17  C   UNL     1      29.064  40.358  20.331  1.00  0.00    -0.006 C 
ATOM     18  C   UNL     1      28.765  40.966  21.713  1.00  0.00     0.008 C 
ATOM     19  C   UNL     1      28.903  41.424  19.237  1.00  0.00     0.008 C 
ENDBRANCH  12  17
ENDBRANCH  11  12
ENDBRANCH   1  11
TORSDOF 1
ENDMDL
MODEL 4
REMARK VINA RESULT:    -2.668      9.607     12.397
REMARK INTER + INTRA:          -3.538
REMARK INTER:                  -3.460
REMARK INTRA:                  -0.078
REMARK UNBOUND:                 0.533
REMARK SMILES CC1=CCC[C@@H](C)C(=O)C[C@H](C(C)C)C(=O)C1
REMARK SMILES IDX 8 1 9 2 6 3 7 4 5 5 4 6 3 7 2 8 1 9 10 11 11 12 15 13 16 14
REMARK SMILES IDX 17 15 12 17 13 18 14 19
REMARK H PARENT
REMARK Flexibility Score: 70.00
ROOT
ATOM      1  C   UNL     1      28.230  26.414  25.623  1.00  0.00     0.136 C 
ATOM      2  O   UNL     1      28.553  26.259  24.453  1.00  0.00    -0.299 OA
ENDROOT
BRANCH   1   3
ATOM      3  C   UNL     1      27.987  25.205  26.501  1.00  0.00     0.053 C 
ATOM      4  C   UNL     1      28.700  23.965  25.949  1.00  0.00     0.016 C 
BRANCH   3   5
ATOM      5  C   UNL     1      26.461  24.976  26.634  1.00  0.00     0.015 C 
BRANCH   5   6
ATOM      6  C   UNL     1      25.837  25.351  27.992  1.00  0.00     0.028 C 
BRANCH   6   7
ATOM      7  C   UNL     1      24.553  26.155  27.963  1.00  0.00    -0.028 C 
ATOM      8  C   UNL     1      24.429  27.486  27.737  1.00  0.00    -0.070 CG0
ATOM      9  C   UNL     1      23.034  28.053  27.632  1.00  0.00     0.039 C 
ATOM     10  G   UNL     1      25.599  28.452  27.668  1.00  0.00     0.000 G0
ENDBRANCH   6   7
ENDBRANCH   5   6
ENDBRANCH   3   5
ENDBRANCH   1   3
BRANCH   1  11
ATOM     11  C   UNL     1      28.012  27.814  26.150  1.00  0.00     0.087 C 
BRANCH  11  12
ATOM     12  C   UNL     1      26.931  28.590  25.343  1.00  0.00     0.066 C 
BRANCH  12  13
ATOM     13  C   UNL     1      25.777  29.019  26.240  1.00  0.00     0.140 C 
ATOM     14  O   UNL     1      24.953  29.812  25.809  1.00  0.00    -0.299 OA
BRANCH  13  15
ATOM     15  C   UNL     1      25.610  28.486  27.649  1.00  0.00     0.106 CG0
ATOM     16  G   UNL     1      24.450  27.508  27.721  1.00  0.00     0.000 G0
ENDBRANCH  13  15
ENDBRANCH  12  13
BRANCH  12  17
ATOM     17  C   UNL     1      27.542  29.790  24.555  1.00  0.00    -0.006 C 
ATOM     18  C   UNL     1      28.304  29.383  23.282  1.00  0.00     0.008 C 
ATOM     19  C   UNL     1      28.438  30.656  25.455  1.00  0.00     0.008 C 
ENDBRANCH  12  17
ENDBRANCH  11  12
ENDBRANCH   1  11
TORSDOF 1
ENDMDL
MODEL 5
REMARK VINA RESULT:    -2.638      2.130      3.952
REMARK INTER + INTRA:          -3.493
REMARK INTER:                  -3.496
REMARK INTRA:                   0.003
REMARK UNBOUND:                 0.533
REMARK SMILES CC1=CCC[C@@H](C)C(=O)C[C@H](C(C)C)C(=O)C1
REMARK SMILES IDX 8 1 9 2 6 3 7 4 5 5 4 6 3 7 2 8 1 9 10 11 11 12 15 13 16 14
REMARK SMILES IDX 17 15 12 17 13 18 14 19
REMARK H PARENT
REMARK Flexibility Score: 70.00
ROOT
ATOM      1  C   UNL     1      26.617  40.165  21.615  1.00  0.00     0.136 C 
ATOM      2  O   UNL     1      25.722  40.923  21.268  1.00  0.00    -0.299 OA
ENDROOT
BRANCH   1   3
ATOM      3  C   UNL     1      28.001  40.714  21.892  1.00  0.00     0.053 C 
ATOM      4  C   UNL     1      27.933  41.979  22.756  1.00  0.00     0.016 C 
BRANCH   3   5
ATOM      5  C   UNL     1      28.718  40.978  20.546  1.00  0.00     0.015 C 
BRANCH   5   6
ATOM      6  C   UNL     1      29.042  39.734  19.696  1.00  0.00     0.028 C 
BRANCH   6   7
ATOM      7  C   UNL     1      28.198  39.504  18.459  1.00  0.00    -0.028 C 
ATOM      8  C   UNL     1      27.324  38.491  18.244  1.00  0.00    -0.070 CG0
ATOM      9  C   UNL     1      26.498  38.533  16.982  1.00  0.00     0.039 C 
ATOM     10  G   UNL     1      27.185  37.279  19.149  1.00  0.00     0.000 G0
ENDBRANCH   6   7
ENDBRANCH   5   6
ENDBRANCH   3   5
ENDBRANCH   1   3
BRANCH   1  11
ATOM     11  C   UNL     1      26.340  38.681  21.691  1.00  0.00     0.087 C 
BRANCH  11  12
ATOM     12  C   UNL     1      25.230  38.232  20.698  1.00  0.00     0.066 C 
BRANCH  12  13
ATOM     13  C   UNL     1      25.759  37.199  19.711  1.00  0.00     0.140 C 
ATOM     14  O   UNL     1      25.027  36.286  19.358  1.00  0.00    -0.299 OA
BRANCH  13  15
ATOM     15  C   UNL     1      27.163  37.269  19.145  1.00  0.00     0.106 CG0
ATOM     16  G   UNL     1      27.320  38.482  18.244  1.00  0.00     0.000 G0
ENDBRANCH  13  15
ENDBRANCH  12  13
BRANCH  12  17
ATOM     17  C   UNL     1      23.950  37.736  21.440  1.00  0.00    -0.006 C 
ATOM     18  C   UNL     1      23.123  38.862  22.085  1.00  0.00     0.008 C 
ATOM     19  C   UNL     1      24.286  36.661  22.485  1.00  0.00     0.008 C 
ENDBRANCH  12  17
ENDBRANCH  11  12
ENDBRANCH   1  11
TORSDOF 1
ENDMDL
MODEL 6
REMARK VINA RESULT:    -2.601      9.904     12.707
REMARK INTER + INTRA:          -3.436
REMARK INTER:                  -3.434
REMARK INTRA:                  -0.002
REMARK UNBOUND:                 0.533
REMARK SMILES CC1=CCC[C@@H](C)C(=O)C[C@H](C(C)C)C(=O)C1
REMARK SMILES IDX 8 1 9 2 6 3 7 4 5 5 4 6 3 7 2 8 1 9 10 11 11 12 15 13 16 14
REMARK SMILES IDX 17 15 12 17 13 18 14 19
REMARK H PARENT
REMARK Flexibility Score: 70.00
ROOT
ATOM      1  C   UNL     1      26.687  29.358  26.055  1.00  0.00     0.136 C 
ATOM      2  O   UNL     1      25.751  29.493  25.279  1.00  0.00    -0.299 OA
ENDROOT
BRANCH   1   3
ATOM      3  C   UNL     1      28.022  29.999  25.740  1.00  0.00     0.053 C 
ATOM      4  C   UNL     1      27.914  30.941  24.534  1.00  0.00     0.016 C 
BRANCH   3   5
ATOM      5  C   UNL     1      29.074  28.887  25.505  1.00  0.00     0.015 C 
BRANCH   5   6
ATOM      6  C   UNL     1      28.621  27.701  24.631  1.00  0.00     0.028 C 
BRANCH   6   7
ATOM      7  C   UNL     1      29.125  26.326  25.017  1.00  0.00    -0.028 C 
ATOM      8  C   UNL     1      28.376  25.247  25.353  1.00  0.00    -0.070 CG0
ATOM      9  C   UNL     1      29.094  23.939  25.582  1.00  0.00     0.039 C 
ATOM     10  G   UNL     1      26.877  25.291  25.594  1.00  0.00     0.000 G0
ENDBRANCH   6   7
ENDBRANCH   5   6
ENDBRANCH   3   5
ENDBRANCH   1   3
BRANCH   1  11
ATOM     11  C   UNL     1      26.511  28.491  27.281  1.00  0.00     0.087 C 
BRANCH  11  12
ATOM     12  C   UNL     1      25.669  27.215  26.991  1.00  0.00     0.066 C 
BRANCH  12  13
ATOM     13  C   UNL     1      26.553  25.978  26.914  1.00  0.00     0.140 C 
ATOM     14  O   UNL     1      27.013  25.512  27.946  1.00  0.00    -0.299 OA
BRANCH  13  15
ATOM     15  C   UNL     1      26.876  25.298  25.598  1.00  0.00     0.106 CG0
ATOM     16  G   UNL     1      28.377  25.257  25.367  1.00  0.00     0.000 G0
ENDBRANCH  13  15
ENDBRANCH  12  13
BRANCH  12  17
ATOM     17  C   UNL     1      24.502  27.043  28.013  1.00  0.00    -0.006 C 
ATOM     18  C   UNL     1      23.583  25.845  27.720  1.00  0.00     0.008 C 
ATOM     19  C   UNL     1      23.671  28.329  28.141  1.00  0.00     0.008 C 
ENDBRANCH  12  17
ENDBRANCH  11  12
ENDBRANCH   1  11
TORSDOF 1
ENDMDL
MODEL 7
REMARK VINA RESULT:    -2.425      2.625      4.306
REMARK INTER + INTRA:          -3.167
REMARK INTER:                  -2.982
REMARK INTRA:                  -0.185
REMARK UNBOUND:                 0.533
REMARK SMILES CC1=CCC[C@@H](C)C(=O)C[C@H](C(C)C)C(=O)C1
REMARK SMILES IDX 8 1 9 2 6 3 7 4 5 5 4 6 3 7 2 8 1 9 10 11 11 12 15 13 16 14
REMARK SMILES IDX 17 15 12 17 13 18 14 19
REMARK H PARENT
REMARK Flexibility Score: 70.00
ROOT
ATOM      1  C   UNL     1      26.924  40.967  21.613  1.00  0.00     0.136 C 
ATOM      2  O   UNL     1      25.703  41.051  21.625  1.00  0.00    -0.299 OA
ENDROOT
BRANCH   1   3
ATOM      3  C   UNL     1      27.763  42.223  21.712  1.00  0.00     0.053 C 
ATOM      4  C   UNL     1      27.164  43.214  22.717  1.00  0.00     0.016 C 
BRANCH   3   5
ATOM      5  C   UNL     1      27.901  42.850  20.302  1.00  0.00     0.015 C 
BRANCH   5   6
ATOM      6  C   UNL     1      29.061  42.321  19.437  1.00  0.00     0.028 C 
BRANCH   6   7
ATOM      7  C   UNL     1      28.696  41.648  18.130  1.00  0.00    -0.028 C 
ATOM      8  C   UNL     1      28.634  40.316  17.887  1.00  0.00    -0.070 CG0
ATOM      9  C   UNL     1      28.125  39.872  16.537  1.00  0.00     0.039 C 
ATOM     10  G   UNL     1      29.121  39.250  18.853  1.00  0.00     0.000 G0
ENDBRANCH   6   7
ENDBRANCH   5   6
ENDBRANCH   3   5
ENDBRANCH   1   3
BRANCH   1  11
ATOM     11  C   UNL     1      27.570  39.613  21.429  1.00  0.00     0.087 C 
BRANCH  11  12
ATOM     12  C   UNL     1      26.924  38.799  20.270  1.00  0.00     0.066 C 
BRANCH  12  13
ATOM     13  C   UNL     1      27.976  38.340  19.268  1.00  0.00     0.140 C 
ATOM     14  O   UNL     1      27.895  37.215  18.797  1.00  0.00    -0.299 OA
BRANCH  13  15
ATOM     15  C   UNL     1      29.115  39.237  18.826  1.00  0.00     0.106 CG0
ATOM     16  G   UNL     1      28.612  40.326  17.894  1.00  0.00     0.000 G0
ENDBRANCH  13  15
ENDBRANCH  12  13
BRANCH  12  17
ATOM     17  C   UNL     1      26.060  37.614  20.802  1.00  0.00    -0.006 C 
ATOM     18  C   UNL     1      24.595  37.986  21.091  1.00  0.00     0.008 C 
ATOM     19  C   UNL     1      26.696  36.965  22.041  1.00  0.00     0.008 C 
ENDBRANCH  12  17
ENDBRANCH  11  12
ENDBRANCH   1  11
TORSDOF 1
ENDMDL
MODEL 8
REMARK VINA RESULT:    -2.246      1.769      3.728
REMARK INTER + INTRA:          -2.894
REMARK INTER:                  -3.337
REMARK INTRA:                   0.443
REMARK UNBOUND:                 0.533
REMARK SMILES CC1=CCC[C@@H](C)C(=O)C[C@H](C(C)C)C(=O)C1
REMARK SMILES IDX 8 1 9 2 6 3 7 4 5 5 4 6 3 7 2 8 1 9 10 11 11 12 15 13 16 14
REMARK SMILES IDX 17 15 12 17 13 18 14 19
REMARK H PARENT
REMARK Flexibility Score: 70.00
ROOT
ATOM      1  C   UNL     1      25.203  35.784  18.812  1.00  0.00     0.136 C 
ATOM      2  O   UNL     1      25.520  34.684  18.379  1.00  0.00    -0.299 OA
ENDROOT
BRANCH   1   3
ATOM      3  C   UNL     1      24.090  35.896  19.832  1.00  0.00     0.053 C 
ATOM      4  C   UNL     1      22.828  36.508  19.213  1.00  0.00     0.016 C 
BRANCH   3   5
ATOM      5  C   UNL     1      24.594  36.725  21.040  1.00  0.00     0.015 C 
BRANCH   5   6
ATOM      6  C   UNL     1      24.239  38.224  21.026  1.00  0.00     0.028 C 
BRANCH   6   7
ATOM      7  C   UNL     1      25.271  39.183  21.583  1.00  0.00    -0.028 C 
ATOM      8  C   UNL     1      26.218  39.858  20.885  1.00  0.00    -0.070 CG0
ATOM      9  C   UNL     1      27.062  40.859  21.636  1.00  0.00     0.039 C 
ATOM     10  G   UNL     1      26.536  39.610  19.421  1.00  0.00     0.000 G0
ENDBRANCH   6   7
ENDBRANCH   5   6
ENDBRANCH   3   5
ENDBRANCH   1   3
BRANCH   1  11
ATOM     11  C   UNL     1      25.884  37.017  18.265  1.00  0.00     0.087 C 
BRANCH  11  12
ATOM     12  C   UNL     1      27.352  37.156  18.763  1.00  0.00     0.066 C 
BRANCH  12  13
ATOM     13  C   UNL     1      27.639  38.573  19.243  1.00  0.00     0.140 C 
ATOM     14  O   UNL     1      28.790  38.890  19.500  1.00  0.00    -0.299 OA
BRANCH  13  15
ATOM     15  C   UNL     1      26.543  39.608  19.402  1.00  0.00     0.106 CG0
ATOM     16  G   UNL     1      26.232  39.841  20.870  1.00  0.00     0.000 G0
ENDBRANCH  13  15
ENDBRANCH  12  13
BRANCH  12  17
ATOM     17  C   UNL     1      27.703  36.086  19.843  1.00  0.00    -0.006 C 
ATOM     18  C   UNL     1      27.970  36.670  21.242  1.00  0.00     0.008 C 
ATOM     19  C   UNL     1      28.885  35.208  19.402  1.00  0.00     0.008 C 
ENDBRANCH  12  17
ENDBRANCH  11  12
ENDBRANCH   1  11
TORSDOF 1
ENDMDL
MODEL 9
REMARK VINA RESULT:    -2.158      1.822      3.834
REMARK INTER + INTRA:          -2.761
REMARK INTER:                  -4.807
REMARK INTRA:                   2.047
REMARK UNBOUND:                 0.533
REMARK SMILES CC1=CCC[C@@H](C)C(=O)C[C@H](C(C)C)C(=O)C1
REMARK SMILES IDX 8 1 9 2 6 3 7 4 5 5 4 6 3 7 2 8 1 9 10 11 11 12 15 13 16 14
REMARK SMILES IDX 17 15 12 17 13 18 14 19
REMARK H PARENT
REMARK Flexibility Score: 70.00
ROOT
ATOM      1  C   UNL     1      26.740  36.908  19.553  1.00  0.00     0.136 C 
ATOM      2  O   UNL     1      25.715  36.534  18.998  1.00  0.00    -0.299 OA
ENDROOT
BRANCH   1   3
ATOM      3  C   UNL     1      27.862  37.506  18.731  1.00  0.00     0.053 C 
ATOM      4  C   UNL     1      29.125  37.705  19.577  1.00  0.00     0.016 C 
BRANCH   3   5
ATOM      5  C   UNL     1      27.376  38.837  18.106  1.00  0.00     0.015 C 
BRANCH   5   6
ATOM      6  C   UNL     1      28.205  40.089  18.452  1.00  0.00     0.028 C 
BRANCH   6   7
ATOM      7  C   UNL     1      27.518  41.172  19.258  1.00  0.00    -0.028 C 
ATOM      8  C   UNL     1      27.196  41.128  20.575  1.00  0.00    -0.070 CG0
ATOM      9  C   UNL     1      26.624  42.378  21.198  1.00  0.00     0.039 C 
ATOM     10  G   UNL     1      27.298  39.882  21.436  1.00  0.00     0.000 G0
ENDBRANCH   6   7
ENDBRANCH   5   6
ENDBRANCH   3   5
ENDBRANCH   1   3
BRANCH   1  11
ATOM     11  C   UNL     1      26.892  36.701  21.042  1.00  0.00     0.087 C 
BRANCH  11  12
ATOM     12  C   UNL     1      25.949  37.622  21.869  1.00  0.00     0.066 C 
BRANCH  12  13
ATOM     13  C   UNL     1      26.017  39.062  21.377  1.00  0.00     0.140 C 
ATOM     14  O   UNL     1      25.011  39.578  20.912  1.00  0.00    -0.299 OA
BRANCH  13  15
ATOM     15  C   UNL     1      27.289  39.883  21.454  1.00  0.00     0.106 CG0
ATOM     16  G   UNL     1      27.188  41.116  20.574  1.00  0.00     0.000 G0
ENDBRANCH  13  15
ENDBRANCH  12  13
BRANCH  12  17
ATOM     17  C   UNL     1      24.487  37.079  21.904  1.00  0.00    -0.006 C 
ATOM     18  C   UNL     1      23.409  38.171  21.787  1.00  0.00     0.008 C 
ATOM     19  C   UNL     1      24.236  36.219  23.152  1.00  0.00     0.008 C 
ENDBRANCH  12  17
ENDBRANCH  11  12
ENDBRANCH   1  11
TORSDOF 1
ENDMDL
