MODEL 1
REMARK VINA RESULT:    -0.345      0.000      0.000
REMARK INTER + INTRA:          -1.997
REMARK INTER:                  -0.507
REMARK INTRA:                  -1.490
REMARK UNBOUND:                -1.490
REMARK SMILES Cc1cc2c(C(C)C)c(O)c(O)c(C=O)c2c(O)c1-c1c(C)cc2c(C(C)C)c(O)c(O)c(C=O)c2c1O
REMARK SMILES IDX 1 1 2 2 3 3 4 4 16 5 13 6 11 7 9 8 5 9 17 10 19 11 20 12
REMARK SMILES IDX 37 13 21 14 36 15 23 16 22 17 24 18 33 19 25 20 31 21 29 22
REMARK SMILES IDX 38 23 34 25 35 26 26 27 27 28 28 29 32 30 30 32 18 34 6 36
REMARK SMILES IDX 7 37 8 38 14 39 15 40 10 41 12 43
REMARK H PARENT 38 24 32 31 30 33 18 35 10 42 12 44
REMARK Flexibility Score: inf
ROOT
ATOM      1  C   UNL     1     136.957 134.381 139.215  1.00  0.00     0.045 C 
ATOM      2  C   UNL     1     137.804 135.602 138.952  1.00  0.00    -0.039 A 
ATOM      3  C   UNL     1     138.400 136.264 140.026  1.00  0.00     0.013 A 
ATOM      4  C   UNL     1     139.224 137.397 139.839  1.00  0.00    -0.006 A 
ATOM      5  C   UNL     1     139.339 137.947 138.529  1.00  0.00     0.039 A 
ATOM      6  C   UNL     1     139.970 139.214 138.367  1.00  0.00     0.072 A 
ATOM      7  C   UNL     1     140.525 139.875 139.480  1.00  0.00     0.169 A 
ATOM      8  C   UNL     1     140.463 139.292 140.761  1.00  0.00     0.162 A 
ATOM      9  C   UNL     1     139.908 138.004 140.935  1.00  0.00     0.008 A 
ATOM     10  C   UNL     1     138.841 137.195 137.424  1.00  0.00     0.132 A 
ATOM     11  C   UNL     1     138.061 136.040 137.642  1.00  0.00     0.031 A 
ENDROOT
BRANCH  11  12
ATOM     12  C   UNL     1     137.502 135.287 136.488  1.00  0.00     0.031 A 
ATOM     13  C   UNL     1     136.245 135.639 135.952  1.00  0.00     0.132 A 
ATOM     14  C   UNL     1     138.250 134.251 135.905  1.00  0.00    -0.039 A 
ATOM     15  C   UNL     1     135.696 134.909 134.854  1.00  0.00     0.039 A 
ATOM     16  C   UNL     1     137.757 133.597 134.775  1.00  0.00     0.013 A 
ATOM     17  C   UNL     1     139.612 133.879 136.440  1.00  0.00     0.045 C 
ATOM     18  C   UNL     1     136.477 133.879 134.247  1.00  0.00    -0.006 A 
ATOM     19  C   UNL     1     134.410 135.206 134.316  1.00  0.00     0.072 A 
ATOM     20  C   UNL     1     135.982 133.185 133.100  1.00  0.00     0.008 A 
ATOM     21  C   UNL     1     134.008 134.626 133.099  1.00  0.00     0.169 A 
ATOM     22  C   UNL     1     134.832 133.688 132.453  1.00  0.00     0.162 A 
BRANCH  13  23
ATOM     23  O   UNL     1     135.562 136.741 136.480  1.00  0.00    -0.507 OA
ATOM     24  H   UNL     1     134.570 136.903 136.359  1.00  0.00     0.293 HD
ENDBRANCH  13  23
BRANCH  19  25
ATOM     25  C   UNL     1     133.426 136.047 135.041  1.00  0.00     0.264 C 
ATOM     26  O   UNL     1     133.185 137.229 134.676  1.00  0.00    -0.298 OA
ENDBRANCH  19  25
BRANCH  20  27
ATOM     27  C   UNL     1     136.696 131.948 132.526  1.00  0.00     0.017 C 
ATOM     28  C   UNL     1     137.439 132.296 131.232  1.00  0.00     0.012 C 
ATOM     29  C   UNL     1     135.775 130.730 132.331  1.00  0.00     0.012 C 
ENDBRANCH  20  27
BRANCH  21  30
ATOM     30  O   UNL     1     132.755 134.961 132.573  1.00  0.00    -0.504 OA
ATOM     31  H   UNL     1     132.181 134.329 132.032  1.00  0.00     0.293 HD
ENDBRANCH  21  30
BRANCH  22  32
ATOM     32  O   UNL     1     134.529 133.251 131.160  1.00  0.00    -0.504 OA
ATOM     33  H   UNL     1     134.059 133.816 130.467  1.00  0.00     0.293 HD
ENDBRANCH  22  32
ENDBRANCH  11  12
BRANCH  10  34
ATOM     34  O   UNL     1     139.159 137.571 136.114  1.00  0.00    -0.507 OA
ATOM     35  H   UNL     1     140.092 137.524 135.725  1.00  0.00     0.293 HD
ENDBRANCH  10  34
BRANCH   9  36
ATOM     36  C   UNL     1     140.031 137.295 142.296  1.00  0.00     0.017 C 
ATOM     37  C   UNL     1     140.750 135.950 142.153  1.00  0.00     0.012 C 
ATOM     38  C   UNL     1     138.690 137.139 143.039  1.00  0.00     0.012 C 
ENDBRANCH   9  36
BRANCH   6  39
ATOM     39  C   UNL     1     139.950 139.942 137.075  1.00  0.00     0.264 C 
ATOM     40  O   UNL     1     140.992 140.055 136.377  1.00  0.00    -0.298 OA
ENDBRANCH   6  39
BRANCH   8  41
ATOM     41  O   UNL     1     140.911 139.989 141.887  1.00  0.00    -0.504 OA
ATOM     42  H   UNL     1     140.644 140.932 142.128  1.00  0.00     0.293 HD
ENDBRANCH   8  41
BRANCH   7  43
ATOM     43  O   UNL     1     141.125 141.125 139.278  1.00  0.00    -0.504 OA
ATOM     44  H   UNL     1     141.964 141.279 138.738  1.00  0.00     0.293 HD
ENDBRANCH   7  43
TORSDOF 11
ENDMDL
MODEL 2
REMARK VINA RESULT:    -0.327      9.663     14.108
REMARK INTER + INTRA:          -1.971
REMARK INTER:                  -0.448
REMARK INTRA:                  -1.522
REMARK UNBOUND:                -1.490
REMARK SMILES Cc1cc2c(C(C)C)c(O)c(O)c(C=O)c2c(O)c1-c1c(C)cc2c(C(C)C)c(O)c(O)c(C=O)c2c1O
REMARK SMILES IDX 1 1 2 2 3 3 4 4 16 5 13 6 11 7 9 8 5 9 17 10 19 11 20 12
REMARK SMILES IDX 37 13 21 14 36 15 23 16 22 17 24 18 33 19 25 20 31 21 29 22
REMARK SMILES IDX 38 23 34 25 35 26 26 27 27 28 28 29 32 30 30 32 18 34 6 36
REMARK SMILES IDX 7 37 8 38 14 39 15 40 10 41 12 43
REMARK H PARENT 38 24 32 31 30 33 18 35 10 42 12 44
REMARK Flexibility Score: inf
ROOT
ATOM      1  C   UNL     1     126.784 136.847 136.514  1.00  0.00     0.045 C 
ATOM      2  C   UNL     1     125.731 137.392 137.448  1.00  0.00    -0.039 A 
ATOM      3  C   UNL     1     124.715 138.200 136.936  1.00  0.00     0.013 A 
ATOM      4  C   UNL     1     123.689 138.718 137.756  1.00  0.00    -0.006 A 
ATOM      5  C   UNL     1     123.772 138.512 139.164  1.00  0.00     0.039 A 
ATOM      6  C   UNL     1     122.879 139.221 140.019  1.00  0.00     0.072 A 
ATOM      7  C   UNL     1     121.893 140.062 139.469  1.00  0.00     0.169 A 
ATOM      8  C   UNL     1     121.777 140.208 138.072  1.00  0.00     0.162 A 
ATOM      9  C   UNL     1     122.602 139.460 137.203  1.00  0.00     0.008 A 
ATOM     10  C   UNL     1     124.730 137.580 139.664  1.00  0.00     0.132 A 
ATOM     11  C   UNL     1     125.714 137.042 138.809  1.00  0.00     0.031 A 
ENDROOT
BRANCH  11  12
ATOM     12  C   UNL     1     126.741 136.110 139.345  1.00  0.00     0.031 A 
ATOM     13  C   UNL     1     127.947 136.612 139.879  1.00  0.00     0.132 A 
ATOM     14  C   UNL     1     126.489 134.729 139.357  1.00  0.00    -0.039 A 
ATOM     15  C   UNL     1     128.944 135.722 140.381  1.00  0.00     0.039 A 
ATOM     16  C   UNL     1     127.421 133.863 139.930  1.00  0.00     0.013 A 
ATOM     17  C   UNL     1     125.192 134.170 138.822  1.00  0.00     0.045 C 
ATOM     18  C   UNL     1     128.665 134.322 140.420  1.00  0.00    -0.006 A 
ATOM     19  C   UNL     1     130.192 136.189 140.886  1.00  0.00     0.072 A 
ATOM     20  C   UNL     1     129.616 133.417 140.986  1.00  0.00     0.008 A 
ATOM     21  C   UNL     1     131.042 135.310 141.579  1.00  0.00     0.169 A 
ATOM     22  C   UNL     1     130.709 133.950 141.703  1.00  0.00     0.162 A 
BRANCH  13  23
ATOM     23  O   UNL     1     128.136 137.998 139.954  1.00  0.00    -0.507 OA
ATOM     24  H   UNL     1     128.417 138.486 140.796  1.00  0.00     0.293 HD
ENDBRANCH  13  23
BRANCH  19  25
ATOM     25  C   UNL     1     130.679 137.568 140.632  1.00  0.00     0.264 C 
ATOM     26  O   UNL     1     130.708 138.429 141.552  1.00  0.00    -0.298 OA
ENDBRANCH  19  25
BRANCH  20  27
ATOM     27  C   UNL     1     129.447 131.890 140.882  1.00  0.00     0.017 C 
ATOM     28  C   UNL     1     128.972 131.300 142.213  1.00  0.00     0.012 C 
ATOM     29  C   UNL     1     130.698 131.158 140.361  1.00  0.00     0.012 C 
ENDBRANCH  20  27
BRANCH  21  30
ATOM     30  O   UNL     1     132.247 135.802 142.096  1.00  0.00    -0.504 OA
ATOM     31  H   UNL     1     132.520 135.723 143.065  1.00  0.00     0.293 HD
ENDBRANCH  21  30
BRANCH  22  32
ATOM     32  O   UNL     1     131.449 133.113 142.543  1.00  0.00    -0.504 OA
ATOM     33  H   UNL     1     132.456 133.120 142.606  1.00  0.00     0.293 HD
ENDBRANCH  22  32
ENDBRANCH  11  12
BRANCH  10  34
ATOM     34  O   UNL     1     124.674 137.158 140.997  1.00  0.00    -0.507 OA
ATOM     35  H   UNL     1     124.156 136.348 141.310  1.00  0.00     0.293 HD
ENDBRANCH  10  34
BRANCH   9  36
ATOM     36  C   UNL     1     122.329 139.474 135.688  1.00  0.00     0.017 C 
ATOM     37  C   UNL     1     122.693 140.831 135.076  1.00  0.00     0.012 C 
ATOM     38  C   UNL     1     120.895 139.055 135.310  1.00  0.00     0.012 C 
ENDBRANCH   9  36
BRANCH   6  39
ATOM     39  C   UNL     1     123.035 139.216 141.494  1.00  0.00     0.264 C 
ATOM     40  O   UNL     1     122.234 138.579 142.228  1.00  0.00    -0.298 OA
ENDBRANCH   6  39
BRANCH   8  41
ATOM     41  O   UNL     1     120.875 141.124 137.521  1.00  0.00    -0.504 OA
ATOM     42  H   UNL     1     120.930 141.498 136.585  1.00  0.00     0.293 HD
ENDBRANCH   8  41
BRANCH   7  43
ATOM     43  O   UNL     1     121.044 140.750 140.345  1.00  0.00    -0.504 OA
ATOM     44  H   UNL     1     121.305 141.571 140.872  1.00  0.00     0.293 HD
ENDBRANCH   7  43
TORSDOF 11
ENDMDL
MODEL 3
REMARK VINA RESULT:    -0.318      2.475      3.009
REMARK INTER + INTRA:          -1.957
REMARK INTER:                  -0.460
REMARK INTRA:                  -1.497
REMARK UNBOUND:                -1.490
REMARK SMILES Cc1cc2c(C(C)C)c(O)c(O)c(C=O)c2c(O)c1-c1c(C)cc2c(C(C)C)c(O)c(O)c(C=O)c2c1O
REMARK SMILES IDX 1 1 2 2 3 3 4 4 16 5 13 6 11 7 9 8 5 9 17 10 19 11 20 12
REMARK SMILES IDX 37 13 21 14 36 15 23 16 22 17 24 18 33 19 25 20 31 21 29 22
REMARK SMILES IDX 38 23 34 25 35 26 26 27 27 28 28 29 32 30 30 32 18 34 6 36
REMARK SMILES IDX 7 37 8 38 14 39 15 40 10 41 12 43
REMARK H PARENT 38 24 32 31 30 33 18 35 10 42 12 44
REMARK Flexibility Score: inf
ROOT
ATOM      1  C   UNL     1     135.957 135.463 136.908  1.00  0.00     0.045 C 
ATOM      2  C   UNL     1     136.978 136.569 137.009  1.00  0.00    -0.039 A 
ATOM      3  C   UNL     1     137.692 136.734 138.196  1.00  0.00     0.013 A 
ATOM      4  C   UNL     1     138.678 137.734 138.341  1.00  0.00    -0.006 A 
ATOM      5  C   UNL     1     138.850 138.679 137.288  1.00  0.00     0.039 A 
ATOM      6  C   UNL     1     139.668 139.824 137.515  1.00  0.00     0.072 A 
ATOM      7  C   UNL     1     140.342 139.979 138.742  1.00  0.00     0.169 A 
ATOM      8  C   UNL     1     140.216 139.006 139.754  1.00  0.00     0.162 A 
ATOM      9  C   UNL     1     139.471 137.827 139.525  1.00  0.00     0.008 A 
ATOM     10  C   UNL     1     138.219 138.429 136.034  1.00  0.00     0.132 A 
ATOM     11  C   UNL     1     137.273 137.390 135.907  1.00  0.00     0.031 A 
ENDROOT
BRANCH  11  12
ATOM     12  C   UNL     1     136.580 137.164 134.611  1.00  0.00     0.031 A 
ATOM     13  C   UNL     1     135.382 137.849 134.318  1.00  0.00     0.132 A 
ATOM     14  C   UNL     1     137.145 136.298 133.662  1.00  0.00    -0.039 A 
ATOM     15  C   UNL     1     134.703 137.625 133.082  1.00  0.00     0.039 A 
ATOM     16  C   UNL     1     136.533 136.147 132.416  1.00  0.00     0.013 A 
ATOM     17  C   UNL     1     138.444 135.580 133.939  1.00  0.00     0.045 C 
ATOM     18  C   UNL     1     135.302 136.768 132.108  1.00  0.00    -0.006 A 
ATOM     19  C   UNL     1     133.467 138.263 132.769  1.00  0.00     0.072 A 
ATOM     20  C   UNL     1     134.680 136.586 130.834  1.00  0.00     0.008 A 
ATOM     21  C   UNL     1     132.955 138.199 131.461  1.00  0.00     0.169 A 
ATOM     22  C   UNL     1     133.610 137.435 130.479  1.00  0.00     0.162 A 
BRANCH  13  23
ATOM     23  O   UNL     1     134.889 138.787 135.233  1.00  0.00    -0.507 OA
ATOM     24  H   UNL     1     135.014 139.788 135.140  1.00  0.00     0.293 HD
ENDBRANCH  13  23
BRANCH  19  25
ATOM     25  C   UNL     1     132.642 138.933 133.804  1.00  0.00     0.264 C 
ATOM     26  O   UNL     1     132.548 140.189 133.852  1.00  0.00    -0.298 OA
ENDBRANCH  19  25
BRANCH  20  27
ATOM     27  C   UNL     1     135.182 135.534 129.827  1.00  0.00     0.017 C 
ATOM     28  C   UNL     1     135.941 136.199 128.675  1.00  0.00     0.012 C 
ATOM     29  C   UNL     1     134.079 134.597 129.303  1.00  0.00     0.012 C 
ENDBRANCH  20  27
BRANCH  21  30
ATOM     30  O   UNL     1     131.758 138.864 131.171  1.00  0.00    -0.504 OA
ATOM     31  H   UNL     1     131.357 139.586 131.752  1.00  0.00     0.293 HD
ENDBRANCH  21  30
BRANCH  22  32
ATOM     32  O   UNL     1     133.215 137.515 129.141  1.00  0.00    -0.504 OA
ATOM     33  H   UNL     1     132.279 137.325 128.814  1.00  0.00     0.293 HD
ENDBRANCH  22  32
ENDBRANCH  11  12
BRANCH  10  34
ATOM     34  O   UNL     1     138.564 139.183 134.907  1.00  0.00    -0.507 OA
ATOM     35  H   UNL     1     139.330 139.844 134.884  1.00  0.00     0.293 HD
ENDBRANCH  10  34
BRANCH   9  36
ATOM     36  C   UNL     1     139.510 136.685 140.557  1.00  0.00     0.017 C 
ATOM     37  C   UNL     1     139.957 135.372 139.906  1.00  0.00     0.012 C 
ATOM     38  C   UNL     1     138.194 136.506 141.336  1.00  0.00     0.012 C 
ENDBRANCH   9  36
BRANCH   6  39
ATOM     39  C   UNL     1     139.734 140.946 136.548  1.00  0.00     0.264 C 
ATOM     40  O   UNL     1     140.754 141.125 135.831  1.00  0.00    -0.298 OA
ENDBRANCH   6  39
BRANCH   8  41
ATOM     41  O   UNL     1     140.790 139.205 141.013  1.00  0.00    -0.504 OA
ATOM     42  H   UNL     1     140.490 138.752 141.864  1.00  0.00     0.293 HD
ENDBRANCH   8  41
BRANCH   7  43
ATOM     43  O   UNL     1     141.125 141.125 138.929  1.00  0.00    -0.504 OA
ATOM     44  H   UNL     1     140.764 142.033 139.183  1.00  0.00     0.293 HD
ENDBRANCH   7  43
TORSDOF 11
ENDMDL
MODEL 4
REMARK VINA RESULT:    -0.309     11.873     15.829
REMARK INTER + INTRA:          -1.943
REMARK INTER:                  -0.450
REMARK INTRA:                  -1.493
REMARK UNBOUND:                -1.490
REMARK SMILES Cc1cc2c(C(C)C)c(O)c(O)c(C=O)c2c(O)c1-c1c(C)cc2c(C(C)C)c(O)c(O)c(C=O)c2c1O
REMARK SMILES IDX 1 1 2 2 3 3 4 4 16 5 13 6 11 7 9 8 5 9 17 10 19 11 20 12
REMARK SMILES IDX 37 13 21 14 36 15 23 16 22 17 24 18 33 19 25 20 31 21 29 22
REMARK SMILES IDX 38 23 34 25 35 26 26 27 27 28 28 29 32 30 30 32 18 34 6 36
REMARK SMILES IDX 7 37 8 38 14 39 15 40 10 41 12 43
REMARK H PARENT 38 24 32 31 30 33 18 35 10 42 12 44
REMARK Flexibility Score: inf
ROOT
ATOM      1  C   UNL     1     127.001 136.034 134.743  1.00  0.00     0.045 C 
ATOM      2  C   UNL     1     126.177 134.770 134.709  1.00  0.00    -0.039 A 
ATOM      3  C   UNL     1     126.730 133.609 134.167  1.00  0.00     0.013 A 
ATOM      4  C   UNL     1     126.017 132.391 134.130  1.00  0.00    -0.006 A 
ATOM      5  C   UNL     1     124.652 132.387 134.541  1.00  0.00     0.039 A 
ATOM      6  C   UNL     1     123.860 131.229 134.290  1.00  0.00     0.072 A 
ATOM      7  C   UNL     1     124.441 130.089 133.703  1.00  0.00     0.169 A 
ATOM      8  C   UNL     1     125.807 130.080 133.360  1.00  0.00     0.162 A 
ATOM      9  C   UNL     1     126.630 131.188 133.666  1.00  0.00     0.008 A 
ATOM     10  C   UNL     1     124.137 133.534 135.213  1.00  0.00     0.132 A 
ATOM     11  C   UNL     1     124.892 134.724 135.275  1.00  0.00     0.031 A 
ENDROOT
BRANCH  11  12
ATOM     12  C   UNL     1     124.331 135.933 135.934  1.00  0.00     0.031 A 
ATOM     13  C   UNL     1     123.572 136.860 135.188  1.00  0.00     0.132 A 
ATOM     14  C   UNL     1     124.522 136.127 137.311  1.00  0.00    -0.039 A 
ATOM     15  C   UNL     1     123.044 138.031 135.811  1.00  0.00     0.039 A 
ATOM     16  C   UNL     1     123.930 137.223 137.941  1.00  0.00     0.013 A 
ATOM     17  C   UNL     1     125.302 135.132 138.137  1.00  0.00     0.045 C 
ATOM     18  C   UNL     1     123.215 138.204 137.218  1.00  0.00    -0.006 A 
ATOM     19  C   UNL     1     122.312 139.012 135.081  1.00  0.00     0.072 A 
ATOM     20  C   UNL     1     122.632 139.329 137.878  1.00  0.00     0.008 A 
ATOM     21  C   UNL     1     121.615 140.022 135.767  1.00  0.00     0.169 A 
ATOM     22  C   UNL     1     121.706 140.123 137.166  1.00  0.00     0.162 A 
BRANCH  13  23
ATOM     23  O   UNL     1     123.305 136.595 133.840  1.00  0.00    -0.507 OA
ATOM     24  H   UNL     1     122.693 137.159 133.263  1.00  0.00     0.293 HD
ENDBRANCH  13  23
BRANCH  19  25
ATOM     25  C   UNL     1     122.325 139.064 133.598  1.00  0.00     0.264 C 
ATOM     26  O   UNL     1     121.313 138.730 132.925  1.00  0.00    -0.298 OA
ENDBRANCH  19  25
BRANCH  20  27
ATOM     27  C   UNL     1     122.942 139.661 139.350  1.00  0.00     0.017 C 
ATOM     28  C   UNL     1     121.772 139.270 140.257  1.00  0.00     0.012 C 
ATOM     29  C   UNL     1     123.367 141.122 139.584  1.00  0.00     0.012 C 
ENDBRANCH  20  27
BRANCH  21  30
ATOM     30  O   UNL     1     120.875 140.953 135.029  1.00  0.00    -0.504 OA
ATOM     31  H   UNL     1     121.254 141.815 134.662  1.00  0.00     0.293 HD
ENDBRANCH  21  30
BRANCH  22  32
ATOM     32  O   UNL     1     120.875 141.000 137.869  1.00  0.00    -0.504 OA
ATOM     33  H   UNL     1     120.029 141.403 137.492  1.00  0.00     0.293 HD
ENDBRANCH  22  32
ENDBRANCH  11  12
BRANCH  10  34
ATOM     34  O   UNL     1     122.895 133.477 135.856  1.00  0.00    -0.507 OA
ATOM     35  H   UNL     1     122.380 132.621 136.011  1.00  0.00     0.293 HD
ENDBRANCH  10  34
BRANCH   9  36
ATOM     36  C   UNL     1     128.154 131.085 133.474  1.00  0.00     0.017 C 
ATOM     37  C   UNL     1     128.894 131.375 134.784  1.00  0.00     0.012 C 
ATOM     38  C   UNL     1     128.695 131.952 132.320  1.00  0.00     0.012 C 
ENDBRANCH   9  36
BRANCH   6  39
ATOM     39  C   UNL     1     122.392 131.222 134.502  1.00  0.00     0.264 C 
ATOM     40  O   UNL     1     121.880 130.600 135.470  1.00  0.00    -0.298 OA
ENDBRANCH   6  39
BRANCH   8  41
ATOM     41  O   UNL     1     126.367 128.996 132.677  1.00  0.00    -0.504 OA
ATOM     42  H   UNL     1     127.124 129.059 132.013  1.00  0.00     0.293 HD
ENDBRANCH   8  41
BRANCH   7  43
ATOM     43  O   UNL     1     123.624 128.977 133.463  1.00  0.00    -0.504 OA
ATOM     44  H   UNL     1     123.079 128.501 134.167  1.00  0.00     0.293 HD
ENDBRANCH   7  43
TORSDOF 11
ENDMDL
MODEL 5
REMARK VINA RESULT:    -0.308      2.634      8.673
REMARK INTER + INTRA:          -1.942
REMARK INTER:                  -0.470
REMARK INTRA:                  -1.472
REMARK UNBOUND:                -1.490
REMARK SMILES Cc1cc2c(C(C)C)c(O)c(O)c(C=O)c2c(O)c1-c1c(C)cc2c(C(C)C)c(O)c(O)c(C=O)c2c1O
REMARK SMILES IDX 1 1 2 2 3 3 4 4 16 5 13 6 11 7 9 8 5 9 17 10 19 11 20 12
REMARK SMILES IDX 37 13 21 14 36 15 23 16 22 17 24 18 33 19 25 20 31 21 29 22
REMARK SMILES IDX 38 23 34 25 35 26 26 27 27 28 28 29 32 30 30 32 18 34 6 36
REMARK SMILES IDX 7 37 8 38 14 39 15 40 10 41 12 43
REMARK H PARENT 38 24 32 31 30 33 18 35 10 42 12 44
REMARK Flexibility Score: inf
ROOT
ATOM      1  C   UNL     1     137.748 133.455 137.285  1.00  0.00     0.045 C 
ATOM      2  C   UNL     1     136.330 133.940 137.106  1.00  0.00    -0.039 A 
ATOM      3  C   UNL     1     135.334 133.026 136.760  1.00  0.00     0.013 A 
ATOM      4  C   UNL     1     133.985 133.417 136.604  1.00  0.00    -0.006 A 
ATOM      5  C   UNL     1     133.665 134.804 136.676  1.00  0.00     0.039 A 
ATOM      6  C   UNL     1     132.361 135.231 136.291  1.00  0.00     0.072 A 
ATOM      7  C   UNL     1     131.392 134.285 135.907  1.00  0.00     0.169 A 
ATOM      8  C   UNL     1     131.699 132.910 135.902  1.00  0.00     0.162 A 
ATOM      9  C   UNL     1     132.960 132.456 136.350  1.00  0.00     0.008 A 
ATOM     10  C   UNL     1     134.654 135.711 137.157  1.00  0.00     0.132 A 
ATOM     11  C   UNL     1     135.983 135.280 137.350  1.00  0.00     0.031 A 
ENDROOT
BRANCH  11  12
ATOM     12  C   UNL     1     137.023 136.241 137.805  1.00  0.00     0.031 A 
ATOM     13  C   UNL     1     137.750 136.999 136.862  1.00  0.00     0.132 A 
ATOM     14  C   UNL     1     137.249 136.423 139.178  1.00  0.00    -0.039 A 
ATOM     15  C   UNL     1     138.760 137.912 137.292  1.00  0.00     0.039 A 
ATOM     16  C   UNL     1     138.171 137.380 139.604  1.00  0.00     0.013 A 
ATOM     17  C   UNL     1     136.461 135.648 140.206  1.00  0.00     0.045 C 
ATOM     18  C   UNL     1     138.961 138.115 138.691  1.00  0.00    -0.006 A 
ATOM     19  C   UNL     1     139.546 138.661 136.368  1.00  0.00     0.072 A 
ATOM     20  C   UNL     1     139.914 139.078 139.147  1.00  0.00     0.008 A 
ATOM     21  C   UNL     1     140.360 139.711 136.829  1.00  0.00     0.169 A 
ATOM     22  C   UNL     1     140.471 139.971 138.206  1.00  0.00     0.162 A 
BRANCH  13  23
ATOM     23  O   UNL     1     137.437 136.880 135.503  1.00  0.00    -0.507 OA
ATOM     24  H   UNL     1     137.429 137.658 134.854  1.00  0.00     0.293 HD
ENDBRANCH  13  23
BRANCH  19  25
ATOM     25  C   UNL     1     139.608 138.318 134.925  1.00  0.00     0.264 C 
ATOM     26  O   UNL     1     139.053 139.045 134.058  1.00  0.00    -0.298 OA
ENDBRANCH  19  25
BRANCH  20  27
ATOM     27  C   UNL     1     140.301 139.200 140.632  1.00  0.00     0.017 C 
ATOM     28  C   UNL     1     140.903 137.890 141.150  1.00  0.00     0.012 C 
ATOM     29  C   UNL     1     139.154 139.685 141.538  1.00  0.00     0.012 C 
ENDBRANCH  20  27
BRANCH  21  30
ATOM     30  O   UNL     1     141.095 140.454 135.898  1.00  0.00    -0.504 OA
ATOM     31  H   UNL     1     142.075 140.677 135.998  1.00  0.00     0.293 HD
ENDBRANCH  21  30
BRANCH  22  32
ATOM     32  O   UNL     1     141.125 141.121 138.659  1.00  0.00    -0.504 OA
ATOM     33  H   UNL     1     140.755 141.742 139.364  1.00  0.00     0.293 HD
ENDBRANCH  22  32
ENDBRANCH  11  12
BRANCH  10  34
ATOM     34  O   UNL     1     134.306 137.026 137.486  1.00  0.00    -0.507 OA
ATOM     35  H   UNL     1     134.958 137.800 137.481  1.00  0.00     0.293 HD
ENDBRANCH  10  34
BRANCH   9  36
ATOM     36  C   UNL     1     133.211 130.948 136.532  1.00  0.00     0.017 C 
ATOM     37  C   UNL     1     133.288 130.236 135.178  1.00  0.00     0.012 C 
ATOM     38  C   UNL     1     132.203 130.259 137.472  1.00  0.00     0.012 C 
ENDBRANCH   9  36
BRANCH   6  39
ATOM     39  C   UNL     1     132.016 136.666 136.144  1.00  0.00     0.264 C 
ATOM     40  O   UNL     1     131.279 137.245 136.985  1.00  0.00    -0.298 OA
ENDBRANCH   6  39
BRANCH   8  41
ATOM     41  O   UNL     1     130.781 131.973 135.418  1.00  0.00    -0.504 OA
ATOM     42  H   UNL     1     131.018 131.052 135.079  1.00  0.00     0.293 HD
ENDBRANCH   8  41
BRANCH   7  43
ATOM     43  O   UNL     1     130.127 134.748 135.524  1.00  0.00    -0.504 OA
ATOM     44  H   UNL     1     129.347 134.877 136.152  1.00  0.00     0.293 HD
ENDBRANCH   7  43
TORSDOF 11
ENDMDL
MODEL 6
REMARK VINA RESULT:    -0.305     12.064     14.115
REMARK INTER + INTRA:          -1.937
REMARK INTER:                  -0.418
REMARK INTRA:                  -1.519
REMARK UNBOUND:                -1.490
REMARK SMILES Cc1cc2c(C(C)C)c(O)c(O)c(C=O)c2c(O)c1-c1c(C)cc2c(C(C)C)c(O)c(O)c(C=O)c2c1O
REMARK SMILES IDX 1 1 2 2 3 3 4 4 16 5 13 6 11 7 9 8 5 9 17 10 19 11 20 12
REMARK SMILES IDX 37 13 21 14 36 15 23 16 22 17 24 18 33 19 25 20 31 21 29 22
REMARK SMILES IDX 38 23 34 25 35 26 26 27 27 28 28 29 32 30 30 32 18 34 6 36
REMARK SMILES IDX 7 37 8 38 14 39 15 40 10 41 12 43
REMARK H PARENT 38 24 32 31 30 33 18 35 10 42 12 44
REMARK Flexibility Score: inf
ROOT
ATOM      1  C   UNL     1     125.844 134.969 139.724  1.00  0.00     0.045 C 
ATOM      2  C   UNL     1     124.941 136.113 139.330  1.00  0.00    -0.039 A 
ATOM      3  C   UNL     1     124.642 137.102 140.268  1.00  0.00     0.013 A 
ATOM      4  C   UNL     1     123.824 138.209 139.950  1.00  0.00    -0.006 A 
ATOM      5  C   UNL     1     123.186 138.241 138.676  1.00  0.00     0.039 A 
ATOM      6  C   UNL     1     122.183 139.223 138.433  1.00  0.00     0.072 A 
ATOM      7  C   UNL     1     121.877 140.181 139.418  1.00  0.00     0.169 A 
ATOM      8  C   UNL     1     122.560 140.180 140.650  1.00  0.00     0.162 A 
ATOM      9  C   UNL     1     123.610 139.264 140.888  1.00  0.00     0.008 A 
ATOM     10  C   UNL     1     123.596 137.305 137.681  1.00  0.00     0.132 A 
ATOM     11  C   UNL     1     124.453 136.236 138.018  1.00  0.00     0.031 A 
ENDROOT
BRANCH  11  12
ATOM     12  C   UNL     1     124.839 135.234 136.989  1.00  0.00     0.031 A 
ATOM     13  C   UNL     1     124.046 134.085 136.785  1.00  0.00     0.132 A 
ATOM     14  C   UNL     1     125.972 135.457 136.192  1.00  0.00    -0.039 A 
ATOM     15  C   UNL     1     124.420 133.111 135.810  1.00  0.00     0.039 A 
ATOM     16  C   UNL     1     126.288 134.554 135.176  1.00  0.00     0.013 A 
ATOM     17  C   UNL     1     126.817 136.696 136.368  1.00  0.00     0.045 C 
ATOM     18  C   UNL     1     125.555 133.362 134.981  1.00  0.00    -0.006 A 
ATOM     19  C   UNL     1     123.669 131.916 135.608  1.00  0.00     0.072 A 
ATOM     20  C   UNL     1     125.905 132.439 133.947  1.00  0.00     0.008 A 
ATOM     21  C   UNL     1     123.932 131.104 134.491  1.00  0.00     0.169 A 
ATOM     22  C   UNL     1     124.989 131.416 133.618  1.00  0.00     0.162 A 
BRANCH  13  23
ATOM     23  O   UNL     1     122.863 133.933 137.518  1.00  0.00    -0.507 OA
ATOM     24  H   UNL     1     121.998 133.577 137.130  1.00  0.00     0.293 HD
ENDBRANCH  13  23
BRANCH  19  25
ATOM     25  C   UNL     1     122.663 131.441 136.589  1.00  0.00     0.264 C 
ATOM     26  O   UNL     1     121.428 131.540 136.356  1.00  0.00    -0.298 OA
ENDBRANCH  19  25
BRANCH  20  27
ATOM     27  C   UNL     1     127.219 132.565 133.155  1.00  0.00     0.017 C 
ATOM     28  C   UNL     1     126.957 133.100 131.743  1.00  0.00     0.012 C 
ATOM     29  C   UNL     1     128.052 131.271 133.116  1.00  0.00     0.012 C 
ENDBRANCH  20  27
BRANCH  21  30
ATOM     30  O   UNL     1     123.158 129.954 134.295  1.00  0.00    -0.504 OA
ATOM     31  H   UNL     1     122.703 129.444 135.039  1.00  0.00     0.293 HD
ENDBRANCH  21  30
BRANCH  22  32
ATOM     32  O   UNL     1     125.139 130.726 132.412  1.00  0.00    -0.504 OA
ATOM     33  H   UNL     1     124.737 129.819 132.224  1.00  0.00     0.293 HD
ENDBRANCH  22  32
ENDBRANCH  11  12
BRANCH  10  34
ATOM     34  O   UNL     1     123.188 137.463 136.352  1.00  0.00    -0.507 OA
ATOM     35  H   UNL     1     122.784 138.314 135.985  1.00  0.00     0.293 HD
ENDBRANCH  10  34
BRANCH   9  36
ATOM     36  C   UNL     1     124.479 139.407 142.150  1.00  0.00     0.017 C 
ATOM     37  C   UNL     1     123.690 139.027 143.407  1.00  0.00     0.012 C 
ATOM     38  C   UNL     1     125.139 140.791 142.298  1.00  0.00     0.012 C 
ENDBRANCH   9  36
BRANCH   6  39
ATOM     39  C   UNL     1     121.336 139.194 137.215  1.00  0.00     0.264 C 
ATOM     40  O   UNL     1     121.516 140.019 136.281  1.00  0.00    -0.298 OA
ENDBRANCH   6  39
BRANCH   8  41
ATOM     41  O   UNL     1     122.188 141.056 141.675  1.00  0.00    -0.504 OA
ATOM     42  H   UNL     1     121.555 141.835 141.569  1.00  0.00     0.293 HD
ENDBRANCH   8  41
BRANCH   7  43
ATOM     43  O   UNL     1     120.875 141.120 139.142  1.00  0.00    -0.504 OA
ATOM     44  H   UNL     1     120.221 141.480 139.822  1.00  0.00     0.293 HD
ENDBRANCH   7  43
TORSDOF 11
ENDMDL
MODEL 7
REMARK VINA RESULT:    -0.303      2.152      2.605
REMARK INTER + INTRA:          -1.935
REMARK INTER:                  -0.469
REMARK INTRA:                  -1.466
REMARK UNBOUND:                -1.490
REMARK SMILES Cc1cc2c(C(C)C)c(O)c(O)c(C=O)c2c(O)c1-c1c(C)cc2c(C(C)C)c(O)c(O)c(C=O)c2c1O
REMARK SMILES IDX 1 1 2 2 3 3 4 4 16 5 13 6 11 7 9 8 5 9 17 10 19 11 20 12
REMARK SMILES IDX 37 13 21 14 36 15 23 16 22 17 24 18 33 19 25 20 31 21 29 22
REMARK SMILES IDX 38 23 34 25 35 26 26 27 27 28 28 29 32 30 30 32 18 34 6 36
REMARK SMILES IDX 7 37 8 38 14 39 15 40 10 41 12 43
REMARK H PARENT 38 24 32 31 30 33 18 35 10 42 12 44
REMARK Flexibility Score: inf
ROOT
ATOM      1  C   UNL     1     135.818 135.523 138.478  1.00  0.00     0.045 C 
ATOM      2  C   UNL     1     136.858 136.615 138.539  1.00  0.00    -0.039 A 
ATOM      3  C   UNL     1     137.606 136.780 139.705  1.00  0.00     0.013 A 
ATOM      4  C   UNL     1     138.611 137.767 139.813  1.00  0.00    -0.006 A 
ATOM      5  C   UNL     1     138.769 138.698 138.745  1.00  0.00     0.039 A 
ATOM      6  C   UNL     1     139.611 139.832 138.937  1.00  0.00     0.072 A 
ATOM      7  C   UNL     1     140.319 139.989 140.143  1.00  0.00     0.169 A 
ATOM      8  C   UNL     1     140.206 139.030 141.169  1.00  0.00     0.162 A 
ATOM      9  C   UNL     1     139.437 137.860 140.974  1.00  0.00     0.008 A 
ATOM     10  C   UNL     1     138.101 138.444 137.511  1.00  0.00     0.132 A 
ATOM     11  C   UNL     1     137.136 137.419 137.421  1.00  0.00     0.031 A 
ENDROOT
BRANCH  11  12
ATOM     12  C   UNL     1     136.404 137.190 136.146  1.00  0.00     0.031 A 
ATOM     13  C   UNL     1     135.210 137.890 135.878  1.00  0.00     0.132 A 
ATOM     14  C   UNL     1     136.931 136.305 135.192  1.00  0.00    -0.039 A 
ATOM     15  C   UNL     1     134.494 137.663 134.663  1.00  0.00     0.039 A 
ATOM     16  C   UNL     1     136.283 136.150 133.966  1.00  0.00     0.013 A 
ATOM     17  C   UNL     1     138.225 135.569 135.443  1.00  0.00     0.045 C 
ATOM     18  C   UNL     1     135.053 136.787 133.684  1.00  0.00    -0.006 A 
ATOM     19  C   UNL     1     133.261 138.317 134.377  1.00  0.00     0.072 A 
ATOM     20  C   UNL     1     134.395 136.600 132.429  1.00  0.00     0.008 A 
ATOM     21  C   UNL     1     132.712 138.247 133.084  1.00  0.00     0.169 A 
ATOM     22  C   UNL     1     133.328 137.462 132.093  1.00  0.00     0.162 A 
BRANCH  13  23
ATOM     23  O   UNL     1     134.757 138.845 136.796  1.00  0.00    -0.507 OA
ATOM     24  H   UNL     1     134.281 139.700 136.534  1.00  0.00     0.293 HD
ENDBRANCH  13  23
BRANCH  19  25
ATOM     25  C   UNL     1     132.474 139.011 135.426  1.00  0.00     0.264 C 
ATOM     26  O   UNL     1     132.268 140.253 135.373  1.00  0.00    -0.298 OA
ENDBRANCH  19  25
BRANCH  20  27
ATOM     27  C   UNL     1     134.853 135.530 131.421  1.00  0.00     0.017 C 
ATOM     28  C   UNL     1     135.591 136.170 130.241  1.00  0.00     0.012 C 
ATOM     29  C   UNL     1     133.722 134.605 130.936  1.00  0.00     0.012 C 
ENDBRANCH  20  27
BRANCH  21  30
ATOM     30  O   UNL     1     131.518 138.927 132.819  1.00  0.00    -0.504 OA
ATOM     31  H   UNL     1     130.739 138.527 132.317  1.00  0.00     0.293 HD
ENDBRANCH  21  30
BRANCH  22  32
ATOM     32  O   UNL     1     132.899 137.534 130.765  1.00  0.00    -0.504 OA
ATOM     33  H   UNL     1     132.768 136.729 130.168  1.00  0.00     0.293 HD
ENDBRANCH  22  32
ENDBRANCH  11  12
BRANCH  10  34
ATOM     34  O   UNL     1     138.427 139.180 136.366  1.00  0.00    -0.507 OA
ATOM     35  H   UNL     1     138.483 138.783 135.438  1.00  0.00     0.293 HD
ENDBRANCH  10  34
BRANCH   9  36
ATOM     36  C   UNL     1     139.486 136.729 142.016  1.00  0.00     0.017 C 
ATOM     37  C   UNL     1     139.920 135.407 141.373  1.00  0.00     0.012 C 
ATOM     38  C   UNL     1     138.180 136.562 142.815  1.00  0.00     0.012 C 
ENDBRANCH   9  36
BRANCH   6  39
ATOM     39  C   UNL     1     139.668 140.942 137.956  1.00  0.00     0.264 C 
ATOM     40  O   UNL     1     140.676 141.105 137.218  1.00  0.00    -0.298 OA
ENDBRANCH   6  39
BRANCH   8  41
ATOM     41  O   UNL     1     140.817 139.233 142.410  1.00  0.00    -0.504 OA
ATOM     42  H   UNL     1     141.466 139.976 142.620  1.00  0.00     0.293 HD
ENDBRANCH   8  41
BRANCH   7  43
ATOM     43  O   UNL     1     141.125 141.125 140.296  1.00  0.00    -0.504 OA
ATOM     44  H   UNL     1     141.064 141.955 139.724  1.00  0.00     0.293 HD
ENDBRANCH   7  43
TORSDOF 11
ENDMDL
MODEL 8
REMARK VINA RESULT:    -0.301      3.436      5.188
REMARK INTER + INTRA:          -1.931
REMARK INTER:                  -0.454
REMARK INTRA:                  -1.477
REMARK UNBOUND:                -1.490
REMARK SMILES Cc1cc2c(C(C)C)c(O)c(O)c(C=O)c2c(O)c1-c1c(C)cc2c(C(C)C)c(O)c(O)c(C=O)c2c1O
REMARK SMILES IDX 1 1 2 2 3 3 4 4 16 5 13 6 11 7 9 8 5 9 17 10 19 11 20 12
REMARK SMILES IDX 37 13 21 14 36 15 23 16 22 17 24 18 33 19 25 20 31 21 29 22
REMARK SMILES IDX 38 23 34 25 35 26 26 27 27 28 28 29 32 30 30 32 18 34 6 36
REMARK SMILES IDX 7 37 8 38 14 39 15 40 10 41 12 43
REMARK H PARENT 38 24 32 31 30 33 18 35 10 42 12 44
REMARK Flexibility Score: inf
ROOT
ATOM      1  C   UNL     1     134.650 137.677 140.535  1.00  0.00     0.045 C 
ATOM      2  C   UNL     1     135.624 138.191 139.503  1.00  0.00    -0.039 A 
ATOM      3  C   UNL     1     136.866 138.676 139.917  1.00  0.00     0.013 A 
ATOM      4  C   UNL     1     137.827 139.146 138.996  1.00  0.00    -0.006 A 
ATOM      5  C   UNL     1     137.462 139.247 137.622  1.00  0.00     0.039 A 
ATOM      6  C   UNL     1     138.332 139.933 136.726  1.00  0.00     0.072 A 
ATOM      7  C   UNL     1     139.560 140.446 137.187  1.00  0.00     0.169 A 
ATOM      8  C   UNL     1     139.941 140.284 138.533  1.00  0.00     0.162 A 
ATOM      9  C   UNL     1     139.130 139.544 139.423  1.00  0.00     0.008 A 
ATOM     10  C   UNL     1     136.251 138.631 137.188  1.00  0.00     0.132 A 
ATOM     11  C   UNL     1     135.331 138.126 138.131  1.00  0.00     0.031 A 
ENDROOT
BRANCH  11  12
ATOM     12  C   UNL     1     134.047 137.530 137.677  1.00  0.00     0.031 A 
ATOM     13  C   UNL     1     133.958 136.145 137.421  1.00  0.00     0.132 A 
ATOM     14  C   UNL     1     132.910 138.344 137.545  1.00  0.00    -0.039 A 
ATOM     15  C   UNL     1     132.731 135.570 136.970  1.00  0.00     0.039 A 
ATOM     16  C   UNL     1     131.688 137.769 137.193  1.00  0.00     0.013 A 
ATOM     17  C   UNL     1     132.973 139.822 137.845  1.00  0.00     0.045 C 
ATOM     18  C   UNL     1     131.572 136.398 136.870  1.00  0.00    -0.006 A 
ATOM     19  C   UNL     1     132.615 134.183 136.659  1.00  0.00     0.072 A 
ATOM     20  C   UNL     1     130.316 135.831 136.494  1.00  0.00     0.008 A 
ATOM     21  C   UNL     1     131.347 133.616 136.445  1.00  0.00     0.169 A 
ATOM     22  C   UNL     1     130.197 134.425 136.452  1.00  0.00     0.162 A 
BRANCH  13  23
ATOM     23  O   UNL     1     135.073 135.334 137.659  1.00  0.00    -0.507 OA
ATOM     24  H   UNL     1     135.757 135.091 136.953  1.00  0.00     0.293 HD
ENDBRANCH  13  23
BRANCH  19  25
ATOM     25  C   UNL     1     133.804 133.317 136.462  1.00  0.00     0.264 C 
ATOM     26  O   UNL     1     134.124 132.446 137.315  1.00  0.00    -0.298 OA
ENDBRANCH  19  25
BRANCH  20  27
ATOM     27  C   UNL     1     129.086 136.707 136.190  1.00  0.00     0.017 C 
ATOM     28  C   UNL     1     128.130 136.741 137.387  1.00  0.00     0.012 C 
ATOM     29  C   UNL     1     128.348 136.319 134.896  1.00  0.00     0.012 C 
ENDBRANCH  20  27
BRANCH  21  30
ATOM     30  O   UNL     1     131.256 132.245 136.175  1.00  0.00    -0.504 OA
ATOM     31  H   UNL     1     130.668 131.605 136.689  1.00  0.00     0.293 HD
ENDBRANCH  21  30
BRANCH  22  32
ATOM     32  O   UNL     1     128.924 133.847 136.427  1.00  0.00    -0.504 OA
ATOM     33  H   UNL     1     128.550 133.333 135.642  1.00  0.00     0.293 HD
ENDBRANCH  22  32
ENDBRANCH  11  12
BRANCH  10  34
ATOM     34  O   UNL     1     135.984 138.482 135.822  1.00  0.00    -0.507 OA
ATOM     35  H   UNL     1     135.117 138.761 135.384  1.00  0.00     0.293 HD
ENDBRANCH  10  34
BRANCH   9  36
ATOM     36  C   UNL     1     139.653 139.202 140.830  1.00  0.00     0.017 C 
ATOM     37  C   UNL     1     139.733 140.456 141.707  1.00  0.00     0.012 C 
ATOM     38  C   UNL     1     140.987 138.432 140.829  1.00  0.00     0.012 C 
ENDBRANCH   9  36
BRANCH   6  39
ATOM     39  C   UNL     1     137.932 140.255 135.334  1.00  0.00     0.264 C 
ATOM     40  O   UNL     1     138.422 139.629 134.358  1.00  0.00    -0.298 OA
ENDBRANCH   6  39
BRANCH   8  41
ATOM     41  O   UNL     1     141.104 140.885 139.026  1.00  0.00    -0.504 OA
ATOM     42  H   UNL     1     141.239 141.191 139.978  1.00  0.00     0.293 HD
ENDBRANCH   8  41
BRANCH   7  43
ATOM     43  O   UNL     1     140.379 141.125 136.276  1.00  0.00    -0.504 OA
ATOM     44  H   UNL     1     141.275 140.793 135.950  1.00  0.00     0.293 HD
ENDBRANCH   7  43
TORSDOF 11
ENDMDL
