MODEL 1
REMARK VINA RESULT:    -5.751      0.000      0.000
REMARK INTER + INTRA:         -12.307
REMARK INTER:                 -10.458
REMARK INTRA:                  -1.849
REMARK UNBOUND:                -1.849
REMARK SMILES CCCCCC=CCC=CCCCCCCCC(=O)[O-]
REMARK SMILES IDX 11 1 12 2 13 3 14 4 15 5 16 6 17 7 18 8 19 9 20 10 10 11
REMARK SMILES IDX 9 12 8 13 7 14 6 15 5 16 4 17 3 18 2 19 1 20
REMARK H PARENT
REMARK Flexibility Score: inf
ROOT
ATOM      1  C   UNL     1      83.447 -73.407   0.459  1.00  0.00     0.027 C 
ENDROOT
BRANCH   1   2
ATOM      2  C   UNL     1      83.405 -71.919   0.838  1.00  0.00     0.004 C 
BRANCH   2   3
ATOM      3  C   UNL     1      82.017 -71.296   0.632  1.00  0.00     0.000 C 
BRANCH   3   4
ATOM      4  C   UNL     1      82.060 -69.762   0.585  1.00  0.00     0.000 C 
BRANCH   4   5
ATOM      5  C   UNL     1      81.346 -69.230  -0.664  1.00  0.00     0.000 C 
BRANCH   5   6
ATOM      6  C   UNL     1      81.359 -70.271  -1.793  1.00  0.00     0.006 C 
BRANCH   6   7
ATOM      7  C   UNL     1      82.164 -69.796  -3.011  1.00  0.00     0.053 C 
BRANCH   7   8
ATOM      8  C   UNL     1      83.523 -70.423  -3.058  1.00  0.00     0.041 C 
ATOM      9  O   UNL     1      84.320 -70.282  -2.094  1.00  0.00    -0.550 OA
ATOM     10  O   UNL     1      83.922 -71.137  -4.181  1.00  0.00    -0.550 OA
ENDBRANCH   7   8
ENDBRANCH   6   7
ENDBRANCH   5   6
ENDBRANCH   4   5
ENDBRANCH   3   4
ENDBRANCH   2   3
ENDBRANCH   1   2
BRANCH   1  11
ATOM     11  C   UNL     1      82.540 -73.693  -0.706  1.00  0.00    -0.031 C 
ATOM     12  C   UNL     1      82.889 -74.558  -1.672  1.00  0.00    -0.027 C 
BRANCH  12  13
ATOM     13  C   UNL     1      81.985 -74.838  -2.837  1.00  0.00     0.054 C 
BRANCH  13  14
ATOM     14  C   UNL     1      81.549 -73.545  -3.482  1.00  0.00    -0.027 C 
ATOM     15  C   UNL     1      80.517 -73.414  -4.336  1.00  0.00    -0.031 C 
BRANCH  15  16
ATOM     16  C   UNL     1      79.654 -74.549  -4.832  1.00  0.00     0.027 C 
BRANCH  16  17
ATOM     17  C   UNL     1      78.209 -74.103  -5.105  1.00  0.00     0.004 C 
BRANCH  17  18
ATOM     18  C   UNL     1      77.183 -75.132  -4.600  1.00  0.00     0.000 C 
BRANCH  18  19
ATOM     19  C   UNL     1      76.108 -74.500  -3.703  1.00  0.00    -0.003 C 
ATOM     20  C   UNL     1      76.481 -73.092  -3.237  1.00  0.00     0.004 C 
ENDBRANCH  18  19
ENDBRANCH  17  18
ENDBRANCH  16  17
ENDBRANCH  15  16
ENDBRANCH  13  14
ENDBRANCH  12  13
ENDBRANCH   1  11
TORSDOF 14
ENDMDL
MODEL 2
REMARK VINA RESULT:    -5.356      4.108      6.795
REMARK INTER + INTRA:         -11.588
REMARK INTER:                  -8.591
REMARK INTRA:                  -2.997
REMARK UNBOUND:                -1.849
REMARK SMILES CCCCCC=CCC=CCCCCCCCC(=O)[O-]
REMARK SMILES IDX 11 1 12 2 13 3 14 4 15 5 16 6 17 7 18 8 19 9 20 10 10 11
REMARK SMILES IDX 9 12 8 13 7 14 6 15 5 16 4 17 3 18 2 19 1 20
REMARK H PARENT
REMARK Flexibility Score: inf
ROOT
ATOM      1  C   UNL     1      82.590 -70.512  -4.511  1.00  0.00     0.027 C 
ENDROOT
BRANCH   1   2
ATOM      2  C   UNL     1      83.477 -69.368  -5.025  1.00  0.00     0.004 C 
BRANCH   2   3
ATOM      3  C   UNL     1      83.079 -68.004  -4.441  1.00  0.00     0.000 C 
BRANCH   3   4
ATOM      4  C   UNL     1      84.293 -67.171  -4.007  1.00  0.00     0.000 C 
BRANCH   4   5
ATOM      5  C   UNL     1      83.855 -65.914  -3.245  1.00  0.00     0.000 C 
BRANCH   5   6
ATOM      6  C   UNL     1      83.041 -66.283  -1.996  1.00  0.00     0.006 C 
BRANCH   6   7
ATOM      7  C   UNL     1      81.558 -65.917  -2.140  1.00  0.00     0.053 C 
BRANCH   7   8
ATOM      8  C   UNL     1      81.156 -64.838  -1.182  1.00  0.00     0.041 C 
ATOM      9  O   UNL     1      80.135 -64.137  -1.410  1.00  0.00    -0.550 OA
ATOM     10  O   UNL     1      81.925 -64.586  -0.054  1.00  0.00    -0.550 OA
ENDBRANCH   7   8
ENDBRANCH   6   7
ENDBRANCH   5   6
ENDBRANCH   4   5
ENDBRANCH   3   4
ENDBRANCH   2   3
ENDBRANCH   1   2
BRANCH   1  11
ATOM     11  C   UNL     1      81.865 -70.111  -3.256  1.00  0.00    -0.031 C 
ATOM     12  C   UNL     1      81.325 -71.024  -2.434  1.00  0.00    -0.027 C 
BRANCH  12  13
ATOM     13  C   UNL     1      80.597 -70.622  -1.185  1.00  0.00     0.054 C 
BRANCH  13  14
ATOM     14  C   UNL     1      81.097 -69.284  -0.697  1.00  0.00    -0.027 C 
ATOM     15  C   UNL     1      82.046 -69.106   0.242  1.00  0.00    -0.031 C 
BRANCH  15  16
ATOM     16  C   UNL     1      82.730 -70.217   1.001  1.00  0.00     0.027 C 
BRANCH  16  17
ATOM     17  C   UNL     1      84.191 -70.403   0.563  1.00  0.00     0.004 C 
BRANCH  17  18
ATOM     18  C   UNL     1      84.616 -69.363  -0.487  1.00  0.00     0.000 C 
BRANCH  18  19
ATOM     19  C   UNL     1      85.258 -70.006  -1.726  1.00  0.00    -0.003 C 
ATOM     20  C   UNL     1      84.964 -71.502  -1.834  1.00  0.00     0.004 C 
ENDBRANCH  18  19
ENDBRANCH  17  18
ENDBRANCH  16  17
ENDBRANCH  15  16
ENDBRANCH  13  14
ENDBRANCH  12  13
ENDBRANCH   1  11
TORSDOF 14
ENDMDL
MODEL 3
REMARK VINA RESULT:    -5.311      3.301      6.337
REMARK INTER + INTRA:         -11.506
REMARK INTER:                  -8.959
REMARK INTRA:                  -2.548
REMARK UNBOUND:                -1.849
REMARK SMILES CCCCCC=CCC=CCCCCCCCC(=O)[O-]
REMARK SMILES IDX 11 1 12 2 13 3 14 4 15 5 16 6 17 7 18 8 19 9 20 10 10 11
REMARK SMILES IDX 9 12 8 13 7 14 6 15 5 16 4 17 3 18 2 19 1 20
REMARK H PARENT
REMARK Flexibility Score: inf
ROOT
ATOM      1  C   UNL     1      81.276 -70.957  -2.660  1.00  0.00     0.027 C 
ENDROOT
BRANCH   1   2
ATOM      2  C   UNL     1      80.733 -70.742  -1.239  1.00  0.00     0.004 C 
BRANCH   2   3
ATOM      3  C   UNL     1      81.099 -69.364  -0.669  1.00  0.00     0.000 C 
BRANCH   3   4
ATOM      4  C   UNL     1      82.106 -69.452   0.487  1.00  0.00     0.000 C 
BRANCH   4   5
ATOM      5  C   UNL     1      82.295 -70.904   0.942  1.00  0.00     0.000 C 
BRANCH   5   6
ATOM      6  C   UNL     1      83.780 -71.295   0.934  1.00  0.00     0.006 C 
BRANCH   6   7
ATOM      7  C   UNL     1      84.492 -70.850  -0.351  1.00  0.00     0.053 C 
BRANCH   7   8
ATOM      8  C   UNL     1      84.514 -71.939  -1.379  1.00  0.00     0.041 C 
ATOM      9  O   UNL     1      85.113 -71.764  -2.474  1.00  0.00    -0.550 OA
ATOM     10  O   UNL     1      83.849 -73.135  -1.143  1.00  0.00    -0.550 OA
ENDBRANCH   7   8
ENDBRANCH   6   7
ENDBRANCH   5   6
ENDBRANCH   4   5
ENDBRANCH   3   4
ENDBRANCH   2   3
ENDBRANCH   1   2
BRANCH   1  11
ATOM     11  C   UNL     1      82.082 -69.773  -3.115  1.00  0.00    -0.031 C 
ATOM     12  C   UNL     1      82.741 -69.778  -4.285  1.00  0.00    -0.027 C 
BRANCH  12  13
ATOM     13  C   UNL     1      83.550 -68.597  -4.735  1.00  0.00     0.054 C 
BRANCH  13  14
ATOM     14  C   UNL     1      84.803 -68.475  -3.903  1.00  0.00    -0.027 C 
ATOM     15  C   UNL     1      85.063 -67.480  -3.033  1.00  0.00    -0.031 C 
BRANCH  15  16
ATOM     16  C   UNL     1      84.166 -66.292  -2.785  1.00  0.00     0.027 C 
BRANCH  16  17
ATOM     17  C   UNL     1      83.178 -66.543  -1.635  1.00  0.00     0.004 C 
BRANCH  17  18
ATOM     18  C   UNL     1      81.756 -66.071  -1.984  1.00  0.00     0.000 C 
BRANCH  18  19
ATOM     19  C   UNL     1      81.357 -64.794  -1.228  1.00  0.00    -0.003 C 
ATOM     20  C   UNL     1      79.978 -64.274  -1.633  1.00  0.00     0.004 C 
ENDBRANCH  18  19
ENDBRANCH  17  18
ENDBRANCH  16  17
ENDBRANCH  15  16
ENDBRANCH  13  14
ENDBRANCH  12  13
ENDBRANCH   1  11
TORSDOF 14
ENDMDL
MODEL 4
REMARK VINA RESULT:    -5.308      2.642      4.073
REMARK INTER + INTRA:         -11.502
REMARK INTER:                  -8.804
REMARK INTRA:                  -2.698
REMARK UNBOUND:                -1.849
REMARK SMILES CCCCCC=CCC=CCCCCCCCC(=O)[O-]
REMARK SMILES IDX 11 1 12 2 13 3 14 4 15 5 16 6 17 7 18 8 19 9 20 10 10 11
REMARK SMILES IDX 9 12 8 13 7 14 6 15 5 16 4 17 3 18 2 19 1 20
REMARK H PARENT
REMARK Flexibility Score: inf
ROOT
ATOM      1  C   UNL     1      83.481 -74.249  -0.367  1.00  0.00     0.027 C 
ENDROOT
BRANCH   1   2
ATOM      2  C   UNL     1      83.291 -73.016   0.530  1.00  0.00     0.004 C 
BRANCH   2   3
ATOM      3  C   UNL     1      82.031 -72.214   0.173  1.00  0.00     0.000 C 
BRANCH   3   4
ATOM      4  C   UNL     1      82.241 -70.699   0.297  1.00  0.00     0.000 C 
BRANCH   4   5
ATOM      5  C   UNL     1      81.294 -69.934  -0.636  1.00  0.00     0.000 C 
BRANCH   5   6
ATOM      6  C   UNL     1      81.605 -68.430  -0.627  1.00  0.00     0.006 C 
BRANCH   6   7
ATOM      7  C   UNL     1      82.317 -67.977  -1.908  1.00  0.00     0.053 C 
BRANCH   7   8
ATOM      8  C   UNL     1      83.293 -66.872  -1.641  1.00  0.00     0.041 C 
ATOM      9  O   UNL     1      84.486 -67.140  -1.337  1.00  0.00    -0.550 OA
ATOM     10  O   UNL     1      82.879 -65.548  -1.696  1.00  0.00    -0.550 OA
ENDBRANCH   7   8
ENDBRANCH   6   7
ENDBRANCH   5   6
ENDBRANCH   4   5
ENDBRANCH   3   4
ENDBRANCH   2   3
ENDBRANCH   1   2
BRANCH   1  11
ATOM     11  C   UNL     1      82.427 -74.306  -1.437  1.00  0.00    -0.031 C 
ATOM     12  C   UNL     1      82.457 -75.235  -2.405  1.00  0.00    -0.027 C 
BRANCH  12  13
ATOM     13  C   UNL     1      81.407 -75.287  -3.475  1.00  0.00     0.054 C 
BRANCH  13  14
ATOM     14  C   UNL     1      81.914 -74.631  -4.736  1.00  0.00    -0.027 C 
ATOM     15  C   UNL     1      81.838 -73.315  -5.010  1.00  0.00    -0.031 C 
BRANCH  15  16
ATOM     16  C   UNL     1      81.185 -72.283  -4.123  1.00  0.00     0.027 C 
BRANCH  16  17
ATOM     17  C   UNL     1      82.018 -70.995  -4.023  1.00  0.00     0.004 C 
BRANCH  17  18
ATOM     18  C   UNL     1      83.524 -71.269  -4.166  1.00  0.00     0.000 C 
BRANCH  18  19
ATOM     19  C   UNL     1      84.196 -71.580  -2.820  1.00  0.00    -0.003 C 
ATOM     20  C   UNL     1      85.089 -70.440  -2.328  1.00  0.00     0.004 C 
ENDBRANCH  18  19
ENDBRANCH  17  18
ENDBRANCH  16  17
ENDBRANCH  15  16
ENDBRANCH  13  14
ENDBRANCH  12  13
ENDBRANCH   1  11
TORSDOF 14
ENDMDL
MODEL 5
REMARK VINA RESULT:    -5.307      2.969      7.149
REMARK INTER + INTRA:         -11.500
REMARK INTER:                  -9.764
REMARK INTRA:                  -1.736
REMARK UNBOUND:                -1.849
REMARK SMILES CCCCCC=CCC=CCCCCCCCC(=O)[O-]
REMARK SMILES IDX 11 1 12 2 13 3 14 4 15 5 16 6 17 7 18 8 19 9 20 10 10 11
REMARK SMILES IDX 9 12 8 13 7 14 6 15 5 16 4 17 3 18 2 19 1 20
REMARK H PARENT
REMARK Flexibility Score: inf
ROOT
ATOM      1  C   UNL     1      82.305 -71.828  -4.648  1.00  0.00     0.027 C 
ENDROOT
BRANCH   1   2
ATOM      2  C   UNL     1      81.152 -72.541  -3.926  1.00  0.00     0.004 C 
BRANCH   2   3
ATOM      3  C   UNL     1      81.551 -73.928  -3.400  1.00  0.00     0.000 C 
BRANCH   3   4
ATOM      4  C   UNL     1      80.897 -75.070  -4.189  1.00  0.00     0.000 C 
BRANCH   4   5
ATOM      5  C   UNL     1      79.805 -74.537  -5.125  1.00  0.00     0.000 C 
BRANCH   5   6
ATOM      6  C   UNL     1      78.406 -74.880  -4.592  1.00  0.00     0.006 C 
BRANCH   6   7
ATOM      7  C   UNL     1      77.444 -73.688  -4.677  1.00  0.00     0.053 C 
BRANCH   7   8
ATOM      8  C   UNL     1      76.385 -73.752  -3.620  1.00  0.00     0.041 C 
ATOM      9  O   UNL     1      75.551 -74.696  -3.615  1.00  0.00    -0.550 OA
ATOM     10  O   UNL     1      76.298 -72.753  -2.659  1.00  0.00    -0.550 OA
ENDBRANCH   7   8
ENDBRANCH   6   7
ENDBRANCH   5   6
ENDBRANCH   4   5
ENDBRANCH   3   4
ENDBRANCH   2   3
ENDBRANCH   1   2
BRANCH   1  11
ATOM     11  C   UNL     1      82.490 -70.432  -4.123  1.00  0.00    -0.031 C 
ATOM     12  C   UNL     1      82.048 -70.074  -2.907  1.00  0.00    -0.027 C 
BRANCH  12  13
ATOM     13  C   UNL     1      82.228 -68.678  -2.386  1.00  0.00     0.054 C 
BRANCH  13  14
ATOM     14  C   UNL     1      81.842 -68.610  -0.929  1.00  0.00    -0.027 C 
ATOM     15  C   UNL     1      82.703 -68.654   0.105  1.00  0.00    -0.031 C 
BRANCH  15  16
ATOM     16  C   UNL     1      84.197 -68.831  -0.021  1.00  0.00     0.027 C 
BRANCH  16  17
ATOM     17  C   UNL     1      84.648 -70.244   0.378  1.00  0.00     0.004 C 
BRANCH  17  18
ATOM     18  C   UNL     1      83.667 -70.907   1.360  1.00  0.00     0.000 C 
BRANCH  18  19
ATOM     19  C   UNL     1      83.172 -72.275   0.864  1.00  0.00    -0.003 C 
ATOM     20  C   UNL     1      81.838 -72.186   0.123  1.00  0.00     0.004 C 
ENDBRANCH  18  19
ENDBRANCH  17  18
ENDBRANCH  16  17
ENDBRANCH  15  16
ENDBRANCH  13  14
ENDBRANCH  12  13
ENDBRANCH   1  11
TORSDOF 14
ENDMDL
MODEL 6
REMARK VINA RESULT:    -5.272      3.342      6.940
REMARK INTER + INTRA:         -11.437
REMARK INTER:                  -8.695
REMARK INTRA:                  -2.742
REMARK UNBOUND:                -1.849
REMARK SMILES CCCCCC=CCC=CCCCCCCCC(=O)[O-]
REMARK SMILES IDX 11 1 12 2 13 3 14 4 15 5 16 6 17 7 18 8 19 9 20 10 10 11
REMARK SMILES IDX 9 12 8 13 7 14 6 15 5 16 4 17 3 18 2 19 1 20
REMARK H PARENT
REMARK Flexibility Score: inf
ROOT
ATOM      1  C   UNL     1      81.552 -70.523  -2.743  1.00  0.00     0.027 C 
ENDROOT
BRANCH   1   2
ATOM      2  C   UNL     1      80.818 -70.522  -1.393  1.00  0.00     0.004 C 
BRANCH   2   3
ATOM      3  C   UNL     1      81.429 -69.532  -0.389  1.00  0.00     0.000 C 
BRANCH   3   4
ATOM      4  C   UNL     1      82.107 -70.235   0.795  1.00  0.00     0.000 C 
BRANCH   4   5
ATOM      5  C   UNL     1      81.968 -71.759   0.683  1.00  0.00     0.000 C 
BRANCH   5   6
ATOM      6  C   UNL     1      83.343 -72.442   0.722  1.00  0.00     0.006 C 
BRANCH   6   7
ATOM      7  C   UNL     1      83.944 -72.618  -0.679  1.00  0.00     0.053 C 
BRANCH   7   8
ATOM      8  C   UNL     1      83.271 -73.718  -1.440  1.00  0.00     0.041 C 
ATOM      9  O   UNL     1      83.096 -73.614  -2.683  1.00  0.00    -0.550 OA
ATOM     10  O   UNL     1      82.807 -74.844  -0.772  1.00  0.00    -0.550 OA
ENDBRANCH   7   8
ENDBRANCH   6   7
ENDBRANCH   5   6
ENDBRANCH   4   5
ENDBRANCH   3   4
ENDBRANCH   2   3
ENDBRANCH   1   2
BRANCH   1  11
ATOM     11  C   UNL     1      82.305 -69.239  -2.949  1.00  0.00    -0.031 C 
ATOM     12  C   UNL     1      82.953 -68.980  -4.096  1.00  0.00    -0.027 C 
BRANCH  12  13
ATOM     13  C   UNL     1      83.710 -67.700  -4.298  1.00  0.00     0.054 C 
BRANCH  13  14
ATOM     14  C   UNL     1      82.845 -66.519  -3.931  1.00  0.00    -0.027 C 
ATOM     15  C   UNL     1      83.098 -65.653  -2.931  1.00  0.00    -0.031 C 
BRANCH  15  16
ATOM     16  C   UNL     1      84.263 -65.750  -1.977  1.00  0.00     0.027 C 
BRANCH  16  17
ATOM     17  C   UNL     1      83.983 -66.719  -0.817  1.00  0.00     0.004 C 
BRANCH  17  18
ATOM     18  C   UNL     1      85.241 -67.502  -0.404  1.00  0.00     0.000 C 
BRANCH  18  19
ATOM     19  C   UNL     1      85.120 -69.006  -0.696  1.00  0.00    -0.003 C 
ATOM     20  C   UNL     1      86.331 -69.801  -0.210  1.00  0.00     0.004 C 
ENDBRANCH  18  19
ENDBRANCH  17  18
ENDBRANCH  16  17
ENDBRANCH  15  16
ENDBRANCH  13  14
ENDBRANCH  12  13
ENDBRANCH   1  11
TORSDOF 14
ENDMDL
MODEL 7
REMARK VINA RESULT:    -5.272      2.969      6.840
REMARK INTER + INTRA:         -11.436
REMARK INTER:                  -9.249
REMARK INTRA:                  -2.188
REMARK UNBOUND:                -1.849
REMARK SMILES CCCCCC=CCC=CCCCCCCCC(=O)[O-]
REMARK SMILES IDX 11 1 12 2 13 3 14 4 15 5 16 6 17 7 18 8 19 9 20 10 10 11
REMARK SMILES IDX 9 12 8 13 7 14 6 15 5 16 4 17 3 18 2 19 1 20
REMARK H PARENT
REMARK Flexibility Score: inf
ROOT
ATOM      1  C   UNL     1      80.839 -71.621  -2.629  1.00  0.00     0.027 C 
ENDROOT
BRANCH   1   2
ATOM      2  C   UNL     1      81.580 -72.568  -3.586  1.00  0.00     0.004 C 
BRANCH   2   3
ATOM      3  C   UNL     1      82.237 -73.749  -2.857  1.00  0.00     0.000 C 
BRANCH   3   4
ATOM      4  C   UNL     1      83.416 -73.316  -1.975  1.00  0.00     0.000 C 
BRANCH   4   5
ATOM      5  C   UNL     1      83.340 -73.973  -0.591  1.00  0.00     0.000 C 
BRANCH   5   6
ATOM      6  C   UNL     1      83.003 -72.939   0.492  1.00  0.00     0.006 C 
BRANCH   6   7
ATOM      7  C   UNL     1      83.746 -71.613   0.280  1.00  0.00     0.053 C 
BRANCH   7   8
ATOM      8  C   UNL     1      83.420 -70.616   1.350  1.00  0.00     0.041 C 
ATOM      9  O   UNL     1      84.157 -70.514   2.366  1.00  0.00    -0.550 OA
ATOM     10  O   UNL     1      82.286 -69.822   1.240  1.00  0.00    -0.550 OA
ENDBRANCH   7   8
ENDBRANCH   6   7
ENDBRANCH   5   6
ENDBRANCH   4   5
ENDBRANCH   3   4
ENDBRANCH   2   3
ENDBRANCH   1   2
BRANCH   1  11
ATOM     11  C   UNL     1      81.570 -70.314  -2.489  1.00  0.00    -0.031 C 
ATOM     12  C   UNL     1      82.288 -69.799  -3.499  1.00  0.00    -0.027 C 
BRANCH  12  13
ATOM     13  C   UNL     1      83.022 -68.498  -3.356  1.00  0.00     0.054 C 
BRANCH  13  14
ATOM     14  C   UNL     1      84.167 -68.648  -2.384  1.00  0.00    -0.027 C 
ATOM     15  C   UNL     1      84.279 -67.998  -1.211  1.00  0.00    -0.031 C 
BRANCH  15  16
ATOM     16  C   UNL     1      83.302 -66.970  -0.695  1.00  0.00     0.027 C 
BRANCH  16  17
ATOM     17  C   UNL     1      83.715 -65.538  -1.070  1.00  0.00     0.004 C 
BRANCH  17  18
ATOM     18  C   UNL     1      82.663 -64.848  -1.955  1.00  0.00     0.000 C 
BRANCH  18  19
ATOM     19  C   UNL     1      81.270 -65.479  -1.814  1.00  0.00    -0.003 C 
ATOM     20  C   UNL     1      80.175 -64.443  -1.558  1.00  0.00     0.004 C 
ENDBRANCH  18  19
ENDBRANCH  17  18
ENDBRANCH  16  17
ENDBRANCH  15  16
ENDBRANCH  13  14
ENDBRANCH  12  13
ENDBRANCH   1  11
TORSDOF 14
ENDMDL
MODEL 8
REMARK VINA RESULT:    -5.251      3.002      7.028
REMARK INTER + INTRA:         -11.397
REMARK INTER:                  -9.552
REMARK INTRA:                  -1.845
REMARK UNBOUND:                -1.849
REMARK SMILES CCCCCC=CCC=CCCCCCCCC(=O)[O-]
REMARK SMILES IDX 11 1 12 2 13 3 14 4 15 5 16 6 17 7 18 8 19 9 20 10 10 11
REMARK SMILES IDX 9 12 8 13 7 14 6 15 5 16 4 17 3 18 2 19 1 20
REMARK H PARENT
REMARK Flexibility Score: inf
ROOT
ATOM      1  C   UNL     1      83.249 -73.898  -0.442  1.00  0.00     0.027 C 
ENDROOT
BRANCH   1   2
ATOM      2  C   UNL     1      82.643 -74.906  -1.430  1.00  0.00     0.004 C 
BRANCH   2   3
ATOM      3  C   UNL     1      82.276 -74.265  -2.777  1.00  0.00     0.000 C 
BRANCH   3   4
ATOM      4  C   UNL     1      81.539 -75.235  -3.711  1.00  0.00     0.000 C 
BRANCH   4   5
ATOM      5  C   UNL     1      81.213 -74.567  -5.053  1.00  0.00     0.000 C 
BRANCH   5   6
ATOM      6  C   UNL     1      79.731 -74.170  -5.125  1.00  0.00     0.006 C 
BRANCH   6   7
ATOM      7  C   UNL     1      78.813 -75.240  -4.518  1.00  0.00     0.053 C 
BRANCH   7   8
ATOM      8  C   UNL     1      77.377 -74.816  -4.537  1.00  0.00     0.041 C 
ATOM      9  O   UNL     1      77.056 -73.684  -4.987  1.00  0.00    -0.550 OA
ATOM     10  O   UNL     1      76.395 -75.656  -4.029  1.00  0.00    -0.550 OA
ENDBRANCH   7   8
ENDBRANCH   6   7
ENDBRANCH   5   6
ENDBRANCH   4   5
ENDBRANCH   3   4
ENDBRANCH   2   3
ENDBRANCH   1   2
BRANCH   1  11
ATOM     11  C   UNL     1      82.737 -72.509  -0.705  1.00  0.00    -0.031 C 
ATOM     12  C   UNL     1      81.878 -71.906   0.131  1.00  0.00    -0.027 C 
BRANCH  12  13
ATOM     13  C   UNL     1      81.364 -70.522  -0.136  1.00  0.00     0.054 C 
BRANCH  13  14
ATOM     14  C   UNL     1      81.448 -70.209  -1.610  1.00  0.00    -0.027 C 
ATOM     15  C   UNL     1      81.940 -69.071  -2.135  1.00  0.00    -0.031 C 
BRANCH  15  16
ATOM     16  C   UNL     1      82.442 -67.895  -1.334  1.00  0.00     0.027 C 
BRANCH  16  17
ATOM     17  C   UNL     1      83.968 -67.737  -1.431  1.00  0.00     0.004 C 
BRANCH  17  18
ATOM     18  C   UNL     1      84.671 -68.104  -0.113  1.00  0.00     0.000 C 
BRANCH  18  19
ATOM     19  C   UNL     1      84.987 -69.604  -0.013  1.00  0.00    -0.003 C 
ATOM     20  C   UNL     1      84.894 -70.134   1.418  1.00  0.00     0.004 C 
ENDBRANCH  18  19
ENDBRANCH  17  18
ENDBRANCH  16  17
ENDBRANCH  15  16
ENDBRANCH  13  14
ENDBRANCH  12  13
ENDBRANCH   1  11
TORSDOF 14
ENDMDL
MODEL 9
REMARK VINA RESULT:    -5.248      2.733      6.057
REMARK INTER + INTRA:         -11.393
REMARK INTER:                  -8.841
REMARK INTRA:                  -2.551
REMARK UNBOUND:                -1.849
REMARK SMILES CCCCCC=CCC=CCCCCCCCC(=O)[O-]
REMARK SMILES IDX 11 1 12 2 13 3 14 4 15 5 16 6 17 7 18 8 19 9 20 10 10 11
REMARK SMILES IDX 9 12 8 13 7 14 6 15 5 16 4 17 3 18 2 19 1 20
REMARK H PARENT
REMARK Flexibility Score: inf
ROOT
ATOM      1  C   UNL     1      83.414 -72.358   0.369  1.00  0.00     0.027 C 
ENDROOT
BRANCH   1   2
ATOM      2  C   UNL     1      81.913 -72.062   0.503  1.00  0.00     0.004 C 
BRANCH   2   3
ATOM      3  C   UNL     1      81.542 -70.654   0.015  1.00  0.00     0.000 C 
BRANCH   3   4
ATOM      4  C   UNL     1      80.744 -70.675  -1.296  1.00  0.00     0.000 C 
BRANCH   4   5
ATOM      5  C   UNL     1      81.562 -70.079  -2.448  1.00  0.00     0.000 C 
BRANCH   5   6
ATOM      6  C   UNL     1      82.083 -71.180  -3.382  1.00  0.00     0.006 C 
BRANCH   6   7
ATOM      7  C   UNL     1      81.112 -72.364  -3.483  1.00  0.00     0.053 C 
BRANCH   7   8
ATOM      8  C   UNL     1      81.807 -73.673  -3.267  1.00  0.00     0.041 C 
ATOM      9  O   UNL     1      81.216 -74.755  -3.527  1.00  0.00    -0.550 OA
ATOM     10  O   UNL     1      83.095 -73.701  -2.749  1.00  0.00    -0.550 OA
ENDBRANCH   7   8
ENDBRANCH   6   7
ENDBRANCH   5   6
ENDBRANCH   4   5
ENDBRANCH   3   4
ENDBRANCH   2   3
ENDBRANCH   1   2
BRANCH   1  11
ATOM     11  C   UNL     1      84.184 -71.108   0.045  1.00  0.00    -0.031 C 
ATOM     12  C   UNL     1      84.888 -70.992  -1.092  1.00  0.00    -0.027 C 
BRANCH  12  13
ATOM     13  C   UNL     1      85.661 -69.745  -1.412  1.00  0.00     0.054 C 
BRANCH  13  14
ATOM     14  C   UNL     1      85.063 -68.562  -0.692  1.00  0.00    -0.027 C 
ATOM     15  C   UNL     1      84.400 -67.548  -1.282  1.00  0.00    -0.031 C 
BRANCH  15  16
ATOM     16  C   UNL     1      84.191 -67.402  -2.769  1.00  0.00     0.027 C 
BRANCH  16  17
ATOM     17  C   UNL     1      82.827 -66.777  -3.104  1.00  0.00     0.004 C 
BRANCH  17  18
ATOM     18  C   UNL     1      82.037 -66.406  -1.838  1.00  0.00     0.000 C 
BRANCH  18  19
ATOM     19  C   UNL     1      81.774 -64.896  -1.729  1.00  0.00    -0.003 C 
ATOM     20  C   UNL     1      80.291 -64.565  -1.561  1.00  0.00     0.004 C 
ENDBRANCH  18  19
ENDBRANCH  17  18
ENDBRANCH  16  17
ENDBRANCH  15  16
ENDBRANCH  13  14
ENDBRANCH  12  13
ENDBRANCH   1  11
TORSDOF 14
ENDMDL
