MODEL 1
REMARK VINA RESULT:    -3.785      0.000      0.000
REMARK INTER + INTRA:          -5.099
REMARK INTER:                  -4.891
REMARK INTRA:                  -0.208
REMARK UNBOUND:                -0.208
REMARK SMILES CCCCCCC(=O)[O-]
REMARK SMILES IDX 5 1 6 2 7 3 8 4 9 5 4 6 3 7 2 8 1 9
REMARK H PARENT
REMARK Flexibility Score: inf
ROOT
ATOM      1  C   UNL     1      29.343  -0.857  46.010  1.00  0.00     0.006 C 
ENDROOT
BRANCH   1   2
ATOM      2  C   UNL     1      30.236  -2.068  46.310  1.00  0.00     0.053 C 
BRANCH   2   3
ATOM      3  C   UNL     1      30.994  -2.473  45.084  1.00  0.00     0.041 C 
ATOM      4  O   UNL     1      31.693  -3.520  45.088  1.00  0.00    -0.550 OA
ATOM      5  O   UNL     1      30.967  -1.668  43.952  1.00  0.00    -0.550 OA
ENDBRANCH   2   3
ENDBRANCH   1   2
BRANCH   1   6
ATOM      6  C   UNL     1      27.856  -1.228  45.903  1.00  0.00     0.000 C 
BRANCH   6   7
ATOM      7  C   UNL     1      27.600  -2.723  46.163  1.00  0.00    -0.000 C 
BRANCH   7   8
ATOM      8  C   UNL     1      26.496  -2.959  47.206  1.00  0.00    -0.003 C 
ATOM      9  C   UNL     1      26.889  -3.994  48.261  1.00  0.00     0.004 C 
ENDBRANCH   7   8
ENDBRANCH   6   7
ENDBRANCH   1   6
TORSDOF 5
ENDMDL
MODEL 2
REMARK VINA RESULT:    -3.682      1.226      1.370
REMARK INTER + INTRA:          -4.965
REMARK INTER:                  -4.803
REMARK INTRA:                  -0.163
REMARK UNBOUND:                -0.208
REMARK SMILES CCCCCCC(=O)[O-]
REMARK SMILES IDX 5 1 6 2 7 3 8 4 9 5 4 6 3 7 2 8 1 9
REMARK H PARENT
REMARK Flexibility Score: inf
ROOT
ATOM      1  C   UNL     1      29.871  -1.067  46.009  1.00  0.00     0.006 C 
ENDROOT
BRANCH   1   2
ATOM      2  C   UNL     1      30.642  -2.054  45.122  1.00  0.00     0.053 C 
BRANCH   2   3
ATOM      3  C   UNL     1      30.927  -1.443  43.786  1.00  0.00     0.041 C 
ATOM      4  O   UNL     1      32.057  -0.941  43.547  1.00  0.00    -0.550 OA
ATOM      5  O   UNL     1      29.928  -1.382  42.822  1.00  0.00    -0.550 OA
ENDBRANCH   2   3
ENDBRANCH   1   2
BRANCH   1   6
ATOM      6  C   UNL     1      28.349  -1.170  45.826  1.00  0.00     0.000 C 
BRANCH   6   7
ATOM      7  C   UNL     1      27.830  -2.609  45.989  1.00  0.00    -0.000 C 
BRANCH   7   8
ATOM      8  C   UNL     1      26.728  -2.721  47.055  1.00  0.00    -0.003 C 
ATOM      9  C   UNL     1      26.829  -4.005  47.878  1.00  0.00     0.004 C 
ENDBRANCH   7   8
ENDBRANCH   6   7
ENDBRANCH   1   6
TORSDOF 5
ENDMDL
MODEL 3
REMARK VINA RESULT:    -3.625      1.417      1.842
REMARK INTER + INTRA:          -4.893
REMARK INTER:                  -4.646
REMARK INTRA:                  -0.247
REMARK UNBOUND:                -0.208
REMARK SMILES CCCCCCC(=O)[O-]
REMARK SMILES IDX 5 1 6 2 7 3 8 4 9 5 4 6 3 7 2 8 1 9
REMARK H PARENT
REMARK Flexibility Score: inf
ROOT
ATOM      1  C   UNL     1      30.242  -3.352  45.274  1.00  0.00     0.006 C 
ENDROOT
BRANCH   1   2
ATOM      2  C   UNL     1      30.620  -1.864  45.251  1.00  0.00     0.053 C 
BRANCH   2   3
ATOM      3  C   UNL     1      30.868  -1.411  43.846  1.00  0.00     0.041 C 
ATOM      4  O   UNL     1      32.006  -0.995  43.506  1.00  0.00    -0.550 OA
ATOM      5  O   UNL     1      29.828  -1.403  42.925  1.00  0.00    -0.550 OA
ENDBRANCH   2   3
ENDBRANCH   1   2
BRANCH   1   6
ATOM      6  C   UNL     1      28.766  -3.583  45.635  1.00  0.00     0.000 C 
BRANCH   6   7
ATOM      7  C   UNL     1      28.046  -2.284  46.037  1.00  0.00    -0.000 C 
BRANCH   7   8
ATOM      8  C   UNL     1      26.773  -2.546  46.857  1.00  0.00    -0.003 C 
ATOM      9  C   UNL     1      26.867  -3.812  47.709  1.00  0.00     0.004 C 
ENDBRANCH   7   8
ENDBRANCH   6   7
ENDBRANCH   1   6
TORSDOF 5
ENDMDL
MODEL 4
REMARK VINA RESULT:    -3.502      3.017      4.709
REMARK INTER + INTRA:          -4.733
REMARK INTER:                  -4.499
REMARK INTRA:                  -0.235
REMARK UNBOUND:                -0.208
REMARK SMILES CCCCCCC(=O)[O-]
REMARK SMILES IDX 5 1 6 2 7 3 8 4 9 5 4 6 3 7 2 8 1 9
REMARK H PARENT
REMARK Flexibility Score: inf
ROOT
ATOM      1  C   UNL     1      27.801  -1.993  45.903  1.00  0.00     0.006 C 
ENDROOT
BRANCH   1   2
ATOM      2  C   UNL     1      27.991  -3.320  46.649  1.00  0.00     0.053 C 
BRANCH   2   3
ATOM      3  C   UNL     1      26.840  -3.568  47.573  1.00  0.00     0.041 C 
ATOM      4  O   UNL     1      25.661  -3.345  47.191  1.00  0.00    -0.550 OA
ATOM      5  O   UNL     1      27.072  -4.000  48.873  1.00  0.00    -0.550 OA
ENDBRANCH   2   3
ENDBRANCH   1   2
BRANCH   1   6
ATOM      6  C   UNL     1      29.078  -1.139  45.876  1.00  0.00     0.000 C 
BRANCH   6   7
ATOM      7  C   UNL     1      30.343  -1.960  46.183  1.00  0.00    -0.000 C 
BRANCH   7   8
ATOM      8  C   UNL     1      31.132  -2.325  44.916  1.00  0.00    -0.003 C 
ATOM      9  C   UNL     1      30.760  -1.454  43.715  1.00  0.00     0.004 C 
ENDBRANCH   7   8
ENDBRANCH   6   7
ENDBRANCH   1   6
TORSDOF 5
ENDMDL
MODEL 5
REMARK VINA RESULT:    -3.373     12.539     14.138
REMARK INTER + INTRA:          -4.566
REMARK INTER:                  -4.253
REMARK INTRA:                  -0.313
REMARK UNBOUND:                -0.208
REMARK SMILES CCCCCCC(=O)[O-]
REMARK SMILES IDX 5 1 6 2 7 3 8 4 9 5 4 6 3 7 2 8 1 9
REMARK H PARENT
REMARK Flexibility Score: inf
ROOT
ATOM      1  C   UNL     1      20.653 -13.269  43.651  1.00  0.00     0.006 C 
ENDROOT
BRANCH   1   2
ATOM      2  C   UNL     1      19.993 -14.593  44.057  1.00  0.00     0.053 C 
BRANCH   2   3
ATOM      3  C   UNL     1      20.195 -14.851  45.517  1.00  0.00     0.041 C 
ATOM      4  O   UNL     1      20.416 -16.020  45.929  1.00  0.00    -0.550 OA
ATOM      5  O   UNL     1      20.091 -13.807  46.428  1.00  0.00    -0.550 OA
ENDBRANCH   2   3
ENDBRANCH   1   2
BRANCH   1   6
ATOM      6  C   UNL     1      22.186 -13.362  43.601  1.00  0.00     0.000 C 
BRANCH   6   7
ATOM      7  C   UNL     1      22.873 -12.201  44.343  1.00  0.00    -0.000 C 
BRANCH   7   8
ATOM      8  C   UNL     1      21.865 -11.210  44.947  1.00  0.00    -0.003 C 
ATOM      9  C   UNL     1      21.852  -9.864  44.222  1.00  0.00     0.004 C 
ENDBRANCH   7   8
ENDBRANCH   6   7
ENDBRANCH   1   6
TORSDOF 5
ENDMDL
MODEL 6
REMARK VINA RESULT:    -3.336      2.257      2.946
REMARK INTER + INTRA:          -4.519
REMARK INTER:                  -4.328
REMARK INTRA:                  -0.191
REMARK UNBOUND:                -0.208
REMARK SMILES CCCCCCC(=O)[O-]
REMARK SMILES IDX 5 1 6 2 7 3 8 4 9 5 4 6 3 7 2 8 1 9
REMARK H PARENT
REMARK Flexibility Score: inf
ROOT
ATOM      1  C   UNL     1      30.292  -1.930  44.410  1.00  0.00     0.006 C 
ENDROOT
BRANCH   1   2
ATOM      2  C   UNL     1      30.031  -1.211  43.080  1.00  0.00     0.053 C 
BRANCH   2   3
ATOM      3  C   UNL     1      28.593  -1.345  42.688  1.00  0.00     0.041 C 
ATOM      4  O   UNL     1      27.935  -0.332  42.336  1.00  0.00    -0.550 OA
ATOM      5  O   UNL     1      27.967  -2.584  42.758  1.00  0.00    -0.550 OA
ENDBRANCH   2   3
ENDBRANCH   1   2
BRANCH   1   6
ATOM      6  C   UNL     1      29.379  -1.435  45.542  1.00  0.00     0.000 C 
BRANCH   6   7
ATOM      7  C   UNL     1      28.668  -2.586  46.275  1.00  0.00    -0.000 C 
BRANCH   7   8
ATOM      8  C   UNL     1      27.161  -2.338  46.439  1.00  0.00    -0.003 C 
ATOM      9  C   UNL     1      26.520  -3.251  47.484  1.00  0.00     0.004 C 
ENDBRANCH   7   8
ENDBRANCH   6   7
ENDBRANCH   1   6
TORSDOF 5
ENDMDL
MODEL 7
REMARK VINA RESULT:    -3.245      3.180      4.533
REMARK INTER + INTRA:          -4.402
REMARK INTER:                  -4.175
REMARK INTRA:                  -0.227
REMARK UNBOUND:                -0.208
REMARK SMILES CCCCCCC(=O)[O-]
REMARK SMILES IDX 5 1 6 2 7 3 8 4 9 5 4 6 3 7 2 8 1 9
REMARK H PARENT
REMARK Flexibility Score: inf
ROOT
ATOM      1  C   UNL     1      29.556  -2.257  45.909  1.00  0.00     0.006 C 
ENDROOT
BRANCH   1   2
ATOM      2  C   UNL     1      28.687  -3.521  45.889  1.00  0.00     0.053 C 
BRANCH   2   3
ATOM      3  C   UNL     1      27.477  -3.336  46.749  1.00  0.00     0.041 C 
ATOM      4  O   UNL     1      27.087  -4.265  47.504  1.00  0.00    -0.550 OA
ATOM      5  O   UNL     1      26.750  -2.153  46.682  1.00  0.00    -0.550 OA
ENDBRANCH   2   3
ENDBRANCH   1   2
BRANCH   1   6
ATOM      6  C   UNL     1      29.824  -1.698  44.503  1.00  0.00     0.000 C 
BRANCH   6   7
ATOM      7  C   UNL     1      28.532  -1.487  43.695  1.00  0.00    -0.000 C 
BRANCH   7   8
ATOM      8  C   UNL     1      28.802  -0.936  42.286  1.00  0.00    -0.003 C 
ATOM      9  C   UNL     1      30.289  -0.910  41.934  1.00  0.00     0.004 C 
ENDBRANCH   7   8
ENDBRANCH   6   7
ENDBRANCH   1   6
TORSDOF 5
ENDMDL
MODEL 8
REMARK VINA RESULT:    -3.213     12.242     13.548
REMARK INTER + INTRA:          -4.361
REMARK INTER:                  -3.913
REMARK INTRA:                  -0.448
REMARK UNBOUND:                -0.208
REMARK SMILES CCCCCCC(=O)[O-]
REMARK SMILES IDX 5 1 6 2 7 3 8 4 9 5 4 6 3 7 2 8 1 9
REMARK H PARENT
REMARK Flexibility Score: inf
ROOT
ATOM      1  C   UNL     1      22.245 -11.743  44.266  1.00  0.00     0.006 C 
ENDROOT
BRANCH   1   2
ATOM      2  C   UNL     1      21.888 -11.624  45.754  1.00  0.00     0.053 C 
BRANCH   2   3
ATOM      3  C   UNL     1      20.443 -11.270  45.917  1.00  0.00     0.041 C 
ATOM      4  O   UNL     1      19.761 -10.916  44.921  1.00  0.00    -0.550 OA
ATOM      5  O   UNL     1      19.863 -11.283  47.180  1.00  0.00    -0.550 OA
ENDBRANCH   2   3
ENDBRANCH   1   2
BRANCH   1   6
ATOM      6  C   UNL     1      22.313 -13.202  43.787  1.00  0.00     0.000 C 
BRANCH   6   7
ATOM      7  C   UNL     1      21.182 -13.555  42.806  1.00  0.00    -0.000 C 
BRANCH   7   8
ATOM      8  C   UNL     1      19.988 -14.228  43.500  1.00  0.00    -0.003 C 
ATOM      9  C   UNL     1      20.382 -14.955  44.786  1.00  0.00     0.004 C 
ENDBRANCH   7   8
ENDBRANCH   6   7
ENDBRANCH   1   6
TORSDOF 5
ENDMDL
MODEL 9
REMARK VINA RESULT:    -3.206     12.365     13.612
REMARK INTER + INTRA:          -4.351
REMARK INTER:                  -4.056
REMARK INTRA:                  -0.295
REMARK UNBOUND:                -0.208
REMARK SMILES CCCCCCC(=O)[O-]
REMARK SMILES IDX 5 1 6 2 7 3 8 4 9 5 4 6 3 7 2 8 1 9
REMARK H PARENT
REMARK Flexibility Score: inf
ROOT
ATOM      1  C   UNL     1      21.569 -11.249  45.909  1.00  0.00     0.006 C 
ENDROOT
BRANCH   1   2
ATOM      2  C   UNL     1      20.036 -11.294  45.957  1.00  0.00     0.053 C 
BRANCH   2   3
ATOM      3  C   UNL     1      19.573 -12.001  47.192  1.00  0.00     0.041 C 
ATOM      4  O   UNL     1      19.359 -11.353  48.250  1.00  0.00    -0.550 OA
ATOM      5  O   UNL     1      19.426 -13.382  47.188  1.00  0.00    -0.550 OA
ENDBRANCH   2   3
ENDBRANCH   1   2
BRANCH   1   6
ATOM      6  C   UNL     1      22.122 -11.370  44.480  1.00  0.00     0.000 C 
BRANCH   6   7
ATOM      7  C   UNL     1      22.729 -12.755  44.197  1.00  0.00    -0.000 C 
BRANCH   7   8
ATOM      8  C   UNL     1      21.837 -13.614  43.287  1.00  0.00    -0.003 C 
ATOM      9  C   UNL     1      20.782 -14.403  44.064  1.00  0.00     0.004 C 
ENDBRANCH   7   8
ENDBRANCH   6   7
ENDBRANCH   1   6
TORSDOF 5
ENDMDL
