MODEL 1
REMARK VINA RESULT:    -2.449      0.000      0.000
REMARK INTER + INTRA:          -2.449
REMARK INTER:                  -2.449
REMARK INTRA:                   0.000
REMARK UNBOUND:                 0.000
REMARK SMILES CC(=O)[O-]
REMARK SMILES IDX 1 1 2 2 3 3 4 4
REMARK H PARENT
REMARK Flexibility Score: inf
ROOT
ATOM      1  C   UNL     1      15.654   7.467  49.503  1.00  0.00     0.063 C 
ATOM      2  C   UNL     1      14.763   6.965  48.418  1.00  0.00     0.038 C 
ATOM      3  O   UNL     1      14.104   5.905  48.583  1.00  0.00    -0.550 OA
ATOM      4  O   UNL     1      14.698   7.636  47.204  1.00  0.00    -0.550 OA
ENDROOT
TORSDOF 0
ENDMDL
MODEL 2
REMARK VINA RESULT:    -2.424      1.815      1.959
REMARK INTER + INTRA:          -2.424
REMARK INTER:                  -2.424
REMARK INTRA:                   0.000
REMARK UNBOUND:                 0.000
REMARK SMILES CC(=O)[O-]
REMARK SMILES IDX 1 1 2 2 3 3 4 4
REMARK H PARENT
REMARK Flexibility Score: inf
ROOT
ATOM      1  C   UNL     1      14.229   6.607  48.578  1.00  0.00     0.063 C 
ATOM      2  C   UNL     1      14.839   7.447  47.508  1.00  0.00     0.038 C 
ATOM      3  O   UNL     1      14.104   8.123  46.741  1.00  0.00    -0.550 OA
ATOM      4  O   UNL     1      16.215   7.445  47.320  1.00  0.00    -0.550 OA
ENDROOT
TORSDOF 0
ENDMDL
MODEL 3
REMARK VINA RESULT:    -2.422      1.434      1.772
REMARK INTER + INTRA:          -2.422
REMARK INTER:                  -2.422
REMARK INTRA:                   0.000
REMARK UNBOUND:                 0.000
REMARK SMILES CC(=O)[O-]
REMARK SMILES IDX 1 1 2 2 3 3 4 4
REMARK H PARENT
REMARK Flexibility Score: inf
ROOT
ATOM      1  C   UNL     1      14.774   7.875  47.120  1.00  0.00     0.063 C 
ATOM      2  C   UNL     1      14.762   7.132  48.412  1.00  0.00     0.038 C 
ATOM      3  O   UNL     1      14.090   6.074  48.525  1.00  0.00    -0.550 OA
ATOM      4  O   UNL     1      15.448   7.634  49.510  1.00  0.00    -0.550 OA
ENDROOT
TORSDOF 0
ENDMDL
MODEL 4
REMARK VINA RESULT:    -2.409      1.833      1.863
REMARK INTER + INTRA:          -2.409
REMARK INTER:                  -2.409
REMARK INTRA:                   0.000
REMARK UNBOUND:                 0.000
REMARK SMILES CC(=O)[O-]
REMARK SMILES IDX 1 1 2 2 3 3 4 4
REMARK H PARENT
REMARK Flexibility Score: inf
ROOT
ATOM      1  C   UNL     1      14.294   6.506  48.571  1.00  0.00     0.063 C 
ATOM      2  C   UNL     1      14.903   7.575  47.728  1.00  0.00     0.038 C 
ATOM      3  O   UNL     1      16.048   8.020  48.003  1.00  0.00    -0.550 OA
ATOM      4  O   UNL     1      14.186   8.119  46.670  1.00  0.00    -0.550 OA
ENDROOT
TORSDOF 0
ENDMDL
MODEL 5
REMARK VINA RESULT:    -2.390      6.017      6.286
REMARK INTER + INTRA:          -2.390
REMARK INTER:                  -2.390
REMARK INTRA:                   0.000
REMARK UNBOUND:                 0.000
REMARK SMILES CC(=O)[O-]
REMARK SMILES IDX 1 1 2 2 3 3 4 4
REMARK H PARENT
REMARK Flexibility Score: inf
ROOT
ATOM      1  C   UNL     1      19.516   8.933  53.836  1.00  0.00     0.063 C 
ATOM      2  C   UNL     1      19.161   8.858  52.390  1.00  0.00     0.038 C 
ATOM      3  O   UNL     1      19.568   7.894  51.690  1.00  0.00    -0.550 OA
ATOM      4  O   UNL     1      18.428   9.879  51.799  1.00  0.00    -0.550 OA
ENDROOT
TORSDOF 0
ENDMDL
MODEL 6
REMARK VINA RESULT:    -2.381      1.430      2.054
REMARK INTER + INTRA:          -2.381
REMARK INTER:                  -2.381
REMARK INTRA:                   0.000
REMARK UNBOUND:                 0.000
REMARK SMILES CC(=O)[O-]
REMARK SMILES IDX 1 1 2 2 3 3 4 4
REMARK H PARENT
REMARK Flexibility Score: inf
ROOT
ATOM      1  C   UNL     1      14.884   7.929  47.087  1.00  0.00     0.063 C 
ATOM      2  C   UNL     1      14.777   7.244  48.407  1.00  0.00     0.038 C 
ATOM      3  O   UNL     1      15.423   7.677  49.396  1.00  0.00    -0.550 OA
ATOM      4  O   UNL     1      14.007   6.095  48.535  1.00  0.00    -0.550 OA
ENDROOT
TORSDOF 0
ENDMDL
MODEL 7
REMARK VINA RESULT:    -2.346      5.937      6.256
REMARK INTER + INTRA:          -2.346
REMARK INTER:                  -2.346
REMARK INTRA:                   0.000
REMARK UNBOUND:                 0.000
REMARK SMILES CC(=O)[O-]
REMARK SMILES IDX 1 1 2 2 3 3 4 4
REMARK H PARENT
REMARK Flexibility Score: inf
ROOT
ATOM      1  C   UNL     1      18.308  10.060  51.313  1.00  0.00     0.063 C 
ATOM      2  C   UNL     1      19.037   9.060  52.145  1.00  0.00     0.038 C 
ATOM      3  O   UNL     1      19.148   9.233  53.387  1.00  0.00    -0.550 OA
ATOM      4  O   UNL     1      19.642   7.964  51.544  1.00  0.00    -0.550 OA
ENDROOT
TORSDOF 0
ENDMDL
MODEL 8
REMARK VINA RESULT:    -2.176      4.873      5.499
REMARK INTER + INTRA:          -2.176
REMARK INTER:                  -2.176
REMARK INTRA:                   0.000
REMARK UNBOUND:                 0.000
REMARK SMILES CC(=O)[O-]
REMARK SMILES IDX 1 1 2 2 3 3 4 4
REMARK H PARENT
REMARK Flexibility Score: inf
ROOT
ATOM      1  C   UNL     1      18.079  10.013  50.798  1.00  0.00     0.063 C 
ATOM      2  C   UNL     1      19.115   9.557  49.828  1.00  0.00     0.038 C 
ATOM      3  O   UNL     1      20.013  10.351  49.444  1.00  0.00    -0.550 OA
ATOM      4  O   UNL     1      19.061   8.272  49.304  1.00  0.00    -0.550 OA
ENDROOT
TORSDOF 0
ENDMDL
MODEL 9
REMARK VINA RESULT:    -2.147      2.166      2.424
REMARK INTER + INTRA:          -2.147
REMARK INTER:                  -2.147
REMARK INTRA:                   0.000
REMARK UNBOUND:                 0.000
REMARK SMILES CC(=O)[O-]
REMARK SMILES IDX 1 1 2 2 3 3 4 4
REMARK H PARENT
REMARK Flexibility Score: inf
ROOT
ATOM      1  C   UNL     1      15.025   8.121  47.009  1.00  0.00     0.063 C 
ATOM      2  C   UNL     1      16.206   7.408  47.576  1.00  0.00     0.038 C 
ATOM      3  O   UNL     1      16.267   7.173  48.811  1.00  0.00    -0.550 OA
ATOM      4  O   UNL     1      17.265   7.051  46.751  1.00  0.00    -0.550 OA
ENDROOT
TORSDOF 0
ENDMDL
