MODEL 1
REMARK VINA RESULT:    -4.518      0.000      0.000
REMARK INTER + INTRA:          -4.883
REMARK INTER:                  -4.782
REMARK INTRA:                  -0.101
REMARK UNBOUND:                -0.101
REMARK SMILES C=C(C)[C@@H]1CC=C(C)C(=O)C1
REMARK SMILES IDX 8 1 7 2 6 3 5 4 4 5 11 6 9 7 10 8 2 9 1 10 3 11
REMARK H PARENT
REMARK Flexibility Score: inf
ROOT
ATOM      1  C   UNL     1       9.369   1.456  -4.797  1.00  0.00     0.048 C 
ATOM      2  C   UNL     1       8.171   2.364  -4.823  1.00  0.00    -0.012 C 
ATOM      3  C   UNL     1       8.291   3.640  -4.422  1.00  0.00    -0.019 C 
ATOM      4  C   UNL     1       7.118   4.582  -4.406  1.00  0.00     0.036 C 
ATOM      5  C   UNL     1       6.138   4.304  -5.563  1.00  0.00     0.025 C 
ATOM      6  C   UNL     1       5.718   2.817  -5.550  1.00  0.00     0.089 C 
ATOM      7  C   UNL     1       6.900   1.894  -5.426  1.00  0.00     0.158 C 
ATOM      8  O   UNL     1       6.789   0.700  -5.818  1.00  0.00    -0.295 OA
ENDROOT
BRANCH   5   9
ATOM      9  C   UNL     1       6.699   4.797  -6.899  1.00  0.00    -0.077 C 
ATOM     10  C   UNL     1       7.004   6.099  -7.032  1.00  0.00     0.008 C 
ATOM     11  C   UNL     1       6.961   3.859  -8.058  1.00  0.00     0.039 C 
ENDBRANCH   5   9
TORSDOF 1
ENDMDL
MODEL 2
REMARK VINA RESULT:    -4.164     16.611     17.762
REMARK INTER + INTRA:          -4.509
REMARK INTER:                  -4.409
REMARK INTRA:                  -0.100
REMARK UNBOUND:                -0.101
REMARK SMILES C=C(C)[C@@H]1CC=C(C)C(=O)C1
REMARK SMILES IDX 8 1 7 2 6 3 5 4 4 5 11 6 9 7 10 8 2 9 1 10 3 11
REMARK H PARENT
REMARK Flexibility Score: inf
ROOT
ATOM      1  C   UNL     1      -4.914  13.737  -2.495  1.00  0.00     0.048 C 
ATOM      2  C   UNL     1      -6.146  13.634  -3.350  1.00  0.00    -0.012 C 
ATOM      3  C   UNL     1      -6.030  13.338  -4.655  1.00  0.00    -0.019 C 
ATOM      4  C   UNL     1      -7.230  13.246  -5.559  1.00  0.00     0.036 C 
ATOM      5  C   UNL     1      -8.465  12.690  -4.824  1.00  0.00     0.025 C 
ATOM      6  C   UNL     1      -8.734  13.516  -3.547  1.00  0.00     0.089 C 
ATOM      7  C   UNL     1      -7.488  13.713  -2.725  1.00  0.00     0.158 C 
ATOM      8  O   UNL     1      -7.600  13.975  -1.496  1.00  0.00    -0.295 OA
ENDROOT
BRANCH   5   9
ATOM      9  C   UNL     1      -8.344  11.181  -4.594  1.00  0.00    -0.077 C 
ATOM     10  C   UNL     1      -7.568  10.461  -5.423  1.00  0.00     0.008 C 
ATOM     11  C   UNL     1      -9.033  10.484  -3.441  1.00  0.00     0.039 C 
ENDBRANCH   5   9
TORSDOF 1
ENDMDL
MODEL 3
REMARK VINA RESULT:    -4.120      1.135      1.593
REMARK INTER + INTRA:          -4.463
REMARK INTER:                  -4.296
REMARK INTRA:                  -0.167
REMARK UNBOUND:                -0.101
REMARK SMILES C=C(C)[C@@H]1CC=C(C)C(=O)C1
REMARK SMILES IDX 8 1 7 2 6 3 5 4 4 5 11 6 9 7 10 8 2 9 1 10 3 11
REMARK H PARENT
REMARK Flexibility Score: inf
ROOT
ATOM      1  C   UNL     1       9.739   2.471  -4.419  1.00  0.00     0.048 C 
ATOM      2  C   UNL     1       8.393   2.695  -5.049  1.00  0.00    -0.012 C 
ATOM      3  C   UNL     1       7.615   3.702  -4.620  1.00  0.00    -0.019 C 
ATOM      4  C   UNL     1       6.249   3.954  -5.203  1.00  0.00     0.036 C 
ATOM      5  C   UNL     1       6.191   3.618  -6.706  1.00  0.00     0.025 C 
ATOM      6  C   UNL     1       6.690   2.175  -6.942  1.00  0.00     0.089 C 
ATOM      7  C   UNL     1       7.991   1.901  -6.236  1.00  0.00     0.158 C 
ATOM      8  O   UNL     1       8.728   0.966  -6.651  1.00  0.00    -0.295 OA
ENDROOT
BRANCH   5   9
ATOM      9  C   UNL     1       6.903   4.684  -7.542  1.00  0.00    -0.077 C 
ATOM     10  C   UNL     1       7.524   4.311  -8.675  1.00  0.00     0.008 C 
ATOM     11  C   UNL     1       6.895   6.148  -7.158  1.00  0.00     0.039 C 
ENDBRANCH   5   9
TORSDOF 1
ENDMDL
MODEL 4
REMARK VINA RESULT:    -4.089     14.942     16.366
REMARK INTER + INTRA:          -4.429
REMARK INTER:                  -4.266
REMARK INTRA:                  -0.163
REMARK UNBOUND:                -0.101
REMARK SMILES C=C(C)[C@@H]1CC=C(C)C(=O)C1
REMARK SMILES IDX 8 1 7 2 6 3 5 4 4 5 11 6 9 7 10 8 2 9 1 10 3 11
REMARK H PARENT
REMARK Flexibility Score: inf
ROOT
ATOM      1  C   UNL     1      -6.850  12.689  -8.311  1.00  0.00     0.048 C 
ATOM      2  C   UNL     1      -6.249  12.174  -7.033  1.00  0.00    -0.012 C 
ATOM      3  C   UNL     1      -4.958  12.418  -6.757  1.00  0.00    -0.019 C 
ATOM      4  C   UNL     1      -4.302  11.905  -5.503  1.00  0.00     0.036 C 
ATOM      5  C   UNL     1      -5.278  11.878  -4.310  1.00  0.00     0.025 C 
ATOM      6  C   UNL     1      -6.552  11.091  -4.690  1.00  0.00     0.089 C 
ATOM      7  C   UNL     1      -7.115  11.527  -6.017  1.00  0.00     0.158 C 
ATOM      8  O   UNL     1      -8.332  11.311  -6.267  1.00  0.00    -0.295 OA
ENDROOT
BRANCH   5   9
ATOM      9  C   UNL     1      -5.536  13.287  -3.770  1.00  0.00    -0.077 C 
ATOM     10  C   UNL     1      -4.495  14.124  -3.621  1.00  0.00     0.008 C 
ATOM     11  C   UNL     1      -6.928  13.781  -3.440  1.00  0.00     0.039 C 
ENDBRANCH   5   9
TORSDOF 1
ENDMDL
MODEL 5
REMARK VINA RESULT:    -4.072     16.016     17.313
REMARK INTER + INTRA:          -4.412
REMARK INTER:                  -4.257
REMARK INTRA:                  -0.155
REMARK UNBOUND:                -0.101
REMARK SMILES C=C(C)[C@@H]1CC=C(C)C(=O)C1
REMARK SMILES IDX 8 1 7 2 6 3 5 4 4 5 11 6 9 7 10 8 2 9 1 10 3 11
REMARK H PARENT
REMARK Flexibility Score: inf
ROOT
ATOM      1  C   UNL     1      -9.425   9.971  -2.911  1.00  0.00     0.048 C 
ATOM      2  C   UNL     1      -8.815  11.092  -3.706  1.00  0.00    -0.012 C 
ATOM      3  C   UNL     1      -8.900  12.354  -3.255  1.00  0.00    -0.019 C 
ATOM      4  C   UNL     1      -8.326  13.513  -4.025  1.00  0.00     0.036 C 
ATOM      5  C   UNL     1      -7.038  13.126  -4.777  1.00  0.00     0.025 C 
ATOM      6  C   UNL     1      -7.297  11.885  -5.660  1.00  0.00     0.089 C 
ATOM      7  C   UNL     1      -7.996  10.787  -4.905  1.00  0.00     0.158 C 
ATOM      8  O   UNL     1      -7.902   9.601  -5.322  1.00  0.00    -0.295 OA
ENDROOT
BRANCH   5   9
ATOM      9  C   UNL     1      -5.853  12.991  -3.818  1.00  0.00    -0.077 C 
ATOM     10  C   UNL     1      -4.819  12.208  -4.172  1.00  0.00     0.008 C 
ATOM     11  C   UNL     1      -5.789  13.741  -2.505  1.00  0.00     0.039 C 
ENDBRANCH   5   9
TORSDOF 1
ENDMDL
MODEL 6
REMARK VINA RESULT:    -4.054      1.891      3.738
REMARK INTER + INTRA:          -4.392
REMARK INTER:                  -4.282
REMARK INTRA:                  -0.110
REMARK UNBOUND:                -0.101
REMARK SMILES C=C(C)[C@@H]1CC=C(C)C(=O)C1
REMARK SMILES IDX 8 1 7 2 6 3 5 4 4 5 11 6 9 7 10 8 2 9 1 10 3 11
REMARK H PARENT
REMARK Flexibility Score: inf
ROOT
ATOM      1  C   UNL     1       4.861   2.190  -9.991  1.00  0.00     0.048 C 
ATOM      2  C   UNL     1       6.026   2.717  -9.199  1.00  0.00    -0.012 C 
ATOM      3  C   UNL     1       6.355   4.016  -9.280  1.00  0.00    -0.019 C 
ATOM      4  C   UNL     1       7.526   4.588  -8.526  1.00  0.00     0.036 C 
ATOM      5  C   UNL     1       7.725   3.901  -7.160  1.00  0.00     0.025 C 
ATOM      6  C   UNL     1       7.819   2.370  -7.351  1.00  0.00     0.089 C 
ATOM      7  C   UNL     1       6.715   1.837  -8.223  1.00  0.00     0.158 C 
ATOM      8  O   UNL     1       6.397   0.620  -8.134  1.00  0.00    -0.295 OA
ENDROOT
BRANCH   5   9
ATOM      9  C   UNL     1       6.668   4.354  -6.150  1.00  0.00    -0.077 C 
ATOM     10  C   UNL     1       6.559   5.664  -5.871  1.00  0.00     0.008 C 
ATOM     11  C   UNL     1       5.718   3.381  -5.488  1.00  0.00     0.039 C 
ENDBRANCH   5   9
TORSDOF 1
ENDMDL
MODEL 7
REMARK VINA RESULT:    -3.972     15.169     16.505
REMARK INTER + INTRA:          -4.306
REMARK INTER:                  -4.210
REMARK INTRA:                  -0.096
REMARK UNBOUND:                -0.101
REMARK SMILES C=C(C)[C@@H]1CC=C(C)C(=O)C1
REMARK SMILES IDX 8 1 7 2 6 3 5 4 4 5 11 6 9 7 10 8 2 9 1 10 3 11
REMARK H PARENT
REMARK Flexibility Score: inf
ROOT
ATOM      1  C   UNL     1      -3.739  11.824  -5.881  1.00  0.00     0.048 C 
ATOM      2  C   UNL     1      -5.177  12.192  -5.643  1.00  0.00    -0.012 C 
ATOM      3  C   UNL     1      -6.046  12.180  -6.666  1.00  0.00    -0.019 C 
ATOM      4  C   UNL     1      -7.491  12.563  -6.485  1.00  0.00     0.036 C 
ATOM      5  C   UNL     1      -8.032  12.142  -5.104  1.00  0.00     0.025 C 
ATOM      6  C   UNL     1      -7.117  12.698  -3.990  1.00  0.00     0.089 C 
ATOM      7  C   UNL     1      -5.662  12.423  -4.260  1.00  0.00     0.158 C 
ATOM      8  O   UNL     1      -4.850  12.419  -3.296  1.00  0.00    -0.295 OA
ENDROOT
BRANCH   5   9
ATOM      9  C   UNL     1      -8.274  10.632  -5.038  1.00  0.00    -0.077 C 
ATOM     10  C   UNL     1      -8.499  10.065  -3.840  1.00  0.00     0.008 C 
ATOM     11  C   UNL     1      -8.310   9.767  -6.278  1.00  0.00     0.039 C 
ENDBRANCH   5   9
TORSDOF 1
ENDMDL
MODEL 8
REMARK VINA RESULT:    -3.926      1.936      4.046
REMARK INTER + INTRA:          -4.257
REMARK INTER:                  -4.105
REMARK INTRA:                  -0.151
REMARK UNBOUND:                -0.101
REMARK SMILES C=C(C)[C@@H]1CC=C(C)C(=O)C1
REMARK SMILES IDX 8 1 7 2 6 3 5 4 4 5 11 6 9 7 10 8 2 9 1 10 3 11
REMARK H PARENT
REMARK Flexibility Score: inf
ROOT
ATOM      1  C   UNL     1       8.091   5.709  -8.412  1.00  0.00     0.048 C 
ATOM      2  C   UNL     1       7.351   4.666  -7.622  1.00  0.00    -0.012 C 
ATOM      3  C   UNL     1       7.307   3.400  -8.065  1.00  0.00    -0.019 C 
ATOM      4  C   UNL     1       6.560   2.323  -7.323  1.00  0.00     0.036 C 
ATOM      5  C   UNL     1       6.618   2.527  -5.796  1.00  0.00     0.025 C 
ATOM      6  C   UNL     1       6.138   3.951  -5.438  1.00  0.00     0.089 C 
ATOM      7  C   UNL     1       6.798   5.004  -6.288  1.00  0.00     0.158 C 
ATOM      8  O   UNL     1       6.852   6.190  -5.862  1.00  0.00    -0.295 OA
ENDROOT
BRANCH   5   9
ATOM      9  C   UNL     1       7.994   2.158  -5.237  1.00  0.00    -0.077 C 
ATOM     10  C   UNL     1       8.539   0.980  -5.586  1.00  0.00     0.008 C 
ATOM     11  C   UNL     1       8.777   3.093  -4.341  1.00  0.00     0.039 C 
ENDBRANCH   5   9
TORSDOF 1
ENDMDL
MODEL 9
REMARK VINA RESULT:    -3.922      2.635      4.078
REMARK INTER + INTRA:          -4.253
REMARK INTER:                  -4.085
REMARK INTRA:                  -0.167
REMARK UNBOUND:                -0.101
REMARK SMILES C=C(C)[C@@H]1CC=C(C)C(=O)C1
REMARK SMILES IDX 8 1 7 2 6 3 5 4 4 5 11 6 9 7 10 8 2 9 1 10 3 11
REMARK H PARENT
REMARK Flexibility Score: inf
ROOT
ATOM      1  C   UNL     1       6.672   4.715  -5.277  1.00  0.00     0.048 C 
ATOM      2  C   UNL     1       6.794   4.211  -6.688  1.00  0.00    -0.012 C 
ATOM      3  C   UNL     1       6.250   3.031  -7.025  1.00  0.00    -0.019 C 
ATOM      4  C   UNL     1       6.365   2.472  -8.419  1.00  0.00     0.036 C 
ATOM      5  C   UNL     1       6.347   3.581  -9.489  1.00  0.00     0.025 C 
ATOM      6  C   UNL     1       7.430   4.636  -9.172  1.00  0.00     0.089 C 
ATOM      7  C   UNL     1       7.385   5.081  -7.734  1.00  0.00     0.158 C 
ATOM      8  O   UNL     1       7.883   6.197  -7.423  1.00  0.00    -0.295 OA
ENDROOT
BRANCH   5   9
ATOM      9  C   UNL     1       4.939   4.149  -9.679  1.00  0.00    -0.077 C 
ATOM     10  C   UNL     1       4.802   5.443 -10.015  1.00  0.00     0.008 C 
ATOM     11  C   UNL     1       3.699   3.291  -9.542  1.00  0.00     0.039 C 
ENDBRANCH   5   9
TORSDOF 1
ENDMDL
