MODEL 1
REMARK VINA RESULT:    -4.120      0.000      0.000
REMARK INTER + INTRA:          -5.953
REMARK INTER:                  -5.565
REMARK INTRA:                  -0.388
REMARK UNBOUND:                -0.388
REMARK SMILES CCCCCCC=CC(=O)[O-]
REMARK SMILES IDX 5 1 6 2 7 3 8 4 9 5 10 6 11 7 4 8 3 9 2 10 1 11
REMARK H PARENT
REMARK Flexibility Score: inf
ROOT
ATOM      1  C   UNL     1     -52.635 122.180  -9.567  1.00  0.00     0.004 C 
ENDROOT
BRANCH   1   2
ATOM      2  C   UNL     1     -53.413 121.033  -8.903  1.00  0.00     0.027 C 
BRANCH   2   3
ATOM      3  C   UNL     1     -54.092 120.171  -9.932  1.00  0.00    -0.025 C 
ATOM      4  C   UNL     1     -55.232 120.465 -10.580  1.00  0.00     0.020 C 
BRANCH   4   5
ATOM      5  C   UNL     1     -56.025 121.706 -10.449  1.00  0.00     0.064 C 
ATOM      6  O   UNL     1     -56.790 121.837  -9.458  1.00  0.00    -0.545 OA
ATOM      7  O   UNL     1     -55.976 122.721 -11.396  1.00  0.00    -0.545 OA
ENDBRANCH   4   5
ENDBRANCH   2   3
ENDBRANCH   1   2
BRANCH   1   8
ATOM      8  C   UNL     1     -51.732 121.696 -10.712  1.00  0.00     0.000 C 
BRANCH   8   9
ATOM      9  C   UNL     1     -50.299 121.400 -10.245  1.00  0.00    -0.000 C 
BRANCH   9  10
ATOM     10  C   UNL     1     -49.341 122.518 -10.673  1.00  0.00    -0.003 C 
ATOM     11  C   UNL     1     -49.101 123.506  -9.534  1.00  0.00     0.004 C 
ENDBRANCH   9  10
ENDBRANCH   8   9
ENDBRANCH   1   8
TORSDOF 6
ENDMDL
MODEL 2
REMARK VINA RESULT:    -4.030      1.662      1.904
REMARK INTER + INTRA:          -5.832
REMARK INTER:                  -5.472
REMARK INTRA:                  -0.360
REMARK UNBOUND:                -0.388
REMARK SMILES CCCCCCC=CC(=O)[O-]
REMARK SMILES IDX 5 1 6 2 7 3 8 4 9 5 10 6 11 7 4 8 3 9 2 10 1 11
REMARK H PARENT
REMARK Flexibility Score: inf
ROOT
ATOM      1  C   UNL     1     -52.748 122.138  -9.549  1.00  0.00     0.004 C 
ENDROOT
BRANCH   1   2
ATOM      2  C   UNL     1     -53.714 121.051  -9.051  1.00  0.00     0.027 C 
BRANCH   2   3
ATOM      3  C   UNL     1     -55.144 121.506  -9.155  1.00  0.00    -0.025 C 
ATOM      4  C   UNL     1     -56.090 120.961  -9.938  1.00  0.00     0.020 C 
BRANCH   4   5
ATOM      5  C   UNL     1     -55.935 119.784 -10.819  1.00  0.00     0.064 C 
ATOM      6  O   UNL     1     -56.714 118.806 -10.668  1.00  0.00    -0.545 OA
ATOM      7  O   UNL     1     -54.944 119.707 -11.788  1.00  0.00    -0.545 OA
ENDBRANCH   4   5
ENDBRANCH   2   3
ENDBRANCH   1   2
BRANCH   1   8
ATOM      8  C   UNL     1     -52.425 122.002 -11.045  1.00  0.00     0.000 C 
BRANCH   8   9
ATOM      9  C   UNL     1     -51.007 121.468 -11.294  1.00  0.00    -0.000 C 
BRANCH   9  10
ATOM     10  C   UNL     1     -50.035 121.975 -10.223  1.00  0.00    -0.003 C 
ATOM     11  C   UNL     1     -48.965 120.932  -9.909  1.00  0.00     0.004 C 
ENDBRANCH   9  10
ENDBRANCH   8   9
ENDBRANCH   1   8
TORSDOF 6
ENDMDL
MODEL 3
REMARK VINA RESULT:    -3.977      1.511      2.019
REMARK INTER + INTRA:          -5.760
REMARK INTER:                  -5.193
REMARK INTRA:                  -0.567
REMARK UNBOUND:                -0.388
REMARK SMILES CCCCCCC=CC(=O)[O-]
REMARK SMILES IDX 5 1 6 2 7 3 8 4 9 5 10 6 11 7 4 8 3 9 2 10 1 11
REMARK H PARENT
REMARK Flexibility Score: inf
ROOT
ATOM      1  C   UNL     1     -53.396 121.070  -8.779  1.00  0.00     0.004 C 
ENDROOT
BRANCH   1   2
ATOM      2  C   UNL     1     -54.538 122.033  -9.145  1.00  0.00     0.027 C 
BRANCH   2   3
ATOM      3  C   UNL     1     -55.880 121.391  -8.925  1.00  0.00    -0.025 C 
ATOM      4  C   UNL     1     -56.634 120.797  -9.866  1.00  0.00     0.020 C 
BRANCH   4   5
ATOM      5  C   UNL     1     -56.283 120.613 -11.291  1.00  0.00     0.064 C 
ATOM      6  O   UNL     1     -56.645 121.485 -12.122  1.00  0.00    -0.545 OA
ATOM      7  O   UNL     1     -55.591 119.499 -11.747  1.00  0.00    -0.545 OA
ENDBRANCH   4   5
ENDBRANCH   2   3
ENDBRANCH   1   2
BRANCH   1   8
ATOM      8  C   UNL     1     -52.706 120.475 -10.017  1.00  0.00     0.000 C 
BRANCH   8   9
ATOM      9  C   UNL     1     -52.184 121.556 -10.975  1.00  0.00    -0.000 C 
BRANCH   9  10
ATOM     10  C   UNL     1     -50.652 121.549 -11.025  1.00  0.00    -0.003 C 
ATOM     11  C   UNL     1     -50.062 122.534 -10.018  1.00  0.00     0.004 C 
ENDBRANCH   9  10
ENDBRANCH   8   9
ENDBRANCH   1   8
TORSDOF 6
ENDMDL
MODEL 4
REMARK VINA RESULT:    -3.960      1.079      2.212
REMARK INTER + INTRA:          -5.737
REMARK INTER:                  -5.142
REMARK INTRA:                  -0.595
REMARK UNBOUND:                -0.388
REMARK SMILES CCCCCCC=CC(=O)[O-]
REMARK SMILES IDX 5 1 6 2 7 3 8 4 9 5 10 6 11 7 4 8 3 9 2 10 1 11
REMARK H PARENT
REMARK Flexibility Score: inf
ROOT
ATOM      1  C   UNL     1     -53.686 119.808  -9.909  1.00  0.00     0.004 C 
ENDROOT
BRANCH   1   2
ATOM      2  C   UNL     1     -53.721 120.162 -11.405  1.00  0.00     0.027 C 
BRANCH   2   3
ATOM      3  C   UNL     1     -55.083 119.908 -11.992  1.00  0.00    -0.025 C 
ATOM      4  C   UNL     1     -56.180 120.658 -11.792  1.00  0.00     0.020 C 
BRANCH   4   5
ATOM      5  C   UNL     1     -56.264 121.902 -10.997  1.00  0.00     0.064 C 
ATOM      6  O   UNL     1     -55.921 122.989 -11.531  1.00  0.00    -0.545 OA
ATOM      7  O   UNL     1     -56.683 121.910  -9.673  1.00  0.00    -0.545 OA
ENDBRANCH   4   5
ENDBRANCH   2   3
ENDBRANCH   1   2
BRANCH   1   8
ATOM      8  C   UNL     1     -52.969 120.875  -9.067  1.00  0.00     0.000 C 
BRANCH   8   9
ATOM      9  C   UNL     1     -52.451 122.044  -9.917  1.00  0.00    -0.000 C 
BRANCH   9  10
ATOM     10  C   UNL     1     -50.925 122.151  -9.829  1.00  0.00    -0.003 C 
ATOM     11  C   UNL     1     -50.252 121.405 -10.980  1.00  0.00     0.004 C 
ENDBRANCH   9  10
ENDBRANCH   8   9
ENDBRANCH   1   8
TORSDOF 6
ENDMDL
MODEL 5
REMARK VINA RESULT:    -3.863      1.672      2.118
REMARK INTER + INTRA:          -5.606
REMARK INTER:                  -5.265
REMARK INTRA:                  -0.341
REMARK UNBOUND:                -0.388
REMARK SMILES CCCCCCC=CC(=O)[O-]
REMARK SMILES IDX 5 1 6 2 7 3 8 4 9 5 10 6 11 7 4 8 3 9 2 10 1 11
REMARK H PARENT
REMARK Flexibility Score: inf
ROOT
ATOM      1  C   UNL     1     -54.094 120.946  -9.253  1.00  0.00     0.004 C 
ENDROOT
BRANCH   1   2
ATOM      2  C   UNL     1     -54.745 121.878 -10.289  1.00  0.00     0.027 C 
BRANCH   2   3
ATOM      3  C   UNL     1     -54.783 121.235 -11.648  1.00  0.00    -0.025 C 
ATOM      4  C   UNL     1     -55.690 120.338 -12.070  1.00  0.00     0.020 C 
BRANCH   4   5
ATOM      5  C   UNL     1     -56.853 119.834 -11.309  1.00  0.00     0.064 C 
ATOM      6  O   UNL     1     -56.723 118.783 -10.628  1.00  0.00    -0.545 OA
ATOM      7  O   UNL     1     -58.090 120.463 -11.340  1.00  0.00    -0.545 OA
ENDBRANCH   4   5
ENDBRANCH   2   3
ENDBRANCH   1   2
BRANCH   1   8
ATOM      8  C   UNL     1     -52.616 120.663  -9.560  1.00  0.00     0.000 C 
BRANCH   8   9
ATOM      9  C   UNL     1     -51.823 121.943  -9.865  1.00  0.00    -0.000 C 
BRANCH   9  10
ATOM     10  C   UNL     1     -50.417 121.607 -10.374  1.00  0.00    -0.003 C 
ATOM     11  C   UNL     1     -49.392 122.622  -9.873  1.00  0.00     0.004 C 
ENDBRANCH   9  10
ENDBRANCH   8   9
ENDBRANCH   1   8
TORSDOF 6
ENDMDL
MODEL 6
REMARK VINA RESULT:    -3.768      1.932      2.643
REMARK INTER + INTRA:          -5.478
REMARK INTER:                  -4.945
REMARK INTRA:                  -0.533
REMARK UNBOUND:                -0.388
REMARK SMILES CCCCCCC=CC(=O)[O-]
REMARK SMILES IDX 5 1 6 2 7 3 8 4 9 5 10 6 11 7 4 8 3 9 2 10 1 11
REMARK H PARENT
REMARK Flexibility Score: inf
ROOT
ATOM      1  C   UNL     1     -52.502 120.581 -11.090  1.00  0.00     0.004 C 
ENDROOT
BRANCH   1   2
ATOM      2  C   UNL     1     -53.531 121.065 -12.125  1.00  0.00     0.027 C 
BRANCH   2   3
ATOM      3  C   UNL     1     -54.754 120.189 -12.125  1.00  0.00    -0.025 C 
ATOM      4  C   UNL     1     -55.958 120.516 -11.626  1.00  0.00     0.020 C 
BRANCH   4   5
ATOM      5  C   UNL     1     -56.339 121.809 -11.018  1.00  0.00     0.064 C 
ATOM      6  O   UNL     1     -56.717 121.828  -9.818  1.00  0.00    -0.545 OA
ATOM      7  O   UNL     1     -56.320 123.000 -11.734  1.00  0.00    -0.545 OA
ENDBRANCH   4   5
ENDBRANCH   2   3
ENDBRANCH   1   2
BRANCH   1   8
ATOM      8  C   UNL     1     -53.157 119.894  -9.883  1.00  0.00     0.000 C 
BRANCH   8   9
ATOM      9  C   UNL     1     -53.476 120.878  -8.748  1.00  0.00    -0.000 C 
BRANCH   9  10
ATOM     10  C   UNL     1     -52.693 122.185  -8.921  1.00  0.00    -0.003 C 
ATOM     11  C   UNL     1     -53.574 123.399  -8.637  1.00  0.00     0.004 C 
ENDBRANCH   9  10
ENDBRANCH   8   9
ENDBRANCH   1   8
TORSDOF 6
ENDMDL
MODEL 7
REMARK VINA RESULT:    -3.661      2.406      4.734
REMARK INTER + INTRA:          -5.334
REMARK INTER:                  -4.659
REMARK INTRA:                  -0.674
REMARK UNBOUND:                -0.388
REMARK SMILES CCCCCCC=CC(=O)[O-]
REMARK SMILES IDX 5 1 6 2 7 3 8 4 9 5 10 6 11 7 4 8 3 9 2 10 1 11
REMARK H PARENT
REMARK Flexibility Score: inf
ROOT
ATOM      1  C   UNL     1     -53.466 121.900 -11.843  1.00  0.00     0.004 C 
ENDROOT
BRANCH   1   2
ATOM      2  C   UNL     1     -52.439 120.999 -11.137  1.00  0.00     0.027 C 
BRANCH   2   3
ATOM      3  C   UNL     1     -52.991 120.454  -9.848  1.00  0.00    -0.025 C 
ATOM      4  C   UNL     1     -53.274 121.169  -8.746  1.00  0.00     0.020 C 
BRANCH   4   5
ATOM      5  C   UNL     1     -53.144 122.633  -8.587  1.00  0.00     0.064 C 
ATOM      6  O   UNL     1     -54.182 123.343  -8.634  1.00  0.00    -0.545 OA
ATOM      7  O   UNL     1     -51.914 123.255  -8.417  1.00  0.00    -0.545 OA
ENDBRANCH   4   5
ENDBRANCH   2   3
ENDBRANCH   1   2
BRANCH   1   8
ATOM      8  C   UNL     1     -54.794 121.176 -12.120  1.00  0.00     0.000 C 
BRANCH   8   9
ATOM      9  C   UNL     1     -55.986 121.851 -11.426  1.00  0.00    -0.000 C 
BRANCH   9  10
ATOM     10  C   UNL     1     -56.597 120.927 -10.366  1.00  0.00    -0.003 C 
ATOM     11  C   UNL     1     -56.774 119.510 -10.905  1.00  0.00     0.004 C 
ENDBRANCH   9  10
ENDBRANCH   8   9
ENDBRANCH   1   8
TORSDOF 6
ENDMDL
MODEL 8
REMARK VINA RESULT:    -3.638      3.074      5.514
REMARK INTER + INTRA:          -5.303
REMARK INTER:                  -4.710
REMARK INTRA:                  -0.593
REMARK UNBOUND:                -0.388
REMARK SMILES CCCCCCC=CC(=O)[O-]
REMARK SMILES IDX 5 1 6 2 7 3 8 4 9 5 10 6 11 7 4 8 3 9 2 10 1 11
REMARK H PARENT
REMARK Flexibility Score: inf
ROOT
ATOM      1  C   UNL     1     -53.875 121.343  -8.832  1.00  0.00     0.004 C 
ENDROOT
BRANCH   1   2
ATOM      2  C   UNL     1     -52.772 120.468  -9.450  1.00  0.00     0.027 C 
BRANCH   2   3
ATOM      3  C   UNL     1     -52.383 120.969 -10.815  1.00  0.00    -0.025 C 
ATOM      4  C   UNL     1     -51.217 121.554 -11.136  1.00  0.00     0.020 C 
BRANCH   4   5
ATOM      5  C   UNL     1     -50.067 121.785 -10.235  1.00  0.00     0.064 C 
ATOM      6  O   UNL     1     -49.227 120.861 -10.074  1.00  0.00    -0.545 OA
ATOM      7  O   UNL     1     -49.897 122.974  -9.538  1.00  0.00    -0.545 OA
ENDBRANCH   4   5
ENDBRANCH   2   3
ENDBRANCH   1   2
BRANCH   1   8
ATOM      8  C   UNL     1     -54.966 121.721  -9.845  1.00  0.00     0.000 C 
BRANCH   8   9
ATOM      9  C   UNL     1     -56.354 121.208  -9.432  1.00  0.00    -0.000 C 
BRANCH   9  10
ATOM     10  C   UNL     1     -56.791 120.037 -10.319  1.00  0.00    -0.003 C 
ATOM     11  C   UNL     1     -55.956 119.970 -11.596  1.00  0.00     0.004 C 
ENDBRANCH   9  10
ENDBRANCH   8   9
ENDBRANCH   1   8
TORSDOF 6
ENDMDL
MODEL 9
REMARK VINA RESULT:    -3.633      2.168      2.783
REMARK INTER + INTRA:          -5.295
REMARK INTER:                  -4.704
REMARK INTRA:                  -0.591
REMARK UNBOUND:                -0.388
REMARK SMILES CCCCCCC=CC(=O)[O-]
REMARK SMILES IDX 5 1 6 2 7 3 8 4 9 5 10 6 11 7 4 8 3 9 2 10 1 11
REMARK H PARENT
REMARK Flexibility Score: inf
ROOT
ATOM      1  C   UNL     1     -53.895 121.375 -12.125  1.00  0.00     0.004 C 
ENDROOT
BRANCH   1   2
ATOM      2  C   UNL     1     -55.171 122.177 -11.823  1.00  0.00     0.027 C 
BRANCH   2   3
ATOM      3  C   UNL     1     -55.626 121.960 -10.405  1.00  0.00    -0.025 C 
ATOM      4  C   UNL     1     -56.474 121.007  -9.986  1.00  0.00     0.020 C 
BRANCH   4   5
ATOM      5  C   UNL     1     -57.098 119.955 -10.817  1.00  0.00     0.064 C 
ATOM      6  O   UNL     1     -56.629 118.788 -10.772  1.00  0.00    -0.545 OA
ATOM      7  O   UNL     1     -58.166 120.215 -11.666  1.00  0.00    -0.545 OA
ENDBRANCH   4   5
ENDBRANCH   2   3
ENDBRANCH   1   2
BRANCH   1   8
ATOM      8  C   UNL     1     -52.614 122.179 -11.852  1.00  0.00     0.000 C 
BRANCH   8   9
ATOM      9  C   UNL     1     -51.644 121.439 -10.918  1.00  0.00    -0.000 C 
BRANCH   9  10
ATOM     10  C   UNL     1     -52.257 121.258  -9.525  1.00  0.00    -0.003 C 
ATOM     11  C   UNL     1     -52.529 122.607  -8.862  1.00  0.00     0.004 C 
ENDBRANCH   9  10
ENDBRANCH   8   9
ENDBRANCH   1   8
TORSDOF 6
ENDMDL
