MODEL 1
REMARK VINA RESULT:    -5.015      0.000      0.000
REMARK INTER + INTRA:          -5.923
REMARK INTER:                  -5.748
REMARK INTRA:                  -0.175
REMARK UNBOUND:                -0.175
REMARK SMILES CC=Cc1ccc(O)c(OC)c1
REMARK SMILES IDX 4 1 12 2 9 3 7 4 6 5 5 6 3 7 1 8 2 9 10 10 11 11 8 12
REMARK H PARENT 8 13
REMARK Flexibility Score: inf
ROOT
ATOM      1  C   UNL     1       7.089  -9.843  41.709  1.00  0.00    -0.022 A 
ATOM      2  C   UNL     1       7.538  -8.522  41.505  1.00  0.00     0.058 A 
ATOM      3  C   UNL     1       7.999  -7.746  42.587  1.00  0.00     0.161 A 
ATOM      4  C   UNL     1       8.019  -8.302  43.873  1.00  0.00     0.157 A 
ATOM      5  C   UNL     1       7.589  -9.617  44.077  1.00  0.00     0.051 A 
ATOM      6  C   UNL     1       7.134 -10.383  43.002  1.00  0.00     0.012 A 
ENDROOT
BRANCH   1   7
ATOM      7  C   UNL     1       6.603 -10.701  40.600  1.00  0.00     0.003 C 
ATOM      8  C   UNL     1       6.795 -12.438  38.863  1.00  0.00     0.035 C 
ATOM      9  C   UNL     1       7.354 -11.623  39.984  1.00  0.00    -0.030 C 
ENDBRANCH   1   7
BRANCH   3  10
ATOM     10  O   UNL     1       8.448  -6.426  42.424  1.00  0.00    -0.493 OA
ATOM     11  C   UNL     1       7.595  -5.296  42.267  1.00  0.00     0.278 C 
ENDBRANCH   3  10
BRANCH   4  12
ATOM     12  O   UNL     1       8.472  -7.536  44.947  1.00  0.00    -0.504 OA
ATOM     13  H   UNL     1       8.389  -6.526  44.951  1.00  0.00     0.293 HD
ENDBRANCH   4  12
TORSDOF 3
ENDMDL
MODEL 2
REMARK VINA RESULT:    -4.834      2.025      4.646
REMARK INTER + INTRA:          -5.715
REMARK INTER:                  -5.523
REMARK INTRA:                  -0.192
REMARK UNBOUND:                -0.175
REMARK SMILES CC=Cc1ccc(O)c(OC)c1
REMARK SMILES IDX 4 1 12 2 9 3 7 4 6 5 5 6 3 7 1 8 2 9 10 10 11 11 8 12
REMARK H PARENT 8 13
REMARK Flexibility Score: inf
ROOT
ATOM      1  C   UNL     1       7.938  -6.840  41.977  1.00  0.00    -0.022 A 
ATOM      2  C   UNL     1       7.589  -8.152  41.593  1.00  0.00     0.058 A 
ATOM      3  C   UNL     1       7.528  -9.186  42.548  1.00  0.00     0.161 A 
ATOM      4  C   UNL     1       7.807  -8.900  43.891  1.00  0.00     0.157 A 
ATOM      5  C   UNL     1       8.138  -7.597  44.278  1.00  0.00     0.051 A 
ATOM      6  C   UNL     1       8.197  -6.575  43.329  1.00  0.00     0.012 A 
ENDROOT
BRANCH   1   7
ATOM      7  C   UNL     1       8.008  -5.717  41.009  1.00  0.00     0.003 C 
ATOM      8  C   UNL     1       8.019  -3.352  40.320  1.00  0.00     0.035 C 
ATOM      9  C   UNL     1       7.958  -4.426  41.358  1.00  0.00    -0.030 C 
ENDBRANCH   1   7
BRANCH   3  10
ATOM     10  O   UNL     1       7.190 -10.504  42.203  1.00  0.00    -0.493 OA
ATOM     11  C   UNL     1       5.945 -10.897  41.634  1.00  0.00     0.278 C 
ENDBRANCH   3  10
BRANCH   4  12
ATOM     12  O   UNL     1       7.750  -9.922  44.839  1.00  0.00    -0.504 OA
ATOM     13  H   UNL     1       7.906  -9.740  45.824  1.00  0.00     0.293 HD
ENDBRANCH   4  12
TORSDOF 3
ENDMDL
MODEL 3
REMARK VINA RESULT:    -4.644      2.345      4.701
REMARK INTER + INTRA:          -5.498
REMARK INTER:                  -5.317
REMARK INTRA:                  -0.181
REMARK UNBOUND:                -0.175
REMARK SMILES CC=Cc1ccc(O)c(OC)c1
REMARK SMILES IDX 4 1 12 2 9 3 7 4 6 5 5 6 3 7 1 8 2 9 10 10 11 11 8 12
REMARK H PARENT 8 13
REMARK Flexibility Score: inf
ROOT
ATOM      1  C   UNL     1       8.257  -8.324  42.469  1.00  0.00    -0.022 A 
ATOM      2  C   UNL     1       7.436  -8.974  41.525  1.00  0.00     0.058 A 
ATOM      3  C   UNL     1       6.639 -10.073  41.904  1.00  0.00     0.161 A 
ATOM      4  C   UNL     1       6.658 -10.510  43.235  1.00  0.00     0.157 A 
ATOM      5  C   UNL     1       7.459  -9.857  44.177  1.00  0.00     0.051 A 
ATOM      6  C   UNL     1       8.247  -8.769  43.798  1.00  0.00     0.012 A 
ENDROOT
BRANCH   1   7
ATOM      7  C   UNL     1       9.107  -7.158  42.118  1.00  0.00     0.003 C 
ATOM      8  C   UNL     1       9.955  -4.857  42.346  1.00  0.00     0.035 C 
ATOM      9  C   UNL     1       9.077  -5.989  42.770  1.00  0.00    -0.030 C 
ENDBRANCH   1   7
BRANCH   3  10
ATOM     10  O   UNL     1       5.814 -10.749  40.991  1.00  0.00    -0.493 OA
ATOM     11  C   UNL     1       6.282 -11.436  39.835  1.00  0.00     0.278 C 
ENDBRANCH   3  10
BRANCH   4  12
ATOM     12  O   UNL     1       5.873 -11.599  43.613  1.00  0.00    -0.504 OA
ATOM     13  H   UNL     1       5.756 -12.404  43.010  1.00  0.00     0.293 HD
ENDBRANCH   4  12
TORSDOF 3
ENDMDL
MODEL 4
REMARK VINA RESULT:    -4.602      4.022      8.230
REMARK INTER + INTRA:          -5.450
REMARK INTER:                  -5.303
REMARK INTRA:                  -0.147
REMARK UNBOUND:                -0.175
REMARK SMILES CC=Cc1ccc(O)c(OC)c1
REMARK SMILES IDX 4 1 12 2 9 3 7 4 6 5 5 6 3 7 1 8 2 9 10 10 11 11 8 12
REMARK H PARENT 8 13
REMARK Flexibility Score: inf
ROOT
ATOM      1  C   UNL     1       8.803  -2.024  42.326  1.00  0.00    -0.022 A 
ATOM      2  C   UNL     1       8.572  -3.413  42.246  1.00  0.00     0.058 A 
ATOM      3  C   UNL     1       8.055  -3.987  41.068  1.00  0.00     0.161 A 
ATOM      4  C   UNL     1       7.780  -3.167  39.965  1.00  0.00     0.157 A 
ATOM      5  C   UNL     1       8.024  -1.791  40.036  1.00  0.00     0.051 A 
ATOM      6  C   UNL     1       8.536  -1.226  41.204  1.00  0.00     0.012 A 
ENDROOT
BRANCH   1   7
ATOM      7  C   UNL     1       9.354  -1.376  43.542  1.00  0.00     0.003 C 
ATOM      8  C   UNL     1       9.248  -0.385  45.795  1.00  0.00     0.035 C 
ATOM      9  C   UNL     1       8.620  -1.050  44.613  1.00  0.00    -0.030 C 
ENDBRANCH   1   7
BRANCH   3  10
ATOM     10  O   UNL     1       7.806  -5.364  40.953  1.00  0.00    -0.493 OA
ATOM     11  C   UNL     1       7.620  -6.246  42.056  1.00  0.00     0.278 C 
ENDBRANCH   3  10
BRANCH   4  12
ATOM     12  O   UNL     1       7.266  -3.731  38.798  1.00  0.00    -0.504 OA
ATOM     13  H   UNL     1       7.783  -3.709  37.927  1.00  0.00     0.293 HD
ENDBRANCH   4  12
TORSDOF 3
ENDMDL
MODEL 5
REMARK VINA RESULT:    -4.559     14.240     15.141
REMARK INTER + INTRA:          -5.400
REMARK INTER:                  -5.213
REMARK INTRA:                  -0.187
REMARK UNBOUND:                -0.175
REMARK SMILES CC=Cc1ccc(O)c(OC)c1
REMARK SMILES IDX 4 1 12 2 9 3 7 4 6 5 5 6 3 7 1 8 2 9 10 10 11 11 8 12
REMARK H PARENT 8 13
REMARK Flexibility Score: inf
ROOT
ATOM      1  C   UNL     1      20.587 -12.123  45.263  1.00  0.00    -0.022 A 
ATOM      2  C   UNL     1      20.991 -13.431  45.603  1.00  0.00     0.058 A 
ATOM      3  C   UNL     1      22.038 -13.642  46.523  1.00  0.00     0.161 A 
ATOM      4  C   UNL     1      22.671 -12.539  47.110  1.00  0.00     0.157 A 
ATOM      5  C   UNL     1      22.262 -11.241  46.787  1.00  0.00     0.051 A 
ATOM      6  C   UNL     1      21.225 -11.035  45.876  1.00  0.00     0.012 A 
ENDROOT
BRANCH   1   7
ATOM      7  C   UNL     1      19.486 -11.852  44.307  1.00  0.00     0.003 C 
ATOM      8  C   UNL     1      17.759 -10.478  43.211  1.00  0.00     0.035 C 
ATOM      9  C   UNL     1      18.872 -10.668  44.190  1.00  0.00    -0.030 C 
ENDBRANCH   1   7
BRANCH   3  10
ATOM     10  O   UNL     1      22.471 -14.929  46.881  1.00  0.00    -0.493 OA
ATOM     11  C   UNL     1      23.414 -15.698  46.141  1.00  0.00     0.278 C 
ENDBRANCH   3  10
BRANCH   4  12
ATOM     12  O   UNL     1      23.708 -12.743  48.020  1.00  0.00    -0.504 OA
ATOM     13  H   UNL     1      24.673 -12.553  47.775  1.00  0.00     0.293 HD
ENDBRANCH   4  12
TORSDOF 3
ENDMDL
MODEL 6
REMARK VINA RESULT:    -4.513      7.805      9.584
REMARK INTER + INTRA:          -5.347
REMARK INTER:                  -5.193
REMARK INTRA:                  -0.154
REMARK UNBOUND:                -0.175
REMARK SMILES CC=Cc1ccc(O)c(OC)c1
REMARK SMILES IDX 4 1 12 2 9 3 7 4 6 5 5 6 3 7 1 8 2 9 10 10 11 11 8 12
REMARK H PARENT 8 13
REMARK Flexibility Score: inf
ROOT
ATOM      1  C   UNL     1       7.140  -2.695  38.106  1.00  0.00    -0.022 A 
ATOM      2  C   UNL     1       6.380  -1.551  37.786  1.00  0.00     0.058 A 
ATOM      3  C   UNL     1       6.002  -1.290  36.454  1.00  0.00     0.161 A 
ATOM      4  C   UNL     1       6.379  -2.185  35.444  1.00  0.00     0.157 A 
ATOM      5  C   UNL     1       7.119  -3.329  35.760  1.00  0.00     0.051 A 
ATOM      6  C   UNL     1       7.491  -3.585  37.081  1.00  0.00     0.012 A 
ENDROOT
BRANCH   1   7
ATOM      7  C   UNL     1       7.553  -3.015  39.495  1.00  0.00     0.003 C 
ATOM      8  C   UNL     1       8.637  -2.584  41.665  1.00  0.00     0.035 C 
ATOM      9  C   UNL     1       8.244  -2.181  40.281  1.00  0.00    -0.030 C 
ENDBRANCH   1   7
BRANCH   3  10
ATOM     10  O   UNL     1       5.252  -0.159  36.097  1.00  0.00    -0.493 OA
ATOM     11  C   UNL     1       5.805   1.125  35.825  1.00  0.00     0.278 C 
ENDBRANCH   3  10
BRANCH   4  12
ATOM     12  O   UNL     1       6.010  -1.930  34.124  1.00  0.00    -0.504 OA
ATOM     13  H   UNL     1       6.132  -2.623  33.396  1.00  0.00     0.293 HD
ENDBRANCH   4  12
TORSDOF 3
ENDMDL
MODEL 7
REMARK VINA RESULT:    -4.498     13.830     14.631
REMARK INTER + INTRA:          -5.330
REMARK INTER:                  -5.155
REMARK INTRA:                  -0.175
REMARK UNBOUND:                -0.175
REMARK SMILES CC=Cc1ccc(O)c(OC)c1
REMARK SMILES IDX 4 1 12 2 9 3 7 4 6 5 5 6 3 7 1 8 2 9 10 10 11 11 8 12
REMARK H PARENT 8 13
REMARK Flexibility Score: inf
ROOT
ATOM      1  C   UNL     1      20.338 -11.973  45.024  1.00  0.00    -0.022 A 
ATOM      2  C   UNL     1      21.527 -11.725  45.741  1.00  0.00     0.058 A 
ATOM      3  C   UNL     1      22.141 -12.750  46.488  1.00  0.00     0.161 A 
ATOM      4  C   UNL     1      21.566 -14.027  46.506  1.00  0.00     0.157 A 
ATOM      5  C   UNL     1      20.395 -14.281  45.784  1.00  0.00     0.051 A 
ATOM      6  C   UNL     1      19.790 -13.263  45.044  1.00  0.00     0.012 A 
ENDROOT
BRANCH   1   7
ATOM      7  C   UNL     1      19.660 -10.928  44.217  1.00  0.00     0.003 C 
ATOM      8  C   UNL     1      17.747  -9.853  43.098  1.00  0.00     0.035 C 
ATOM      9  C   UNL     1      18.353 -10.936  43.931  1.00  0.00    -0.030 C 
ENDBRANCH   1   7
BRANCH   3  10
ATOM     10  O   UNL     1      23.321 -12.539  47.219  1.00  0.00    -0.493 OA
ATOM     11  C   UNL     1      24.095 -11.344  47.177  1.00  0.00     0.278 C 
ENDBRANCH   3  10
BRANCH   4  12
ATOM     12  O   UNL     1      22.169 -15.044  47.246  1.00  0.00    -0.504 OA
ATOM     13  H   UNL     1      21.654 -15.571  47.942  1.00  0.00     0.293 HD
ENDBRANCH   4  12
TORSDOF 3
ENDMDL
MODEL 8
REMARK VINA RESULT:    -4.452      7.371      9.189
REMARK INTER + INTRA:          -5.278
REMARK INTER:                  -5.087
REMARK INTRA:                  -0.191
REMARK UNBOUND:                -0.175
REMARK SMILES CC=Cc1ccc(O)c(OC)c1
REMARK SMILES IDX 4 1 12 2 9 3 7 4 6 5 5 6 3 7 1 8 2 9 10 10 11 11 8 12
REMARK H PARENT 8 13
REMARK Flexibility Score: inf
ROOT
ATOM      1  C   UNL     1       7.483  -2.798  38.563  1.00  0.00    -0.022 A 
ATOM      2  C   UNL     1       7.829  -3.695  37.531  1.00  0.00     0.058 A 
ATOM      3  C   UNL     1       7.475  -3.422  36.195  1.00  0.00     0.161 A 
ATOM      4  C   UNL     1       6.783  -2.242  35.893  1.00  0.00     0.157 A 
ATOM      5  C   UNL     1       6.452  -1.342  36.912  1.00  0.00     0.051 A 
ATOM      6  C   UNL     1       6.805  -1.616  38.235  1.00  0.00     0.012 A 
ENDROOT
BRANCH   1   7
ATOM      7  C   UNL     1       7.841  -3.039  39.983  1.00  0.00     0.003 C 
ATOM      8  C   UNL     1       8.603  -2.406  42.238  1.00  0.00     0.035 C 
ATOM      9  C   UNL     1       8.245  -2.080  40.824  1.00  0.00    -0.030 C 
ENDBRANCH   1   7
BRANCH   3  10
ATOM     10  O   UNL     1       7.796  -4.294  35.142  1.00  0.00    -0.493 OA
ATOM     11  C   UNL     1       9.087  -4.404  34.550  1.00  0.00     0.278 C 
ENDBRANCH   3  10
BRANCH   4  12
ATOM     12  O   UNL     1       6.429  -1.969  34.573  1.00  0.00    -0.504 OA
ATOM     13  H   UNL     1       5.577  -2.336  34.165  1.00  0.00     0.293 HD
ENDBRANCH   4  12
TORSDOF 3
ENDMDL
MODEL 9
REMARK VINA RESULT:    -4.418      8.406      9.588
REMARK INTER + INTRA:          -5.239
REMARK INTER:                  -5.099
REMARK INTRA:                  -0.140
REMARK UNBOUND:                -0.175
REMARK SMILES CC=Cc1ccc(O)c(OC)c1
REMARK SMILES IDX 4 1 12 2 9 3 7 4 6 5 5 6 3 7 1 8 2 9 10 10 11 11 8 12
REMARK H PARENT 8 13
REMARK Flexibility Score: inf
ROOT
ATOM      1  C   UNL     1       7.349  -3.348  35.810  1.00  0.00    -0.022 A 
ATOM      2  C   UNL     1       6.855  -2.321  34.980  1.00  0.00     0.058 A 
ATOM      3  C   UNL     1       6.117  -1.251  35.525  1.00  0.00     0.161 A 
ATOM      4  C   UNL     1       5.885  -1.208  36.906  1.00  0.00     0.157 A 
ATOM      5  C   UNL     1       6.388  -2.217  37.734  1.00  0.00     0.051 A 
ATOM      6  C   UNL     1       7.119  -3.275  37.191  1.00  0.00     0.012 A 
ENDROOT
BRANCH   1   7
ATOM      7  C   UNL     1       8.138  -4.490  35.283  1.00  0.00     0.003 C 
ATOM      8  C   UNL     1      10.040  -5.559  34.139  1.00  0.00     0.035 C 
ATOM      9  C   UNL     1       9.313  -4.360  34.655  1.00  0.00    -0.030 C 
ENDBRANCH   1   7
BRANCH   3  10
ATOM     10  O   UNL     1       5.603  -0.215  34.729  1.00  0.00    -0.493 OA
ATOM     11  C   UNL     1       6.304   0.984  34.413  1.00  0.00     0.278 C 
ENDBRANCH   3  10
BRANCH   4  12
ATOM     12  O   UNL     1       5.154  -0.152  37.449  1.00  0.00    -0.504 OA
ATOM     13  H   UNL     1       4.197   0.029  37.169  1.00  0.00     0.293 HD
ENDBRANCH   4  12
TORSDOF 3
ENDMDL
