MODEL 1
REMARK VINA RESULT:    -4.984      0.000      0.000
REMARK INTER + INTRA:          -5.314
REMARK INTER:                  -5.275
REMARK INTRA:                  -0.039
REMARK UNBOUND:                -0.039
REMARK SMILES COc1ccc2ccc(=O)oc2c1
REMARK SMILES IDX 3 1 13 2 12 3 6 4 5 5 4 6 7 7 8 8 9 9 10 10 11 11 2 12 1 13
REMARK H PARENT
REMARK Flexibility Score: inf
ROOT
ATOM      1  C   UNL     1      21.755   6.271 -21.569  1.00  0.00     0.122 A 
ATOM      2  C   UNL     1      21.011   7.053 -20.663  1.00  0.00     0.094 A 
ATOM      3  C   UNL     1      19.705   7.444 -20.976  1.00  0.00     0.142 A 
ATOM      4  C   UNL     1      19.130   7.055 -22.205  1.00  0.00     0.018 A 
ATOM      5  C   UNL     1      19.869   6.279 -23.106  1.00  0.00     0.016 A 
ATOM      6  C   UNL     1      21.173   5.891 -22.787  1.00  0.00     0.047 A 
ATOM      7  C   UNL     1      17.823   7.462 -22.489  1.00  0.00     0.019 A 
ATOM      8  C   UNL     1      17.129   8.234 -21.558  1.00  0.00     0.094 A 
ATOM      9  C   UNL     1      17.762   8.583 -20.360  1.00  0.00     0.336 A 
ATOM     10  O   UNL     1      17.153   9.280 -19.507  1.00  0.00    -0.246 OA
ATOM     11  O   UNL     1      19.007   8.183 -20.115  1.00  0.00    -0.423 OA
ENDROOT
BRANCH   1  12
ATOM     12  O   UNL     1      23.067   5.854 -21.301  1.00  0.00    -0.497 OA
ATOM     13  C   UNL     1      23.998   5.441 -22.296  1.00  0.00     0.278 C 
ENDBRANCH   1  12
TORSDOF 1
ENDMDL
MODEL 2
REMARK VINA RESULT:    -4.984     20.079     20.663
REMARK INTER + INTRA:          -5.314
REMARK INTER:                  -5.281
REMARK INTRA:                  -0.033
REMARK UNBOUND:                -0.039
REMARK SMILES COc1ccc2ccc(=O)oc2c1
REMARK SMILES IDX 3 1 13 2 12 3 6 4 5 5 4 6 7 7 8 8 9 9 10 10 11 11 2 12 1 13
REMARK H PARENT
REMARK Flexibility Score: inf
ROOT
ATOM      1  C   UNL     1      11.652  -5.875 -10.046  1.00  0.00     0.122 A 
ATOM      2  C   UNL     1      11.214  -6.149  -8.735  1.00  0.00     0.094 A 
ATOM      3  C   UNL     1       9.874  -5.957  -8.384  1.00  0.00     0.142 A 
ATOM      4  C   UNL     1       8.955  -5.487  -9.347  1.00  0.00     0.018 A 
ATOM      5  C   UNL     1       9.389  -5.215 -10.651  1.00  0.00     0.016 A 
ATOM      6  C   UNL     1      10.731  -5.409 -10.994  1.00  0.00     0.047 A 
ATOM      7  C   UNL     1       7.623  -5.306  -8.967  1.00  0.00     0.019 A 
ATOM      8  C   UNL     1       7.241  -5.591  -7.656  1.00  0.00     0.094 A 
ATOM      9  C   UNL     1       8.205  -6.054  -6.754  1.00  0.00     0.336 A 
ATOM     10  O   UNL     1       7.880  -6.317  -5.567  1.00  0.00    -0.246 OA
ATOM     11  O   UNL     1       9.467  -6.217  -7.143  1.00  0.00    -0.423 OA
ENDROOT
BRANCH   1  12
ATOM     12  O   UNL     1      12.985  -6.051 -10.446  1.00  0.00    -0.497 OA
ATOM     13  C   UNL     1      13.930  -4.995 -10.580  1.00  0.00     0.278 C 
ENDBRANCH   1  12
TORSDOF 1
ENDMDL
MODEL 3
REMARK VINA RESULT:    -4.940     20.451     21.475
REMARK INTER + INTRA:          -5.268
REMARK INTER:                  -5.235
REMARK INTRA:                  -0.033
REMARK UNBOUND:                -0.039
REMARK SMILES COc1ccc2ccc(=O)oc2c1
REMARK SMILES IDX 3 1 13 2 12 3 6 4 5 5 4 6 7 7 8 8 9 9 10 10 11 11 2 12 1 13
REMARK H PARENT
REMARK Flexibility Score: inf
ROOT
ATOM      1  C   UNL     1       8.315  -5.960  -6.785  1.00  0.00     0.122 A 
ATOM      2  C   UNL     1       9.672  -6.083  -7.142  1.00  0.00     0.094 A 
ATOM      3  C   UNL     1      10.078  -5.859  -8.462  1.00  0.00     0.142 A 
ATOM      4  C   UNL     1       9.124  -5.509  -9.441  1.00  0.00     0.018 A 
ATOM      5  C   UNL     1       7.774  -5.386  -9.087  1.00  0.00     0.016 A 
ATOM      6  C   UNL     1       7.376  -5.611  -7.766  1.00  0.00     0.047 A 
ATOM      7  C   UNL     1       9.560  -5.292 -10.751  1.00  0.00     0.019 A 
ATOM      8  C   UNL     1      10.914  -5.427 -11.052  1.00  0.00     0.094 A 
ATOM      9  C   UNL     1      11.805  -5.777 -10.031  1.00  0.00     0.336 A 
ATOM     10  O   UNL     1      13.031  -5.904 -10.283  1.00  0.00    -0.246 OA
ATOM     11  O   UNL     1      11.362  -5.978  -8.792  1.00  0.00    -0.423 OA
ENDROOT
BRANCH   1  12
ATOM     12  O   UNL     1       7.859  -6.173  -5.476  1.00  0.00    -0.497 OA
ATOM     13  C   UNL     1       8.055  -5.265  -4.398  1.00  0.00     0.278 C 
ENDBRANCH   1  12
TORSDOF 1
ENDMDL
MODEL 4
REMARK VINA RESULT:    -4.907     11.073     11.805
REMARK INTER + INTRA:          -5.232
REMARK INTER:                  -5.198
REMARK INTRA:                  -0.034
REMARK UNBOUND:                -0.039
REMARK SMILES COc1ccc2ccc(=O)oc2c1
REMARK SMILES IDX 3 1 13 2 12 3 6 4 5 5 4 6 7 7 8 8 9 9 10 10 11 11 2 12 1 13
REMARK H PARENT
REMARK Flexibility Score: inf
ROOT
ATOM      1  C   UNL     1      19.060  -1.766 -18.960  1.00  0.00     0.122 A 
ATOM      2  C   UNL     1      18.874  -3.154 -18.799  1.00  0.00     0.094 A 
ATOM      3  C   UNL     1      18.511  -3.677 -17.554  1.00  0.00     0.142 A 
ATOM      4  C   UNL     1      18.332  -2.812 -16.453  1.00  0.00     0.018 A 
ATOM      5  C   UNL     1      18.516  -1.433 -16.612  1.00  0.00     0.016 A 
ATOM      6  C   UNL     1      18.878  -0.917 -17.860  1.00  0.00     0.047 A 
ATOM      7  C   UNL     1      17.970  -3.365 -15.221  1.00  0.00     0.019 A 
ATOM      8  C   UNL     1      17.798  -4.745 -15.115  1.00  0.00     0.094 A 
ATOM      9  C   UNL     1      17.993  -5.542 -16.248  1.00  0.00     0.336 A 
ATOM     10  O   UNL     1      17.843  -6.790 -16.173  1.00  0.00    -0.246 OA
ATOM     11  O   UNL     1      18.338  -4.989 -17.409  1.00  0.00    -0.423 OA
ENDROOT
BRANCH   1  12
ATOM     12  O   UNL     1      19.423  -1.194 -20.188  1.00  0.00    -0.497 OA
ATOM     13  C   UNL     1      20.633  -1.479 -20.882  1.00  0.00     0.278 C 
ENDBRANCH   1  12
TORSDOF 1
ENDMDL
MODEL 5
REMARK VINA RESULT:    -4.887      1.638      2.408
REMARK INTER + INTRA:          -5.211
REMARK INTER:                  -5.172
REMARK INTRA:                  -0.039
REMARK UNBOUND:                -0.039
REMARK SMILES COc1ccc2ccc(=O)oc2c1
REMARK SMILES IDX 3 1 13 2 12 3 6 4 5 5 4 6 7 7 8 8 9 9 10 10 11 11 2 12 1 13
REMARK H PARENT
REMARK Flexibility Score: inf
ROOT
ATOM      1  C   UNL     1      22.661   6.201 -21.462  1.00  0.00     0.122 A 
ATOM      2  C   UNL     1      21.519   6.166 -22.287  1.00  0.00     0.094 A 
ATOM      3  C   UNL     1      20.335   6.789 -21.880  1.00  0.00     0.142 A 
ATOM      4  C   UNL     1      20.283   7.455 -20.636  1.00  0.00     0.018 A 
ATOM      5  C   UNL     1      21.417   7.491 -19.815  1.00  0.00     0.016 A 
ATOM      6  C   UNL     1      22.597   6.866 -20.230  1.00  0.00     0.047 A 
ATOM      7  C   UNL     1      19.085   8.068 -20.257  1.00  0.00     0.019 A 
ATOM      8  C   UNL     1      17.984   8.004 -21.110  1.00  0.00     0.094 A 
ATOM      9  C   UNL     1      18.107   7.327 -22.327  1.00  0.00     0.336 A 
ATOM     10  O   UNL     1      17.125   7.258 -23.111  1.00  0.00    -0.246 OA
ATOM     11  O   UNL     1      19.259   6.752 -22.664  1.00  0.00    -0.423 OA
ENDROOT
BRANCH   1  12
ATOM     12  O   UNL     1      23.871   5.592 -21.826  1.00  0.00    -0.497 OA
ATOM     13  C   UNL     1      24.125   5.006 -23.099  1.00  0.00     0.278 C 
ENDBRANCH   1  12
TORSDOF 1
ENDMDL
MODEL 6
REMARK VINA RESULT:    -4.856     21.540     22.450
REMARK INTER + INTRA:          -5.178
REMARK INTER:                  -5.142
REMARK INTRA:                  -0.036
REMARK UNBOUND:                -0.039
REMARK SMILES COc1ccc2ccc(=O)oc2c1
REMARK SMILES IDX 3 1 13 2 12 3 6 4 5 5 4 6 7 7 8 8 9 9 10 10 11 11 2 12 1 13
REMARK H PARENT
REMARK Flexibility Score: inf
ROOT
ATOM      1  C   UNL     1       8.202  -6.123 -10.456  1.00  0.00     0.122 A 
ATOM      2  C   UNL     1       8.212  -5.357  -9.273  1.00  0.00     0.094 A 
ATOM      3  C   UNL     1       8.077  -5.979  -8.028  1.00  0.00     0.142 A 
ATOM      4  C   UNL     1       7.928  -7.381  -7.955  1.00  0.00     0.018 A 
ATOM      5  C   UNL     1       7.918  -8.144  -9.130  1.00  0.00     0.016 A 
ATOM      6  C   UNL     1       8.055  -7.515 -10.371  1.00  0.00     0.047 A 
ATOM      7  C   UNL     1       7.796  -7.974  -6.696  1.00  0.00     0.019 A 
ATOM      8  C   UNL     1       7.812  -7.170  -5.557  1.00  0.00     0.094 A 
ATOM      9  C   UNL     1       7.963  -5.787  -5.704  1.00  0.00     0.336 A 
ATOM     10  O   UNL     1       7.980  -5.045  -4.687  1.00  0.00    -0.246 OA
ATOM     11  O   UNL     1       8.087  -5.249  -6.914  1.00  0.00    -0.423 OA
ENDROOT
BRANCH   1  12
ATOM     12  O   UNL     1       8.334  -5.546 -11.727  1.00  0.00    -0.497 OA
ATOM     13  C   UNL     1       7.713  -4.328 -12.126  1.00  0.00     0.278 C 
ENDBRANCH   1  12
TORSDOF 1
ENDMDL
MODEL 7
REMARK VINA RESULT:    -4.810     21.370     21.916
REMARK INTER + INTRA:          -5.131
REMARK INTER:                  -5.092
REMARK INTRA:                  -0.039
REMARK UNBOUND:                -0.039
REMARK SMILES COc1ccc2ccc(=O)oc2c1
REMARK SMILES IDX 3 1 13 2 12 3 6 4 5 5 4 6 7 7 8 8 9 9 10 10 11 11 2 12 1 13
REMARK H PARENT
REMARK Flexibility Score: inf
ROOT
ATOM      1  C   UNL     1      11.364  -7.034  -9.546  1.00  0.00     0.122 A 
ATOM      2  C   UNL     1      10.824  -6.140  -8.601  1.00  0.00     0.094 A 
ATOM      3  C   UNL     1       9.775  -6.541  -7.768  1.00  0.00     0.142 A 
ATOM      4  C   UNL     1       9.254  -7.849  -7.875  1.00  0.00     0.018 A 
ATOM      5  C   UNL     1       9.790  -8.739  -8.815  1.00  0.00     0.016 A 
ATOM      6  C   UNL     1      10.839  -8.330  -9.643  1.00  0.00     0.047 A 
ATOM      7  C   UNL     1       8.206  -8.222  -7.029  1.00  0.00     0.019 A 
ATOM      8  C   UNL     1       7.707  -7.298  -6.110  1.00  0.00     0.094 A 
ATOM      9  C   UNL     1       8.272  -6.019  -6.059  1.00  0.00     0.336 A 
ATOM     10  O   UNL     1       7.836  -5.172  -5.237  1.00  0.00    -0.246 OA
ATOM     11  O   UNL     1       9.269  -5.691  -6.877  1.00  0.00    -0.423 OA
ENDROOT
BRANCH   1  12
ATOM     12  O   UNL     1      12.416  -6.678 -10.403  1.00  0.00    -0.497 OA
ATOM     13  C   UNL     1      13.083  -5.421 -10.378  1.00  0.00     0.278 C 
ENDBRANCH   1  12
TORSDOF 1
ENDMDL
MODEL 8
REMARK VINA RESULT:    -4.715      1.659      4.765
REMARK INTER + INTRA:          -5.029
REMARK INTER:                  -4.996
REMARK INTRA:                  -0.033
REMARK UNBOUND:                -0.039
REMARK SMILES COc1ccc2ccc(=O)oc2c1
REMARK SMILES IDX 3 1 13 2 12 3 6 4 5 5 4 6 7 7 8 8 9 9 10 10 11 11 2 12 1 13
REMARK H PARENT
REMARK Flexibility Score: inf
ROOT
ATOM      1  C   UNL     1      19.494   7.133 -22.139  1.00  0.00     0.122 A 
ATOM      2  C   UNL     1      20.244   7.455 -20.991  1.00  0.00     0.094 A 
ATOM      3  C   UNL     1      21.544   6.963 -20.837  1.00  0.00     0.142 A 
ATOM      4  C   UNL     1      22.107   6.139 -21.835  1.00  0.00     0.018 A 
ATOM      5  C   UNL     1      21.362   5.818 -22.977  1.00  0.00     0.016 A 
ATOM      6  C   UNL     1      20.064   6.314 -23.125  1.00  0.00     0.047 A 
ATOM      7  C   UNL     1      23.409   5.663 -21.652  1.00  0.00     0.019 A 
ATOM      8  C   UNL     1      24.108   6.011 -20.497  1.00  0.00     0.094 A 
ATOM      9  C   UNL     1      23.488   6.832 -19.550  1.00  0.00     0.336 A 
ATOM     10  O   UNL     1      24.103   7.157 -18.500  1.00  0.00    -0.246 OA
ATOM     11  O   UNL     1      22.248   7.271 -19.749  1.00  0.00    -0.423 OA
ENDROOT
BRANCH   1  12
ATOM     12  O   UNL     1      18.187   7.602 -22.340  1.00  0.00    -0.497 OA
ATOM     13  C   UNL     1      17.013   6.903 -21.941  1.00  0.00     0.278 C 
ENDBRANCH   1  12
TORSDOF 1
ENDMDL
