MODEL 1
REMARK VINA RESULT:    -2.156      0.000      0.000
REMARK INTER + INTRA:          -2.840
REMARK INTER:                  -2.660
REMARK INTRA:                  -0.179
REMARK UNBOUND:                -0.179
REMARK SMILES CCCCC(=O)CC
REMARK SMILES IDX 4 1 3 2 2 3 1 4 5 5 6 6 7 7 8 8
REMARK H PARENT
REMARK Flexibility Score: inf
ROOT
ATOM      1  C   UNL     1     121.466 117.032 108.537  1.00  0.00     0.075 C 
ENDROOT
BRANCH   1   2
ATOM      2  C   UNL     1     121.642 117.850 109.825  1.00  0.00     0.008 C 
BRANCH   2   3
ATOM      3  C   UNL     1     121.813 119.350 109.546  1.00  0.00    -0.003 C 
ATOM      4  C   UNL     1     123.281 119.761 109.620  1.00  0.00     0.004 C 
ENDBRANCH   2   3
ENDBRANCH   1   2
BRANCH   1   5
ATOM      5  C   UNL     1     122.735 116.331 108.121  1.00  0.00     0.132 C 
ATOM      6  O   UNL     1     123.524 116.904 107.384  1.00  0.00    -0.300 OA
BRANCH   5   7
ATOM      7  C   UNL     1     123.024 114.916 108.553  1.00  0.00     0.072 C 
ATOM      8  C   UNL     1     124.466 114.527 108.245  1.00  0.00     0.012 C 
ENDBRANCH   5   7
ENDBRANCH   1   5
TORSDOF 4
ENDMDL
MODEL 2
REMARK VINA RESULT:    -2.111      1.518      4.042
REMARK INTER + INTRA:          -2.784
REMARK INTER:                  -2.642
REMARK INTRA:                  -0.142
REMARK UNBOUND:                -0.179
REMARK SMILES CCCCC(=O)CC
REMARK SMILES IDX 4 1 3 2 2 3 1 4 5 5 6 6 7 7 8 8
REMARK H PARENT
REMARK Flexibility Score: inf
ROOT
ATOM      1  C   UNL     1     121.614 116.452 108.143  1.00  0.00     0.075 C 
ENDROOT
BRANCH   1   2
ATOM      2  C   UNL     1     122.422 115.223 108.583  1.00  0.00     0.008 C 
BRANCH   2   3
ATOM      3  C   UNL     1     123.488 114.825 107.551  1.00  0.00    -0.003 C 
ATOM      4  C   UNL     1     124.805 114.464 108.231  1.00  0.00     0.004 C 
ENDBRANCH   2   3
ENDBRANCH   1   2
BRANCH   1   5
ATOM      5  C   UNL     1     121.921 117.673 108.975  1.00  0.00     0.132 C 
ATOM      6  O   UNL     1     121.278 117.885 109.993  1.00  0.00    -0.300 OA
BRANCH   5   7
ATOM      7  C   UNL     1     122.971 118.666 108.546  1.00  0.00     0.072 C 
ATOM      8  C   UNL     1     123.091 119.811 109.546  1.00  0.00     0.012 C 
ENDBRANCH   5   7
ENDBRANCH   1   5
TORSDOF 4
ENDMDL
MODEL 3
REMARK VINA RESULT:    -2.109      2.983      4.014
REMARK INTER + INTRA:          -2.781
REMARK INTER:                  -2.611
REMARK INTRA:                  -0.171
REMARK UNBOUND:                -0.179
REMARK SMILES CCCCC(=O)CC
REMARK SMILES IDX 4 1 3 2 2 3 1 4 5 5 6 6 7 7 8 8
REMARK H PARENT
REMARK Flexibility Score: inf
ROOT
ATOM      1  C   UNL     1     123.762 120.085 108.385  1.00  0.00     0.075 C 
ENDROOT
BRANCH   1   2
ATOM      2  C   UNL     1     124.265 120.431 109.794  1.00  0.00     0.008 C 
BRANCH   2   3
ATOM      3  C   UNL     1     124.265 121.944 110.060  1.00  0.00    -0.003 C 
ATOM      4  C   UNL     1     125.143 122.681 109.054  1.00  0.00     0.004 C 
ENDBRANCH   2   3
ENDBRANCH   1   2
BRANCH   1   5
ATOM      5  C   UNL     1     122.446 119.347 108.408  1.00  0.00     0.132 C 
ATOM      6  O   UNL     1     121.868 119.115 107.356  1.00  0.00    -0.300 OA
BRANCH   5   7
ATOM      7  C   UNL     1     121.803 118.936 109.708  1.00  0.00     0.072 C 
ATOM      8  C   UNL     1     120.283 119.015 109.623  1.00  0.00     0.012 C 
ENDBRANCH   5   7
ENDBRANCH   1   5
TORSDOF 4
ENDMDL
MODEL 4
REMARK VINA RESULT:    -2.100     11.168     12.564
REMARK INTER + INTRA:          -2.770
REMARK INTER:                  -2.593
REMARK INTRA:                  -0.177
REMARK UNBOUND:                -0.179
REMARK SMILES CCCCC(=O)CC
REMARK SMILES IDX 4 1 3 2 2 3 1 4 5 5 6 6 7 7 8 8
REMARK H PARENT
REMARK Flexibility Score: inf
ROOT
ATOM      1  C   UNL     1     111.976 123.860 108.455  1.00  0.00     0.075 C 
ENDROOT
BRANCH   1   2
ATOM      2  C   UNL     1     111.573 124.294 109.871  1.00  0.00     0.008 C 
BRANCH   2   3
ATOM      3  C   UNL     1     110.052 124.269 110.080  1.00  0.00    -0.003 C 
ATOM      4  C   UNL     1     109.339 125.120 109.034  1.00  0.00     0.004 C 
ENDBRANCH   2   3
ENDBRANCH   1   2
BRANCH   1   5
ATOM      5  C   UNL     1     112.625 122.498 108.431  1.00  0.00     0.132 C 
ATOM      6  O   UNL     1     112.716 121.893 107.373  1.00  0.00    -0.300 OA
BRANCH   5   7
ATOM      7  C   UNL     1     113.115 121.843 109.698  1.00  0.00     0.072 C 
ATOM      8  C   UNL     1     112.984 120.326 109.623  1.00  0.00     0.012 C 
ENDBRANCH   5   7
ENDBRANCH   1   5
TORSDOF 4
ENDMDL
MODEL 5
REMARK VINA RESULT:    -2.094      2.903      4.379
REMARK INTER + INTRA:          -2.762
REMARK INTER:                  -2.490
REMARK INTRA:                  -0.273
REMARK UNBOUND:                -0.179
REMARK SMILES CCCCC(=O)CC
REMARK SMILES IDX 4 1 3 2 2 3 1 4 5 5 6 6 7 7 8 8
REMARK H PARENT
REMARK Flexibility Score: inf
ROOT
ATOM      1  C   UNL     1     123.491 120.123 108.084  1.00  0.00     0.075 C 
ENDROOT
BRANCH   1   2
ATOM      2  C   UNL     1     122.426 119.032 108.271  1.00  0.00     0.008 C 
BRANCH   2   3
ATOM      3  C   UNL     1     121.826 119.038 109.685  1.00  0.00    -0.003 C 
ATOM      4  C   UNL     1     120.301 119.030 109.636  1.00  0.00     0.004 C 
ENDBRANCH   2   3
ENDBRANCH   1   2
BRANCH   1   5
ATOM      5  C   UNL     1     124.738 119.856 108.889  1.00  0.00     0.132 C 
ATOM      6  O   UNL     1     125.425 118.879 108.628  1.00  0.00    -0.300 OA
BRANCH   5   7
ATOM      7  C   UNL     1     125.127 120.742 110.046  1.00  0.00     0.072 C 
ATOM      8  C   UNL     1     124.213 121.958 110.143  1.00  0.00     0.012 C 
ENDBRANCH   5   7
ENDBRANCH   1   5
TORSDOF 4
ENDMDL
MODEL 6
REMARK VINA RESULT:    -2.077      8.945     10.026
REMARK INTER + INTRA:          -2.742
REMARK INTER:                  -2.386
REMARK INTRA:                  -0.356
REMARK UNBOUND:                -0.179
REMARK SMILES CCCCC(=O)CC
REMARK SMILES IDX 4 1 3 2 2 3 1 4 5 5 6 6 7 7 8 8
REMARK H PARENT
REMARK Flexibility Score: inf
ROOT
ATOM      1  C   UNL     1     120.446 107.605 109.924  1.00  0.00     0.075 C 
ENDROOT
BRANCH   1   2
ATOM      2  C   UNL     1     121.981 107.616 109.985  1.00  0.00     0.008 C 
BRANCH   2   3
ATOM      3  C   UNL     1     122.598 106.342 109.391  1.00  0.00    -0.003 C 
ATOM      4  C   UNL     1     123.159 106.601 107.995  1.00  0.00     0.004 C 
ENDBRANCH   2   3
ENDBRANCH   1   2
BRANCH   1   5
ATOM      5  C   UNL     1     119.888 108.822 109.230  1.00  0.00     0.132 C 
ATOM      6  O   UNL     1     119.463 109.754 109.897  1.00  0.00    -0.300 OA
BRANCH   5   7
ATOM      7  C   UNL     1     119.794 108.890 107.726  1.00  0.00     0.072 C 
ATOM      8  C   UNL     1     119.554 107.510 107.124  1.00  0.00     0.012 C 
ENDBRANCH   5   7
ENDBRANCH   1   5
TORSDOF 4
ENDMDL
MODEL 7
REMARK VINA RESULT:    -2.076      8.748      9.671
REMARK INTER + INTRA:          -2.740
REMARK INTER:                  -2.560
REMARK INTRA:                  -0.180
REMARK UNBOUND:                -0.179
REMARK SMILES CCCCC(=O)CC
REMARK SMILES IDX 4 1 3 2 2 3 1 4 5 5 6 6 7 7 8 8
REMARK H PARENT
REMARK Flexibility Score: inf
ROOT
ATOM      1  C   UNL     1     115.438 121.711 108.022  1.00  0.00     0.075 C 
ENDROOT
BRANCH   1   2
ATOM      2  C   UNL     1     116.718 122.376 108.550  1.00  0.00     0.008 C 
BRANCH   2   3
ATOM      3  C   UNL     1     117.297 123.397 107.560  1.00  0.00    -0.003 C 
ATOM      4  C   UNL     1     117.501 124.755 108.225  1.00  0.00     0.004 C 
ENDBRANCH   2   3
ENDBRANCH   1   2
BRANCH   1   5
ATOM      5  C   UNL     1     114.187 122.358 108.564  1.00  0.00     0.132 C 
ATOM      6  O   UNL     1     113.794 123.408 108.078  1.00  0.00    -0.300 OA
BRANCH   5   7
ATOM      7  C   UNL     1     113.440 121.760 109.729  1.00  0.00     0.072 C 
ATOM      8  C   UNL     1     113.492 120.237 109.697  1.00  0.00     0.012 C 
ENDBRANCH   5   7
ENDBRANCH   1   5
TORSDOF 4
ENDMDL
MODEL 8
REMARK VINA RESULT:    -2.072      7.106      9.254
REMARK INTER + INTRA:          -2.736
REMARK INTER:                  -2.575
REMARK INTRA:                  -0.160
REMARK UNBOUND:                -0.179
REMARK SMILES CCCCC(=O)CC
REMARK SMILES IDX 4 1 3 2 2 3 1 4 5 5 6 6 7 7 8 8
REMARK H PARENT
REMARK Flexibility Score: inf
ROOT
ATOM      1  C   UNL     1     120.110 108.373 108.288  1.00  0.00     0.075 C 
ENDROOT
BRANCH   1   2
ATOM      2  C   UNL     1     120.374 107.734 109.659  1.00  0.00     0.008 C 
BRANCH   2   3
ATOM      3  C   UNL     1     121.866 107.733 110.025  1.00  0.00    -0.003 C 
ATOM      4  C   UNL     1     122.672 106.881 109.050  1.00  0.00     0.004 C 
ENDBRANCH   2   3
ENDBRANCH   1   2
BRANCH   1   5
ATOM      5  C   UNL     1     119.313 109.649 108.390  1.00  0.00     0.132 C 
ATOM      6  O   UNL     1     118.967 110.226 107.369  1.00  0.00    -0.300 OA
BRANCH   5   7
ATOM      7  C   UNL     1     118.980 110.258 109.728  1.00  0.00     0.072 C 
ATOM      8  C   UNL     1     118.834 111.772 109.627  1.00  0.00     0.012 C 
ENDBRANCH   5   7
ENDBRANCH   1   5
TORSDOF 4
ENDMDL
MODEL 9
REMARK VINA RESULT:    -2.059     13.372     14.549
REMARK INTER + INTRA:          -2.719
REMARK INTER:                  -2.463
REMARK INTRA:                  -0.256
REMARK UNBOUND:                -0.179
REMARK SMILES CCCCC(=O)CC
REMARK SMILES IDX 4 1 3 2 2 3 1 4 5 5 6 6 7 7 8 8
REMARK H PARENT
REMARK Flexibility Score: inf
ROOT
ATOM      1  C   UNL     1     109.487 112.519 107.845  1.00  0.00     0.075 C 
ENDROOT
BRANCH   1   2
ATOM      2  C   UNL     1     108.196 111.768 108.199  1.00  0.00     0.008 C 
BRANCH   2   3
ATOM      3  C   UNL     1     108.044 111.546 109.710  1.00  0.00    -0.003 C 
ATOM      4  C   UNL     1     107.835 110.069 110.032  1.00  0.00     0.004 C 
ENDBRANCH   2   3
ENDBRANCH   1   2
BRANCH   1   5
ATOM      5  C   UNL     1     109.575 113.865 108.519  1.00  0.00     0.132 C 
ATOM      6  O   UNL     1     108.856 114.777 108.137  1.00  0.00    -0.300 OA
BRANCH   5   7
ATOM      7  C   UNL     1     110.571 114.125 109.620  1.00  0.00     0.072 C 
ATOM      8  C   UNL     1     111.635 113.033 109.673  1.00  0.00     0.012 C 
ENDBRANCH   5   7
ENDBRANCH   1   5
TORSDOF 4
ENDMDL
