MODEL 1
REMARK VINA RESULT:    -2.924      0.000      0.000
REMARK INTER + INTRA:          -4.020
REMARK INTER:                  -3.779
REMARK INTRA:                  -0.241
REMARK UNBOUND:                -0.241
REMARK SMILES CCCCCCC(=O)[O-]
REMARK SMILES IDX 5 1 6 2 7 3 8 4 9 5 4 6 3 7 2 8 1 9
REMARK H PARENT
REMARK Flexibility Score: inf
ROOT
ATOM      1  C   UNL     1      26.656  71.144  11.445  1.00  0.00     0.006 C 
ENDROOT
BRANCH   1   2
ATOM      2  C   UNL     1      26.682  71.745  12.854  1.00  0.00     0.053 C 
BRANCH   2   3
ATOM      3  C   UNL     1      28.091  71.980  13.298  1.00  0.00     0.041 C 
ATOM      4  O   UNL     1      29.040  71.878  12.476  1.00  0.00    -0.550 OA
ATOM      5  O   UNL     1      28.353  72.359  14.608  1.00  0.00    -0.550 OA
ENDBRANCH   2   3
ENDBRANCH   1   2
BRANCH   1   6
ATOM      6  C   UNL     1      26.237  72.192  10.408  1.00  0.00     0.000 C 
BRANCH   6   7
ATOM      7  C   UNL     1      26.801  71.854   9.023  1.00  0.00    -0.000 C 
BRANCH   7   8
ATOM      8  C   UNL     1      28.139  71.115   9.140  1.00  0.00    -0.003 C 
ATOM      9  C   UNL     1      29.126  71.590   8.078  1.00  0.00     0.004 C 
ENDBRANCH   7   8
ENDBRANCH   6   7
ENDBRANCH   1   6
TORSDOF 5
ENDMDL
MODEL 2
REMARK VINA RESULT:    -2.771      9.421     10.947
REMARK INTER + INTRA:          -3.822
REMARK INTER:                  -3.553
REMARK INTRA:                  -0.270
REMARK UNBOUND:                -0.241
REMARK SMILES CCCCCCC(=O)[O-]
REMARK SMILES IDX 5 1 6 2 7 3 8 4 9 5 4 6 3 7 2 8 1 9
REMARK H PARENT
REMARK Flexibility Score: inf
ROOT
ATOM      1  C   UNL     1      21.657  67.882  19.250  1.00  0.00     0.006 C 
ENDROOT
BRANCH   1   2
ATOM      2  C   UNL     1      20.237  67.548  18.784  1.00  0.00     0.053 C 
BRANCH   2   3
ATOM      3  C   UNL     1      19.962  66.087  18.951  1.00  0.00     0.041 C 
ATOM      4  O   UNL     1      20.882  65.305  19.308  1.00  0.00    -0.550 OA
ATOM      5  O   UNL     1      18.677  65.596  18.757  1.00  0.00    -0.550 OA
ENDBRANCH   2   3
ENDBRANCH   1   2
BRANCH   1   6
ATOM      6  C   UNL     1      22.476  68.505  18.114  1.00  0.00     0.000 C 
BRANCH   6   7
ATOM      7  C   UNL     1      22.526  70.032  18.243  1.00  0.00    -0.000 C 
BRANCH   7   8
ATOM      8  C   UNL     1      22.098  70.709  16.936  1.00  0.00    -0.003 C 
ATOM      9  C   UNL     1      20.581  70.855  16.863  1.00  0.00     0.004 C 
ENDBRANCH   7   8
ENDBRANCH   6   7
ENDBRANCH   1   6
TORSDOF 5
ENDMDL
MODEL 3
REMARK VINA RESULT:    -2.732      9.974     11.606
REMARK INTER + INTRA:          -3.772
REMARK INTER:                  -3.489
REMARK INTRA:                  -0.283
REMARK UNBOUND:                -0.241
REMARK SMILES CCCCCCC(=O)[O-]
REMARK SMILES IDX 5 1 6 2 7 3 8 4 9 5 4 6 3 7 2 8 1 9
REMARK H PARENT
REMARK Flexibility Score: inf
ROOT
ATOM      1  C   UNL     1      21.246  65.638  19.127  1.00  0.00     0.006 C 
ENDROOT
BRANCH   1   2
ATOM      2  C   UNL     1      19.964  65.562  18.292  1.00  0.00     0.053 C 
BRANCH   2   3
ATOM      3  C   UNL     1      18.914  66.463  18.861  1.00  0.00     0.041 C 
ATOM      4  O   UNL     1      17.931  65.980  19.481  1.00  0.00    -0.550 OA
ATOM      5  O   UNL     1      19.046  67.842  18.747  1.00  0.00    -0.550 OA
ENDBRANCH   2   3
ENDBRANCH   1   2
BRANCH   1   6
ATOM      6  C   UNL     1      22.403  66.218  18.306  1.00  0.00     0.000 C 
BRANCH   6   7
ATOM      7  C   UNL     1      22.736  67.646  18.754  1.00  0.00    -0.000 C 
BRANCH   7   8
ATOM      8  C   UNL     1      22.367  68.662  17.668  1.00  0.00    -0.003 C 
ATOM      9  C   UNL     1      22.409  70.088  18.210  1.00  0.00     0.004 C 
ENDBRANCH   7   8
ENDBRANCH   6   7
ENDBRANCH   1   6
TORSDOF 5
ENDMDL
MODEL 4
REMARK VINA RESULT:    -2.729      9.254     11.197
REMARK INTER + INTRA:          -3.768
REMARK INTER:                  -3.529
REMARK INTRA:                  -0.239
REMARK UNBOUND:                -0.241
REMARK SMILES CCCCCCC(=O)[O-]
REMARK SMILES IDX 5 1 6 2 7 3 8 4 9 5 4 6 3 7 2 8 1 9
REMARK H PARENT
REMARK Flexibility Score: inf
ROOT
ATOM      1  C   UNL     1      21.606  67.590  19.241  1.00  0.00     0.006 C 
ENDROOT
BRANCH   1   2
ATOM      2  C   UNL     1      22.675  68.279  18.387  1.00  0.00     0.053 C 
BRANCH   2   3
ATOM      3  C   UNL     1      22.271  69.685  18.077  1.00  0.00     0.041 C 
ATOM      4  O   UNL     1      23.110  70.620  18.162  1.00  0.00    -0.550 OA
ATOM      5  O   UNL     1      20.979  69.957  17.646  1.00  0.00    -0.550 OA
ENDBRANCH   2   3
ENDBRANCH   1   2
BRANCH   1   6
ATOM      6  C   UNL     1      21.395  66.139  18.793  1.00  0.00     0.000 C 
BRANCH   6   7
ATOM      7  C   UNL     1      19.914  65.749  18.867  1.00  0.00    -0.000 C 
BRANCH   7   8
ATOM      8  C   UNL     1      19.020  66.891  18.371  1.00  0.00    -0.003 C 
ATOM      9  C   UNL     1      17.944  67.233  19.398  1.00  0.00     0.004 C 
ENDBRANCH   7   8
ENDBRANCH   6   7
ENDBRANCH   1   6
TORSDOF 5
ENDMDL
MODEL 5
REMARK VINA RESULT:    -2.726      1.412      2.217
REMARK INTER + INTRA:          -3.763
REMARK INTER:                  -3.535
REMARK INTRA:                  -0.228
REMARK UNBOUND:                -0.241
REMARK SMILES CCCCCCC(=O)[O-]
REMARK SMILES IDX 5 1 6 2 7 3 8 4 9 5 4 6 3 7 2 8 1 9
REMARK H PARENT
REMARK Flexibility Score: inf
ROOT
ATOM      1  C   UNL     1      27.854  71.186  10.766  1.00  0.00     0.006 C 
ENDROOT
BRANCH   1   2
ATOM      2  C   UNL     1      28.690  71.879  11.846  1.00  0.00     0.053 C 
BRANCH   2   3
ATOM      3  C   UNL     1      27.900  72.021  13.108  1.00  0.00     0.041 C 
ATOM      4  O   UNL     1      28.470  72.355  14.180  1.00  0.00    -0.550 OA
ATOM      5  O   UNL     1      26.523  71.832  13.091  1.00  0.00    -0.550 OA
ENDBRANCH   2   3
ENDBRANCH   1   2
BRANCH   1   6
ATOM      6  C   UNL     1      28.544  71.269   9.399  1.00  0.00     0.000 C 
BRANCH   6   7
ATOM      7  C   UNL     1      27.650  71.974   8.372  1.00  0.00    -0.000 C 
BRANCH   7   8
ATOM      8  C   UNL     1      26.421  72.593   9.046  1.00  0.00    -0.003 C 
ATOM      9  C   UNL     1      26.434  74.115   8.923  1.00  0.00     0.004 C 
ENDBRANCH   7   8
ENDBRANCH   6   7
ENDBRANCH   1   6
TORSDOF 5
ENDMDL
MODEL 6
REMARK VINA RESULT:    -2.716      9.215     10.687
REMARK INTER + INTRA:          -3.751
REMARK INTER:                  -3.478
REMARK INTRA:                  -0.273
REMARK UNBOUND:                -0.241
REMARK SMILES CCCCCCC(=O)[O-]
REMARK SMILES IDX 5 1 6 2 7 3 8 4 9 5 4 6 3 7 2 8 1 9
REMARK H PARENT
REMARK Flexibility Score: inf
ROOT
ATOM      1  C   UNL     1      21.966  67.892  19.218  1.00  0.00     0.006 C 
ENDROOT
BRANCH   1   2
ATOM      2  C   UNL     1      20.483  67.633  18.935  1.00  0.00     0.053 C 
BRANCH   2   3
ATOM      3  C   UNL     1      20.187  66.168  18.995  1.00  0.00     0.041 C 
ATOM      4  O   UNL     1      19.071  65.730  18.611  1.00  0.00    -0.550 OA
ATOM      5  O   UNL     1      21.163  65.279  19.429  1.00  0.00    -0.550 OA
ENDBRANCH   2   3
ENDBRANCH   1   2
BRANCH   1   6
ATOM      6  C   UNL     1      22.630  68.622  18.044  1.00  0.00     0.000 C 
BRANCH   6   7
ATOM      7  C   UNL     1      22.496  70.142  18.194  1.00  0.00    -0.000 C 
BRANCH   7   8
ATOM      8  C   UNL     1      21.704  70.741  17.027  1.00  0.00    -0.003 C 
ATOM      9  C   UNL     1      21.603  69.756  15.866  1.00  0.00     0.004 C 
ENDBRANCH   7   8
ENDBRANCH   6   7
ENDBRANCH   1   6
TORSDOF 5
ENDMDL
MODEL 7
REMARK VINA RESULT:    -2.666      9.069     10.170
REMARK INTER + INTRA:          -3.687
REMARK INTER:                  -3.497
REMARK INTRA:                  -0.190
REMARK UNBOUND:                -0.241
REMARK SMILES CCCCCCC(=O)[O-]
REMARK SMILES IDX 5 1 6 2 7 3 8 4 9 5 4 6 3 7 2 8 1 9
REMARK H PARENT
REMARK Flexibility Score: inf
ROOT
ATOM      1  C   UNL     1      22.765  67.792  17.507  1.00  0.00     0.006 C 
ENDROOT
BRANCH   1   2
ATOM      2  C   UNL     1      23.077  66.480  18.233  1.00  0.00     0.053 C 
BRANCH   2   3
ATOM      3  C   UNL     1      21.872  65.594  18.254  1.00  0.00     0.041 C 
ATOM      4  O   UNL     1      21.419  65.113  17.182  1.00  0.00    -0.550 OA
ATOM      5  O   UNL     1      21.276  65.258  19.464  1.00  0.00    -0.550 OA
ENDBRANCH   2   3
ENDBRANCH   1   2
BRANCH   1   6
ATOM      6  C   UNL     1      22.200  68.836  18.478  1.00  0.00     0.000 C 
BRANCH   6   7
ATOM      7  C   UNL     1      22.701  70.242  18.127  1.00  0.00    -0.000 C 
BRANCH   7   8
ATOM      8  C   UNL     1      22.064  70.743  16.826  1.00  0.00    -0.003 C 
ATOM      9  C   UNL     1      20.547  70.840  16.957  1.00  0.00     0.004 C 
ENDBRANCH   7   8
ENDBRANCH   6   7
ENDBRANCH   1   6
TORSDOF 5
ENDMDL
MODEL 8
REMARK VINA RESULT:    -2.600      9.690     10.533
REMARK INTER + INTRA:          -3.601
REMARK INTER:                  -3.197
REMARK INTRA:                  -0.404
REMARK UNBOUND:                -0.241
REMARK SMILES CCCCCCC(=O)[O-]
REMARK SMILES IDX 5 1 6 2 7 3 8 4 9 5 4 6 3 7 2 8 1 9
REMARK H PARENT
REMARK Flexibility Score: inf
ROOT
ATOM      1  C   UNL     1      22.701  67.434  18.687  1.00  0.00     0.006 C 
ENDROOT
BRANCH   1   2
ATOM      2  C   UNL     1      21.231  67.351  19.109  1.00  0.00     0.053 C 
BRANCH   2   3
ATOM      3  C   UNL     1      20.747  65.937  19.048  1.00  0.00     0.041 C 
ATOM      4  O   UNL     1      19.580  65.683  18.650  1.00  0.00    -0.550 OA
ATOM      5  O   UNL     1      21.602  64.895  19.384  1.00  0.00    -0.550 OA
ENDBRANCH   2   3
ENDBRANCH   1   2
BRANCH   1   6
ATOM      6  C   UNL     1      22.833  67.482  17.160  1.00  0.00     0.000 C 
BRANCH   6   7
ATOM      7  C   UNL     1      23.764  66.375  16.651  1.00  0.00    -0.000 C 
BRANCH   7   8
ATOM      8  C   UNL     1      23.109  65.586  15.513  1.00  0.00    -0.003 C 
ATOM      9  C   UNL     1      21.627  65.931  15.384  1.00  0.00     0.004 C 
ENDBRANCH   7   8
ENDBRANCH   6   7
ENDBRANCH   1   6
TORSDOF 5
ENDMDL
MODEL 9
REMARK VINA RESULT:    -2.595      6.868      8.395
REMARK INTER + INTRA:          -3.595
REMARK INTER:                  -3.372
REMARK INTRA:                  -0.223
REMARK UNBOUND:                -0.241
REMARK SMILES CCCCCCC(=O)[O-]
REMARK SMILES IDX 5 1 6 2 7 3 8 4 9 5 4 6 3 7 2 8 1 9
REMARK H PARENT
REMARK Flexibility Score: inf
ROOT
ATOM      1  C   UNL     1      21.246  70.279  17.436  1.00  0.00     0.006 C 
ENDROOT
BRANCH   1   2
ATOM      2  C   UNL     1      22.450  69.863  18.287  1.00  0.00     0.053 C 
BRANCH   2   3
ATOM      3  C   UNL     1      22.427  68.389  18.540  1.00  0.00     0.041 C 
ATOM      4  O   UNL     1      21.733  67.917  19.479  1.00  0.00    -0.550 OA
ATOM      5  O   UNL     1      23.134  67.530  17.708  1.00  0.00    -0.550 OA
ENDBRANCH   2   3
ENDBRANCH   1   2
BRANCH   1   6
ATOM      6  C   UNL     1      21.614  70.327  15.949  1.00  0.00     0.000 C 
BRANCH   6   7
ATOM      7  C   UNL     1      21.559  71.762  15.413  1.00  0.00    -0.000 C 
BRANCH   7   8
ATOM      8  C   UNL     1      22.810  72.091  14.592  1.00  0.00    -0.003 C 
ATOM      9  C   UNL     1      23.816  72.889  15.417  1.00  0.00     0.004 C 
ENDBRANCH   7   8
ENDBRANCH   6   7
ENDBRANCH   1   6
TORSDOF 5
ENDMDL
