MODEL 1
REMARK VINA RESULT:    -5.391      0.000      0.000
REMARK INTER + INTRA:          -7.131
REMARK INTER:                  -7.597
REMARK INTRA:                   0.466
REMARK UNBOUND:                 0.466
REMARK SMILES CC1=CCC(=C(C)C)C(=O)CC(C)=CCC1
REMARK SMILES IDX 12 1 14 2 13 3 15 4 16 5 2 6 1 7 3 8 11 10 9 11 10 12 5 13
REMARK SMILES IDX 6 14 7 15 8 16 4 17
REMARK H PARENT
REMARK Flexibility Score: 60.00
ROOT
ATOM      1  C   UNL     1      -3.546 -11.199  28.427  1.00  0.00    -0.070 C 
ATOM      2  C   UNL     1      -2.838 -10.499  29.343  1.00  0.00    -0.027 C 
ATOM      3  C   UNL     1      -3.088 -11.153  26.992  1.00  0.00     0.039 C 
ENDROOT
BRANCH   2   4
ATOM      4  C   UNL     1      -3.088 -10.472  30.832  1.00  0.00     0.032 C 
BRANCH   4   5
ATOM      5  C   UNL     1      -1.878 -10.952  31.653  1.00  0.00     0.034 C 
BRANCH   5   6
ATOM      6  C   UNL     1      -1.452 -12.365  31.294  1.00  0.00    -0.077 C 
ATOM      7  C   UNL     1      -0.033 -12.589  30.837  1.00  0.00     0.039 C 
ATOM      8  C   UNL     1      -2.278 -13.435  31.340  1.00  0.00    -0.023 CG0
ATOM      9  G   UNL     1      -3.741 -13.409  31.714  1.00  0.00     0.000 G0
ENDBRANCH   5   6
ENDBRANCH   4   5
ENDBRANCH   2   4
BRANCH   1  10
ATOM     10  C   UNL     1      -4.761 -12.045  28.765  1.00  0.00     0.111 C 
BRANCH  10  11
ATOM     11  C   UNL     1      -4.385 -13.436  29.215  1.00  0.00     0.163 C 
ATOM     12  O   UNL     1      -3.769 -14.176  28.402  1.00  0.00    -0.294 OA
BRANCH  11  13
ATOM     13  C   UNL     1      -4.642 -13.927  30.603  1.00  0.00    -0.002 C 
ATOM     14  C   UNL     1      -5.737 -14.696  30.872  1.00  0.00    -0.069 C 
ATOM     15  C   UNL     1      -6.689 -15.121  29.775  1.00  0.00     0.039 C 
ATOM     16  C   UNL     1      -6.076 -15.114  32.285  1.00  0.00     0.039 C 
BRANCH  13  17
ATOM     17  C   UNL     1      -3.743 -13.424  31.727  1.00  0.00     0.066 CG0
ATOM     18  G   UNL     1      -2.287 -13.428  31.323  1.00  0.00     0.000 G0
ENDBRANCH  13  17
ENDBRANCH  11  13
ENDBRANCH  10  11
ENDBRANCH   1  10
TORSDOF 0
ENDMDL
MODEL 2
REMARK VINA RESULT:    -5.337      1.830      4.229
REMARK INTER + INTRA:          -7.055
REMARK INTER:                  -7.831
REMARK INTRA:                   0.776
REMARK UNBOUND:                 0.466
REMARK SMILES CC1=CCC(=C(C)C)C(=O)CC(C)=CCC1
REMARK SMILES IDX 12 1 14 2 13 3 15 4 16 5 2 6 1 7 3 8 11 10 9 11 10 12 5 13
REMARK SMILES IDX 6 14 7 15 8 16 4 17
REMARK H PARENT
REMARK Flexibility Score: 60.00
ROOT
ATOM      1  C   UNL     1      -6.023 -14.361  28.906  1.00  0.00    -0.070 C 
ATOM      2  C   UNL     1      -5.630 -14.740  27.668  1.00  0.00    -0.027 C 
ATOM      3  C   UNL     1      -6.927 -15.289  29.677  1.00  0.00     0.039 C 
ENDROOT
BRANCH   2   4
ATOM      4  C   UNL     1      -4.675 -13.993  26.768  1.00  0.00     0.032 C 
BRANCH   4   5
ATOM      5  C   UNL     1      -3.280 -13.813  27.390  1.00  0.00     0.034 C 
BRANCH   5   6
ATOM      6  C   UNL     1      -2.876 -12.354  27.509  1.00  0.00    -0.077 C 
ATOM      7  C   UNL     1      -2.964 -11.486  26.280  1.00  0.00     0.039 C 
ATOM      8  C   UNL     1      -2.421 -11.789  28.651  1.00  0.00    -0.023 CG0
ATOM      9  G   UNL     1      -2.207 -12.500  29.966  1.00  0.00     0.000 G0
ENDBRANCH   5   6
ENDBRANCH   4   5
ENDBRANCH   2   4
BRANCH   1  10
ATOM     10  C   UNL     1      -5.588 -13.067  29.571  1.00  0.00     0.111 C 
BRANCH  10  11
ATOM     11  C   UNL     1      -4.575 -13.297  30.667  1.00  0.00     0.163 C 
ATOM     12  O   UNL     1      -4.684 -14.340  31.366  1.00  0.00    -0.294 OA
BRANCH  11  13
ATOM     13  C   UNL     1      -3.414 -12.382  30.891  1.00  0.00    -0.002 C 
ATOM     14  C   UNL     1      -3.498 -11.371  31.804  1.00  0.00    -0.069 C 
ATOM     15  C   UNL     1      -4.736 -11.178  32.653  1.00  0.00     0.039 C 
ATOM     16  C   UNL     1      -2.379 -10.368  31.972  1.00  0.00     0.039 C 
BRANCH  13  17
ATOM     17  C   UNL     1      -2.204 -12.511  29.974  1.00  0.00     0.066 CG0
ATOM     18  G   UNL     1      -2.421 -11.799  28.659  1.00  0.00     0.000 G0
ENDBRANCH  13  17
ENDBRANCH  11  13
ENDBRANCH  10  11
ENDBRANCH   1  10
TORSDOF 0
ENDMDL
MODEL 3
REMARK VINA RESULT:    -5.310      2.170      3.385
REMARK INTER + INTRA:          -7.018
REMARK INTER:                  -7.462
REMARK INTRA:                   0.444
REMARK UNBOUND:                 0.466
REMARK SMILES CC1=CCC(=C(C)C)C(=O)CC(C)=CCC1
REMARK SMILES IDX 12 1 14 2 13 3 15 4 16 5 2 6 1 7 3 8 11 10 9 11 10 12 5 13
REMARK SMILES IDX 6 14 7 15 8 16 4 17
REMARK H PARENT
REMARK Flexibility Score: 60.00
ROOT
ATOM      1  C   UNL     1      -3.852 -11.469  31.960  1.00  0.00    -0.070 C 
ATOM      2  C   UNL     1      -2.513 -11.387  32.138  1.00  0.00    -0.027 C 
ATOM      3  C   UNL     1      -4.722 -10.459  32.662  1.00  0.00     0.039 C 
ENDROOT
BRANCH   2   4
ATOM      4  C   UNL     1      -1.470 -12.252  31.471  1.00  0.00     0.032 C 
BRANCH   4   5
ATOM      5  C   UNL     1      -1.169 -11.823  30.025  1.00  0.00     0.034 C 
BRANCH   5   6
ATOM      6  C   UNL     1      -1.144 -12.996  29.061  1.00  0.00    -0.077 C 
ATOM      7  C   UNL     1      -0.027 -14.002  29.188  1.00  0.00     0.039 C 
ATOM      8  C   UNL     1      -2.054 -13.183  28.078  1.00  0.00    -0.023 CG0
ATOM      9  G   UNL     1      -3.207 -12.263  27.752  1.00  0.00     0.000 G0
ENDBRANCH   5   6
ENDBRANCH   4   5
ENDBRANCH   2   4
BRANCH   1  10
ATOM     10  C   UNL     1      -4.524 -12.506  31.078  1.00  0.00     0.111 C 
BRANCH  10  11
ATOM     11  C   UNL     1      -4.868 -11.961  29.713  1.00  0.00     0.163 C 
ATOM     12  O   UNL     1      -5.425 -10.832  29.648  1.00  0.00    -0.294 OA
BRANCH  11  13
ATOM     13  C   UNL     1      -4.500 -12.670  28.449  1.00  0.00    -0.002 C 
ATOM     14  C   UNL     1      -5.229 -13.741  28.021  1.00  0.00    -0.069 C 
ATOM     15  C   UNL     1      -6.457 -14.208  28.771  1.00  0.00     0.039 C 
ATOM     16  C   UNL     1      -4.813 -14.540  26.806  1.00  0.00     0.039 C 
BRANCH  13  17
ATOM     17  C   UNL     1      -3.211 -12.266  27.743  1.00  0.00     0.066 CG0
ATOM     18  G   UNL     1      -2.073 -13.201  28.079  1.00  0.00     0.000 G0
ENDBRANCH  13  17
ENDBRANCH  11  13
ENDBRANCH  10  11
ENDBRANCH   1  10
TORSDOF 0
ENDMDL
MODEL 4
REMARK VINA RESULT:    -5.113      1.900      4.668
REMARK INTER + INTRA:          -6.740
REMARK INTER:                  -7.276
REMARK INTRA:                   0.536
REMARK UNBOUND:                 0.466
REMARK SMILES CC1=CCC(=C(C)C)C(=O)CC(C)=CCC1
REMARK SMILES IDX 12 1 14 2 13 3 15 4 16 5 2 6 1 7 3 8 11 10 9 11 10 12 5 13
REMARK SMILES IDX 6 14 7 15 8 16 4 17
REMARK H PARENT
REMARK Flexibility Score: 60.00
ROOT
ATOM      1  C   UNL     1      -4.973 -13.639  30.981  1.00  0.00    -0.070 C 
ATOM      2  C   UNL     1      -5.330 -14.225  29.815  1.00  0.00    -0.027 C 
ATOM      3  C   UNL     1      -4.722 -14.528  32.172  1.00  0.00     0.039 C 
ENDROOT
BRANCH   2   4
ATOM      4  C   UNL     1      -5.556 -13.524  28.497  1.00  0.00     0.032 C 
BRANCH   4   5
ATOM      5  C   UNL     1      -4.560 -13.959  27.408  1.00  0.00     0.034 C 
BRANCH   5   6
ATOM      6  C   UNL     1      -3.565 -12.867  27.055  1.00  0.00    -0.077 C 
ATOM      7  C   UNL     1      -3.777 -12.091  25.780  1.00  0.00     0.039 C 
ATOM      8  C   UNL     1      -2.485 -12.560  27.809  1.00  0.00    -0.023 CG0
ATOM      9  G   UNL     1      -2.068 -13.255  29.084  1.00  0.00     0.000 G0
ENDBRANCH   5   6
ENDBRANCH   4   5
ENDBRANCH   2   4
BRANCH   1  10
ATOM     10  C   UNL     1      -4.790 -12.141  31.152  1.00  0.00     0.111 C 
BRANCH  10  11
ATOM     11  C   UNL     1      -3.590 -11.621  30.398  1.00  0.00     0.163 C 
ATOM     12  O   UNL     1      -3.665 -10.474  29.882  1.00  0.00    -0.294 OA
BRANCH  11  13
ATOM     13  C   UNL     1      -2.303 -12.378  30.318  1.00  0.00    -0.002 C 
ATOM     14  C   UNL     1      -1.330 -12.187  31.255  1.00  0.00    -0.069 C 
ATOM     15  C   UNL     1      -1.539 -11.255  32.429  1.00  0.00     0.039 C 
ATOM     16  C   UNL     1       0.019 -12.859  31.135  1.00  0.00     0.039 C 
BRANCH  13  17
ATOM     17  C   UNL     1      -2.049 -13.242  29.089  1.00  0.00     0.066 CG0
ATOM     18  G   UNL     1      -2.481 -12.549  27.818  1.00  0.00     0.000 G0
ENDBRANCH  13  17
ENDBRANCH  11  13
ENDBRANCH  10  11
ENDBRANCH   1  10
TORSDOF 0
ENDMDL
MODEL 5
REMARK VINA RESULT:    -4.935      1.349      1.866
REMARK INTER + INTRA:          -6.489
REMARK INTER:                  -7.306
REMARK INTRA:                   0.817
REMARK UNBOUND:                 0.466
REMARK SMILES CC1=CCC(=C(C)C)C(=O)CC(C)=CCC1
REMARK SMILES IDX 12 1 14 2 13 3 15 4 16 5 2 6 1 7 3 8 11 10 9 11 10 12 5 13
REMARK SMILES IDX 6 14 7 15 8 16 4 17
REMARK H PARENT
REMARK Flexibility Score: 60.00
ROOT
ATOM      1  C   UNL     1      -3.047 -12.658  27.567  1.00  0.00    -0.070 C 
ATOM      2  C   UNL     1      -1.828 -12.523  28.140  1.00  0.00    -0.027 C 
ATOM      3  C   UNL     1      -3.351 -11.827  26.347  1.00  0.00     0.039 C 
ENDROOT
BRANCH   2   4
ATOM      4  C   UNL     1      -1.303 -13.309  29.317  1.00  0.00     0.032 C 
BRANCH   4   5
ATOM      5  C   UNL     1      -1.128 -12.451  30.582  1.00  0.00     0.034 C 
BRANCH   5   6
ATOM      6  C   UNL     1      -2.201 -11.385  30.719  1.00  0.00    -0.077 C 
ATOM      7  C   UNL     1      -1.850  -9.967  30.345  1.00  0.00     0.039 C 
ATOM      8  C   UNL     1      -3.450 -11.628  31.177  1.00  0.00    -0.023 CG0
ATOM      9  G   UNL     1      -3.975 -12.962  31.653  1.00  0.00     0.000 G0
ENDBRANCH   5   6
ENDBRANCH   4   5
ENDBRANCH   2   4
BRANCH   1  10
ATOM     10  C   UNL     1      -4.115 -13.612  28.071  1.00  0.00     0.111 C 
BRANCH  10  11
ATOM     11  C   UNL     1      -4.903 -13.035  29.222  1.00  0.00     0.163 C 
ATOM     12  O   UNL     1      -5.668 -12.062  28.988  1.00  0.00    -0.294 OA
BRANCH  11  13
ATOM     13  C   UNL     1      -4.867 -13.625  30.595  1.00  0.00    -0.002 C 
ATOM     14  C   UNL     1      -5.722 -14.633  30.936  1.00  0.00    -0.069 C 
ATOM     15  C   UNL     1      -6.687 -15.220  29.930  1.00  0.00     0.039 C 
ATOM     16  C   UNL     1      -5.778 -15.172  32.348  1.00  0.00     0.039 C 
BRANCH  13  17
ATOM     17  C   UNL     1      -3.967 -12.974  31.639  1.00  0.00     0.066 CG0
ATOM     18  G   UNL     1      -3.463 -11.626  31.180  1.00  0.00     0.000 G0
ENDBRANCH  13  17
ENDBRANCH  11  13
ENDBRANCH  10  11
ENDBRANCH   1  10
TORSDOF 0
ENDMDL
MODEL 6
REMARK VINA RESULT:    -4.872      1.787      3.535
REMARK INTER + INTRA:          -6.400
REMARK INTER:                  -7.031
REMARK INTRA:                   0.631
REMARK UNBOUND:                 0.466
REMARK SMILES CC1=CCC(=C(C)C)C(=O)CC(C)=CCC1
REMARK SMILES IDX 12 1 14 2 13 3 15 4 16 5 2 6 1 7 3 8 11 10 9 11 10 12 5 13
REMARK SMILES IDX 6 14 7 15 8 16 4 17
REMARK H PARENT
REMARK Flexibility Score: 60.00
ROOT
ATOM      1  C   UNL     1      -1.357 -12.964  30.753  1.00  0.00    -0.070 C 
ATOM      2  C   UNL     1      -1.143 -12.802  29.426  1.00  0.00    -0.027 C 
ATOM      3  C   UNL     1      -0.456 -12.226  31.710  1.00  0.00     0.039 C 
ENDROOT
BRANCH   2   4
ATOM      4  C   UNL     1      -1.973 -13.391  28.311  1.00  0.00     0.032 C 
BRANCH   4   5
ATOM      5  C   UNL     1      -2.594 -12.323  27.395  1.00  0.00     0.034 C 
BRANCH   5   6
ATOM      6  C   UNL     1      -3.504 -11.367  28.146  1.00  0.00    -0.077 C 
ATOM      7  C   UNL     1      -3.167  -9.898  28.131  1.00  0.00     0.039 C 
ATOM      8  C   UNL     1      -4.593 -11.759  28.846  1.00  0.00    -0.023 CG0
ATOM      9  G   UNL     1      -5.064 -13.182  29.029  1.00  0.00     0.000 G0
ENDBRANCH   5   6
ENDBRANCH   4   5
ENDBRANCH   2   4
BRANCH   1  10
ATOM     10  C   UNL     1      -2.464 -13.828  31.330  1.00  0.00     0.111 C 
BRANCH  10  11
ATOM     11  C   UNL     1      -3.805 -13.135  31.304  1.00  0.00     0.163 C 
ATOM     12  O   UNL     1      -3.927 -12.055  31.942  1.00  0.00    -0.294 OA
BRANCH  11  13
ATOM     13  C   UNL     1      -4.952 -13.638  30.489  1.00  0.00    -0.002 C 
ATOM     14  C   UNL     1      -5.794 -14.588  30.992  1.00  0.00    -0.069 C 
ATOM     15  C   UNL     1      -5.630 -15.117  32.401  1.00  0.00     0.039 C 
ATOM     16  C   UNL     1      -6.895 -15.190  30.149  1.00  0.00     0.039 C 
BRANCH  13  17
ATOM     17  C   UNL     1      -5.065 -13.182  29.039  1.00  0.00     0.066 CG0
ATOM     18  G   UNL     1      -4.584 -11.761  28.861  1.00  0.00     0.000 G0
ENDBRANCH  13  17
ENDBRANCH  11  13
ENDBRANCH  10  11
ENDBRANCH   1  10
TORSDOF 0
ENDMDL
MODEL 7
REMARK VINA RESULT:    -4.749      1.889      3.242
REMARK INTER + INTRA:          -6.226
REMARK INTER:                  -6.919
REMARK INTRA:                   0.693
REMARK UNBOUND:                 0.466
REMARK SMILES CC1=CCC(=C(C)C)C(=O)CC(C)=CCC1
REMARK SMILES IDX 12 1 14 2 13 3 15 4 16 5 2 6 1 7 3 8 11 10 9 11 10 12 5 13
REMARK SMILES IDX 6 14 7 15 8 16 4 17
REMARK H PARENT
REMARK Flexibility Score: 60.00
ROOT
ATOM      1  C   UNL     1      -1.365 -13.278  29.355  1.00  0.00    -0.070 C 
ATOM      2  C   UNL     1      -1.166 -13.527  30.670  1.00  0.00    -0.027 C 
ATOM      3  C   UNL     1      -1.015 -14.362  28.368  1.00  0.00     0.039 C 
ENDROOT
BRANCH   2   4
ATOM      4  C   UNL     1      -1.517 -12.607  31.815  1.00  0.00     0.032 C 
BRANCH   4   5
ATOM      5  C   UNL     1      -3.012 -12.249  31.860  1.00  0.00     0.034 C 
BRANCH   5   6
ATOM      6  C   UNL     1      -3.910 -13.463  31.698  1.00  0.00    -0.077 C 
ATOM      7  C   UNL     1      -3.777 -14.588  32.693  1.00  0.00     0.039 C 
ATOM      8  C   UNL     1      -4.810 -13.606  30.699  1.00  0.00    -0.023 CG0
ATOM      9  G   UNL     1      -5.051 -12.623  29.577  1.00  0.00     0.000 G0
ENDBRANCH   5   6
ENDBRANCH   4   5
ENDBRANCH   2   4
BRANCH   1  10
ATOM     10  C   UNL     1      -1.941 -11.979  28.819  1.00  0.00     0.111 C 
BRANCH  10  11
ATOM     11  C   UNL     1      -3.114 -12.209  27.897  1.00  0.00     0.163 C 
ATOM     12  O   UNL     1      -3.042 -11.758  26.723  1.00  0.00    -0.294 OA
BRANCH  11  13
ATOM     13  C   UNL     1      -4.306 -13.016  28.300  1.00  0.00    -0.002 C 
ATOM     14  C   UNL     1      -4.791 -13.992  27.478  1.00  0.00    -0.069 C 
ATOM     15  C   UNL     1      -4.110 -14.326  26.168  1.00  0.00     0.039 C 
ATOM     16  C   UNL     1      -6.056 -14.747  27.814  1.00  0.00     0.039 C 
BRANCH  13  17
ATOM     17  C   UNL     1      -5.051 -12.620  29.570  1.00  0.00     0.066 CG0
ATOM     18  G   UNL     1      -4.806 -13.602  30.691  1.00  0.00     0.000 G0
ENDBRANCH  13  17
ENDBRANCH  11  13
ENDBRANCH  10  11
ENDBRANCH   1  10
TORSDOF 0
ENDMDL
MODEL 8
REMARK VINA RESULT:    -4.718      1.833      3.813
REMARK INTER + INTRA:          -6.184
REMARK INTER:                  -7.700
REMARK INTRA:                   1.516
REMARK UNBOUND:                 0.466
REMARK SMILES CC1=CCC(=C(C)C)C(=O)CC(C)=CCC1
REMARK SMILES IDX 12 1 14 2 13 3 15 4 16 5 2 6 1 7 3 8 11 10 9 11 10 12 5 13
REMARK SMILES IDX 6 14 7 15 8 16 4 17
REMARK H PARENT
REMARK Flexibility Score: 60.00
ROOT
ATOM      1  C   UNL     1      -5.210 -13.478  29.402  1.00  0.00    -0.070 C 
ATOM      2  C   UNL     1      -5.180 -14.166  30.568  1.00  0.00    -0.027 C 
ATOM      3  C   UNL     1      -5.552 -14.235  28.144  1.00  0.00     0.039 C 
ENDROOT
BRANCH   2   4
ATOM      4  C   UNL     1      -4.931 -13.584  31.939  1.00  0.00     0.032 C 
BRANCH   4   5
ATOM      5  C   UNL     1      -3.601 -12.817  32.034  1.00  0.00     0.034 C 
BRANCH   5   6
ATOM      6  C   UNL     1      -3.794 -11.311  32.038  1.00  0.00    -0.077 C 
ATOM      7  C   UNL     1      -4.919 -10.737  32.861  1.00  0.00     0.039 C 
ATOM      8  C   UNL     1      -3.027 -10.452  31.330  1.00  0.00    -0.023 CG0
ATOM      9  G   UNL     1      -1.894 -10.831  30.405  1.00  0.00     0.000 G0
ENDBRANCH   5   6
ENDBRANCH   4   5
ENDBRANCH   2   4
BRANCH   1  10
ATOM     10  C   UNL     1      -4.941 -11.988  29.294  1.00  0.00     0.111 C 
BRANCH  10  11
ATOM     11  C   UNL     1      -3.606 -11.692  28.655  1.00  0.00     0.163 C 
ATOM     12  O   UNL     1      -3.599 -11.203  27.493  1.00  0.00    -0.294 OA
BRANCH  11  13
ATOM     13  C   UNL     1      -2.311 -11.879  29.378  1.00  0.00    -0.002 C 
ATOM     14  C   UNL     1      -1.600 -13.035  29.234  1.00  0.00    -0.069 C 
ATOM     15  C   UNL     1      -2.064 -14.133  28.300  1.00  0.00     0.039 C 
ATOM     16  C   UNL     1      -0.345 -13.292  30.036  1.00  0.00     0.039 C 
BRANCH  13  17
ATOM     17  C   UNL     1      -1.889 -10.822  30.391  1.00  0.00     0.066 CG0
ATOM     18  G   UNL     1      -3.021 -10.455  31.322  1.00  0.00     0.000 G0
ENDBRANCH  13  17
ENDBRANCH  11  13
ENDBRANCH  10  11
ENDBRANCH   1  10
TORSDOF 0
ENDMDL
MODEL 9
REMARK VINA RESULT:    -4.632      2.016      3.846
REMARK INTER + INTRA:          -6.062
REMARK INTER:                  -6.575
REMARK INTRA:                   0.513
REMARK UNBOUND:                 0.466
REMARK SMILES CC1=CCC(=C(C)C)C(=O)CC(C)=CCC1
REMARK SMILES IDX 12 1 14 2 13 3 15 4 16 5 2 6 1 7 3 8 11 10 9 11 10 12 5 13
REMARK SMILES IDX 6 14 7 15 8 16 4 17
REMARK H PARENT
REMARK Flexibility Score: 60.00
ROOT
ATOM      1  C   UNL     1      -1.267 -12.209  30.706  1.00  0.00    -0.070 C 
ATOM      2  C   UNL     1      -0.941 -13.236  29.887  1.00  0.00    -0.027 C 
ATOM      3  C   UNL     1      -0.825 -12.284  32.145  1.00  0.00     0.039 C 
ENDROOT
BRANCH   2   4
ATOM      4  C   UNL     1      -1.224 -13.320  28.406  1.00  0.00     0.032 C 
BRANCH   4   5
ATOM      5  C   UNL     1      -2.234 -14.424  28.051  1.00  0.00     0.034 C 
BRANCH   5   6
ATOM      6  C   UNL     1      -3.619 -13.877  27.755  1.00  0.00    -0.077 C 
ATOM      7  C   UNL     1      -3.997 -13.627  26.317  1.00  0.00     0.039 C 
ATOM      8  C   UNL     1      -4.531 -13.579  28.709  1.00  0.00    -0.023 CG0
ATOM      9  G   UNL     1      -4.325 -13.703  30.200  1.00  0.00     0.000 G0
ENDBRANCH   5   6
ENDBRANCH   4   5
ENDBRANCH   2   4
BRANCH   1  10
ATOM     10  C   UNL     1      -2.032 -10.978  30.253  1.00  0.00     0.111 C 
BRANCH  10  11
ATOM     11  C   UNL     1      -3.514 -11.238  30.127  1.00  0.00     0.163 C 
ATOM     12  O   UNL     1      -4.170 -10.545  29.305  1.00  0.00    -0.294 OA
BRANCH  11  13
ATOM     13  C   UNL     1      -4.202 -12.333  30.876  1.00  0.00    -0.002 C 
ATOM     14  C   UNL     1      -4.581 -12.149  32.175  1.00  0.00    -0.069 C 
ATOM     15  C   UNL     1      -4.371 -10.825  32.876  1.00  0.00     0.039 C 
ATOM     16  C   UNL     1      -5.181 -13.276  32.986  1.00  0.00     0.039 C 
BRANCH  13  17
ATOM     17  C   UNL     1      -4.330 -13.697  30.209  1.00  0.00     0.066 CG0
ATOM     18  G   UNL     1      -4.526 -13.573  28.716  1.00  0.00     0.000 G0
ENDBRANCH  13  17
ENDBRANCH  11  13
ENDBRANCH  10  11
ENDBRANCH   1  10
TORSDOF 0
ENDMDL
