MODEL 1
REMARK VINA RESULT:    -3.681      0.000      0.000
REMARK INTER + INTRA:          -4.732
REMARK INTER:                  -4.434
REMARK INTRA:                  -0.298
REMARK UNBOUND:                -0.298
REMARK SMILES O=c1c(O)c(-c2ccc(O)cc2O)oc2cc(O)cc(O)c12
REMARK SMILES IDX 5 1 3 2 2 3 1 4 22 5 20 6 19 7 17 8 16 9 15 10 14 11 6 12
REMARK SMILES IDX 8 13 7 14 9 15 11 16 12 17 10 18 13 20 4 22 21 24 18 26
REMARK H PARENT 10 19 13 21 4 23 21 25 18 27
REMARK Flexibility Score: inf
ROOT
ATOM      1  C   UNL     1      33.314  26.048  36.956  1.00  0.00     0.184 A 
ATOM      2  C   UNL     1      32.884  25.987  38.291  1.00  0.00     0.208 A 
ATOM      3  C   UNL     1      32.190  24.849  38.731  1.00  0.00     0.238 A 
ATOM      4  O   UNL     1      31.761  24.823  39.914  1.00  0.00    -0.285 OA
ATOM      5  C   UNL     1      31.950  23.780  37.833  1.00  0.00     0.111 A 
ATOM      6  C   UNL     1      31.293  22.561  38.181  1.00  0.00     0.134 A 
ATOM      7  C   UNL     1      30.996  21.627  37.181  1.00  0.00     0.093 A 
ATOM      8  C   UNL     1      31.388  21.837  35.860  1.00  0.00     0.123 A 
ATOM      9  C   UNL     1      32.083  22.998  35.519  1.00  0.00     0.094 A 
ATOM     10  C   UNL     1      32.363  23.965  36.488  1.00  0.00     0.146 A 
ATOM     11  O   UNL     1      33.017  25.061  36.120  1.00  0.00    -0.451 OA
ENDROOT
BRANCH   1  12
ATOM     12  C   UNL     1      34.063  27.209  36.433  1.00  0.00     0.063 A 
ATOM     13  C   UNL     1      34.099  29.200  35.038  1.00  0.00     0.047 A 
ATOM     14  C   UNL     1      33.418  28.096  35.555  1.00  0.00     0.020 A 
ATOM     15  C   UNL     1      35.438  29.426  35.381  1.00  0.00     0.119 A 
ATOM     16  C   UNL     1      36.095  28.536  36.237  1.00  0.00     0.093 A 
ATOM     17  C   UNL     1      35.420  27.421  36.755  1.00  0.00     0.130 A 
BRANCH  15  18
ATOM     18  O   UNL     1      36.125  30.527  34.875  1.00  0.00    -0.508 OA
ATOM     19  H   UNL     1      36.572  31.200  35.488  1.00  0.00     0.293 HD
ENDBRANCH  15  18
BRANCH  17  20
ATOM     20  O   UNL     1      36.101  26.514  37.568  1.00  0.00    -0.507 OA
ATOM     21  H   UNL     1      36.566  26.808  38.419  1.00  0.00     0.293 HD
ENDBRANCH  17  20
ENDBRANCH   1  12
BRANCH   2  22
ATOM     22  O   UNL     1      33.118  27.064  39.149  1.00  0.00    -0.502 OA
ATOM     23  H   UNL     1      32.367  27.627  39.532  1.00  0.00     0.293 HD
ENDBRANCH   2  22
BRANCH   6  24
ATOM     24  O   UNL     1      30.940  22.211  39.488  1.00  0.00    -0.507 OA
ATOM     25  H   UNL     1      31.596  22.043  40.236  1.00  0.00     0.293 HD
ENDBRANCH   6  24
BRANCH   8  26
ATOM     26  O   UNL     1      31.087  20.879  34.893  1.00  0.00    -0.508 OA
ATOM     27  H   UNL     1      31.714  20.694  34.119  1.00  0.00     0.293 HD
ENDBRANCH   8  26
TORSDOF 6
ENDMDL
MODEL 2
REMARK VINA RESULT:    -2.930      1.772      2.212
REMARK INTER + INTRA:          -3.828
REMARK INTER:                  -3.426
REMARK INTRA:                  -0.402
REMARK UNBOUND:                -0.298
REMARK SMILES O=c1c(O)c(-c2ccc(O)cc2O)oc2cc(O)cc(O)c12
REMARK SMILES IDX 5 1 3 2 2 3 1 4 22 5 20 6 19 7 17 8 16 9 15 10 14 11 6 12
REMARK SMILES IDX 8 13 7 14 9 15 11 16 12 17 10 18 13 20 4 22 21 24 18 26
REMARK H PARENT 10 19 13 21 4 23 21 25 18 27
REMARK Flexibility Score: inf
ROOT
ATOM      1  C   UNL     1      34.031  25.568  37.483  1.00  0.00     0.184 A 
ATOM      2  C   UNL     1      34.820  24.788  38.343  1.00  0.00     0.208 A 
ATOM      3  C   UNL     1      34.266  23.630  38.911  1.00  0.00     0.238 A 
ATOM      4  O   UNL     1      34.960  22.964  39.723  1.00  0.00    -0.285 OA
ATOM      5  C   UNL     1      32.935  23.259  38.597  1.00  0.00     0.111 A 
ATOM      6  C   UNL     1      32.285  22.084  39.082  1.00  0.00     0.134 A 
ATOM      7  C   UNL     1      30.926  21.885  38.811  1.00  0.00     0.093 A 
ATOM      8  C   UNL     1      30.211  22.783  38.019  1.00  0.00     0.123 A 
ATOM      9  C   UNL     1      30.852  23.904  37.490  1.00  0.00     0.094 A 
ATOM     10  C   UNL     1      32.198  24.148  37.773  1.00  0.00     0.146 A 
ATOM     11  O   UNL     1      32.767  25.233  37.259  1.00  0.00    -0.451 OA
ENDROOT
BRANCH   1  12
ATOM     12  C   UNL     1      34.559  26.789  36.840  1.00  0.00     0.063 A 
ATOM     13  C   UNL     1      35.807  27.802  35.016  1.00  0.00     0.047 A 
ATOM     14  C   UNL     1      35.289  26.669  35.646  1.00  0.00     0.020 A 
ATOM     15  C   UNL     1      35.614  29.070  35.577  1.00  0.00     0.119 A 
ATOM     16  C   UNL     1      34.908  29.198  36.777  1.00  0.00     0.093 A 
ATOM     17  C   UNL     1      34.390  28.064  37.420  1.00  0.00     0.130 A 
BRANCH  15  18
ATOM     18  O   UNL     1      36.122  30.208  34.954  1.00  0.00    -0.508 OA
ATOM     19  H   UNL     1      35.987  31.132  35.348  1.00  0.00     0.293 HD
ENDBRANCH  15  18
BRANCH  17  20
ATOM     20  O   UNL     1      33.730  28.200  38.642  1.00  0.00    -0.507 OA
ATOM     21  H   UNL     1      33.048  28.932  38.800  1.00  0.00     0.293 HD
ENDBRANCH  17  20
ENDBRANCH   1  12
BRANCH   2  22
ATOM     22  O   UNL     1      36.123  25.187  38.650  1.00  0.00    -0.502 OA
ATOM     23  H   UNL     1      36.839  24.530  38.936  1.00  0.00     0.293 HD
ENDBRANCH   2  22
BRANCH   6  24
ATOM     24  O   UNL     1      32.932  21.077  39.806  1.00  0.00    -0.507 OA
ATOM     25  H   UNL     1      33.717  21.225  40.421  1.00  0.00     0.293 HD
ENDBRANCH   6  24
BRANCH   8  26
ATOM     26  O   UNL     1      28.863  22.545  37.757  1.00  0.00    -0.508 OA
ATOM     27  H   UNL     1      28.438  22.817  36.878  1.00  0.00     0.293 HD
ENDBRANCH   8  26
TORSDOF 6
ENDMDL
MODEL 3
REMARK VINA RESULT:    -2.886      2.512      3.772
REMARK INTER + INTRA:          -3.774
REMARK INTER:                  -4.385
REMARK INTRA:                   0.611
REMARK UNBOUND:                -0.298
REMARK SMILES O=c1c(O)c(-c2ccc(O)cc2O)oc2cc(O)cc(O)c12
REMARK SMILES IDX 5 1 3 2 2 3 1 4 22 5 20 6 19 7 17 8 16 9 15 10 14 11 6 12
REMARK SMILES IDX 8 13 7 14 9 15 11 16 12 17 10 18 13 20 4 22 21 24 18 26
REMARK H PARENT 10 19 13 21 4 23 21 25 18 27
REMARK Flexibility Score: inf
ROOT
ATOM      1  C   UNL     1      33.065  25.312  37.562  1.00  0.00     0.184 A 
ATOM      2  C   UNL     1      34.329  24.735  37.364  1.00  0.00     0.208 A 
ATOM      3  C   UNL     1      34.648  23.547  38.040  1.00  0.00     0.238 A 
ATOM      4  O   UNL     1      35.801  23.062  37.901  1.00  0.00    -0.285 OA
ATOM      5  C   UNL     1      33.690  22.943  38.892  1.00  0.00     0.111 A 
ATOM      6  C   UNL     1      33.889  21.717  39.595  1.00  0.00     0.134 A 
ATOM      7  C   UNL     1      32.923  21.281  40.510  1.00  0.00     0.093 A 
ATOM      8  C   UNL     1      31.738  21.991  40.700  1.00  0.00     0.123 A 
ATOM      9  C   UNL     1      31.506  23.160  39.973  1.00  0.00     0.094 A 
ATOM     10  C   UNL     1      32.467  23.639  39.079  1.00  0.00     0.146 A 
ATOM     11  O   UNL     1      32.213  24.761  38.416  1.00  0.00    -0.451 OA
ENDROOT
BRANCH   1  12
ATOM     12  C   UNL     1      32.662  26.553  36.868  1.00  0.00     0.063 A 
ATOM     13  C   UNL     1      33.245  28.381  35.376  1.00  0.00     0.047 A 
ATOM     14  C   UNL     1      33.592  27.203  36.041  1.00  0.00     0.020 A 
ATOM     15  C   UNL     1      31.968  28.932  35.539  1.00  0.00     0.119 A 
ATOM     16  C   UNL     1      31.043  28.304  36.379  1.00  0.00     0.093 A 
ATOM     17  C   UNL     1      31.386  27.124  37.055  1.00  0.00     0.130 A 
BRANCH  15  18
ATOM     18  O   UNL     1      31.610  30.105  34.876  1.00  0.00    -0.508 OA
ATOM     19  H   UNL     1      32.115  30.971  35.024  1.00  0.00     0.293 HD
ENDBRANCH  15  18
BRANCH  17  20
ATOM     20  O   UNL     1      30.471  26.535  37.928  1.00  0.00    -0.507 OA
ATOM     21  H   UNL     1      30.592  25.587  38.265  1.00  0.00     0.293 HD
ENDBRANCH  17  20
ENDBRANCH   1  12
BRANCH   2  22
ATOM     22  O   UNL     1      35.261  25.361  36.533  1.00  0.00    -0.502 OA
ATOM     23  H   UNL     1      36.176  24.966  36.348  1.00  0.00     0.293 HD
ENDBRANCH   2  22
BRANCH   6  24
ATOM     24  O   UNL     1      34.997  20.883  39.412  1.00  0.00    -0.507 OA
ATOM     25  H   UNL     1      35.176  20.340  38.581  1.00  0.00     0.293 HD
ENDBRANCH   6  24
BRANCH   8  26
ATOM     26  O   UNL     1      30.792  21.519  41.608  1.00  0.00    -0.508 OA
ATOM     27  H   UNL     1      30.627  20.527  41.734  1.00  0.00     0.293 HD
ENDBRANCH   8  26
TORSDOF 6
ENDMDL
MODEL 4
REMARK VINA RESULT:    -2.530      1.501      3.260
REMARK INTER + INTRA:          -3.346
REMARK INTER:                  -2.947
REMARK INTRA:                  -0.399
REMARK UNBOUND:                -0.298
REMARK SMILES O=c1c(O)c(-c2ccc(O)cc2O)oc2cc(O)cc(O)c12
REMARK SMILES IDX 5 1 3 2 2 3 1 4 22 5 20 6 19 7 17 8 16 9 15 10 14 11 6 12
REMARK SMILES IDX 8 13 7 14 9 15 11 16 12 17 10 18 13 20 4 22 21 24 18 26
REMARK H PARENT 10 19 13 21 4 23 21 25 18 27
REMARK Flexibility Score: inf
ROOT
ATOM      1  C   UNL     1      33.538  25.518  36.972  1.00  0.00     0.184 A 
ATOM      2  C   UNL     1      33.528  24.397  36.128  1.00  0.00     0.208 A 
ATOM      3  C   UNL     1      32.926  23.212  36.579  1.00  0.00     0.238 A 
ATOM      4  O   UNL     1      32.966  22.194  35.840  1.00  0.00    -0.285 OA
ATOM      5  C   UNL     1      32.327  23.170  37.862  1.00  0.00     0.111 A 
ATOM      6  C   UNL     1      31.652  22.036  38.406  1.00  0.00     0.134 A 
ATOM      7  C   UNL     1      31.211  22.066  39.735  1.00  0.00     0.093 A 
ATOM      8  C   UNL     1      31.362  23.209  40.518  1.00  0.00     0.123 A 
ATOM      9  C   UNL     1      31.967  24.345  39.978  1.00  0.00     0.094 A 
ATOM     10  C   UNL     1      32.449  24.334  38.666  1.00  0.00     0.146 A 
ATOM     11  O   UNL     1      33.028  25.431  38.194  1.00  0.00    -0.451 OA
ENDROOT
BRANCH   1  12
ATOM     12  C   UNL     1      34.141  26.800  36.552  1.00  0.00     0.063 A 
ATOM     13  C   UNL     1      36.125  28.187  36.325  1.00  0.00     0.047 A 
ATOM     14  C   UNL     1      35.524  26.985  36.706  1.00  0.00     0.020 A 
ATOM     15  C   UNL     1      35.349  29.226  35.797  1.00  0.00     0.119 A 
ATOM     16  C   UNL     1      33.967  29.060  35.662  1.00  0.00     0.093 A 
ATOM     17  C   UNL     1      33.355  27.858  36.047  1.00  0.00     0.130 A 
BRANCH  15  18
ATOM     18  O   UNL     1      35.939  30.427  35.410  1.00  0.00    -0.508 OA
ATOM     19  H   UNL     1      35.617  30.936  34.594  1.00  0.00     0.293 HD
ENDBRANCH  15  18
BRANCH  17  20
ATOM     20  O   UNL     1      31.970  27.724  35.953  1.00  0.00    -0.507 OA
ATOM     21  H   UNL     1      31.530  26.818  35.834  1.00  0.00     0.293 HD
ENDBRANCH  17  20
ENDBRANCH   1  12
BRANCH   2  22
ATOM     22  O   UNL     1      34.142  24.460  34.875  1.00  0.00    -0.502 OA
ATOM     23  H   UNL     1      33.885  25.150  34.178  1.00  0.00     0.293 HD
ENDBRANCH   2  22
BRANCH   6  24
ATOM     24  O   UNL     1      31.368  20.875  37.679  1.00  0.00    -0.507 OA
ATOM     25  H   UNL     1      31.207  19.967  38.087  1.00  0.00     0.293 HD
ENDBRANCH   6  24
BRANCH   8  26
ATOM     26  O   UNL     1      30.898  23.208  41.832  1.00  0.00    -0.508 OA
ATOM     27  H   UNL     1      30.363  23.984  42.205  1.00  0.00     0.293 HD
ENDBRANCH   8  26
TORSDOF 6
ENDMDL
MODEL 5
REMARK VINA RESULT:    -2.220      1.834      2.758
REMARK INTER + INTRA:          -2.972
REMARK INTER:                  -2.572
REMARK INTRA:                  -0.400
REMARK UNBOUND:                -0.298
REMARK SMILES O=c1c(O)c(-c2ccc(O)cc2O)oc2cc(O)cc(O)c12
REMARK SMILES IDX 5 1 3 2 2 3 1 4 22 5 20 6 19 7 17 8 16 9 15 10 14 11 6 12
REMARK SMILES IDX 8 13 7 14 9 15 11 16 12 17 10 18 13 20 4 22 21 24 18 26
REMARK H PARENT 10 19 13 21 4 23 21 25 18 27
REMARK Flexibility Score: inf
ROOT
ATOM      1  C   UNL     1      33.590  25.379  36.798  1.00  0.00     0.184 A 
ATOM      2  C   UNL     1      32.410  24.943  36.175  1.00  0.00     0.208 A 
ATOM      3  C   UNL     1      31.805  23.756  36.619  1.00  0.00     0.238 A 
ATOM      4  O   UNL     1      30.778  23.341  36.023  1.00  0.00    -0.285 OA
ATOM      5  C   UNL     1      32.381  23.031  37.692  1.00  0.00     0.111 A 
ATOM      6  C   UNL     1      31.832  21.838  38.251  1.00  0.00     0.134 A 
ATOM      7  C   UNL     1      32.555  21.135  39.223  1.00  0.00     0.093 A 
ATOM      8  C   UNL     1      33.773  21.615  39.702  1.00  0.00     0.123 A 
ATOM      9  C   UNL     1      34.291  22.811  39.205  1.00  0.00     0.094 A 
ATOM     10  C   UNL     1      33.610  23.517  38.209  1.00  0.00     0.146 A 
ATOM     11  O   UNL     1      34.143  24.645  37.755  1.00  0.00    -0.451 OA
ENDROOT
BRANCH   1  12
ATOM     12  C   UNL     1      34.267  26.627  36.389  1.00  0.00     0.063 A 
ATOM     13  C   UNL     1      34.240  29.054  36.250  1.00  0.00     0.047 A 
ATOM     14  C   UNL     1      33.631  27.856  36.630  1.00  0.00     0.020 A 
ATOM     15  C   UNL     1      35.487  29.040  35.613  1.00  0.00     0.119 A 
ATOM     16  C   UNL     1      36.117  27.820  35.349  1.00  0.00     0.093 A 
ATOM     17  C   UNL     1      35.509  26.612  35.721  1.00  0.00     0.130 A 
BRANCH  15  18
ATOM     18  O   UNL     1      36.106  30.229  35.235  1.00  0.00    -0.508 OA
ATOM     19  H   UNL     1      35.612  30.937  34.703  1.00  0.00     0.293 HD
ENDBRANCH  15  18
BRANCH  17  20
ATOM     20  O   UNL     1      36.125  25.400  35.408  1.00  0.00    -0.507 OA
ATOM     21  H   UNL     1      36.696  25.292  34.578  1.00  0.00     0.293 HD
ENDBRANCH  17  20
ENDBRANCH   1  12
BRANCH   2  22
ATOM     22  O   UNL     1      31.874  25.667  35.108  1.00  0.00    -0.502 OA
ATOM     23  H   UNL     1      32.049  26.657  34.981  1.00  0.00     0.293 HD
ENDBRANCH   2  22
BRANCH   6  24
ATOM     24  O   UNL     1      30.579  21.321  37.909  1.00  0.00    -0.507 OA
ATOM     25  H   UNL     1      29.951  20.863  38.551  1.00  0.00     0.293 HD
ENDBRANCH   6  24
BRANCH   8  26
ATOM     26  O   UNL     1      34.457  20.896  40.681  1.00  0.00    -0.508 OA
ATOM     27  H   UNL     1      34.268  21.032  41.667  1.00  0.00     0.293 HD
ENDBRANCH   8  26
TORSDOF 6
ENDMDL
