MODEL 1
REMARK VINA RESULT:    -4.411      0.000      0.000
REMARK INTER + INTRA:          -6.739
REMARK INTER:                  -5.958
REMARK INTRA:                  -0.781
REMARK UNBOUND:                -0.781
REMARK SMILES O=C[C@@H](O)[C@@H](O)[C@@H](O)CO
REMARK SMILES IDX 7 1 9 2 10 3 5 5 3 6 2 7 1 8 4 9 6 11 8 13
REMARK H PARENT 10 4 4 10 6 12 8 14
REMARK Flexibility Score: inf
ROOT
ATOM      1  C   UNL     1      28.016 -16.531   7.647  1.00  0.00     0.171 C 
ENDROOT
BRANCH   1   2
ATOM      2  C   UNL     1      27.127 -16.877   8.858  1.00  0.00     0.190 C 
BRANCH   2   3
ATOM      3  O   UNL     1      26.173 -17.851   8.529  1.00  0.00    -0.394 OA
ATOM      4  H   UNL     1      26.598 -18.452   7.863  1.00  0.00     0.210 HD
ENDBRANCH   2   3
ENDBRANCH   1   2
BRANCH   1   5
ATOM      5  C   UNL     1      27.284 -15.600   6.642  1.00  0.00     0.181 C 
BRANCH   5   6
ATOM      6  C   UNL     1      27.272 -16.183   5.205  1.00  0.00     0.209 C 
BRANCH   6   7
ATOM      7  C   UNL     1      26.615 -17.538   5.179  1.00  0.00     0.258 C 
ATOM      8  O   UNL     1      25.465 -17.679   5.564  1.00  0.00    -0.300 OA
ENDBRANCH   6   7
BRANCH   6   9
ATOM      9  O   UNL     1      26.579 -15.321   4.339  1.00  0.00    -0.383 OA
ATOM     10  H   UNL     1      25.914 -14.831   4.893  1.00  0.00     0.211 HD
ENDBRANCH   6   9
ENDBRANCH   5   6
BRANCH   5  11
ATOM     11  O   UNL     1      25.967 -15.347   7.071  1.00  0.00    -0.387 OA
ATOM     12  H   UNL     1      25.366 -15.957   6.566  1.00  0.00     0.211 HD
ENDBRANCH   5  11
ENDBRANCH   1   5
BRANCH   1  13
ATOM     13  O   UNL     1      29.179 -15.894   8.110  1.00  0.00    -0.388 OA
ATOM     14  H   UNL     1      28.935 -14.952   8.307  1.00  0.00     0.211 HD
ENDBRANCH   1  13
TORSDOF 8
ENDMDL
MODEL 2
REMARK VINA RESULT:    -4.376      1.176      4.081
REMARK INTER + INTRA:          -6.691
REMARK INTER:                  -6.209
REMARK INTRA:                  -0.483
REMARK UNBOUND:                -0.781
REMARK SMILES O=C[C@@H](O)[C@@H](O)[C@@H](O)CO
REMARK SMILES IDX 7 1 9 2 10 3 5 5 3 6 2 7 1 8 4 9 6 11 8 13
REMARK H PARENT 10 4 4 10 6 12 8 14
REMARK Flexibility Score: inf
ROOT
ATOM      1  C   UNL     1      26.962 -16.250   5.509  1.00  0.00     0.171 C 
ENDROOT
BRANCH   1   2
ATOM      2  C   UNL     1      27.423 -15.180   4.500  1.00  0.00     0.190 C 
BRANCH   2   3
ATOM      3  O   UNL     1      27.246 -15.615   3.178  1.00  0.00    -0.394 OA
ATOM      4  H   UNL     1      27.294 -16.606   3.197  1.00  0.00     0.210 HD
ENDBRANCH   2   3
ENDBRANCH   1   2
BRANCH   1   5
ATOM      5  C   UNL     1      27.397 -15.899   6.959  1.00  0.00     0.181 C 
BRANCH   5   6
ATOM      6  C   UNL     1      27.467 -17.153   7.869  1.00  0.00     0.209 C 
BRANCH   6   7
ATOM      7  C   UNL     1      28.107 -16.821   9.192  1.00  0.00     0.258 C 
ATOM      8  O   UNL     1      29.322 -16.753   9.296  1.00  0.00    -0.300 OA
ENDBRANCH   6   7
BRANCH   6   9
ATOM      9  O   UNL     1      26.176 -17.657   8.098  1.00  0.00    -0.383 OA
ATOM     10  H   UNL     1      25.778 -17.842   7.206  1.00  0.00     0.211 HD
ENDBRANCH   6   9
ENDBRANCH   5   6
BRANCH   5  11
ATOM     11  O   UNL     1      28.638 -15.235   6.956  1.00  0.00    -0.387 OA
ATOM     12  H   UNL     1      29.162 -15.577   7.728  1.00  0.00     0.211 HD
ENDBRANCH   5  11
ENDBRANCH   1   5
BRANCH   1  13
ATOM     13  O   UNL     1      25.562 -16.349   5.452  1.00  0.00    -0.388 OA
ATOM     14  H   UNL     1      25.219 -15.453   5.198  1.00  0.00     0.211 HD
ENDBRANCH   1  13
TORSDOF 8
ENDMDL
MODEL 3
REMARK VINA RESULT:    -4.364      1.305      3.707
REMARK INTER + INTRA:          -6.675
REMARK INTER:                  -5.979
REMARK INTRA:                  -0.696
REMARK UNBOUND:                -0.781
REMARK SMILES O=C[C@@H](O)[C@@H](O)[C@@H](O)CO
REMARK SMILES IDX 7 1 9 2 10 3 5 5 3 6 2 7 1 8 4 9 6 11 8 13
REMARK H PARENT 10 4 4 10 6 12 8 14
REMARK Flexibility Score: inf
ROOT
ATOM      1  C   UNL     1      25.978 -17.312   5.916  1.00  0.00     0.171 C 
ENDROOT
BRANCH   1   2
ATOM      2  C   UNL     1      26.902 -17.651   4.729  1.00  0.00     0.190 C 
BRANCH   2   3
ATOM      3  O   UNL     1      27.184 -16.512   3.960  1.00  0.00    -0.394 OA
ATOM      4  H   UNL     1      27.845 -16.789   3.274  1.00  0.00     0.210 HD
ENDBRANCH   2   3
ENDBRANCH   1   2
BRANCH   1   5
ATOM      5  C   UNL     1      26.787 -17.012   7.208  1.00  0.00     0.181 C 
BRANCH   5   6
ATOM      6  C   UNL     1      26.822 -15.498   7.540  1.00  0.00     0.209 C 
BRANCH   6   7
ATOM      7  C   UNL     1      27.602 -15.243   8.803  1.00  0.00     0.258 C 
ATOM      8  O   UNL     1      28.563 -15.938   9.092  1.00  0.00    -0.300 OA
ENDBRANCH   6   7
BRANCH   6   9
ATOM      9  O   UNL     1      27.414 -14.786   6.484  1.00  0.00    -0.383 OA
ATOM     10  H   UNL     1      26.876 -13.959   6.358  1.00  0.00     0.211 HD
ENDBRANCH   6   9
ENDBRANCH   5   6
BRANCH   5  11
ATOM     11  O   UNL     1      26.263 -17.733   8.298  1.00  0.00    -0.387 OA
ATOM     12  H   UNL     1      25.335 -17.413   8.449  1.00  0.00     0.211 HD
ENDBRANCH   5  11
ENDBRANCH   1   5
BRANCH   1  13
ATOM     13  O   UNL     1      25.205 -16.189   5.578  1.00  0.00    -0.388 OA
ATOM     14  H   UNL     1      24.821 -16.362   4.679  1.00  0.00     0.211 HD
ENDBRANCH   1  13
TORSDOF 8
ENDMDL
MODEL 4
REMARK VINA RESULT:    -4.155      1.397      3.405
REMARK INTER + INTRA:          -6.393
REMARK INTER:                  -5.557
REMARK INTRA:                  -0.835
REMARK UNBOUND:                -0.781
REMARK SMILES O=C[C@@H](O)[C@@H](O)[C@@H](O)CO
REMARK SMILES IDX 7 1 9 2 10 3 5 5 3 6 2 7 1 8 4 9 6 11 8 13
REMARK H PARENT 10 4 4 10 6 12 8 14
REMARK Flexibility Score: inf
ROOT
ATOM      1  C   UNL     1      26.765 -17.149   7.158  1.00  0.00     0.171 C 
ENDROOT
BRANCH   1   2
ATOM      2  C   UNL     1      25.852 -16.998   5.924  1.00  0.00     0.190 C 
BRANCH   2   3
ATOM      3  O   UNL     1      26.556 -16.472   4.831  1.00  0.00    -0.394 OA
ATOM      4  H   UNL     1      26.344 -15.502   4.797  1.00  0.00     0.210 HD
ENDBRANCH   2   3
ENDBRANCH   1   2
BRANCH   1   5
ATOM      5  C   UNL     1      27.116 -15.772   7.787  1.00  0.00     0.181 C 
BRANCH   5   6
ATOM      6  C   UNL     1      28.585 -15.360   7.513  1.00  0.00     0.209 C 
BRANCH   6   7
ATOM      7  C   UNL     1      28.645 -14.134   6.639  1.00  0.00     0.258 C 
ATOM      8  O   UNL     1      28.328 -14.194   5.461  1.00  0.00    -0.300 OA
ENDBRANCH   6   7
BRANCH   6   9
ATOM      9  O   UNL     1      29.246 -15.093   8.723  1.00  0.00    -0.383 OA
ATOM     10  H   UNL     1      30.179 -15.419   8.619  1.00  0.00     0.211 HD
ENDBRANCH   6   9
ENDBRANCH   5   6
BRANCH   5  11
ATOM     11  O   UNL     1      26.239 -14.776   7.318  1.00  0.00    -0.387 OA
ATOM     12  H   UNL     1      26.525 -13.913   7.719  1.00  0.00     0.211 HD
ENDBRANCH   5  11
ENDBRANCH   1   5
BRANCH   1  13
ATOM     13  O   UNL     1      26.105 -17.943   8.111  1.00  0.00    -0.388 OA
ATOM     14  H   UNL     1      26.301 -18.889   7.885  1.00  0.00     0.211 HD
ENDBRANCH   1  13
TORSDOF 8
ENDMDL
MODEL 5
REMARK VINA RESULT:    -4.153      3.012      4.283
REMARK INTER + INTRA:          -6.391
REMARK INTER:                  -5.701
REMARK INTRA:                  -0.690
REMARK UNBOUND:                -0.781
REMARK SMILES O=C[C@@H](O)[C@@H](O)[C@@H](O)CO
REMARK SMILES IDX 7 1 9 2 10 3 5 5 3 6 2 7 1 8 4 9 6 11 8 13
REMARK H PARENT 10 4 4 10 6 12 8 14
REMARK Flexibility Score: inf
ROOT
ATOM      1  C   UNL     1      27.565 -12.814   8.555  1.00  0.00     0.171 C 
ENDROOT
BRANCH   1   2
ATOM      2  C   UNL     1      27.933 -11.318   8.593  1.00  0.00     0.190 C 
BRANCH   2   3
ATOM      3  O   UNL     1      27.165 -10.580   7.681  1.00  0.00    -0.394 OA
ATOM      4  H   UNL     1      26.473 -10.106   8.211  1.00  0.00     0.210 HD
ENDBRANCH   2   3
ENDBRANCH   1   2
BRANCH   1   5
ATOM      5  C   UNL     1      28.367 -13.578   7.467  1.00  0.00     0.181 C 
BRANCH   5   6
ATOM      6  C   UNL     1      27.662 -14.888   7.029  1.00  0.00     0.209 C 
BRANCH   6   7
ATOM      7  C   UNL     1      28.349 -16.092   7.621  1.00  0.00     0.258 C 
ATOM      8  O   UNL     1      29.097 -15.973   8.578  1.00  0.00    -0.300 OA
ENDBRANCH   6   7
BRANCH   6   9
ATOM      9  O   UNL     1      26.320 -14.877   7.444  1.00  0.00    -0.383 OA
ATOM     10  H   UNL     1      26.299 -15.267   8.358  1.00  0.00     0.211 HD
ENDBRANCH   6   9
ENDBRANCH   5   6
BRANCH   5  11
ATOM     11  O   UNL     1      28.591 -12.754   6.347  1.00  0.00    -0.387 OA
ATOM     12  H   UNL     1      28.861 -11.859   6.685  1.00  0.00     0.211 HD
ENDBRANCH   5  11
ENDBRANCH   1   5
BRANCH   1  13
ATOM     13  O   UNL     1      27.834 -13.376   9.814  1.00  0.00    -0.388 OA
ATOM     14  H   UNL     1      27.621 -14.343   9.751  1.00  0.00     0.211 HD
ENDBRANCH   1  13
TORSDOF 8
ENDMDL
MODEL 6
REMARK VINA RESULT:    -4.062      4.046      5.445
REMARK INTER + INTRA:          -6.267
REMARK INTER:                  -5.756
REMARK INTRA:                  -0.511
REMARK UNBOUND:                -0.781
REMARK SMILES O=C[C@@H](O)[C@@H](O)[C@@H](O)CO
REMARK SMILES IDX 7 1 9 2 10 3 5 5 3 6 2 7 1 8 4 9 6 11 8 13
REMARK H PARENT 10 4 4 10 6 12 8 14
REMARK Flexibility Score: inf
ROOT
ATOM      1  C   UNL     1      28.218 -11.463   8.086  1.00  0.00     0.171 C 
ENDROOT
BRANCH   1   2
ATOM      2  C   UNL     1      29.302 -10.813   8.968  1.00  0.00     0.190 C 
BRANCH   2   3
ATOM      3  O   UNL     1      28.747  -9.877   9.852  1.00  0.00    -0.394 OA
ATOM      4  H   UNL     1      27.891  -9.578   9.449  1.00  0.00     0.210 HD
ENDBRANCH   2   3
ENDBRANCH   1   2
BRANCH   1   5
ATOM      5  C   UNL     1      27.451 -12.580   8.846  1.00  0.00     0.181 C 
BRANCH   5   6
ATOM      6  C   UNL     1      27.694 -13.982   8.230  1.00  0.00     0.209 C 
BRANCH   6   7
ATOM      7  C   UNL     1      28.088 -14.975   9.292  1.00  0.00     0.258 C 
ATOM      8  O   UNL     1      29.247 -15.058   9.666  1.00  0.00    -0.300 OA
ENDBRANCH   6   7
BRANCH   6   9
ATOM      9  O   UNL     1      26.531 -14.436   7.587  1.00  0.00    -0.383 OA
ATOM     10  H   UNL     1      26.451 -13.921   6.740  1.00  0.00     0.211 HD
ENDBRANCH   6   9
ENDBRANCH   5   6
BRANCH   5  11
ATOM     11  O   UNL     1      27.804 -12.584  10.209  1.00  0.00    -0.387 OA
ATOM     12  H   UNL     1      26.999 -12.853  10.725  1.00  0.00     0.211 HD
ENDBRANCH   5  11
ENDBRANCH   1   5
BRANCH   1  13
ATOM     13  O   UNL     1      27.313 -10.469   7.680  1.00  0.00    -0.388 OA
ATOM     14  H   UNL     1      27.778  -9.915   7.000  1.00  0.00     0.211 HD
ENDBRANCH   1  13
TORSDOF 8
ENDMDL
MODEL 7
REMARK VINA RESULT:    -4.017      1.183      2.379
REMARK INTER + INTRA:          -6.207
REMARK INTER:                  -5.739
REMARK INTRA:                  -0.468
REMARK UNBOUND:                -0.781
REMARK SMILES O=C[C@@H](O)[C@@H](O)[C@@H](O)CO
REMARK SMILES IDX 7 1 9 2 10 3 5 5 3 6 2 7 1 8 4 9 6 11 8 13
REMARK H PARENT 10 4 4 10 6 12 8 14
REMARK Flexibility Score: inf
ROOT
ATOM      1  C   UNL     1      27.214 -17.147   8.525  1.00  0.00     0.171 C 
ENDROOT
BRANCH   1   2
ATOM      2  C   UNL     1      28.007 -18.220   9.298  1.00  0.00     0.190 C 
BRANCH   2   3
ATOM      3  O   UNL     1      28.289 -19.329   8.488  1.00  0.00    -0.394 OA
ATOM      4  H   UNL     1      27.572 -19.994   8.656  1.00  0.00     0.210 HD
ENDBRANCH   2   3
ENDBRANCH   1   2
BRANCH   1   5
ATOM      5  C   UNL     1      28.095 -16.432   7.465  1.00  0.00     0.181 C 
BRANCH   5   6
ATOM      6  C   UNL     1      27.305 -15.360   6.671  1.00  0.00     0.209 C 
BRANCH   6   7
ATOM      7  C   UNL     1      27.009 -15.835   5.273  1.00  0.00     0.258 C 
ATOM      8  O   UNL     1      27.111 -17.017   4.983  1.00  0.00    -0.300 OA
ENDBRANCH   6   7
BRANCH   6   9
ATOM      9  O   UNL     1      26.095 -15.071   7.323  1.00  0.00    -0.383 OA
ATOM     10  H   UNL     1      25.885 -14.118   7.132  1.00  0.00     0.211 HD
ENDBRANCH   6   9
ENDBRANCH   5   6
BRANCH   5  11
ATOM     11  O   UNL     1      29.224 -15.849   8.071  1.00  0.00    -0.387 OA
ATOM     12  H   UNL     1      29.767 -15.431   7.352  1.00  0.00     0.211 HD
ENDBRANCH   5  11
ENDBRANCH   1   5
BRANCH   1  13
ATOM     13  O   UNL     1      26.125 -17.765   7.887  1.00  0.00    -0.388 OA
ATOM     14  H   UNL     1      26.114 -17.437   6.951  1.00  0.00     0.211 HD
ENDBRANCH   1  13
TORSDOF 8
ENDMDL
MODEL 8
REMARK VINA RESULT:    -3.990      5.669      7.080
REMARK INTER + INTRA:          -6.170
REMARK INTER:                  -5.427
REMARK INTRA:                  -0.743
REMARK UNBOUND:                -0.781
REMARK SMILES O=C[C@@H](O)[C@@H](O)[C@@H](O)CO
REMARK SMILES IDX 7 1 9 2 10 3 5 5 3 6 2 7 1 8 4 9 6 11 8 13
REMARK H PARENT 10 4 4 10 6 12 8 14
REMARK Flexibility Score: inf
ROOT
ATOM      1  C   UNL     1      27.784 -11.155   8.808  1.00  0.00     0.171 C 
ENDROOT
BRANCH   1   2
ATOM      2  C   UNL     1      27.793 -12.686   8.624  1.00  0.00     0.190 C 
BRANCH   2   3
ATOM      3  O   UNL     1      28.094 -13.039   7.301  1.00  0.00    -0.394 OA
ATOM      4  H   UNL     1      27.604 -13.882   7.113  1.00  0.00     0.210 HD
ENDBRANCH   2   3
ENDBRANCH   1   2
BRANCH   1   5
ATOM      5  C   UNL     1      29.208 -10.599   9.081  1.00  0.00     0.181 C 
BRANCH   5   6
ATOM      6  C   UNL     1      29.819  -9.911   7.833  1.00  0.00     0.209 C 
BRANCH   6   7
ATOM      7  C   UNL     1      31.099  -9.200   8.184  1.00  0.00     0.258 C 
ATOM      8  O   UNL     1      31.933  -9.735   8.898  1.00  0.00    -0.300 OA
ENDBRANCH   6   7
BRANCH   6   9
ATOM      9  O   UNL     1      30.083 -10.865   6.836  1.00  0.00    -0.383 OA
ATOM     10  H   UNL     1      29.998 -10.398   5.962  1.00  0.00     0.211 HD
ENDBRANCH   6   9
ENDBRANCH   5   6
BRANCH   5  11
ATOM     11  O   UNL     1      29.189  -9.702  10.166  1.00  0.00    -0.387 OA
ATOM     12  H   UNL     1      28.727  -8.877   9.863  1.00  0.00     0.211 HD
ENDBRANCH   5  11
ENDBRANCH   1   5
BRANCH   1  13
ATOM     13  O   UNL     1      27.268 -10.565   7.642  1.00  0.00    -0.388 OA
ATOM     14  H   UNL     1      26.471 -11.095   7.378  1.00  0.00     0.211 HD
ENDBRANCH   1  13
TORSDOF 8
ENDMDL
MODEL 9
REMARK VINA RESULT:    -3.961      4.195      5.488
REMARK INTER + INTRA:          -6.130
REMARK INTER:                  -5.439
REMARK INTRA:                  -0.692
REMARK UNBOUND:                -0.781
REMARK SMILES O=C[C@@H](O)[C@@H](O)[C@@H](O)CO
REMARK SMILES IDX 7 1 9 2 10 3 5 5 3 6 2 7 1 8 4 9 6 11 8 13
REMARK H PARENT 10 4 4 10 6 12 8 14
REMARK Flexibility Score: inf
ROOT
ATOM      1  C   UNL     1      28.616 -11.021   7.429  1.00  0.00     0.171 C 
ENDROOT
BRANCH   1   2
ATOM      2  C   UNL     1      29.636 -10.327   8.352  1.00  0.00     0.190 C 
BRANCH   2   3
ATOM      3  O   UNL     1      29.049  -9.948   9.569  1.00  0.00    -0.394 OA
ATOM      4  H   UNL     1      29.281 -10.653  10.228  1.00  0.00     0.210 HD
ENDBRANCH   2   3
ENDBRANCH   1   2
BRANCH   1   5
ATOM      5  C   UNL     1      28.634 -12.564   7.606  1.00  0.00     0.181 C 
BRANCH   5   6
ATOM      6  C   UNL     1      27.522 -13.057   8.567  1.00  0.00     0.209 C 
BRANCH   6   7
ATOM      7  C   UNL     1      27.358 -14.552   8.477  1.00  0.00     0.258 C 
ATOM      8  O   UNL     1      26.632 -15.048   7.629  1.00  0.00    -0.300 OA
ENDBRANCH   6   7
BRANCH   6   9
ATOM      9  O   UNL     1      27.838 -12.710   9.891  1.00  0.00    -0.383 OA
ATOM     10  H   UNL     1      28.829 -12.683   9.952  1.00  0.00     0.211 HD
ENDBRANCH   6   9
ENDBRANCH   5   6
BRANCH   5  11
ATOM     11  O   UNL     1      28.515 -13.207   6.359  1.00  0.00    -0.387 OA
ATOM     12  H   UNL     1      28.618 -12.514   5.655  1.00  0.00     0.211 HD
ENDBRANCH   5  11
ENDBRANCH   1   5
BRANCH   1  13
ATOM     13  O   UNL     1      27.333 -10.532   7.728  1.00  0.00    -0.388 OA
ATOM     14  H   UNL     1      27.154 -10.752   8.679  1.00  0.00     0.211 HD
ENDBRANCH   1  13
TORSDOF 8
ENDMDL
