MODEL 1
REMARK VINA RESULT:    -3.652      0.000      0.000
REMARK INTER + INTRA:          -5.962
REMARK INTER:                  -5.147
REMARK INTRA:                  -0.815
REMARK UNBOUND:                -0.815
REMARK SMILES CCCCCCCCC(=O)[O-]
REMARK SMILES IDX 6 1 7 2 8 3 9 4 10 5 11 6 5 7 4 8 3 9 2 10 1 11
REMARK H PARENT
REMARK Flexibility Score: inf
ROOT
ATOM      1  C   UNL     1      98.276   1.650 -26.768  1.00  0.00     0.000 C 
ENDROOT
BRANCH   1   2
ATOM      2  C   UNL     1      99.382   0.765 -27.377  1.00  0.00     0.006 C 
BRANCH   2   3
ATOM      3  C   UNL     1      99.904   1.249 -28.739  1.00  0.00     0.053 C 
BRANCH   3   4
ATOM      4  C   UNL     1      98.880   1.083 -29.819  1.00  0.00     0.041 C 
ATOM      5  O   UNL     1      98.302   2.091 -30.305  1.00  0.00    -0.550 OA
ATOM      6  O   UNL     1      98.540  -0.187 -30.268  1.00  0.00    -0.550 OA
ENDBRANCH   3   4
ENDBRANCH   2   3
ENDBRANCH   1   2
BRANCH   1   7
ATOM      7  C   UNL     1      98.759   2.670 -25.715  1.00  0.00     0.000 C 
BRANCH   7   8
ATOM      8  C   UNL     1      98.574   4.147 -26.109  1.00  0.00    -0.000 C 
BRANCH   8   9
ATOM      9  C   UNL     1      97.809   4.317 -27.432  1.00  0.00    -0.000 C 
BRANCH   9  10
ATOM     10  C   UNL     1      98.626   5.078 -28.489  1.00  0.00    -0.003 C 
ATOM     11  C   UNL     1     100.125   5.077 -28.188  1.00  0.00     0.004 C 
ENDBRANCH   9  10
ENDBRANCH   8   9
ENDBRANCH   7   8
ENDBRANCH   1   7
TORSDOF 7
ENDMDL
MODEL 2
REMARK VINA RESULT:    -3.581      1.729      3.565
REMARK INTER + INTRA:          -5.862
REMARK INTER:                  -5.306
REMARK INTRA:                  -0.556
REMARK UNBOUND:                -0.815
REMARK SMILES CCCCCCCCC(=O)[O-]
REMARK SMILES IDX 6 1 7 2 8 3 9 4 10 5 11 6 5 7 4 8 3 9 2 10 1 11
REMARK H PARENT
REMARK Flexibility Score: inf
ROOT
ATOM      1  C   UNL     1      98.028   3.773 -26.381  1.00  0.00     0.000 C 
ENDROOT
BRANCH   1   2
ATOM      2  C   UNL     1      99.020   4.730 -27.073  1.00  0.00     0.006 C 
BRANCH   2   3
ATOM      3  C   UNL     1      98.550   5.250 -28.440  1.00  0.00     0.053 C 
BRANCH   3   4
ATOM      4  C   UNL     1      98.505   4.161 -29.467  1.00  0.00     0.041 C 
ATOM      5  O   UNL     1      97.399   3.718 -29.874  1.00  0.00    -0.550 OA
ATOM      6  O   UNL     1      99.686   3.612 -29.951  1.00  0.00    -0.550 OA
ENDBRANCH   3   4
ENDBRANCH   2   3
ENDBRANCH   1   2
BRANCH   1   7
ATOM      7  C   UNL     1      98.399   3.379 -24.936  1.00  0.00     0.000 C 
BRANCH   7   8
ATOM      8  C   UNL     1      99.047   1.990 -24.788  1.00  0.00    -0.000 C 
BRANCH   8   9
ATOM      9  C   UNL     1      98.291   0.897 -25.562  1.00  0.00    -0.000 C 
BRANCH   9  10
ATOM     10  C   UNL     1      99.205   0.121 -26.524  1.00  0.00    -0.003 C 
ATOM     11  C   UNL     1      99.211   0.711 -27.935  1.00  0.00     0.004 C 
ENDBRANCH   9  10
ENDBRANCH   8   9
ENDBRANCH   7   8
ENDBRANCH   1   7
TORSDOF 7
ENDMDL
MODEL 3
REMARK VINA RESULT:    -3.551      1.071      1.251
REMARK INTER + INTRA:          -5.820
REMARK INTER:                  -5.123
REMARK INTRA:                  -0.696
REMARK UNBOUND:                -0.815
REMARK SMILES CCCCCCCCC(=O)[O-]
REMARK SMILES IDX 6 1 7 2 8 3 9 4 10 5 11 6 5 7 4 8 3 9 2 10 1 11
REMARK H PARENT
REMARK Flexibility Score: inf
ROOT
ATOM      1  C   UNL     1      98.969   1.771 -25.207  1.00  0.00     0.000 C 
ENDROOT
BRANCH   1   2
ATOM      2  C   UNL     1      99.778   1.261 -26.417  1.00  0.00     0.006 C 
BRANCH   2   3
ATOM      3  C   UNL     1      98.998   0.322 -27.350  1.00  0.00     0.053 C 
BRANCH   3   4
ATOM      4  C   UNL     1      99.086   0.757 -28.781  1.00  0.00     0.041 C 
ATOM      5  O   UNL     1      99.606   1.865 -29.076  1.00  0.00    -0.550 OA
ATOM      6  O   UNL     1      98.565  -0.047 -29.786  1.00  0.00    -0.550 OA
ENDBRANCH   3   4
ENDBRANCH   2   3
ENDBRANCH   1   2
BRANCH   1   7
ATOM      7  C   UNL     1      98.525   3.246 -25.291  1.00  0.00     0.000 C 
BRANCH   7   8
ATOM      8  C   UNL     1      97.391   3.527 -26.295  1.00  0.00    -0.000 C 
BRANCH   8   9
ATOM      9  C   UNL     1      97.820   4.484 -27.421  1.00  0.00    -0.000 C 
BRANCH   9  10
ATOM     10  C   UNL     1      99.300   4.883 -27.321  1.00  0.00    -0.003 C 
ATOM     11  C   UNL     1      99.884   5.326 -28.662  1.00  0.00     0.004 C 
ENDBRANCH   9  10
ENDBRANCH   8   9
ENDBRANCH   7   8
ENDBRANCH   1   7
TORSDOF 7
ENDMDL
MODEL 4
REMARK VINA RESULT:    -3.388      1.891      3.835
REMARK INTER + INTRA:          -5.589
REMARK INTER:                  -4.843
REMARK INTRA:                  -0.746
REMARK UNBOUND:                -0.815
REMARK SMILES CCCCCCCCC(=O)[O-]
REMARK SMILES IDX 6 1 7 2 8 3 9 4 10 5 11 6 5 7 4 8 3 9 2 10 1 11
REMARK H PARENT
REMARK Flexibility Score: inf
ROOT
ATOM      1  C   UNL     1      97.372   3.047 -25.374  1.00  0.00     0.000 C 
ENDROOT
BRANCH   1   2
ATOM      2  C   UNL     1      97.404   3.833 -26.700  1.00  0.00     0.006 C 
BRANCH   2   3
ATOM      3  C   UNL     1      98.738   4.540 -26.987  1.00  0.00     0.053 C 
BRANCH   3   4
ATOM      4  C   UNL     1      98.881   4.897 -28.434  1.00  0.00     0.041 C 
ATOM      5  O   UNL     1      99.728   5.756 -28.795  1.00  0.00    -0.550 OA
ATOM      6  O   UNL     1      98.056   4.305 -29.382  1.00  0.00    -0.550 OA
ENDBRANCH   3   4
ENDBRANCH   2   3
ENDBRANCH   1   2
BRANCH   1   7
ATOM      7  C   UNL     1      98.719   2.431 -24.945  1.00  0.00     0.000 C 
BRANCH   7   8
ATOM      8  C   UNL     1      98.821   0.904 -25.123  1.00  0.00    -0.000 C 
BRANCH   8   9
ATOM      9  C   UNL     1     100.037   0.484 -25.966  1.00  0.00    -0.000 C 
BRANCH   9  10
ATOM     10  C   UNL     1     100.088   1.207 -27.322  1.00  0.00    -0.003 C 
ATOM     11  C   UNL     1      98.994   0.738 -28.281  1.00  0.00     0.004 C 
ENDBRANCH   9  10
ENDBRANCH   8   9
ENDBRANCH   7   8
ENDBRANCH   1   7
TORSDOF 7
ENDMDL
MODEL 5
REMARK VINA RESULT:    -3.336      3.231      3.481
REMARK INTER + INTRA:          -5.517
REMARK INTER:                  -4.999
REMARK INTRA:                  -0.518
REMARK UNBOUND:                -0.815
REMARK SMILES CCCCCCCCC(=O)[O-]
REMARK SMILES IDX 6 1 7 2 8 3 9 4 10 5 11 6 5 7 4 8 3 9 2 10 1 11
REMARK H PARENT
REMARK Flexibility Score: inf
ROOT
ATOM      1  C   UNL     1      98.894   1.953 -24.742  1.00  0.00     0.000 C 
ENDROOT
BRANCH   1   2
ATOM      2  C   UNL     1      99.676   1.139 -25.792  1.00  0.00     0.006 C 
BRANCH   2   3
ATOM      3  C   UNL     1      99.009  -0.187 -26.192  1.00  0.00     0.053 C 
BRANCH   3   4
ATOM      4  C   UNL     1      99.040  -1.186 -25.077  1.00  0.00     0.041 C 
ATOM      5  O   UNL     1     100.125  -1.456 -24.497  1.00  0.00    -0.550 OA
ATOM      6  O   UNL     1      97.876  -1.843 -24.699  1.00  0.00    -0.550 OA
ENDBRANCH   3   4
ENDBRANCH   2   3
ENDBRANCH   1   2
BRANCH   1   7
ATOM      7  C   UNL     1      98.431   3.349 -25.208  1.00  0.00     0.000 C 
BRANCH   7   8
ATOM      8  C   UNL     1      97.583   3.357 -26.493  1.00  0.00    -0.000 C 
BRANCH   8   9
ATOM      9  C   UNL     1      97.929   4.530 -27.426  1.00  0.00    -0.000 C 
BRANCH   9  10
ATOM     10  C   UNL     1      99.431   4.858 -27.424  1.00  0.00    -0.003 C 
ATOM     11  C   UNL     1     100.115   4.498 -28.742  1.00  0.00     0.004 C 
ENDBRANCH   9  10
ENDBRANCH   8   9
ENDBRANCH   7   8
ENDBRANCH   1   7
TORSDOF 7
ENDMDL
MODEL 6
REMARK VINA RESULT:    -3.303      2.817      3.658
REMARK INTER + INTRA:          -5.469
REMARK INTER:                  -4.725
REMARK INTRA:                  -0.744
REMARK UNBOUND:                -0.815
REMARK SMILES CCCCCCCCC(=O)[O-]
REMARK SMILES IDX 6 1 7 2 8 3 9 4 10 5 11 6 5 7 4 8 3 9 2 10 1 11
REMARK H PARENT
REMARK Flexibility Score: inf
ROOT
ATOM      1  C   UNL     1      98.989   0.989 -28.705  1.00  0.00     0.000 C 
ENDROOT
BRANCH   1   2
ATOM      2  C   UNL     1      99.972   1.243 -27.544  1.00  0.00     0.006 C 
BRANCH   2   3
ATOM      3  C   UNL     1      99.306   1.707 -26.239  1.00  0.00     0.053 C 
BRANCH   3   4
ATOM      4  C   UNL     1      99.755   0.896 -25.063  1.00  0.00     0.041 C 
ATOM      5  O   UNL     1      99.829   1.422 -23.921  1.00  0.00    -0.550 OA
ATOM      6  O   UNL     1     100.124  -0.432 -25.234  1.00  0.00    -0.550 OA
ENDBRANCH   3   4
ENDBRANCH   2   3
ENDBRANCH   1   2
BRANCH   1   7
ATOM      7  C   UNL     1      99.315   1.737 -30.014  1.00  0.00     0.000 C 
BRANCH   7   8
ATOM      8  C   UNL     1      99.532   3.254 -29.858  1.00  0.00    -0.000 C 
BRANCH   8   9
ATOM      9  C   UNL     1      98.240   4.003 -29.487  1.00  0.00    -0.000 C 
BRANCH   9  10
ATOM     10  C   UNL     1      98.410   4.881 -28.237  1.00  0.00    -0.003 C 
ATOM     11  C   UNL     1      99.877   5.124 -27.881  1.00  0.00     0.004 C 
ENDBRANCH   9  10
ENDBRANCH   8   9
ENDBRANCH   7   8
ENDBRANCH   1   7
TORSDOF 7
ENDMDL
MODEL 7
REMARK VINA RESULT:    -3.296      2.301      3.576
REMARK INTER + INTRA:          -5.460
REMARK INTER:                  -4.689
REMARK INTRA:                  -0.771
REMARK UNBOUND:                -0.815
REMARK SMILES CCCCCCCCC(=O)[O-]
REMARK SMILES IDX 6 1 7 2 8 3 9 4 10 5 11 6 5 7 4 8 3 9 2 10 1 11
REMARK H PARENT
REMARK Flexibility Score: inf
ROOT
ATOM      1  C   UNL     1      99.009   4.538 -26.842  1.00  0.00     0.000 C 
ENDROOT
BRANCH   1   2
ATOM      2  C   UNL     1      98.543   3.573 -25.734  1.00  0.00     0.006 C 
BRANCH   2   3
ATOM      3  C   UNL     1      98.055   2.208 -26.244  1.00  0.00     0.053 C 
BRANCH   3   4
ATOM      4  C   UNL     1      99.106   1.151 -26.102  1.00  0.00     0.041 C 
ATOM      5  O   UNL     1      99.362   0.378 -27.062  1.00  0.00    -0.550 OA
ATOM      6  O   UNL     1      99.780   0.997 -24.897  1.00  0.00    -0.550 OA
ENDBRANCH   3   4
ENDBRANCH   2   3
ENDBRANCH   1   2
BRANCH   1   7
ATOM      7  C   UNL     1      97.930   4.919 -27.876  1.00  0.00     0.000 C 
BRANCH   7   8
ATOM      8  C   UNL     1      98.282   4.581 -29.337  1.00  0.00    -0.000 C 
BRANCH   8   9
ATOM      9  C   UNL     1      97.492   3.375 -29.874  1.00  0.00    -0.000 C 
BRANCH   9  10
ATOM     10  C   UNL     1      98.351   2.103 -29.962  1.00  0.00    -0.003 C 
ATOM     11  C   UNL     1      99.849   2.405 -30.005  1.00  0.00     0.004 C 
ENDBRANCH   9  10
ENDBRANCH   8   9
ENDBRANCH   7   8
ENDBRANCH   1   7
TORSDOF 7
ENDMDL
MODEL 8
REMARK VINA RESULT:    -3.214      3.860      4.814
REMARK INTER + INTRA:          -5.345
REMARK INTER:                  -4.744
REMARK INTRA:                  -0.601
REMARK UNBOUND:                -0.815
REMARK SMILES CCCCCCCCC(=O)[O-]
REMARK SMILES IDX 6 1 7 2 8 3 9 4 10 5 11 6 5 7 4 8 3 9 2 10 1 11
REMARK H PARENT
REMARK Flexibility Score: inf
ROOT
ATOM      1  C   UNL     1      97.231   2.662 -25.648  1.00  0.00     0.000 C 
ENDROOT
BRANCH   1   2
ATOM      2  C   UNL     1      95.810   3.149 -25.299  1.00  0.00     0.006 C 
BRANCH   2   3
ATOM      3  C   UNL     1      95.063   3.813 -26.467  1.00  0.00     0.053 C 
BRANCH   3   4
ATOM      4  C   UNL     1      93.804   4.485 -26.014  1.00  0.00     0.041 C 
ATOM      5  O   UNL     1      93.666   5.730 -26.146  1.00  0.00    -0.550 OA
ATOM      6  O   UNL     1      92.795   3.742 -25.415  1.00  0.00    -0.550 OA
ENDBRANCH   3   4
ENDBRANCH   2   3
ENDBRANCH   1   2
BRANCH   1   7
ATOM      7  C   UNL     1      98.322   3.753 -25.624  1.00  0.00     0.000 C 
BRANCH   7   8
ATOM      8  C   UNL     1      99.041   3.981 -26.967  1.00  0.00    -0.000 C 
BRANCH   8   9
ATOM      9  C   UNL     1      98.276   4.942 -27.894  1.00  0.00    -0.000 C 
BRANCH   9  10
ATOM     10  C   UNL     1      98.245   4.451 -29.350  1.00  0.00    -0.003 C 
ATOM     11  C   UNL     1      97.221   3.338 -29.576  1.00  0.00     0.004 C 
ENDBRANCH   9  10
ENDBRANCH   8   9
ENDBRANCH   7   8
ENDBRANCH   1   7
TORSDOF 7
ENDMDL
MODEL 9
REMARK VINA RESULT:    -3.107      2.783      4.494
REMARK INTER + INTRA:          -5.194
REMARK INTER:                  -4.576
REMARK INTRA:                  -0.618
REMARK UNBOUND:                -0.815
REMARK SMILES CCCCCCCCC(=O)[O-]
REMARK SMILES IDX 6 1 7 2 8 3 9 4 10 5 11 6 5 7 4 8 3 9 2 10 1 11
REMARK H PARENT
REMARK Flexibility Score: inf
ROOT
ATOM      1  C   UNL     1      98.630   4.501 -27.262  1.00  0.00     0.000 C 
ENDROOT
BRANCH   1   2
ATOM      2  C   UNL     1      98.623   4.024 -25.796  1.00  0.00     0.006 C 
BRANCH   2   3
ATOM      3  C   UNL     1      97.633   2.886 -25.505  1.00  0.00     0.053 C 
BRANCH   3   4
ATOM      4  C   UNL     1      98.263   1.789 -24.703  1.00  0.00     0.041 C 
ATOM      5  O   UNL     1      97.582   1.147 -23.860  1.00  0.00    -0.550 OA
ATOM      6  O   UNL     1      99.612   1.497 -24.862  1.00  0.00    -0.550 OA
ENDBRANCH   3   4
ENDBRANCH   2   3
ENDBRANCH   1   2
BRANCH   1   7
ATOM      7  C   UNL     1      99.957   4.278 -28.017  1.00  0.00     0.000 C 
BRANCH   7   8
ATOM      8  C   UNL     1      99.942   3.114 -29.025  1.00  0.00    -0.000 C 
BRANCH   8   9
ATOM      9  C   UNL     1     100.125   1.743 -28.352  1.00  0.00    -0.000 C 
BRANCH   9  10
ATOM     10  C   UNL     1      98.941   0.799 -28.613  1.00  0.00    -0.003 C 
ATOM     11  C   UNL     1      98.734   0.510 -30.099  1.00  0.00     0.004 C 
ENDBRANCH   9  10
ENDBRANCH   8   9
ENDBRANCH   7   8
ENDBRANCH   1   7
TORSDOF 7
ENDMDL
