MODEL 1
REMARK VINA RESULT:    -4.311      0.000      0.000
REMARK INTER + INTRA:          -5.337
REMARK INTER:                  -5.067
REMARK INTRA:                  -0.270
REMARK UNBOUND:                -0.270
REMARK SMILES O=C([O-])C=Cc1ccc(O)c(O)c1
REMARK SMILES IDX 6 1 13 2 7 3 11 4 8 5 9 6 5 7 4 8 2 9 1 10 3 11 12 12 10 14
REMARK H PARENT 12 13 10 15
REMARK Flexibility Score: inf
ROOT
ATOM      1  C   UNL     1       3.497  38.477   7.158  1.00  0.00    -0.022 A 
ATOM      2  C   UNL     1       4.174  37.684   8.099  1.00  0.00     0.058 A 
ATOM      3  C   UNL     1       4.235  39.310   6.304  1.00  0.00     0.012 A 
ATOM      4  C   UNL     1       5.566  37.760   8.224  1.00  0.00     0.157 A 
ATOM      5  C   UNL     1       5.624  39.389   6.425  1.00  0.00     0.051 A 
ATOM      6  C   UNL     1       6.295  38.620   7.386  1.00  0.00     0.157 A 
ENDROOT
BRANCH   1   7
ATOM      7  C   UNL     1       2.034  38.371   6.976  1.00  0.00     0.010 C 
ATOM      8  C   UNL     1       1.420  37.633   6.037  1.00  0.00     0.025 C 
BRANCH   8   9
ATOM      9  C   UNL     1       2.080  36.656   5.151  1.00  0.00     0.064 C 
ATOM     10  O   UNL     1       2.120  35.445   5.492  1.00  0.00    -0.545 OA
ATOM     11  O   UNL     1       2.720  37.051   3.982  1.00  0.00    -0.545 OA
ENDBRANCH   8   9
ENDBRANCH   1   7
BRANCH   4  12
ATOM     12  O   UNL     1       6.204  36.971   9.179  1.00  0.00    -0.504 OA
ATOM     13  H   UNL     1       6.195  37.207  10.165  1.00  0.00     0.293 HD
ENDBRANCH   4  12
BRANCH   6  14
ATOM     14  O   UNL     1       7.682  38.705   7.507  1.00  0.00    -0.504 OA
ATOM     15  H   UNL     1       8.129  38.844   8.406  1.00  0.00     0.293 HD
ENDBRANCH   6  14
TORSDOF 4
ENDMDL
MODEL 2
REMARK VINA RESULT:    -4.156      2.785      6.043
REMARK INTER + INTRA:          -5.156
REMARK INTER:                  -4.877
REMARK INTRA:                  -0.278
REMARK UNBOUND:                -0.270
REMARK SMILES O=C([O-])C=Cc1ccc(O)c(O)c1
REMARK SMILES IDX 6 1 13 2 7 3 11 4 8 5 9 6 5 7 4 8 2 9 1 10 3 11 12 12 10 14
REMARK H PARENT 12 13 10 15
REMARK Flexibility Score: inf
ROOT
ATOM      1  C   UNL     1       1.374  36.620   4.969  1.00  0.00    -0.022 A 
ATOM      2  C   UNL     1       0.103  37.218   5.018  1.00  0.00     0.058 A 
ATOM      3  C   UNL     1       1.531  35.304   5.427  1.00  0.00     0.012 A 
ATOM      4  C   UNL     1      -0.986  36.531   5.566  1.00  0.00     0.157 A 
ATOM      5  C   UNL     1       0.447  34.614   5.975  1.00  0.00     0.051 A 
ATOM      6  C   UNL     1      -0.813  35.223   6.051  1.00  0.00     0.157 A 
ENDROOT
BRANCH   1   7
ATOM      7  C   UNL     1       2.522  37.311   4.347  1.00  0.00     0.010 C 
ATOM      8  C   UNL     1       3.285  38.240   4.942  1.00  0.00     0.025 C 
BRANCH   8   9
ATOM      9  C   UNL     1       3.238  38.597   6.373  1.00  0.00     0.064 C 
ATOM     10  O   UNL     1       2.629  39.640   6.727  1.00  0.00    -0.545 OA
ATOM     11  O   UNL     1       3.908  37.847   7.332  1.00  0.00    -0.545 OA
ENDBRANCH   8   9
ENDBRANCH   1   7
BRANCH   4  12
ATOM     12  O   UNL     1      -2.230  37.159   5.613  1.00  0.00    -0.504 OA
ATOM     13  H   UNL     1      -2.385  38.074   5.206  1.00  0.00     0.293 HD
ENDBRANCH   4  12
BRANCH   6  14
ATOM     14  O   UNL     1      -1.892  34.534   6.602  1.00  0.00    -0.504 OA
ATOM     15  H   UNL     1      -2.754  34.396   6.086  1.00  0.00     0.293 HD
ENDBRANCH   6  14
TORSDOF 4
ENDMDL
MODEL 3
REMARK VINA RESULT:    -4.070      1.649      5.043
REMARK INTER + INTRA:          -5.054
REMARK INTER:                  -4.988
REMARK INTRA:                  -0.065
REMARK UNBOUND:                -0.270
REMARK SMILES O=C([O-])C=Cc1ccc(O)c(O)c1
REMARK SMILES IDX 6 1 13 2 7 3 11 4 8 5 9 6 5 7 4 8 2 9 1 10 3 11 12 12 10 14
REMARK H PARENT 12 13 10 15
REMARK Flexibility Score: inf
ROOT
ATOM      1  C   UNL     1       2.562  38.310   6.053  1.00  0.00    -0.022 A 
ATOM      2  C   UNL     1       1.364  38.300   6.787  1.00  0.00     0.058 A 
ATOM      3  C   UNL     1       2.817  37.276   5.141  1.00  0.00     0.012 A 
ATOM      4  C   UNL     1       0.457  37.243   6.653  1.00  0.00     0.157 A 
ATOM      5  C   UNL     1       1.915  36.218   5.004  1.00  0.00     0.051 A 
ATOM      6  C   UNL     1       0.735  36.194   5.760  1.00  0.00     0.157 A 
ENDROOT
BRANCH   1   7
ATOM      7  C   UNL     1       3.506  39.443   6.142  1.00  0.00     0.010 C 
ATOM      8  C   UNL     1       4.629  39.462   6.876  1.00  0.00     0.025 C 
BRANCH   8   9
ATOM      9  C   UNL     1       5.219  38.300   7.567  1.00  0.00     0.064 C 
ATOM     10  O   UNL     1       6.409  37.975   7.318  1.00  0.00    -0.545 OA
ATOM     11  O   UNL     1       4.470  37.512   8.433  1.00  0.00    -0.545 OA
ENDBRANCH   8   9
ENDBRANCH   1   7
BRANCH   4  12
ATOM     12  O   UNL     1      -0.715  37.256   7.408  1.00  0.00    -0.504 OA
ATOM     13  H   UNL     1      -0.720  37.036   8.397  1.00  0.00     0.293 HD
ENDBRANCH   4  12
BRANCH   6  14
ATOM     14  O   UNL     1      -0.162  35.135   5.624  1.00  0.00    -0.504 OA
ATOM     15  H   UNL     1      -1.046  35.247   5.141  1.00  0.00     0.293 HD
ENDBRANCH   6  14
TORSDOF 4
ENDMDL
MODEL 4
REMARK VINA RESULT:    -4.067      2.092      2.653
REMARK INTER + INTRA:          -5.050
REMARK INTER:                  -4.771
REMARK INTRA:                  -0.280
REMARK UNBOUND:                -0.270
REMARK SMILES O=C([O-])C=Cc1ccc(O)c(O)c1
REMARK SMILES IDX 6 1 13 2 7 3 11 4 8 5 9 6 5 7 4 8 2 9 1 10 3 11 12 12 10 14
REMARK H PARENT 12 13 10 15
REMARK Flexibility Score: inf
ROOT
ATOM      1  C   UNL     1       5.066  38.953   6.921  1.00  0.00    -0.022 A 
ATOM      2  C   UNL     1       5.278  37.774   7.657  1.00  0.00     0.058 A 
ATOM      3  C   UNL     1       5.694  40.139   7.328  1.00  0.00     0.012 A 
ATOM      4  C   UNL     1       6.063  37.791   8.815  1.00  0.00     0.157 A 
ATOM      5  C   UNL     1       6.479  40.159   8.483  1.00  0.00     0.051 A 
ATOM      6  C   UNL     1       6.664  38.990   9.234  1.00  0.00     0.157 A 
ENDROOT
BRANCH   1   7
ATOM      7  C   UNL     1       4.284  38.944   5.668  1.00  0.00     0.010 C 
ATOM      8  C   UNL     1       2.946  39.022   5.586  1.00  0.00     0.025 C 
BRANCH   8   9
ATOM      9  C   UNL     1       2.038  39.324   6.709  1.00  0.00     0.064 C 
ATOM     10  O   UNL     1       1.634  40.504   6.874  1.00  0.00    -0.545 OA
ATOM     11  O   UNL     1       1.673  38.349   7.630  1.00  0.00    -0.545 OA
ENDBRANCH   8   9
ENDBRANCH   1   7
BRANCH   4  12
ATOM     12  O   UNL     1       6.240  36.607   9.530  1.00  0.00    -0.504 OA
ATOM     13  H   UNL     1       6.950  35.929   9.280  1.00  0.00     0.293 HD
ENDBRANCH   4  12
BRANCH   6  14
ATOM     14  O   UNL     1       7.444  39.015  10.389  1.00  0.00    -0.504 OA
ATOM     15  H   UNL     1       8.053  39.797  10.602  1.00  0.00     0.293 HD
ENDBRANCH   6  14
TORSDOF 4
ENDMDL
MODEL 5
REMARK VINA RESULT:    -3.931      2.828      5.957
REMARK INTER + INTRA:          -4.891
REMARK INTER:                  -4.622
REMARK INTRA:                  -0.268
REMARK UNBOUND:                -0.270
REMARK SMILES O=C([O-])C=Cc1ccc(O)c(O)c1
REMARK SMILES IDX 6 1 13 2 7 3 11 4 8 5 9 6 5 7 4 8 2 9 1 10 3 11 12 12 10 14
REMARK H PARENT 12 13 10 15
REMARK Flexibility Score: inf
ROOT
ATOM      1  C   UNL     1       1.051  36.666   4.910  1.00  0.00    -0.022 A 
ATOM      2  C   UNL     1       0.821  35.516   5.684  1.00  0.00     0.058 A 
ATOM      3  C   UNL     1      -0.027  37.506   4.593  1.00  0.00     0.012 A 
ATOM      4  C   UNL     1      -0.475  35.179   6.090  1.00  0.00     0.157 A 
ATOM      5  C   UNL     1      -1.322  37.174   4.996  1.00  0.00     0.051 A 
ATOM      6  C   UNL     1      -1.553  36.009   5.742  1.00  0.00     0.157 A 
ENDROOT
BRANCH   1   7
ATOM      7  C   UNL     1       2.418  37.066   4.517  1.00  0.00     0.010 C 
ATOM      8  C   UNL     1       3.219  37.885   5.216  1.00  0.00     0.025 C 
BRANCH   8   9
ATOM      9  C   UNL     1       2.957  38.375   6.583  1.00  0.00     0.064 C 
ATOM     10  O   UNL     1       3.518  37.809   7.557  1.00  0.00    -0.545 OA
ATOM     11  O   UNL     1       2.051  39.401   6.826  1.00  0.00    -0.545 OA
ENDBRANCH   8   9
ENDBRANCH   1   7
BRANCH   4  12
ATOM     12  O   UNL     1      -0.669  34.022   6.844  1.00  0.00    -0.504 OA
ATOM     13  H   UNL     1      -0.026  33.240   6.803  1.00  0.00     0.293 HD
ENDBRANCH   4  12
BRANCH   6  14
ATOM     14  O   UNL     1      -2.848  35.678   6.140  1.00  0.00    -0.504 OA
ATOM     15  H   UNL     1      -3.163  35.821   7.092  1.00  0.00     0.293 HD
ENDBRANCH   6  14
TORSDOF 4
ENDMDL
MODEL 6
REMARK VINA RESULT:    -3.859      2.549      5.065
REMARK INTER + INTRA:          -4.806
REMARK INTER:                  -4.525
REMARK INTRA:                  -0.281
REMARK UNBOUND:                -0.270
REMARK SMILES O=C([O-])C=Cc1ccc(O)c(O)c1
REMARK SMILES IDX 6 1 13 2 7 3 11 4 8 5 9 6 5 7 4 8 2 9 1 10 3 11 12 12 10 14
REMARK H PARENT 12 13 10 15
REMARK Flexibility Score: inf
ROOT
ATOM      1  C   UNL     1       2.881  37.793   6.791  1.00  0.00    -0.022 A 
ATOM      2  C   UNL     1       1.738  38.348   7.391  1.00  0.00     0.058 A 
ATOM      3  C   UNL     1       2.736  36.999   5.644  1.00  0.00     0.012 A 
ATOM      4  C   UNL     1       0.463  38.069   6.886  1.00  0.00     0.157 A 
ATOM      5  C   UNL     1       1.466  36.718   5.137  1.00  0.00     0.051 A 
ATOM      6  C   UNL     1       0.324  37.246   5.756  1.00  0.00     0.157 A 
ENDROOT
BRANCH   1   7
ATOM      7  C   UNL     1       4.237  38.119   7.277  1.00  0.00     0.010 C 
ATOM      8  C   UNL     1       5.037  39.069   6.769  1.00  0.00     0.025 C 
BRANCH   8   9
ATOM      9  C   UNL     1       4.638  40.078   5.769  1.00  0.00     0.064 C 
ATOM     10  O   UNL     1       4.081  41.139   6.154  1.00  0.00    -0.545 OA
ATOM     11  O   UNL     1       4.798  39.854   4.406  1.00  0.00    -0.545 OA
ENDBRANCH   8   9
ENDBRANCH   1   7
BRANCH   4  12
ATOM     12  O   UNL     1      -0.651  38.623   7.516  1.00  0.00    -0.504 OA
ATOM     13  H   UNL     1      -0.594  39.042   8.437  1.00  0.00     0.293 HD
ENDBRANCH   4  12
BRANCH   6  14
ATOM     14  O   UNL     1      -0.943  36.961   5.250  1.00  0.00    -0.504 OA
ATOM     15  H   UNL     1      -1.350  37.506   4.499  1.00  0.00     0.293 HD
ENDBRANCH   6  14
TORSDOF 4
ENDMDL
MODEL 7
REMARK VINA RESULT:    -3.848      2.825      3.875
REMARK INTER + INTRA:          -4.793
REMARK INTER:                  -4.549
REMARK INTRA:                  -0.244
REMARK UNBOUND:                -0.270
REMARK SMILES O=C([O-])C=Cc1ccc(O)c(O)c1
REMARK SMILES IDX 6 1 13 2 7 3 11 4 8 5 9 6 5 7 4 8 2 9 1 10 3 11 12 12 10 14
REMARK H PARENT 12 13 10 15
REMARK Flexibility Score: inf
ROOT
ATOM      1  C   UNL     1       2.418  37.162   5.462  1.00  0.00    -0.022 A 
ATOM      2  C   UNL     1       2.180  38.218   4.566  1.00  0.00     0.058 A 
ATOM      3  C   UNL     1       3.082  37.424   6.670  1.00  0.00     0.012 A 
ATOM      4  C   UNL     1       2.646  39.507   4.846  1.00  0.00     0.157 A 
ATOM      5  C   UNL     1       3.549  38.709   6.953  1.00  0.00     0.051 A 
ATOM      6  C   UNL     1       3.338  39.755   6.043  1.00  0.00     0.157 A 
ENDROOT
BRANCH   1   7
ATOM      7  C   UNL     1       1.888  35.807   5.209  1.00  0.00     0.010 C 
ATOM      8  C   UNL     1       0.643  35.394   5.493  1.00  0.00     0.025 C 
BRANCH   8   9
ATOM      9  C   UNL     1      -0.468  36.263   5.927  1.00  0.00     0.064 C 
ATOM     10  O   UNL     1      -0.792  36.285   7.143  1.00  0.00    -0.545 OA
ATOM     11  O   UNL     1      -1.210  37.004   5.015  1.00  0.00    -0.545 OA
ENDBRANCH   8   9
ENDBRANCH   1   7
BRANCH   4  12
ATOM     12  O   UNL     1       2.406  40.528   3.927  1.00  0.00    -0.504 OA
ATOM     13  H   UNL     1       3.157  41.083   3.533  1.00  0.00     0.293 HD
ENDBRANCH   4  12
BRANCH   6  14
ATOM     14  O   UNL     1       3.809  41.036   6.327  1.00  0.00    -0.504 OA
ATOM     15  H   UNL     1       4.636  41.184   6.894  1.00  0.00     0.293 HD
ENDBRANCH   6  14
TORSDOF 4
ENDMDL
MODEL 8
REMARK VINA RESULT:    -3.811      3.374      6.736
REMARK INTER + INTRA:          -4.750
REMARK INTER:                  -4.518
REMARK INTRA:                  -0.232
REMARK UNBOUND:                -0.270
REMARK SMILES O=C([O-])C=Cc1ccc(O)c(O)c1
REMARK SMILES IDX 6 1 13 2 7 3 11 4 8 5 9 6 5 7 4 8 2 9 1 10 3 11 12 12 10 14
REMARK H PARENT 12 13 10 15
REMARK Flexibility Score: inf
ROOT
ATOM      1  C   UNL     1      -0.634  37.361   6.214  1.00  0.00    -0.022 A 
ATOM      2  C   UNL     1      -1.167  36.156   6.703  1.00  0.00     0.058 A 
ATOM      3  C   UNL     1      -1.298  38.036   5.180  1.00  0.00     0.012 A 
ATOM      4  C   UNL     1      -2.318  35.603   6.130  1.00  0.00     0.157 A 
ATOM      5  C   UNL     1      -2.447  37.488   4.605  1.00  0.00     0.051 A 
ATOM      6  C   UNL     1      -2.960  36.270   5.072  1.00  0.00     0.157 A 
ENDROOT
BRANCH   1   7
ATOM      7  C   UNL     1       0.549  37.986   6.841  1.00  0.00     0.010 C 
ATOM      8  C   UNL     1       1.827  37.696   6.549  1.00  0.00     0.025 C 
BRANCH   8   9
ATOM      9  C   UNL     1       2.277  36.851   5.426  1.00  0.00     0.064 C 
ATOM     10  O   UNL     1       2.812  37.392   4.425  1.00  0.00    -0.545 OA
ATOM     11  O   UNL     1       2.059  35.478   5.417  1.00  0.00    -0.545 OA
ENDBRANCH   8   9
ENDBRANCH   1   7
BRANCH   4  12
ATOM     12  O   UNL     1      -2.811  34.398   6.628  1.00  0.00    -0.504 OA
ATOM     13  H   UNL     1      -2.309  33.525   6.516  1.00  0.00     0.293 HD
ENDBRANCH   4  12
BRANCH   6  14
ATOM     14  O   UNL     1      -4.105  35.723   4.494  1.00  0.00    -0.504 OA
ATOM     15  H   UNL     1      -4.052  35.114   3.686  1.00  0.00     0.293 HD
ENDBRANCH   6  14
TORSDOF 4
ENDMDL
MODEL 9
REMARK VINA RESULT:    -3.724      3.479      5.301
REMARK INTER + INTRA:          -4.647
REMARK INTER:                  -4.361
REMARK INTRA:                  -0.287
REMARK UNBOUND:                -0.270
REMARK SMILES O=C([O-])C=Cc1ccc(O)c(O)c1
REMARK SMILES IDX 6 1 13 2 7 3 11 4 8 5 9 6 5 7 4 8 2 9 1 10 3 11 12 12 10 14
REMARK H PARENT 12 13 10 15
REMARK Flexibility Score: inf
ROOT
ATOM      1  C   UNL     1      -0.638  36.150   5.931  1.00  0.00    -0.022 A 
ATOM      2  C   UNL     1      -0.357  37.392   6.526  1.00  0.00     0.058 A 
ATOM      3  C   UNL     1       0.418  35.372   5.434  1.00  0.00     0.012 A 
ATOM      4  C   UNL     1       0.956  37.875   6.576  1.00  0.00     0.157 A 
ATOM      5  C   UNL     1       1.729  35.850   5.482  1.00  0.00     0.051 A 
ATOM      6  C   UNL     1       2.004  37.103   6.048  1.00  0.00     0.157 A 
ENDROOT
BRANCH   1   7
ATOM      7  C   UNL     1      -2.009  35.600   5.916  1.00  0.00     0.010 C 
ATOM      8  C   UNL     1      -2.534  34.797   6.854  1.00  0.00     0.025 C 
BRANCH   8   9
ATOM      9  C   UNL     1      -1.910  34.476   8.152  1.00  0.00     0.064 C 
ATOM     10  O   UNL     1      -2.177  35.188   9.155  1.00  0.00    -0.545 OA
ATOM     11  O   UNL     1      -0.979  33.452   8.278  1.00  0.00    -0.545 OA
ENDBRANCH   8   9
ENDBRANCH   1   7
BRANCH   4  12
ATOM     12  O   UNL     1       1.197  39.118   7.160  1.00  0.00    -0.504 OA
ATOM     13  H   UNL     1       1.930  39.734   6.827  1.00  0.00     0.293 HD
ENDBRANCH   4  12
BRANCH   6  14
ATOM     14  O   UNL     1       3.314  37.580   6.091  1.00  0.00    -0.504 OA
ATOM     15  H   UNL     1       3.579  38.445   5.634  1.00  0.00     0.293 HD
ENDBRANCH   6  14
TORSDOF 4
ENDMDL
