MODEL 1
REMARK VINA RESULT:    -4.476      0.000      0.000
REMARK INTER + INTRA:          -5.053
REMARK INTER:                  -4.999
REMARK INTRA:                  -0.053
REMARK UNBOUND:                -0.053
REMARK SMILES COc1ccc(C(=O)[O-])cc1
REMARK SMILES IDX 6 1 5 2 10 3 4 4 11 5 3 6 7 7 8 8 9 9 2 10 1 11
REMARK H PARENT
REMARK Flexibility Score: inf
ROOT
ATOM      1  C   UNL     1      19.114  28.023  29.666  1.00  0.00    -0.003 A 
ATOM      2  C   UNL     1      20.503  28.065  29.461  1.00  0.00     0.014 A 
ATOM      3  C   UNL     1      18.307  29.004  29.064  1.00  0.00     0.014 A 
ATOM      4  C   UNL     1      21.073  29.067  28.672  1.00  0.00     0.047 A 
ATOM      5  C   UNL     1      18.879  30.007  28.274  1.00  0.00     0.047 A 
ATOM      6  C   UNL     1      20.272  30.044  28.071  1.00  0.00     0.118 A 
ENDROOT
BRANCH   1   7
ATOM      7  C   UNL     1      18.513  26.961  30.503  1.00  0.00     0.071 C 
ATOM      8  O   UNL     1      18.501  27.065  31.759  1.00  0.00    -0.545 OA
ATOM      9  O   UNL     1      17.953  25.833  29.916  1.00  0.00    -0.545 OA
ENDBRANCH   1   7
BRANCH   6  10
ATOM     10  O   UNL     1      20.892  31.028  27.288  1.00  0.00    -0.497 OA
ATOM     11  C   UNL     1      21.528  30.778  26.039  1.00  0.00     0.278 C 
ENDBRANCH   6  10
TORSDOF 2
ENDMDL
MODEL 2
REMARK VINA RESULT:    -4.440      0.127      1.758
REMARK INTER + INTRA:          -5.012
REMARK INTER:                  -4.960
REMARK INTRA:                  -0.052
REMARK UNBOUND:                -0.053
REMARK SMILES COc1ccc(C(=O)[O-])cc1
REMARK SMILES IDX 6 1 5 2 10 3 4 4 11 5 3 6 7 7 8 8 9 9 2 10 1 11
REMARK H PARENT
REMARK Flexibility Score: inf
ROOT
ATOM      1  C   UNL     1      19.126  27.993  29.701  1.00  0.00    -0.003 A 
ATOM      2  C   UNL     1      18.302  28.973  29.123  1.00  0.00     0.014 A 
ATOM      3  C   UNL     1      20.515  28.064  29.495  1.00  0.00     0.014 A 
ATOM      4  C   UNL     1      18.855  30.001  28.355  1.00  0.00     0.047 A 
ATOM      5  C   UNL     1      21.067  29.093  28.726  1.00  0.00     0.047 A 
ATOM      6  C   UNL     1      20.237  30.073  28.150  1.00  0.00     0.118 A 
ENDROOT
BRANCH   1   7
ATOM      7  C   UNL     1      18.537  26.905  30.513  1.00  0.00     0.071 C 
ATOM      8  O   UNL     1      18.026  25.897  29.958  1.00  0.00    -0.545 OA
ATOM      9  O   UNL     1      18.541  26.981  31.900  1.00  0.00    -0.545 OA
ENDBRANCH   1   7
BRANCH   6  10
ATOM     10  O   UNL     1      20.743  31.125  27.372  1.00  0.00    -0.497 OA
ATOM     11  C   UNL     1      21.351  30.960  26.096  1.00  0.00     0.278 C 
ENDBRANCH   6  10
TORSDOF 2
ENDMDL
MODEL 3
REMARK VINA RESULT:    -4.291      2.589      5.135
REMARK INTER + INTRA:          -4.846
REMARK INTER:                  -4.781
REMARK INTRA:                  -0.065
REMARK UNBOUND:                -0.053
REMARK SMILES COc1ccc(C(=O)[O-])cc1
REMARK SMILES IDX 6 1 5 2 10 3 4 4 11 5 3 6 7 7 8 8 9 9 2 10 1 11
REMARK H PARENT
REMARK Flexibility Score: inf
ROOT
ATOM      1  C   UNL     1      20.942  30.563  27.205  1.00  0.00    -0.003 A 
ATOM      2  C   UNL     1      19.726  30.573  27.907  1.00  0.00     0.014 A 
ATOM      3  C   UNL     1      22.124  30.241  27.895  1.00  0.00     0.014 A 
ATOM      4  C   UNL     1      19.693  30.268  29.271  1.00  0.00     0.047 A 
ATOM      5  C   UNL     1      22.089  29.936  29.259  1.00  0.00     0.047 A 
ATOM      6  C   UNL     1      20.867  29.947  29.958  1.00  0.00     0.118 A 
ENDROOT
BRANCH   1   7
ATOM      7  C   UNL     1      20.975  30.887  25.761  1.00  0.00     0.071 C 
ATOM      8  O   UNL     1      22.072  30.952  25.145  1.00  0.00    -0.545 OA
ATOM      9  O   UNL     1      19.796  31.124  25.065  1.00  0.00    -0.545 OA
ENDBRANCH   1   7
BRANCH   6  10
ATOM     10  O   UNL     1      20.780  29.648  31.326  1.00  0.00    -0.497 OA
ATOM     11  C   UNL     1      21.669  28.776  32.016  1.00  0.00     0.278 C 
ENDBRANCH   6  10
TORSDOF 2
ENDMDL
MODEL 4
REMARK VINA RESULT:    -4.219      9.490     11.806
REMARK INTER + INTRA:          -4.766
REMARK INTER:                  -4.706
REMARK INTRA:                  -0.060
REMARK UNBOUND:                -0.053
REMARK SMILES COc1ccc(C(=O)[O-])cc1
REMARK SMILES IDX 6 1 5 2 10 3 4 4 11 5 3 6 7 7 8 8 9 9 2 10 1 11
REMARK H PARENT
REMARK Flexibility Score: inf
ROOT
ATOM      1  C   UNL     1      13.873  20.086  28.554  1.00  0.00    -0.003 A 
ATOM      2  C   UNL     1      14.549  20.168  27.325  1.00  0.00     0.014 A 
ATOM      3  C   UNL     1      13.136  18.926  28.849  1.00  0.00     0.014 A 
ATOM      4  C   UNL     1      14.488  19.113  26.411  1.00  0.00     0.047 A 
ATOM      5  C   UNL     1      13.075  17.871  27.933  1.00  0.00     0.047 A 
ATOM      6  C   UNL     1      13.755  17.958  26.703  1.00  0.00     0.118 A 
ENDROOT
BRANCH   1   7
ATOM      7  C   UNL     1      13.939  21.205  29.520  1.00  0.00     0.071 C 
ATOM      8  O   UNL     1      15.020  21.825  29.709  1.00  0.00    -0.545 OA
ATOM      9  O   UNL     1      12.810  21.589  30.232  1.00  0.00    -0.545 OA
ENDBRANCH   1   7
BRANCH   6  10
ATOM     10  O   UNL     1      13.725  16.927  25.753  1.00  0.00    -0.497 OA
ATOM     11  C   UNL     1      12.600  16.090  25.509  1.00  0.00     0.278 C 
ENDBRANCH   6  10
TORSDOF 2
ENDMDL
MODEL 5
REMARK VINA RESULT:    -4.189      3.624      5.041
REMARK INTER + INTRA:          -4.733
REMARK INTER:                  -4.672
REMARK INTRA:                  -0.060
REMARK UNBOUND:                -0.053
REMARK SMILES COc1ccc(C(=O)[O-])cc1
REMARK SMILES IDX 6 1 5 2 10 3 4 4 11 5 3 6 7 7 8 8 9 9 2 10 1 11
REMARK H PARENT
REMARK Flexibility Score: inf
ROOT
ATOM      1  C   UNL     1      19.079  26.941  32.257  1.00  0.00    -0.003 A 
ATOM      2  C   UNL     1      18.405  25.730  32.485  1.00  0.00     0.014 A 
ATOM      3  C   UNL     1      19.209  27.410  30.938  1.00  0.00     0.014 A 
ATOM      4  C   UNL     1      17.874  25.003  31.416  1.00  0.00     0.047 A 
ATOM      5  C   UNL     1      18.677  26.681  29.870  1.00  0.00     0.047 A 
ATOM      6  C   UNL     1      18.002  25.468  30.104  1.00  0.00     0.118 A 
ENDROOT
BRANCH   1   7
ATOM      7  C   UNL     1      19.641  27.709  33.391  1.00  0.00     0.071 C 
ATOM      8  O   UNL     1      20.280  28.775  33.187  1.00  0.00    -0.545 OA
ATOM      9  O   UNL     1      19.472  27.264  34.696  1.00  0.00    -0.545 OA
ENDBRANCH   1   7
BRANCH   6  10
ATOM     10  O   UNL     1      17.451  24.702  29.067  1.00  0.00    -0.497 OA
ATOM     11  C   UNL     1      18.152  23.687  28.356  1.00  0.00     0.278 C 
ENDBRANCH   6  10
TORSDOF 2
ENDMDL
MODEL 6
REMARK VINA RESULT:    -4.175     17.153     18.307
REMARK INTER + INTRA:          -4.716
REMARK INTER:                  -4.659
REMARK INTRA:                  -0.057
REMARK UNBOUND:                -0.053
REMARK SMILES COc1ccc(C(=O)[O-])cc1
REMARK SMILES IDX 6 1 5 2 10 3 4 4 11 5 3 6 7 7 8 8 9 9 2 10 1 11
REMARK H PARENT
REMARK Flexibility Score: inf
ROOT
ATOM      1  C   UNL     1       5.276  18.663  21.284  1.00  0.00    -0.003 A 
ATOM      2  C   UNL     1       6.073  19.178  22.320  1.00  0.00     0.014 A 
ATOM      3  C   UNL     1       5.621  18.952  19.952  1.00  0.00     0.014 A 
ATOM      4  C   UNL     1       7.190  19.967  22.029  1.00  0.00     0.047 A 
ATOM      5  C   UNL     1       6.738  19.742  19.663  1.00  0.00     0.047 A 
ATOM      6  C   UNL     1       7.534  20.255  20.705  1.00  0.00     0.118 A 
ENDROOT
BRANCH   1   7
ATOM      7  C   UNL     1       4.094  17.828  21.594  1.00  0.00     0.071 C 
ATOM      8  O   UNL     1       3.809  16.831  20.879  1.00  0.00    -0.545 OA
ATOM      9  O   UNL     1       3.282  18.132  22.680  1.00  0.00    -0.545 OA
ENDBRANCH   1   7
BRANCH   6  10
ATOM     10  O   UNL     1       8.664  21.051  20.467  1.00  0.00    -0.497 OA
ATOM     11  C   UNL     1       8.698  22.465  20.622  1.00  0.00     0.278 C 
ENDBRANCH   6  10
TORSDOF 2
ENDMDL
MODEL 7
REMARK VINA RESULT:    -4.149      4.124      6.959
REMARK INTER + INTRA:          -4.687
REMARK INTER:                  -4.630
REMARK INTRA:                  -0.057
REMARK UNBOUND:                -0.053
REMARK SMILES COc1ccc(C(=O)[O-])cc1
REMARK SMILES IDX 6 1 5 2 10 3 4 4 11 5 3 6 7 7 8 8 9 9 2 10 1 11
REMARK H PARENT
REMARK Flexibility Score: inf
ROOT
ATOM      1  C   UNL     1      17.976  24.724  29.771  1.00  0.00    -0.003 A 
ATOM      2  C   UNL     1      18.003  24.043  28.543  1.00  0.00     0.014 A 
ATOM      3  C   UNL     1      17.210  24.197  30.825  1.00  0.00     0.014 A 
ATOM      4  C   UNL     1      17.278  22.860  28.373  1.00  0.00     0.047 A 
ATOM      5  C   UNL     1      16.485  23.014  30.653  1.00  0.00     0.047 A 
ATOM      6  C   UNL     1      16.515  22.335  29.421  1.00  0.00     0.118 A 
ENDROOT
BRANCH   1   7
ATOM      7  C   UNL     1      18.745  25.977  29.948  1.00  0.00     0.071 C 
ATOM      8  O   UNL     1      18.171  27.096  29.872  1.00  0.00    -0.545 OA
ATOM      9  O   UNL     1      20.110  25.936  30.201  1.00  0.00    -0.545 OA
ENDBRANCH   1   7
BRANCH   6  10
ATOM     10  O   UNL     1      15.807  21.145  29.200  1.00  0.00    -0.497 OA
ATOM     11  C   UNL     1      15.037  20.873  28.034  1.00  0.00     0.278 C 
ENDBRANCH   6  10
TORSDOF 2
ENDMDL
MODEL 8
REMARK VINA RESULT:    -3.344      1.018      4.952
REMARK INTER + INTRA:          -3.788
REMARK INTER:                  -3.728
REMARK INTRA:                  -0.061
REMARK UNBOUND:                -0.053
REMARK SMILES COc1ccc(C(=O)[O-])cc1
REMARK SMILES IDX 6 1 5 2 10 3 4 4 11 5 3 6 7 7 8 8 9 9 2 10 1 11
REMARK H PARENT
REMARK Flexibility Score: inf
ROOT
ATOM      1  C   UNL     1      20.249  29.436  28.460  1.00  0.00    -0.003 A 
ATOM      2  C   UNL     1      18.864  29.470  28.689  1.00  0.00     0.014 A 
ATOM      3  C   UNL     1      21.027  28.477  29.132  1.00  0.00     0.014 A 
ATOM      4  C   UNL     1      18.269  28.565  29.573  1.00  0.00     0.047 A 
ATOM      5  C   UNL     1      20.431  27.573  30.017  1.00  0.00     0.047 A 
ATOM      6  C   UNL     1      19.042  27.611  30.243  1.00  0.00     0.118 A 
ENDROOT
BRANCH   1   7
ATOM      7  C   UNL     1      20.876  30.395  27.523  1.00  0.00     0.071 C 
ATOM      8  O   UNL     1      22.125  30.562  27.519  1.00  0.00    -0.545 OA
ATOM      9  O   UNL     1      20.096  31.124  26.634  1.00  0.00    -0.545 OA
ENDBRANCH   1   7
BRANCH   6  10
ATOM     10  O   UNL     1      18.398  26.726  31.119  1.00  0.00    -0.497 OA
ATOM     11  C   UNL     1      18.653  26.651  32.517  1.00  0.00     0.278 C 
ENDBRANCH   6  10
TORSDOF 2
ENDMDL
MODEL 9
REMARK VINA RESULT:    -2.776      2.522      2.851
REMARK INTER + INTRA:          -3.154
REMARK INTER:                  -3.088
REMARK INTRA:                  -0.067
REMARK UNBOUND:                -0.053
REMARK SMILES COc1ccc(C(=O)[O-])cc1
REMARK SMILES IDX 6 1 5 2 10 3 4 4 11 5 3 6 7 7 8 8 9 9 2 10 1 11
REMARK H PARENT
REMARK Flexibility Score: inf
ROOT
ATOM      1  C   UNL     1      20.997  29.864  29.168  1.00  0.00    -0.003 A 
ATOM      2  C   UNL     1      22.125  29.775  28.335  1.00  0.00     0.014 A 
ATOM      3  C   UNL     1      19.801  30.383  28.642  1.00  0.00     0.014 A 
ATOM      4  C   UNL     1      22.058  30.198  27.004  1.00  0.00     0.047 A 
ATOM      5  C   UNL     1      19.736  30.806  27.311  1.00  0.00     0.047 A 
ATOM      6  C   UNL     1      20.869  30.715  26.480  1.00  0.00     0.118 A 
ENDROOT
BRANCH   1   7
ATOM      7  C   UNL     1      21.071  29.415  30.576  1.00  0.00     0.071 C 
ATOM      8  O   UNL     1      21.857  28.490  30.913  1.00  0.00    -0.545 OA
ATOM      9  O   UNL     1      20.274  30.009  31.547  1.00  0.00    -0.545 OA
ENDBRANCH   1   7
BRANCH   6  10
ATOM     10  O   UNL     1      20.854  31.125  25.139  1.00  0.00    -0.497 OA
ATOM     11  C   UNL     1      21.703  30.596  24.126  1.00  0.00     0.278 C 
ENDBRANCH   6  10
TORSDOF 2
ENDMDL
