MODEL 1
REMARK VINA RESULT:    -2.282      0.000      0.000
REMARK INTER + INTRA:          -4.261
REMARK INTER:                  -3.482
REMARK INTRA:                  -0.779
REMARK UNBOUND:                -0.779
REMARK SMILES O=C([O-])CCCCCCCCC(=O)[O-]
REMARK SMILES IDX 7 1 6 2 5 3 4 4 2 5 1 6 3 7 8 8 9 9 10 10 11 11 12 12 13 13
REMARK SMILES IDX 14 14
REMARK H PARENT
REMARK Flexibility Score: inf
ROOT
ATOM      1  C   UNL     1      39.029  39.190  19.629  1.00  0.00     0.000 C 
ENDROOT
BRANCH   1   2
ATOM      2  C   UNL     1      37.498  39.076  19.674  1.00  0.00     0.000 C 
BRANCH   2   3
ATOM      3  C   UNL     1      37.009  37.773  20.333  1.00  0.00     0.006 C 
BRANCH   3   4
ATOM      4  C   UNL     1      37.456  36.495  19.600  1.00  0.00     0.053 C 
BRANCH   4   5
ATOM      5  C   UNL     1      37.882  35.407  20.538  1.00  0.00     0.041 C 
ATOM      6  O   UNL     1      39.032  34.903  20.445  1.00  0.00    -0.550 OA
ATOM      7  O   UNL     1      36.997  34.927  21.495  1.00  0.00    -0.550 OA
ENDBRANCH   4   5
ENDBRANCH   3   4
ENDBRANCH   2   3
ENDBRANCH   1   2
BRANCH   1   8
ATOM      8  C   UNL     1      39.486  40.000  18.406  1.00  0.00     0.000 C 
BRANCH   8   9
ATOM      9  C   UNL     1      39.340  39.218  17.091  1.00  0.00     0.000 C 
BRANCH   9  10
ATOM     10  C   UNL     1      39.863  37.778  17.195  1.00  0.00     0.006 C 
BRANCH  10  11
ATOM     11  C   UNL     1      39.348  36.923  16.034  1.00  0.00     0.053 C 
BRANCH  11  12
ATOM     12  C   UNL     1      39.168  35.503  16.468  1.00  0.00     0.041 C 
ATOM     13  O   UNL     1      40.125  34.875  16.994  1.00  0.00    -0.550 OA
ATOM     14  O   UNL     1      37.931  34.886  16.337  1.00  0.00    -0.550 OA
ENDBRANCH  11  12
ENDBRANCH  10  11
ENDBRANCH   9  10
ENDBRANCH   8   9
ENDBRANCH   1   8
TORSDOF 9
ENDMDL
MODEL 2
REMARK VINA RESULT:    -2.188      1.477      4.169
REMARK INTER + INTRA:          -4.118
REMARK INTER:                  -3.612
REMARK INTRA:                  -0.506
REMARK UNBOUND:                -0.779
REMARK SMILES O=C([O-])CCCCCCCCC(=O)[O-]
REMARK SMILES IDX 7 1 6 2 5 3 4 4 2 5 1 6 3 7 8 8 9 9 10 10 11 11 12 12 13 13
REMARK SMILES IDX 14 14
REMARK H PARENT
REMARK Flexibility Score: inf
ROOT
ATOM      1  C   UNL     1      37.163  40.095  19.570  1.00  0.00     0.000 C 
ENDROOT
BRANCH   1   2
ATOM      2  C   UNL     1      38.687  39.937  19.667  1.00  0.00     0.000 C 
BRANCH   2   3
ATOM      3  C   UNL     1      39.359  39.706  18.301  1.00  0.00     0.006 C 
BRANCH   3   4
ATOM      4  C   UNL     1      40.104  38.364  18.189  1.00  0.00     0.053 C 
BRANCH   4   5
ATOM      5  C   UNL     1      39.885  37.686  16.871  1.00  0.00     0.041 C 
ATOM      6  O   UNL     1      39.486  38.347  15.875  1.00  0.00    -0.550 OA
ATOM      7  O   UNL     1      40.091  36.318  16.749  1.00  0.00    -0.550 OA
ENDBRANCH   4   5
ENDBRANCH   3   4
ENDBRANCH   2   3
ENDBRANCH   1   2
BRANCH   1   8
ATOM      8  C   UNL     1      36.452  38.758  19.824  1.00  0.00     0.000 C 
BRANCH   8   9
ATOM      9  C   UNL     1      37.404  37.674  20.352  1.00  0.00     0.000 C 
BRANCH   9  10
ATOM     10  C   UNL     1      36.667  36.400  20.792  1.00  0.00     0.006 C 
BRANCH  10  11
ATOM     11  C   UNL     1      37.653  35.253  21.038  1.00  0.00     0.053 C 
BRANCH  11  12
ATOM     12  C   UNL     1      38.452  34.976  19.805  1.00  0.00     0.041 C 
ATOM     13  O   UNL     1      37.879  34.875  18.688  1.00  0.00    -0.550 OA
ATOM     14  O   UNL     1      39.836  34.875  19.880  1.00  0.00    -0.550 OA
ENDBRANCH  11  12
ENDBRANCH  10  11
ENDBRANCH   9  10
ENDBRANCH   8   9
ENDBRANCH   1   8
TORSDOF 9
ENDMDL
MODEL 3
REMARK VINA RESULT:    -0.245     25.483     27.507
REMARK INTER + INTRA:          -1.154
REMARK INTER:                  -0.620
REMARK INTRA:                  -0.533
REMARK UNBOUND:                -0.779
REMARK SMILES O=C([O-])CCCCCCCCC(=O)[O-]
REMARK SMILES IDX 7 1 6 2 5 3 4 4 2 5 1 6 3 7 8 8 9 9 10 10 11 11 12 12 13 13
REMARK SMILES IDX 14 14
REMARK H PARENT
REMARK Flexibility Score: inf
ROOT
ATOM      1  C   UNL     1      20.986  53.491  33.501  1.00  0.00     0.000 C 
ENDROOT
BRANCH   1   2
ATOM      2  C   UNL     1      21.173  53.800  34.994  1.00  0.00     0.000 C 
BRANCH   2   3
ATOM      3  C   UNL     1      21.915  55.125  35.247  1.00  0.00     0.006 C 
BRANCH   3   4
ATOM      4  C   UNL     1      23.226  54.966  36.038  1.00  0.00     0.053 C 
BRANCH   4   5
ATOM      5  C   UNL     1      24.433  54.899  35.153  1.00  0.00     0.041 C 
ATOM      6  O   UNL     1      25.590  54.925  35.652  1.00  0.00    -0.550 OA
ATOM      7  O   UNL     1      24.283  54.841  33.773  1.00  0.00    -0.550 OA
ENDBRANCH   4   5
ENDBRANCH   3   4
ENDBRANCH   2   3
ENDBRANCH   1   2
BRANCH   1   8
ATOM      8  C   UNL     1      20.102  54.550  32.825  1.00  0.00     0.000 C 
BRANCH   8   9
ATOM      9  C   UNL     1      20.520  54.830  31.373  1.00  0.00     0.000 C 
BRANCH   9  10
ATOM     10  C   UNL     1      21.690  53.950  30.912  1.00  0.00     0.006 C 
BRANCH  10  11
ATOM     11  C   UNL     1      21.385  53.295  29.561  1.00  0.00     0.053 C 
BRANCH  11  12
ATOM     12  C   UNL     1      22.591  52.579  29.041  1.00  0.00     0.041 C 
ATOM     13  O   UNL     1      22.543  51.976  27.937  1.00  0.00    -0.550 OA
ATOM     14  O   UNL     1      23.783  52.617  29.753  1.00  0.00    -0.550 OA
ENDBRANCH  11  12
ENDBRANCH  10  11
ENDBRANCH   9  10
ENDBRANCH   8   9
ENDBRANCH   1   8
TORSDOF 9
ENDMDL
MODEL 4
REMARK VINA RESULT:    -0.188     24.911     27.203
REMARK INTER + INTRA:          -1.067
REMARK INTER:                  -0.634
REMARK INTRA:                  -0.433
REMARK UNBOUND:                -0.779
REMARK SMILES O=C([O-])CCCCCCCCC(=O)[O-]
REMARK SMILES IDX 7 1 6 2 5 3 4 4 2 5 1 6 3 7 8 8 9 9 10 10 11 11 12 12 13 13
REMARK SMILES IDX 14 14
REMARK H PARENT
REMARK Flexibility Score: inf
ROOT
ATOM      1  C   UNL     1      20.874  54.346  30.815  1.00  0.00     0.000 C 
ENDROOT
BRANCH   1   2
ATOM      2  C   UNL     1      20.138  54.520  29.477  1.00  0.00     0.000 C 
BRANCH   2   3
ATOM      3  C   UNL     1      20.735  53.665  28.345  1.00  0.00     0.006 C 
BRANCH   3   4
ATOM      4  C   UNL     1      21.895  52.757  28.791  1.00  0.00     0.053 C 
BRANCH   4   5
ATOM      5  C   UNL     1      22.699  52.234  27.640  1.00  0.00     0.041 C 
ATOM      6  O   UNL     1      23.095  51.038  27.633  1.00  0.00    -0.550 OA
ATOM      7  O   UNL     1      23.039  53.076  26.588  1.00  0.00    -0.550 OA
ENDBRANCH   4   5
ENDBRANCH   3   4
ENDBRANCH   2   3
ENDBRANCH   1   2
BRANCH   1   8
ATOM      8  C   UNL     1      20.171  55.125  31.936  1.00  0.00     0.000 C 
BRANCH   8   9
ATOM      9  C   UNL     1      19.876  54.253  33.166  1.00  0.00     0.000 C 
BRANCH   9  10
ATOM     10  C   UNL     1      21.149  53.823  33.909  1.00  0.00     0.006 C 
BRANCH  10  11
ATOM     11  C   UNL     1      22.124  54.996  34.052  1.00  0.00     0.053 C 
BRANCH  11  12
ATOM     12  C   UNL     1      23.531  54.538  33.838  1.00  0.00     0.041 C 
ATOM     13  O   UNL     1      23.969  54.360  32.671  1.00  0.00    -0.550 OA
ATOM     14  O   UNL     1      24.375  54.353  34.926  1.00  0.00    -0.550 OA
ENDBRANCH  11  12
ENDBRANCH  10  11
ENDBRANCH   9  10
ENDBRANCH   8   9
ENDBRANCH   1   8
TORSDOF 9
ENDMDL
MODEL 5
REMARK VINA RESULT:    -0.176     24.777     27.124
REMARK INTER + INTRA:          -1.048
REMARK INTER:                  -0.705
REMARK INTRA:                  -0.343
REMARK UNBOUND:                -0.779
REMARK SMILES O=C([O-])CCCCCCCCC(=O)[O-]
REMARK SMILES IDX 7 1 6 2 5 3 4 4 2 5 1 6 3 7 8 8 9 9 10 10 11 11 12 12 13 13
REMARK SMILES IDX 14 14
REMARK H PARENT
REMARK Flexibility Score: inf
ROOT
ATOM      1  C   UNL     1      24.656  54.815  31.615  1.00  0.00     0.000 C 
ENDROOT
BRANCH   1   2
ATOM      2  C   UNL     1      23.430  54.053  31.091  1.00  0.00     0.000 C 
BRANCH   2   3
ATOM      3  C   UNL     1      23.787  52.978  30.049  1.00  0.00     0.006 C 
BRANCH   3   4
ATOM      4  C   UNL     1      22.577  52.444  29.260  1.00  0.00     0.053 C 
BRANCH   4   5
ATOM      5  C   UNL     1      22.918  52.086  27.846  1.00  0.00     0.041 C 
ATOM      6  O   UNL     1      23.198  50.897  27.542  1.00  0.00    -0.550 OA
ATOM      7  O   UNL     1      22.957  53.072  26.868  1.00  0.00    -0.550 OA
ENDBRANCH   4   5
ENDBRANCH   3   4
ENDBRANCH   2   3
ENDBRANCH   1   2
BRANCH   1   8
ATOM      8  C   UNL     1      24.577  55.007  33.137  1.00  0.00     0.000 C 
BRANCH   8   9
ATOM      9  C   UNL     1      23.132  54.994  33.660  1.00  0.00     0.000 C 
BRANCH   9  10
ATOM     10  C   UNL     1      22.953  54.089  34.887  1.00  0.00     0.006 C 
BRANCH  10  11
ATOM     11  C   UNL     1      21.679  54.453  35.656  1.00  0.00     0.053 C 
BRANCH  11  12
ATOM     12  C   UNL     1      20.559  53.536  35.281  1.00  0.00     0.041 C 
ATOM     13  O   UNL     1      20.095  52.725  36.125  1.00  0.00    -0.550 OA
ATOM     14  O   UNL     1      19.995  53.608  34.014  1.00  0.00    -0.550 OA
ENDBRANCH  11  12
ENDBRANCH  10  11
ENDBRANCH   9  10
ENDBRANCH   8   9
ENDBRANCH   1   8
TORSDOF 9
ENDMDL
MODEL 6
REMARK VINA RESULT:    -0.037     25.725     27.773
REMARK INTER + INTRA:          -0.836
REMARK INTER:                  -0.932
REMARK INTRA:                   0.096
REMARK UNBOUND:                -0.779
REMARK SMILES O=C([O-])CCCCCCCCC(=O)[O-]
REMARK SMILES IDX 7 1 6 2 5 3 4 4 2 5 1 6 3 7 8 8 9 9 10 10 11 11 12 12 13 13
REMARK SMILES IDX 14 14
REMARK H PARENT
REMARK Flexibility Score: inf
ROOT
ATOM      1  C   UNL     1      20.018  54.400  34.083  1.00  0.00     0.000 C 
ENDROOT
BRANCH   1   2
ATOM      2  C   UNL     1      20.777  54.043  35.370  1.00  0.00     0.000 C 
BRANCH   2   3
ATOM      3  C   UNL     1      22.211  53.548  35.107  1.00  0.00     0.006 C 
BRANCH   3   4
ATOM      4  C   UNL     1      23.247  54.065  36.122  1.00  0.00     0.053 C 
BRANCH   4   5
ATOM      5  C   UNL     1      24.427  54.713  35.466  1.00  0.00     0.041 C 
ATOM      6  O   UNL     1      25.485  54.915  36.120  1.00  0.00    -0.550 OA
ATOM      7  O   UNL     1      24.350  55.125  34.142  1.00  0.00    -0.550 OA
ENDBRANCH   4   5
ENDBRANCH   3   4
ENDBRANCH   2   3
ENDBRANCH   1   2
BRANCH   1   8
ATOM      8  C   UNL     1      20.935  55.119  33.083  1.00  0.00     0.000 C 
BRANCH   8   9
ATOM      9  C   UNL     1      20.914  54.471  31.689  1.00  0.00     0.000 C 
BRANCH   9  10
ATOM     10  C   UNL     1      22.179  54.777  30.874  1.00  0.00     0.006 C 
BRANCH  10  11
ATOM     11  C   UNL     1      23.435  54.655  31.743  1.00  0.00     0.053 C 
BRANCH  11  12
ATOM     12  C   UNL     1      24.580  54.126  30.939  1.00  0.00     0.041 C 
ATOM     13  O   UNL     1      25.717  54.657  31.031  1.00  0.00    -0.550 OA
ATOM     14  O   UNL     1      24.403  53.016  30.123  1.00  0.00    -0.550 OA
ENDBRANCH  11  12
ENDBRANCH  10  11
ENDBRANCH   9  10
ENDBRANCH   8   9
ENDBRANCH   1   8
TORSDOF 9
ENDMDL
MODEL 7
REMARK VINA RESULT:     0.297      1.827      3.002
REMARK INTER + INTRA:          -0.326
REMARK INTER:                   0.469
REMARK INTRA:                  -0.795
REMARK UNBOUND:                -0.779
REMARK SMILES O=C([O-])CCCCCCCCC(=O)[O-]
REMARK SMILES IDX 7 1 6 2 5 3 4 4 2 5 1 6 3 7 8 8 9 9 10 10 11 11 12 12 13 13
REMARK SMILES IDX 14 14
REMARK H PARENT
REMARK Flexibility Score: inf
ROOT
ATOM      1  C   UNL     1      36.529  38.462  20.579  1.00  0.00     0.000 C 
ENDROOT
BRANCH   1   2
ATOM      2  C   UNL     1      36.489  36.939  20.388  1.00  0.00     0.000 C 
BRANCH   2   3
ATOM      3  C   UNL     1      37.875  36.329  20.112  1.00  0.00     0.006 C 
BRANCH   3   4
ATOM      4  C   UNL     1      37.827  34.952  19.423  1.00  0.00     0.053 C 
BRANCH   4   5
ATOM      5  C   UNL     1      38.558  34.931  18.116  1.00  0.00     0.041 C 
ATOM      6  O   UNL     1      39.816  34.990  18.090  1.00  0.00    -0.550 OA
ATOM      7  O   UNL     1      37.849  34.878  16.922  1.00  0.00    -0.550 OA
ENDBRANCH   4   5
ENDBRANCH   3   4
ENDBRANCH   2   3
ENDBRANCH   1   2
BRANCH   1   8
ATOM      8  C   UNL     1      37.958  39.001  20.417  1.00  0.00     0.000 C 
BRANCH   8   9
ATOM      9  C   UNL     1      38.121  39.877  19.165  1.00  0.00     0.000 C 
BRANCH   9  10
ATOM     10  C   UNL     1      39.559  39.879  18.626  1.00  0.00     0.006 C 
BRANCH  10  11
ATOM     11  C   UNL     1      39.923  38.517  18.028  1.00  0.00     0.053 C 
BRANCH  11  12
ATOM     12  C   UNL     1      39.834  38.559  16.536  1.00  0.00     0.041 C 
ATOM     13  O   UNL     1      39.760  37.489  15.875  1.00  0.00    -0.550 OA
ATOM     14  O   UNL     1      39.784  39.780  15.875  1.00  0.00    -0.550 OA
ENDBRANCH  11  12
ENDBRANCH  10  11
ENDBRANCH   9  10
ENDBRANCH   8   9
ENDBRANCH   1   8
TORSDOF 9
ENDMDL
