MODEL 1
REMARK VINA RESULT:    -4.375      0.000      0.000
REMARK INTER + INTRA:          -6.273
REMARK INTER:                  -5.910
REMARK INTRA:                  -0.362
REMARK UNBOUND:                -0.362
REMARK SMILES CCCCCCCC(=O)[O-]
REMARK SMILES IDX 5 1 6 2 7 3 8 4 9 5 10 6 4 7 3 8 2 9 1 10
REMARK H PARENT
REMARK Flexibility Score: inf
ROOT
ATOM      1  C   UNL     1       6.073   6.543  13.206  1.00  0.00     0.000 C 
ENDROOT
BRANCH   1   2
ATOM      2  C   UNL     1       5.099   7.488  12.492  1.00  0.00     0.006 C 
BRANCH   2   3
ATOM      3  C   UNL     1       4.294   6.744  11.422  1.00  0.00     0.053 C 
BRANCH   3   4
ATOM      4  C   UNL     1       4.461   7.401  10.089  1.00  0.00     0.041 C 
ATOM      5  O   UNL     1       5.547   7.289   9.459  1.00  0.00    -0.550 OA
ATOM      6  O   UNL     1       3.436   8.178   9.563  1.00  0.00    -0.550 OA
ENDBRANCH   3   4
ENDBRANCH   2   3
ENDBRANCH   1   2
BRANCH   1   7
ATOM      7  C   UNL     1       7.496   7.119  13.208  1.00  0.00     0.000 C 
BRANCH   7   8
ATOM      8  C   UNL     1       8.104   7.203  11.799  1.00  0.00    -0.000 C 
BRANCH   8   9
ATOM      9  C   UNL     1       9.038   6.022  11.488  1.00  0.00    -0.003 C 
ATOM     10  C   UNL     1       8.989   5.660  10.007  1.00  0.00     0.004 C 
ENDBRANCH   8   9
ENDBRANCH   7   8
ENDBRANCH   1   7
TORSDOF 6
ENDMDL
MODEL 2
REMARK VINA RESULT:    -4.360      3.246      4.000
REMARK INTER + INTRA:          -6.252
REMARK INTER:                  -5.887
REMARK INTRA:                  -0.365
REMARK UNBOUND:                -0.362
REMARK SMILES CCCCCCCC(=O)[O-]
REMARK SMILES IDX 5 1 6 2 7 3 8 4 9 5 10 6 4 7 3 8 2 9 1 10
REMARK H PARENT
REMARK Flexibility Score: inf
ROOT
ATOM      1  C   UNL     1       7.512   7.278  13.405  1.00  0.00     0.000 C 
ENDROOT
BRANCH   1   2
ATOM      2  C   UNL     1       7.400   6.161  14.449  1.00  0.00     0.006 C 
BRANCH   2   3
ATOM      3  C   UNL     1       5.965   5.630  14.535  1.00  0.00     0.053 C 
BRANCH   3   4
ATOM      4  C   UNL     1       5.190   6.380  15.571  1.00  0.00     0.041 C 
ATOM      5  O   UNL     1       4.177   7.053  15.242  1.00  0.00    -0.550 OA
ATOM      6  O   UNL     1       5.614   6.376  16.895  1.00  0.00    -0.550 OA
ENDBRANCH   3   4
ENDBRANCH   2   3
ENDBRANCH   1   2
BRANCH   1   7
ATOM      7  C   UNL     1       6.583   7.011  12.212  1.00  0.00     0.000 C 
BRANCH   7   8
ATOM      8  C   UNL     1       7.341   6.917  10.879  1.00  0.00    -0.000 C 
BRANCH   8   9
ATOM      9  C   UNL     1       8.835   6.612  11.069  1.00  0.00    -0.003 C 
ATOM     10  C   UNL     1       9.330   5.619  10.022  1.00  0.00     0.004 C 
ENDBRANCH   8   9
ENDBRANCH   7   8
ENDBRANCH   1   7
TORSDOF 6
ENDMDL
MODEL 3
REMARK VINA RESULT:    -4.344      2.647      3.309
REMARK INTER + INTRA:          -6.229
REMARK INTER:                  -5.799
REMARK INTRA:                  -0.430
REMARK UNBOUND:                -0.362
REMARK SMILES CCCCCCCC(=O)[O-]
REMARK SMILES IDX 5 1 6 2 7 3 8 4 9 5 10 6 4 7 3 8 2 9 1 10
REMARK H PARENT
REMARK Flexibility Score: inf
ROOT
ATOM      1  C   UNL     1       5.337   7.644  10.842  1.00  0.00     0.000 C 
ENDROOT
BRANCH   1   2
ATOM      2  C   UNL     1       4.864   6.673  11.930  1.00  0.00     0.006 C 
BRANCH   2   3
ATOM      3  C   UNL     1       5.039   7.281  13.325  1.00  0.00     0.053 C 
BRANCH   3   4
ATOM      4  C   UNL     1       6.162   6.613  14.052  1.00  0.00     0.041 C 
ATOM      5  O   UNL     1       7.278   7.187  14.159  1.00  0.00    -0.550 OA
ATOM      6  O   UNL     1       5.992   5.335  14.570  1.00  0.00    -0.550 OA
ENDBRANCH   3   4
ENDBRANCH   2   3
ENDBRANCH   1   2
BRANCH   1   7
ATOM      7  C   UNL     1       6.538   7.070  10.076  1.00  0.00     0.000 C 
BRANCH   7   8
ATOM      8  C   UNL     1       7.885   7.539  10.648  1.00  0.00    -0.000 C 
BRANCH   8   9
ATOM      9  C   UNL     1       8.744   6.375  11.167  1.00  0.00    -0.003 C 
ATOM     10  C   UNL     1       9.336   5.572  10.012  1.00  0.00     0.004 C 
ENDBRANCH   8   9
ENDBRANCH   7   8
ENDBRANCH   1   7
TORSDOF 6
ENDMDL
MODEL 4
REMARK VINA RESULT:    -4.245      2.221      3.562
REMARK INTER + INTRA:          -6.096
REMARK INTER:                  -5.497
REMARK INTRA:                  -0.599
REMARK UNBOUND:                -0.362
REMARK SMILES CCCCCCCC(=O)[O-]
REMARK SMILES IDX 5 1 6 2 7 3 8 4 9 5 10 6 4 7 3 8 2 9 1 10
REMARK H PARENT
REMARK Flexibility Score: inf
ROOT
ATOM      1  C   UNL     1       4.809   6.875  11.383  1.00  0.00     0.000 C 
ENDROOT
BRANCH   1   2
ATOM      2  C   UNL     1       5.781   7.527  10.392  1.00  0.00     0.006 C 
BRANCH   2   3
ATOM      3  C   UNL     1       6.959   6.597  10.083  1.00  0.00     0.053 C 
BRANCH   3   4
ATOM      4  C   UNL     1       8.179   7.030  10.832  1.00  0.00     0.041 C 
ATOM      5  O   UNL     1       9.129   6.223  11.016  1.00  0.00    -0.550 OA
ATOM      6  O   UNL     1       8.248   8.309  11.369  1.00  0.00    -0.550 OA
ENDBRANCH   3   4
ENDBRANCH   2   3
ENDBRANCH   1   2
BRANCH   1   7
ATOM      7  C   UNL     1       5.020   7.424  12.801  1.00  0.00     0.000 C 
BRANCH   7   8
ATOM      8  C   UNL     1       5.607   6.377  13.761  1.00  0.00    -0.000 C 
BRANCH   8   9
ATOM      9  C   UNL     1       6.945   6.820  14.373  1.00  0.00    -0.003 C 
ATOM     10  C   UNL     1       7.952   5.674  14.381  1.00  0.00     0.004 C 
ENDBRANCH   8   9
ENDBRANCH   7   8
ENDBRANCH   1   7
TORSDOF 6
ENDMDL
MODEL 5
REMARK VINA RESULT:    -4.239      1.647      2.221
REMARK INTER + INTRA:          -6.088
REMARK INTER:                  -5.725
REMARK INTRA:                  -0.364
REMARK UNBOUND:                -0.362
REMARK SMILES CCCCCCCC(=O)[O-]
REMARK SMILES IDX 5 1 6 2 7 3 8 4 9 5 10 6 4 7 3 8 2 9 1 10
REMARK H PARENT
REMARK Flexibility Score: inf
ROOT
ATOM      1  C   UNL     1       6.650   8.664  10.587  1.00  0.00     0.000 C 
ENDROOT
BRANCH   1   2
ATOM      2  C   UNL     1       5.968   7.518   9.830  1.00  0.00     0.006 C 
BRANCH   2   3
ATOM      3  C   UNL     1       4.553   7.911   9.392  1.00  0.00     0.053 C 
BRANCH   3   4
ATOM      4  C   UNL     1       3.536   7.322  10.316  1.00  0.00     0.041 C 
ATOM      5  O   UNL     1       2.329   7.678  10.241  1.00  0.00    -0.550 OA
ATOM      6  O   UNL     1       3.926   6.414  11.292  1.00  0.00    -0.550 OA
ENDBRANCH   3   4
ENDBRANCH   2   3
ENDBRANCH   1   2
BRANCH   1   7
ATOM      7  C   UNL     1       7.997   8.213  11.170  1.00  0.00     0.000 C 
BRANCH   7   8
ATOM      8  C   UNL     1       7.943   6.795  11.759  1.00  0.00    -0.000 C 
BRANCH   8   9
ATOM      9  C   UNL     1       9.185   5.961  11.409  1.00  0.00    -0.003 C 
ATOM     10  C   UNL     1       9.212   5.612   9.925  1.00  0.00     0.004 C 
ENDBRANCH   8   9
ENDBRANCH   7   8
ENDBRANCH   1   7
TORSDOF 6
ENDMDL
MODEL 6
REMARK VINA RESULT:    -4.230      1.562      2.679
REMARK INTER + INTRA:          -6.076
REMARK INTER:                  -5.764
REMARK INTRA:                  -0.312
REMARK UNBOUND:                -0.362
REMARK SMILES CCCCCCCC(=O)[O-]
REMARK SMILES IDX 5 1 6 2 7 3 8 4 9 5 10 6 4 7 3 8 2 9 1 10
REMARK H PARENT
REMARK Flexibility Score: inf
ROOT
ATOM      1  C   UNL     1       8.214   8.052  11.405  1.00  0.00     0.000 C 
ENDROOT
BRANCH   1   2
ATOM      2  C   UNL     1       7.040   8.467  10.510  1.00  0.00     0.006 C 
BRANCH   2   3
ATOM      3  C   UNL     1       6.355   7.242   9.896  1.00  0.00     0.053 C 
BRANCH   3   4
ATOM      4  C   UNL     1       4.868   7.376   9.979  1.00  0.00     0.041 C 
ATOM      5  O   UNL     1       4.250   8.102   9.155  1.00  0.00    -0.550 OA
ATOM      6  O   UNL     1       4.168   6.740  10.996  1.00  0.00    -0.550 OA
ENDBRANCH   3   4
ENDBRANCH   2   3
ENDBRANCH   1   2
BRANCH   1   7
ATOM      7  C   UNL     1       7.860   6.809  12.234  1.00  0.00     0.000 C 
BRANCH   7   8
ATOM      8  C   UNL     1       7.103   7.154  13.526  1.00  0.00    -0.000 C 
BRANCH   8   9
ATOM      9  C   UNL     1       7.134   6.010  14.552  1.00  0.00    -0.003 C 
ATOM     10  C   UNL     1       8.471   5.277  14.516  1.00  0.00     0.004 C 
ENDBRANCH   8   9
ENDBRANCH   7   8
ENDBRANCH   1   7
TORSDOF 6
ENDMDL
MODEL 7
REMARK VINA RESULT:    -4.230      1.409      3.091
REMARK INTER + INTRA:          -6.075
REMARK INTER:                  -5.656
REMARK INTRA:                  -0.420
REMARK UNBOUND:                -0.362
REMARK SMILES CCCCCCCC(=O)[O-]
REMARK SMILES IDX 5 1 6 2 7 3 8 4 9 5 10 6 4 7 3 8 2 9 1 10
REMARK H PARENT
REMARK Flexibility Score: inf
ROOT
ATOM      1  C   UNL     1       8.332   6.662  11.713  1.00  0.00     0.000 C 
ENDROOT
BRANCH   1   2
ATOM      2  C   UNL     1       7.562   6.793  10.394  1.00  0.00     0.006 C 
BRANCH   2   3
ATOM      3  C   UNL     1       6.075   7.061  10.649  1.00  0.00     0.053 C 
BRANCH   3   4
ATOM      4  C   UNL     1       5.562   8.106   9.710  1.00  0.00     0.041 C 
ATOM      5  O   UNL     1       4.436   7.967   9.161  1.00  0.00    -0.550 OA
ATOM      6  O   UNL     1       6.347   9.210   9.402  1.00  0.00    -0.550 OA
ENDBRANCH   3   4
ENDBRANCH   2   3
ENDBRANCH   1   2
BRANCH   1   7
ATOM      7  C   UNL     1       7.478   7.136  12.898  1.00  0.00     0.000 C 
BRANCH   7   8
ATOM      8  C   UNL     1       7.544   6.178  14.096  1.00  0.00    -0.000 C 
BRANCH   8   9
ATOM      9  C   UNL     1       6.155   5.839  14.659  1.00  0.00    -0.003 C 
ATOM     10  C   UNL     1       5.144   6.930  14.321  1.00  0.00     0.004 C 
ENDBRANCH   8   9
ENDBRANCH   7   8
ENDBRANCH   1   7
TORSDOF 6
ENDMDL
MODEL 8
REMARK VINA RESULT:    -4.140      3.305      4.594
REMARK INTER + INTRA:          -5.955
REMARK INTER:                  -5.536
REMARK INTRA:                  -0.419
REMARK UNBOUND:                -0.362
REMARK SMILES CCCCCCCC(=O)[O-]
REMARK SMILES IDX 5 1 6 2 7 3 8 4 9 5 10 6 4 7 3 8 2 9 1 10
REMARK H PARENT
REMARK Flexibility Score: inf
ROOT
ATOM      1  C   UNL     1       7.990   8.069  11.653  1.00  0.00     0.000 C 
ENDROOT
BRANCH   1   2
ATOM      2  C   UNL     1       7.551   6.786  12.370  1.00  0.00     0.006 C 
BRANCH   2   3
ATOM      3  C   UNL     1       6.670   7.107  13.582  1.00  0.00     0.053 C 
BRANCH   3   4
ATOM      4  C   UNL     1       7.131   6.341  14.781  1.00  0.00     0.041 C 
ATOM      5  O   UNL     1       8.196   5.670  14.734  1.00  0.00    -0.550 OA
ATOM      6  O   UNL     1       6.359   6.329  15.937  1.00  0.00    -0.550 OA
ENDBRANCH   3   4
ENDBRANCH   2   3
ENDBRANCH   1   2
BRANCH   1   7
ATOM      7  C   UNL     1       7.205   8.266  10.349  1.00  0.00     0.000 C 
BRANCH   7   8
ATOM      8  C   UNL     1       6.311   7.064  10.007  1.00  0.00    -0.000 C 
BRANCH   8   9
ATOM      9  C   UNL     1       4.827   7.443   9.893  1.00  0.00    -0.003 C 
ATOM     10  C   UNL     1       4.001   6.759  10.978  1.00  0.00     0.004 C 
ENDBRANCH   8   9
ENDBRANCH   7   8
ENDBRANCH   1   7
TORSDOF 6
ENDMDL
MODEL 9
REMARK VINA RESULT:    -4.135      2.439      3.476
REMARK INTER + INTRA:          -5.948
REMARK INTER:                  -5.361
REMARK INTRA:                  -0.586
REMARK UNBOUND:                -0.362
REMARK SMILES CCCCCCCC(=O)[O-]
REMARK SMILES IDX 5 1 6 2 7 3 8 4 9 5 10 6 4 7 3 8 2 9 1 10
REMARK H PARENT
REMARK Flexibility Score: inf
ROOT
ATOM      1  C   UNL     1       7.879   6.739  12.244  1.00  0.00     0.000 C 
ENDROOT
BRANCH   1   2
ATOM      2  C   UNL     1       7.320   6.826  13.669  1.00  0.00     0.006 C 
BRANCH   2   3
ATOM      3  C   UNL     1       5.835   6.448  13.701  1.00  0.00     0.053 C 
BRANCH   3   4
ATOM      4  C   UNL     1       4.992   7.659  13.945  1.00  0.00     0.041 C 
ATOM      5  O   UNL     1       4.413   8.232  12.984  1.00  0.00    -0.550 OA
ATOM      6  O   UNL     1       4.883   8.184  15.227  1.00  0.00    -0.550 OA
ENDBRANCH   3   4
ENDBRANCH   2   3
ENDBRANCH   1   2
BRANCH   1   7
ATOM      7  C   UNL     1       8.097   8.139  11.652  1.00  0.00     0.000 C 
BRANCH   7   8
ATOM      8  C   UNL     1       7.200   8.414  10.435  1.00  0.00    -0.000 C 
BRANCH   8   9
ATOM      9  C   UNL     1       6.408   7.174   9.992  1.00  0.00    -0.003 C 
ATOM     10  C   UNL     1       4.981   7.545   9.601  1.00  0.00     0.004 C 
ENDBRANCH   8   9
ENDBRANCH   7   8
ENDBRANCH   1   7
TORSDOF 6
ENDMDL
