MODEL 1
REMARK VINA RESULT:     8.613      0.000      0.000
REMARK INTER + INTRA:          12.355
REMARK INTER:                  11.382
REMARK INTRA:                   0.973
REMARK UNBOUND:                 0.973
REMARK SMILES CC[C@@H](C=C[C@@H](C)[C@H]1CC[C@@H]2[C@H]3CC=C4C[C@H](O)CC[C@@]4(C)[C@@H]3CC[C@@]21C)C(C)C
REMARK SMILES IDX 6 1 7 2 5 3 4 4 3 5 2 6 1 7 28 8 29 9 30 10 8 11 9 12 26 13
REMARK SMILES IDX 10 14 11 15 25 16 27 17 12 18 24 19 23 20 13 21 21 22 14 23
REMARK SMILES IDX 15 24 20 25 22 26 16 27 19 28 17 29 18 30
REMARK H PARENT 18 31
REMARK Flexibility Score: inf
ROOT
ATOM      1  C   UNL     1      12.173  17.109  24.255  1.00  0.00     0.012 C 
ATOM      2  C   UNL     1      10.874  16.270  24.171  1.00  0.00     0.012 C 
ENDROOT
BRANCH   1   3
ATOM      3  C   UNL     1      12.478  17.620  22.859  1.00  0.00    -0.028 C 
ATOM      4  C   UNL     1      13.713  17.551  22.332  1.00  0.00    -0.027 C 
BRANCH   4   5
ATOM      5  C   UNL     1      14.086  18.118  20.974  1.00  0.00     0.014 C 
BRANCH   5   6
ATOM      6  C   UNL     1      13.105  17.627  19.877  1.00  0.00     0.004 C 
ATOM      7  C   UNL     1      11.646  17.977  20.176  1.00  0.00     0.004 C 
ENDBRANCH   5   6
BRANCH   5   8
ATOM      8  C   UNL     1      15.601  17.944  20.628  1.00  0.00    -0.011 C 
ATOM      9  C   UNL     1      16.487  18.118  21.874  1.00  0.00     0.008 C 
ATOM     10  C   UNL     1      15.950  16.622  19.922  1.00  0.00     0.008 C 
ENDBRANCH   5   8
ENDBRANCH   4   5
ENDBRANCH   1   3
BRANCH   1  11
ATOM     11  C   UNL     1      13.399  16.318  24.865  1.00  0.00     0.002 C 
ATOM     12  C   UNL     1      14.553  17.268  25.254  1.00  0.00     0.005 C 
ATOM     13  C   UNL     1      13.166  15.543  26.211  1.00  0.00    -0.026 C 
ATOM     14  C   UNL     1      14.333  17.653  26.710  1.00  0.00     0.005 C 
ATOM     15  C   UNL     1      13.311  16.658  27.289  1.00  0.00    -0.001 C 
ATOM     16  C   UNL     1      14.268  14.412  26.337  1.00  0.00     0.007 C 
ATOM     17  C   UNL     1      11.770  14.881  26.321  1.00  0.00     0.012 C 
ATOM     18  C   UNL     1      13.679  16.194  28.743  1.00  0.00     0.000 C 
ATOM     19  C   UNL     1      15.119  14.469  27.613  1.00  0.00     0.005 C 
ATOM     20  C   UNL     1      14.213  14.747  28.821  1.00  0.00     0.003 C 
ATOM     21  C   UNL     1      12.506  16.324  29.723  1.00  0.00     0.031 C 
ATOM     22  C   UNL     1      14.836  14.447  30.233  1.00  0.00    -0.008 C 
ATOM     23  C   UNL     1      12.866  15.806  31.096  1.00  0.00    -0.027 C 
ATOM     24  C   UNL     1      13.853  14.904  31.329  1.00  0.00    -0.065 C 
ATOM     25  C   UNL     1      15.073  12.907  30.374  1.00  0.00     0.014 C 
ATOM     26  C   UNL     1      16.184  15.193  30.431  1.00  0.00     0.016 C 
ATOM     27  C   UNL     1      14.076  14.411  32.744  1.00  0.00     0.063 C 
ATOM     28  C   UNL     1      15.330  12.435  31.817  1.00  0.00     0.033 C 
ATOM     29  C   UNL     1      14.201  12.886  32.760  1.00  0.00     0.118 C 
BRANCH  29  30
ATOM     30  O   UNL     1      14.464  12.461  34.070  1.00  0.00    -0.393 OA
ATOM     31  H   UNL     1      15.442  12.587  34.221  1.00  0.00     0.210 HD
ENDBRANCH  29  30
ENDBRANCH   1  11
TORSDOF 6
ENDMDL
MODEL 2
REMARK VINA RESULT:     9.849      1.323      1.902
REMARK INTER + INTRA:          13.989
REMARK INTER:                  13.496
REMARK INTRA:                   0.493
REMARK UNBOUND:                 0.973
REMARK SMILES CC[C@@H](C=C[C@@H](C)[C@H]1CC[C@@H]2[C@H]3CC=C4C[C@H](O)CC[C@@]4(C)[C@@H]3CC[C@@]21C)C(C)C
REMARK SMILES IDX 6 1 7 2 5 3 4 4 3 5 2 6 1 7 28 8 29 9 30 10 8 11 9 12 26 13
REMARK SMILES IDX 10 14 11 15 25 16 27 17 12 18 24 19 23 20 13 21 21 22 14 23
REMARK SMILES IDX 15 24 20 25 22 26 16 27 19 28 17 29 18 30
REMARK H PARENT 18 31
REMARK Flexibility Score: inf
ROOT
ATOM      1  C   UNL     1      11.529  17.836  25.935  1.00  0.00     0.012 C 
ATOM      2  C   UNL     1      10.359  17.075  26.606  1.00  0.00     0.012 C 
ENDROOT
BRANCH   1   3
ATOM      3  C   UNL     1      11.129  18.111  24.496  1.00  0.00    -0.028 C 
ATOM      4  C   UNL     1      11.928  17.789  23.464  1.00  0.00    -0.027 C 
BRANCH   4   5
ATOM      5  C   UNL     1      11.610  18.114  22.015  1.00  0.00     0.014 C 
BRANCH   5   6
ATOM      6  C   UNL     1      10.431  17.249  21.497  1.00  0.00     0.004 C 
ATOM      7  C   UNL     1       9.657  17.911  20.355  1.00  0.00     0.004 C 
ENDBRANCH   5   6
BRANCH   5   8
ATOM      8  C   UNL     1      12.873  18.124  21.094  1.00  0.00    -0.011 C 
ATOM      9  C   UNL     1      14.154  17.824  21.891  1.00  0.00     0.008 C 
ATOM     10  C   UNL     1      12.786  17.188  19.877  1.00  0.00     0.008 C 
ENDBRANCH   5   8
ENDBRANCH   4   5
ENDBRANCH   1   3
BRANCH   1  11
ATOM     11  C   UNL     1      12.911  17.073  26.017  1.00  0.00     0.002 C 
ATOM     12  C   UNL     1      14.035  17.985  26.556  1.00  0.00     0.005 C 
ATOM     13  C   UNL     1      13.006  15.848  26.996  1.00  0.00    -0.026 C 
ATOM     14  C   UNL     1      14.067  17.795  28.066  1.00  0.00     0.005 C 
ATOM     15  C   UNL     1      13.262  16.520  28.378  1.00  0.00    -0.001 C 
ATOM     16  C   UNL     1      14.202  14.921  26.527  1.00  0.00     0.007 C 
ATOM     17  C   UNL     1      11.717  14.990  27.056  1.00  0.00     0.012 C 
ATOM     18  C   UNL     1      13.939  15.633  29.482  1.00  0.00     0.000 C 
ATOM     19  C   UNL     1      15.275  14.650  27.591  1.00  0.00     0.005 C 
ATOM     20  C   UNL     1      14.598  14.348  28.935  1.00  0.00     0.003 C 
ATOM     21  C   UNL     1      12.969  15.235  30.602  1.00  0.00     0.031 C 
ATOM     22  C   UNL     1      15.503  13.666  30.025  1.00  0.00    -0.008 C 
ATOM     23  C   UNL     1      13.628  14.327  31.614  1.00  0.00    -0.027 C 
ATOM     24  C   UNL     1      14.714  13.557  31.345  1.00  0.00    -0.065 C 
ATOM     25  C   UNL     1      15.891  12.228  29.546  1.00  0.00     0.014 C 
ATOM     26  C   UNL     1      16.797  14.486  30.285  1.00  0.00     0.016 C 
ATOM     27  C   UNL     1      15.244  12.637  32.424  1.00  0.00     0.063 C 
ATOM     28  C   UNL     1      16.457  11.322  30.653  1.00  0.00     0.033 C 
ATOM     29  C   UNL     1      15.497  11.240  31.852  1.00  0.00     0.118 C 
BRANCH  29  30
ATOM     30  O   UNL     1      16.041  10.425  32.855  1.00  0.00    -0.393 OA
ATOM     31  H   UNL     1      16.356   9.592  32.407  1.00  0.00     0.210 HD
ENDBRANCH  29  30
ENDBRANCH   1  11
TORSDOF 6
ENDMDL
