MODEL 1
REMARK VINA RESULT:    -4.220      0.000      0.000
REMARK INTER + INTRA:         -13.397
REMARK INTER:                  -9.647
REMARK INTRA:                  -3.749
REMARK UNBOUND:                -3.749
REMARK SMILES CCCCCCCCCCCCCCCCCCCCCCCC(=O)[O-]
REMARK SMILES IDX 13 1 14 2 15 3 16 4 17 5 18 6 19 7 20 8 21 9 22 10 23 11
REMARK SMILES IDX 24 12 25 13 26 14 12 15 11 16 10 17 9 18 8 19 7 20 6 21 5 22
REMARK SMILES IDX 4 23 3 24 2 25 1 26
REMARK H PARENT
REMARK Flexibility Score: inf
ROOT
ATOM      1  C   UNL     1      46.559   6.742  20.666  1.00  0.00     0.000 C 
ENDROOT
BRANCH   1   2
ATOM      2  C   UNL     1      47.848   6.820  21.492  1.00  0.00     0.000 C 
BRANCH   2   3
ATOM      3  C   UNL     1      47.591   7.504  22.844  1.00  0.00     0.000 C 
BRANCH   3   4
ATOM      4  C   UNL     1      48.064   8.968  22.881  1.00  0.00     0.000 C 
BRANCH   4   5
ATOM      5  C   UNL     1      47.074   9.964  23.514  1.00  0.00     0.000 C 
BRANCH   5   6
ATOM      6  C   UNL     1      46.705  11.124  22.573  1.00  0.00     0.000 C 
BRANCH   6   7
ATOM      7  C   UNL     1      46.138  10.642  21.225  1.00  0.00     0.000 C 
BRANCH   7   8
ATOM      8  C   UNL     1      44.611  10.432  21.193  1.00  0.00     0.000 C 
BRANCH   8   9
ATOM      9  C   UNL     1      44.137   8.991  21.466  1.00  0.00     0.000 C 
BRANCH   9  10
ATOM     10  C   UNL     1      43.793   8.684  22.934  1.00  0.00     0.006 C 
BRANCH  10  11
ATOM     11  C   UNL     1      43.337   9.924  23.714  1.00  0.00     0.053 C 
BRANCH  11  12
ATOM     12  C   UNL     1      43.059   9.577  25.143  1.00  0.00     0.041 C 
ATOM     13  O   UNL     1      41.876   9.587  25.577  1.00  0.00    -0.550 OA
ATOM     14  O   UNL     1      44.106   9.272  26.004  1.00  0.00    -0.550 OA
ENDBRANCH  11  12
ENDBRANCH  10  11
ENDBRANCH   9  10
ENDBRANCH   8   9
ENDBRANCH   7   8
ENDBRANCH   6   7
ENDBRANCH   5   6
ENDBRANCH   4   5
ENDBRANCH   3   4
ENDBRANCH   2   3
ENDBRANCH   1   2
BRANCH   1  15
ATOM     15  C   UNL     1      46.747   7.393  19.285  1.00  0.00     0.000 C 
BRANCH  15  16
ATOM     16  C   UNL     1      46.736   6.372  18.137  1.00  0.00     0.000 C 
BRANCH  16  17
ATOM     17  C   UNL     1      47.354   6.864  16.814  1.00  0.00     0.000 C 
BRANCH  17  18
ATOM     18  C   UNL     1      47.273   5.842  15.659  1.00  0.00    -0.000 C 
BRANCH  18  19
ATOM     19  C   UNL     1      46.320   6.292  14.536  1.00  0.00    -0.000 C 
BRANCH  19  20
ATOM     20  C   UNL     1      44.906   5.704  14.683  1.00  0.00    -0.000 C 
BRANCH  20  21
ATOM     21  C   UNL     1      43.776   6.747  14.780  1.00  0.00    -0.000 C 
BRANCH  21  22
ATOM     22  C   UNL     1      44.191   8.050  15.496  1.00  0.00    -0.000 C 
BRANCH  22  23
ATOM     23  C   UNL     1      43.865   8.019  17.001  1.00  0.00    -0.000 C 
BRANCH  23  24
ATOM     24  C   UNL     1      43.814   9.423  17.633  1.00  0.00    -0.000 C 
BRANCH  24  25
ATOM     25  C   UNL     1      44.679  10.480  16.925  1.00  0.00    -0.003 C 
ATOM     26  C   UNL     1      46.127  10.485  17.411  1.00  0.00     0.004 C 
ENDBRANCH  24  25
ENDBRANCH  23  24
ENDBRANCH  22  23
ENDBRANCH  21  22
ENDBRANCH  20  21
ENDBRANCH  19  20
ENDBRANCH  18  19
ENDBRANCH  17  18
ENDBRANCH  16  17
ENDBRANCH  15  16
ENDBRANCH   1  15
TORSDOF 22
ENDMDL
MODEL 2
REMARK VINA RESULT:    -4.137      1.316      3.176
REMARK INTER + INTRA:         -13.207
REMARK INTER:                  -9.691
REMARK INTRA:                  -3.516
REMARK UNBOUND:                -3.749
REMARK SMILES CCCCCCCCCCCCCCCCCCCCCCCC(=O)[O-]
REMARK SMILES IDX 13 1 14 2 15 3 16 4 17 5 18 6 19 7 20 8 21 9 22 10 23 11
REMARK SMILES IDX 24 12 25 13 26 14 12 15 11 16 10 17 9 18 8 19 7 20 6 21 5 22
REMARK SMILES IDX 4 23 3 24 2 25 1 26
REMARK H PARENT
REMARK Flexibility Score: inf
ROOT
ATOM      1  C   UNL     1      46.681   6.871  20.171  1.00  0.00     0.000 C 
ENDROOT
BRANCH   1   2
ATOM      2  C   UNL     1      46.745   7.213  21.664  1.00  0.00     0.000 C 
BRANCH   2   3
ATOM      3  C   UNL     1      48.201   7.286  22.148  1.00  0.00     0.000 C 
BRANCH   3   4
ATOM      4  C   UNL     1      48.519   8.581  22.917  1.00  0.00     0.000 C 
BRANCH   4   5
ATOM      5  C   UNL     1      47.294   9.336  23.468  1.00  0.00     0.000 C 
BRANCH   5   6
ATOM      6  C   UNL     1      47.185  10.774  22.934  1.00  0.00     0.000 C 
BRANCH   6   7
ATOM      7  C   UNL     1      46.266  10.887  21.705  1.00  0.00     0.000 C 
BRANCH   7   8
ATOM      8  C   UNL     1      44.757  10.946  22.017  1.00  0.00     0.000 C 
BRANCH   8   9
ATOM      9  C   UNL     1      44.041   9.582  22.072  1.00  0.00     0.000 C 
BRANCH   9  10
ATOM     10  C   UNL     1      43.696   9.083  23.487  1.00  0.00     0.006 C 
BRANCH  10  11
ATOM     11  C   UNL     1      43.584  10.220  24.511  1.00  0.00     0.053 C 
BRANCH  11  12
ATOM     12  C   UNL     1      44.525   9.995  25.655  1.00  0.00     0.041 C 
ATOM     13  O   UNL     1      45.169  10.962  26.141  1.00  0.00    -0.550 OA
ATOM     14  O   UNL     1      44.711   8.716  26.164  1.00  0.00    -0.550 OA
ENDBRANCH  11  12
ENDBRANCH  10  11
ENDBRANCH   9  10
ENDBRANCH   8   9
ENDBRANCH   7   8
ENDBRANCH   6   7
ENDBRANCH   5   6
ENDBRANCH   4   5
ENDBRANCH   3   4
ENDBRANCH   2   3
ENDBRANCH   1   2
BRANCH   1  15
ATOM     15  C   UNL     1      46.365   8.119  19.330  1.00  0.00     0.000 C 
BRANCH  15  16
ATOM     16  C   UNL     1      44.918   8.141  18.814  1.00  0.00     0.000 C 
BRANCH  16  17
ATOM     17  C   UNL     1      44.540   9.372  17.968  1.00  0.00     0.000 C 
BRANCH  17  18
ATOM     18  C   UNL     1      45.714  10.337  17.694  1.00  0.00    -0.000 C 
BRANCH  18  19
ATOM     19  C   UNL     1      45.769  10.799  16.226  1.00  0.00    -0.000 C 
BRANCH  19  20
ATOM     20  C   UNL     1      46.611   9.864  15.339  1.00  0.00    -0.000 C 
BRANCH  20  21
ATOM     21  C   UNL     1      45.797   8.961  14.391  1.00  0.00    -0.000 C 
BRANCH  21  22
ATOM     22  C   UNL     1      46.294   7.501  14.343  1.00  0.00    -0.000 C 
BRANCH  22  23
ATOM     23  C   UNL     1      45.986   6.735  15.643  1.00  0.00    -0.000 C 
BRANCH  23  24
ATOM     24  C   UNL     1      47.148   5.831  16.096  1.00  0.00    -0.000 C 
BRANCH  24  25
ATOM     25  C   UNL     1      47.928   5.163  14.951  1.00  0.00    -0.003 C 
ATOM     26  C   UNL     1      47.158   4.019  14.294  1.00  0.00     0.004 C 
ENDBRANCH  24  25
ENDBRANCH  23  24
ENDBRANCH  22  23
ENDBRANCH  21  22
ENDBRANCH  20  21
ENDBRANCH  19  20
ENDBRANCH  18  19
ENDBRANCH  17  18
ENDBRANCH  16  17
ENDBRANCH  15  16
ENDBRANCH   1  15
TORSDOF 22
ENDMDL
MODEL 3
REMARK VINA RESULT:    -4.106      3.561      7.883
REMARK INTER + INTRA:         -13.137
REMARK INTER:                 -10.427
REMARK INTRA:                  -2.710
REMARK UNBOUND:                -3.749
REMARK SMILES CCCCCCCCCCCCCCCCCCCCCCCC(=O)[O-]
REMARK SMILES IDX 13 1 14 2 15 3 16 4 17 5 18 6 19 7 20 8 21 9 22 10 23 11
REMARK SMILES IDX 24 12 25 13 26 14 12 15 11 16 10 17 9 18 8 19 7 20 6 21 5 22
REMARK SMILES IDX 4 23 3 24 2 25 1 26
REMARK H PARENT
REMARK Flexibility Score: inf
ROOT
ATOM      1  C   UNL     1      46.745   6.901  19.782  1.00  0.00     0.000 C 
ENDROOT
BRANCH   1   2
ATOM      2  C   UNL     1      46.296   7.953  18.760  1.00  0.00     0.000 C 
BRANCH   2   3
ATOM      3  C   UNL     1      44.989   8.627  19.206  1.00  0.00     0.000 C 
BRANCH   3   4
ATOM      4  C   UNL     1      44.901  10.108  18.795  1.00  0.00     0.000 C 
BRANCH   4   5
ATOM      5  C   UNL     1      46.064  10.618  17.921  1.00  0.00     0.000 C 
BRANCH   5   6
ATOM      6  C   UNL     1      45.685  10.755  16.437  1.00  0.00     0.000 C 
BRANCH   6   7
ATOM      7  C   UNL     1      46.427   9.751  15.537  1.00  0.00     0.000 C 
BRANCH   7   8
ATOM      8  C   UNL     1      45.522   8.789  14.741  1.00  0.00     0.000 C 
BRANCH   8   9
ATOM      9  C   UNL     1      44.810   7.709  15.580  1.00  0.00     0.000 C 
BRANCH   9  10
ATOM     10  C   UNL     1      45.149   6.257  15.200  1.00  0.00     0.006 C 
BRANCH  10  11
ATOM     11  C   UNL     1      46.428   6.142  14.360  1.00  0.00     0.053 C 
BRANCH  11  12
ATOM     12  C   UNL     1      47.500   5.428  15.123  1.00  0.00     0.041 C 
ATOM     13  O   UNL     1      48.359   4.740  14.511  1.00  0.00    -0.550 OA
ATOM     14  O   UNL     1      47.533   5.497  16.510  1.00  0.00    -0.550 OA
ENDBRANCH  11  12
ENDBRANCH  10  11
ENDBRANCH   9  10
ENDBRANCH   8   9
ENDBRANCH   7   8
ENDBRANCH   6   7
ENDBRANCH   5   6
ENDBRANCH   4   5
ENDBRANCH   3   4
ENDBRANCH   2   3
ENDBRANCH   1   2
BRANCH   1  15
ATOM     15  C   UNL     1      46.518   7.395  21.220  1.00  0.00     0.000 C 
BRANCH  15  16
ATOM     16  C   UNL     1      47.750   7.207  22.118  1.00  0.00     0.000 C 
BRANCH  16  17
ATOM     17  C   UNL     1      48.185   8.455  22.909  1.00  0.00     0.000 C 
BRANCH  17  18
ATOM     18  C   UNL     1      47.431   9.745  22.521  1.00  0.00    -0.000 C 
BRANCH  18  19
ATOM     19  C   UNL     1      46.561  10.290  23.670  1.00  0.00    -0.000 C 
BRANCH  19  20
ATOM     20  C   UNL     1      45.364  11.117  23.169  1.00  0.00    -0.000 C 
BRANCH  20  21
ATOM     21  C   UNL     1      44.232  10.294  22.521  1.00  0.00    -0.000 C 
BRANCH  21  22
ATOM     22  C   UNL     1      43.879   9.005  23.293  1.00  0.00    -0.000 C 
BRANCH  22  23
ATOM     23  C   UNL     1      43.580   9.278  24.779  1.00  0.00    -0.000 C 
BRANCH  23  24
ATOM     24  C   UNL     1      42.578  10.429  24.988  1.00  0.00    -0.000 C 
BRANCH  24  25
ATOM     25  C   UNL     1      41.113   9.989  25.143  1.00  0.00    -0.003 C 
ATOM     26  C   UNL     1      40.121  11.030  24.627  1.00  0.00     0.004 C 
ENDBRANCH  24  25
ENDBRANCH  23  24
ENDBRANCH  22  23
ENDBRANCH  21  22
ENDBRANCH  20  21
ENDBRANCH  19  20
ENDBRANCH  18  19
ENDBRANCH  17  18
ENDBRANCH  16  17
ENDBRANCH  15  16
ENDBRANCH   1  15
TORSDOF 22
ENDMDL
MODEL 4
REMARK VINA RESULT:    -3.784      1.346      3.092
REMARK INTER + INTRA:         -12.400
REMARK INTER:                  -9.383
REMARK INTRA:                  -3.017
REMARK UNBOUND:                -3.749
REMARK SMILES CCCCCCCCCCCCCCCCCCCCCCCC(=O)[O-]
REMARK SMILES IDX 13 1 14 2 15 3 16 4 17 5 18 6 19 7 20 8 21 9 22 10 23 11
REMARK SMILES IDX 24 12 25 13 26 14 12 15 11 16 10 17 9 18 8 19 7 20 6 21 5 22
REMARK SMILES IDX 4 23 3 24 2 25 1 26
REMARK H PARENT
REMARK Flexibility Score: inf
ROOT
ATOM      1  C   UNL     1      46.609   6.810  20.031  1.00  0.00     0.000 C 
ENDROOT
BRANCH   1   2
ATOM      2  C   UNL     1      46.602   7.439  21.430  1.00  0.00     0.000 C 
BRANCH   2   3
ATOM      3  C   UNL     1      47.964   7.258  22.118  1.00  0.00     0.000 C 
BRANCH   3   4
ATOM      4  C   UNL     1      48.392   8.486  22.942  1.00  0.00     0.000 C 
BRANCH   4   5
ATOM      5  C   UNL     1      47.239   9.292  23.570  1.00  0.00     0.000 C 
BRANCH   5   6
ATOM      6  C   UNL     1      47.192  10.751  23.087  1.00  0.00     0.000 C 
BRANCH   6   7
ATOM      7  C   UNL     1      46.236  10.955  21.897  1.00  0.00     0.000 C 
BRANCH   7   8
ATOM      8  C   UNL     1      44.746  11.093  22.268  1.00  0.00     0.000 C 
BRANCH   8   9
ATOM      9  C   UNL     1      43.916   9.799  22.156  1.00  0.00     0.000 C 
BRANCH   9  10
ATOM     10  C   UNL     1      43.277   9.317  23.471  1.00  0.00     0.006 C 
BRANCH  10  11
ATOM     11  C   UNL     1      42.948  10.467  24.432  1.00  0.00     0.053 C 
BRANCH  11  12
ATOM     12  C   UNL     1      41.570  10.306  24.996  1.00  0.00     0.041 C 
ATOM     13  O   UNL     1      41.379   9.555  25.989  1.00  0.00    -0.550 OA
ATOM     14  O   UNL     1      40.495  10.961  24.409  1.00  0.00    -0.550 OA
ENDBRANCH  11  12
ENDBRANCH  10  11
ENDBRANCH   9  10
ENDBRANCH   8   9
ENDBRANCH   7   8
ENDBRANCH   6   7
ENDBRANCH   5   6
ENDBRANCH   4   5
ENDBRANCH   3   4
ENDBRANCH   2   3
ENDBRANCH   1   2
BRANCH   1  15
ATOM     15  C   UNL     1      46.142   7.818  18.969  1.00  0.00     0.000 C 
BRANCH  15  16
ATOM     16  C   UNL     1      44.644   8.146  19.074  1.00  0.00     0.000 C 
BRANCH  16  17
ATOM     17  C   UNL     1      44.273   9.620  18.823  1.00  0.00     0.000 C 
BRANCH  17  18
ATOM     18  C   UNL     1      45.281  10.384  17.937  1.00  0.00    -0.000 C 
BRANCH  18  19
ATOM     19  C   UNL     1      44.720  10.697  16.538  1.00  0.00    -0.000 C 
BRANCH  19  20
ATOM     20  C   UNL     1      45.824  10.976  15.503  1.00  0.00    -0.000 C 
BRANCH  20  21
ATOM     21  C   UNL     1      46.735   9.773  15.184  1.00  0.00    -0.000 C 
BRANCH  21  22
ATOM     22  C   UNL     1      46.367   9.044  13.875  1.00  0.00    -0.000 C 
BRANCH  22  23
ATOM     23  C   UNL     1      46.025   7.560  14.110  1.00  0.00    -0.000 C 
BRANCH  23  24
ATOM     24  C   UNL     1      45.406   7.299  15.496  1.00  0.00    -0.000 C 
BRANCH  24  25
ATOM     25  C   UNL     1      44.111   6.471  15.480  1.00  0.00    -0.003 C 
ATOM     26  C   UNL     1      43.235   6.761  14.262  1.00  0.00     0.004 C 
ENDBRANCH  24  25
ENDBRANCH  23  24
ENDBRANCH  22  23
ENDBRANCH  21  22
ENDBRANCH  20  21
ENDBRANCH  19  20
ENDBRANCH  18  19
ENDBRANCH  17  18
ENDBRANCH  16  17
ENDBRANCH  15  16
ENDBRANCH   1  15
TORSDOF 22
ENDMDL
MODEL 5
REMARK VINA RESULT:    -3.443      4.541      7.009
REMARK INTER + INTRA:         -11.621
REMARK INTER:                 -10.190
REMARK INTRA:                  -1.431
REMARK UNBOUND:                -3.749
REMARK SMILES CCCCCCCCCCCCCCCCCCCCCCCC(=O)[O-]
REMARK SMILES IDX 13 1 14 2 15 3 16 4 17 5 18 6 19 7 20 8 21 9 22 10 23 11
REMARK SMILES IDX 24 12 25 13 26 14 12 15 11 16 10 17 9 18 8 19 7 20 6 21 5 22
REMARK SMILES IDX 4 23 3 24 2 25 1 26
REMARK H PARENT
REMARK Flexibility Score: inf
ROOT
ATOM      1  C   UNL     1      46.975   6.793  17.124  1.00  0.00     0.000 C 
ENDROOT
BRANCH   1   2
ATOM      2  C   UNL     1      47.087   8.133  16.387  1.00  0.00     0.000 C 
BRANCH   2   3
ATOM      3  C   UNL     1      45.799   8.954  16.545  1.00  0.00     0.000 C 
BRANCH   3   4
ATOM      4  C   UNL     1      45.919  10.070  17.599  1.00  0.00     0.000 C 
BRANCH   4   5
ATOM      5  C   UNL     1      44.654  10.928  17.796  1.00  0.00     0.000 C 
BRANCH   5   6
ATOM      6  C   UNL     1      43.662  10.314  18.798  1.00  0.00     0.000 C 
BRANCH   6   7
ATOM      7  C   UNL     1      44.204   9.041  19.472  1.00  0.00     0.000 C 
BRANCH   7   8
ATOM      8  C   UNL     1      44.074   9.005  21.008  1.00  0.00     0.000 C 
BRANCH   8   9
ATOM      9  C   UNL     1      45.400   8.838  21.778  1.00  0.00     0.000 C 
BRANCH   9  10
ATOM     10  C   UNL     1      46.611   8.444  20.914  1.00  0.00     0.006 C 
BRANCH  10  11
ATOM     11  C   UNL     1      47.073   7.000  21.156  1.00  0.00     0.053 C 
BRANCH  11  12
ATOM     12  C   UNL     1      48.043   6.940  22.295  1.00  0.00     0.041 C 
ATOM     13  O   UNL     1      48.346   5.830  22.808  1.00  0.00    -0.550 OA
ATOM     14  O   UNL     1      48.591   8.109  22.808  1.00  0.00    -0.550 OA
ENDBRANCH  11  12
ENDBRANCH  10  11
ENDBRANCH   9  10
ENDBRANCH   8   9
ENDBRANCH   7   8
ENDBRANCH   6   7
ENDBRANCH   5   6
ENDBRANCH   4   5
ENDBRANCH   3   4
ENDBRANCH   2   3
ENDBRANCH   1   2
BRANCH   1  15
ATOM     15  C   UNL     1      47.078   5.612  16.145  1.00  0.00     0.000 C 
BRANCH  15  16
ATOM     16  C   UNL     1      46.805   6.018  14.688  1.00  0.00     0.000 C 
BRANCH  16  17
ATOM     17  C   UNL     1      45.944   5.028  13.879  1.00  0.00     0.000 C 
BRANCH  17  18
ATOM     18  C   UNL     1      46.477   3.579  13.878  1.00  0.00    -0.000 C 
BRANCH  18  19
ATOM     19  C   UNL     1      45.347   2.533  13.875  1.00  0.00    -0.000 C 
BRANCH  19  20
ATOM     20  C   UNL     1      45.872   1.090  13.967  1.00  0.00    -0.000 C 
BRANCH  20  21
ATOM     21  C   UNL     1      44.874   0.072  14.553  1.00  0.00    -0.000 C 
BRANCH  21  22
ATOM     22  C   UNL     1      45.538  -1.038  15.396  1.00  0.00    -0.000 C 
BRANCH  22  23
ATOM     23  C   UNL     1      45.706  -2.350  14.606  1.00  0.00    -0.000 C 
BRANCH  23  24
ATOM     24  C   UNL     1      46.585  -3.381  15.338  1.00  0.00    -0.000 C 
BRANCH  24  25
ATOM     25  C   UNL     1      47.362  -2.827  16.544  1.00  0.00    -0.003 C 
ATOM     26  C   UNL     1      48.385  -3.817  17.097  1.00  0.00     0.004 C 
ENDBRANCH  24  25
ENDBRANCH  23  24
ENDBRANCH  22  23
ENDBRANCH  21  22
ENDBRANCH  20  21
ENDBRANCH  19  20
ENDBRANCH  18  19
ENDBRANCH  17  18
ENDBRANCH  16  17
ENDBRANCH  15  16
ENDBRANCH   1  15
TORSDOF 22
ENDMDL
MODEL 6
REMARK VINA RESULT:    -3.427      3.469      7.766
REMARK INTER + INTRA:         -11.583
REMARK INTER:                  -9.316
REMARK INTRA:                  -2.266
REMARK UNBOUND:                -3.749
REMARK SMILES CCCCCCCCCCCCCCCCCCCCCCCC(=O)[O-]
REMARK SMILES IDX 13 1 14 2 15 3 16 4 17 5 18 6 19 7 20 8 21 9 22 10 23 11
REMARK SMILES IDX 24 12 25 13 26 14 12 15 11 16 10 17 9 18 8 19 7 20 6 21 5 22
REMARK SMILES IDX 4 23 3 24 2 25 1 26
REMARK H PARENT
REMARK Flexibility Score: inf
ROOT
ATOM      1  C   UNL     1      47.670   6.335  21.544  1.00  0.00     0.000 C 
ENDROOT
BRANCH   1   2
ATOM      2  C   UNL     1      46.780   6.411  20.297  1.00  0.00     0.000 C 
BRANCH   2   3
ATOM      3  C   UNL     1      46.278   7.846  20.070  1.00  0.00     0.000 C 
BRANCH   3   4
ATOM      4  C   UNL     1      45.939   8.141  18.598  1.00  0.00     0.000 C 
BRANCH   4   5
ATOM      5  C   UNL     1      44.636   8.931  18.368  1.00  0.00     0.000 C 
BRANCH   5   6
ATOM      6  C   UNL     1      44.593   9.636  17.003  1.00  0.00     0.000 C 
BRANCH   6   7
ATOM      7  C   UNL     1      45.945   9.598  16.268  1.00  0.00     0.000 C 
BRANCH   7   8
ATOM      8  C   UNL     1      45.862   9.326  14.753  1.00  0.00     0.000 C 
BRANCH   8   9
ATOM      9  C   UNL     1      46.205   7.885  14.322  1.00  0.00     0.000 C 
BRANCH   9  10
ATOM     10  C   UNL     1      45.169   6.820  14.722  1.00  0.00     0.006 C 
BRANCH  10  11
ATOM     11  C   UNL     1      45.755   5.402  14.764  1.00  0.00     0.053 C 
BRANCH  11  12
ATOM     12  C   UNL     1      47.146   5.422  15.316  1.00  0.00     0.041 C 
ATOM     13  O   UNL     1      47.348   5.771  16.509  1.00  0.00    -0.550 OA
ATOM     14  O   UNL     1      48.223   5.083  14.505  1.00  0.00    -0.550 OA
ENDBRANCH  11  12
ENDBRANCH  10  11
ENDBRANCH   9  10
ENDBRANCH   8   9
ENDBRANCH   7   8
ENDBRANCH   6   7
ENDBRANCH   5   6
ENDBRANCH   4   5
ENDBRANCH   3   4
ENDBRANCH   2   3
ENDBRANCH   1   2
BRANCH   1  15
ATOM     15  C   UNL     1      47.352   7.479  22.521  1.00  0.00     0.000 C 
BRANCH  15  16
ATOM     16  C   UNL     1      48.606   8.237  22.982  1.00  0.00     0.000 C 
BRANCH  16  17
ATOM     17  C   UNL     1      48.435   9.761  23.136  1.00  0.00     0.000 C 
BRANCH  17  18
ATOM     18  C   UNL     1      47.013  10.199  23.548  1.00  0.00    -0.000 C 
BRANCH  18  19
ATOM     19  C   UNL     1      46.355  11.124  22.507  1.00  0.00    -0.000 C 
BRANCH  19  20
ATOM     20  C   UNL     1      45.347  10.387  21.608  1.00  0.00    -0.000 C 
BRANCH  20  21
ATOM     21  C   UNL     1      43.936  10.229  22.209  1.00  0.00    -0.000 C 
BRANCH  21  22
ATOM     22  C   UNL     1      43.727   8.900  22.967  1.00  0.00    -0.000 C 
BRANCH  22  23
ATOM     23  C   UNL     1      44.012   9.036  24.474  1.00  0.00    -0.000 C 
BRANCH  23  24
ATOM     24  C   UNL     1      43.072  10.035  25.174  1.00  0.00    -0.000 C 
BRANCH  24  25
ATOM     25  C   UNL     1      41.583   9.651  25.142  1.00  0.00    -0.003 C 
ATOM     26  C   UNL     1      40.676  10.817  24.754  1.00  0.00     0.004 C 
ENDBRANCH  24  25
ENDBRANCH  23  24
ENDBRANCH  22  23
ENDBRANCH  21  22
ENDBRANCH  20  21
ENDBRANCH  19  20
ENDBRANCH  18  19
ENDBRANCH  17  18
ENDBRANCH  16  17
ENDBRANCH  15  16
ENDBRANCH   1  15
TORSDOF 22
ENDMDL
MODEL 7
REMARK VINA RESULT:    -3.399      3.189      7.860
REMARK INTER + INTRA:         -11.519
REMARK INTER:                  -9.199
REMARK INTRA:                  -2.320
REMARK UNBOUND:                -3.749
REMARK SMILES CCCCCCCCCCCCCCCCCCCCCCCC(=O)[O-]
REMARK SMILES IDX 13 1 14 2 15 3 16 4 17 5 18 6 19 7 20 8 21 9 22 10 23 11
REMARK SMILES IDX 24 12 25 13 26 14 12 15 11 16 10 17 9 18 8 19 7 20 6 21 5 22
REMARK SMILES IDX 4 23 3 24 2 25 1 26
REMARK H PARENT
REMARK Flexibility Score: inf
ROOT
ATOM      1  C   UNL     1      47.122   6.948  20.731  1.00  0.00     0.000 C 
ENDROOT
BRANCH   1   2
ATOM      2  C   UNL     1      45.744   7.586  20.516  1.00  0.00     0.000 C 
BRANCH   2   3
ATOM      3  C   UNL     1      45.616   8.142  19.089  1.00  0.00     0.000 C 
BRANCH   3   4
ATOM      4  C   UNL     1      46.751   7.679  18.156  1.00  0.00     0.000 C 
BRANCH   4   5
ATOM      5  C   UNL     1      46.354   6.614  17.116  1.00  0.00     0.000 C 
BRANCH   5   6
ATOM      6  C   UNL     1      47.475   5.598  16.839  1.00  0.00     0.000 C 
BRANCH   6   7
ATOM      7  C   UNL     1      47.501   5.123  15.375  1.00  0.00     0.000 C 
BRANCH   7   8
ATOM      8  C   UNL     1      46.927   6.122  14.350  1.00  0.00     0.000 C 
BRANCH   8   9
ATOM      9  C   UNL     1      45.388   6.181  14.278  1.00  0.00     0.000 C 
BRANCH   9  10
ATOM     10  C   UNL     1      44.794   7.596  14.161  1.00  0.00     0.006 C 
BRANCH  10  11
ATOM     11  C   UNL     1      45.858   8.672  13.907  1.00  0.00     0.053 C 
BRANCH  11  12
ATOM     12  C   UNL     1      45.961   9.600  15.078  1.00  0.00     0.041 C 
ATOM     13  O   UNL     1      47.047  10.192  15.319  1.00  0.00    -0.550 OA
ATOM     14  O   UNL     1      44.871   9.788  15.917  1.00  0.00    -0.550 OA
ENDBRANCH  11  12
ENDBRANCH  10  11
ENDBRANCH   9  10
ENDBRANCH   8   9
ENDBRANCH   7   8
ENDBRANCH   6   7
ENDBRANCH   5   6
ENDBRANCH   4   5
ENDBRANCH   3   4
ENDBRANCH   2   3
ENDBRANCH   1   2
BRANCH   1  15
ATOM     15  C   UNL     1      47.594   7.129  22.183  1.00  0.00     0.000 C 
BRANCH  15  16
ATOM     16  C   UNL     1      48.042   8.567  22.491  1.00  0.00     0.000 C 
BRANCH  16  17
ATOM     17  C   UNL     1      47.147   9.337  23.481  1.00  0.00     0.000 C 
BRANCH  17  18
ATOM     18  C   UNL     1      46.802  10.774  23.035  1.00  0.00    -0.000 C 
BRANCH  18  19
ATOM     19  C   UNL     1      46.530  10.876  21.523  1.00  0.00    -0.000 C 
BRANCH  19  20
ATOM     20  C   UNL     1      45.046  11.125  21.201  1.00  0.00    -0.000 C 
BRANCH  20  21
ATOM     21  C   UNL     1      44.093  11.023  22.408  1.00  0.00    -0.000 C 
BRANCH  21  22
ATOM     22  C   UNL     1      43.750   9.573  22.810  1.00  0.00    -0.000 C 
BRANCH  22  23
ATOM     23  C   UNL     1      42.918   9.507  24.105  1.00  0.00    -0.000 C 
BRANCH  23  24
ATOM     24  C   UNL     1      43.311  10.591  25.126  1.00  0.00    -0.000 C 
BRANCH  24  25
ATOM     25  C   UNL     1      44.632  10.330  25.869  1.00  0.00    -0.003 C 
ATOM     26  C   UNL     1      44.810   8.866  26.268  1.00  0.00     0.004 C 
ENDBRANCH  24  25
ENDBRANCH  23  24
ENDBRANCH  22  23
ENDBRANCH  21  22
ENDBRANCH  20  21
ENDBRANCH  19  20
ENDBRANCH  18  19
ENDBRANCH  17  18
ENDBRANCH  16  17
ENDBRANCH  15  16
ENDBRANCH   1  15
TORSDOF 22
ENDMDL
MODEL 8
REMARK VINA RESULT:    -3.313      3.665      8.401
REMARK INTER + INTRA:         -11.323
REMARK INTER:                  -8.641
REMARK INTRA:                  -2.681
REMARK UNBOUND:                -3.749
REMARK SMILES CCCCCCCCCCCCCCCCCCCCCCCC(=O)[O-]
REMARK SMILES IDX 13 1 14 2 15 3 16 4 17 5 18 6 19 7 20 8 21 9 22 10 23 11
REMARK SMILES IDX 24 12 25 13 26 14 12 15 11 16 10 17 9 18 8 19 7 20 6 21 5 22
REMARK SMILES IDX 4 23 3 24 2 25 1 26
REMARK H PARENT
REMARK Flexibility Score: inf
ROOT
ATOM      1  C   UNL     1      43.753   9.301  21.625  1.00  0.00     0.000 C 
ENDROOT
BRANCH   1   2
ATOM      2  C   UNL     1      44.032  10.798  21.439  1.00  0.00     0.000 C 
BRANCH   2   3
ATOM      3  C   UNL     1      44.502  11.093  20.006  1.00  0.00     0.000 C 
BRANCH   3   4
ATOM      4  C   UNL     1      44.305   9.903  19.048  1.00  0.00     0.000 C 
BRANCH   4   5
ATOM      5  C   UNL     1      43.304  10.141  17.901  1.00  0.00     0.000 C 
BRANCH   5   6
ATOM      6  C   UNL     1      43.915   9.899  16.511  1.00  0.00     0.000 C 
BRANCH   6   7
ATOM      7  C   UNL     1      44.652   8.551  16.409  1.00  0.00     0.000 C 
BRANCH   7   8
ATOM      8  C   UNL     1      45.888   8.547  15.487  1.00  0.00     0.000 C 
BRANCH   8   9
ATOM      9  C   UNL     1      45.832   7.547  14.315  1.00  0.00     0.000 C 
BRANCH   9  10
ATOM     10  C   UNL     1      45.280   6.155  14.669  1.00  0.00     0.006 C 
BRANCH  10  11
ATOM     11  C   UNL     1      46.043   5.015  13.981  1.00  0.00     0.053 C 
BRANCH  11  12
ATOM     12  C   UNL     1      47.371   4.797  14.636  1.00  0.00     0.041 C 
ATOM     13  O   UNL     1      48.270   4.147  14.039  1.00  0.00    -0.550 OA
ATOM     14  O   UNL     1      47.606   5.284  15.916  1.00  0.00    -0.550 OA
ENDBRANCH  11  12
ENDBRANCH  10  11
ENDBRANCH   9  10
ENDBRANCH   8   9
ENDBRANCH   7   8
ENDBRANCH   6   7
ENDBRANCH   5   6
ENDBRANCH   4   5
ENDBRANCH   3   4
ENDBRANCH   2   3
ENDBRANCH   1   2
BRANCH   1  15
ATOM     15  C   UNL     1      43.807   8.909  23.111  1.00  0.00     0.000 C 
BRANCH  15  16
ATOM     16  C   UNL     1      43.226   9.990  24.036  1.00  0.00     0.000 C 
BRANCH  16  17
ATOM     17  C   UNL     1      43.843  10.050  25.446  1.00  0.00     0.000 C 
BRANCH  17  18
ATOM     18  C   UNL     1      45.028  11.030  25.577  1.00  0.00    -0.000 C 
BRANCH  18  19
ATOM     19  C   UNL     1      46.325  10.477  24.958  1.00  0.00    -0.000 C 
BRANCH  19  20
ATOM     20  C   UNL     1      46.655  11.117  23.598  1.00  0.00    -0.000 C 
BRANCH  20  21
ATOM     21  C   UNL     1      47.511  10.243  22.659  1.00  0.00    -0.000 C 
BRANCH  21  22
ATOM     22  C   UNL     1      47.855   8.856  23.243  1.00  0.00    -0.000 C 
BRANCH  22  23
ATOM     23  C   UNL     1      46.925   7.750  22.709  1.00  0.00    -0.000 C 
BRANCH  23  24
ATOM     24  C   UNL     1      47.381   7.188  21.350  1.00  0.00    -0.000 C 
BRANCH  24  25
ATOM     25  C   UNL     1      46.539   7.645  20.147  1.00  0.00    -0.003 C 
ATOM     26  C   UNL     1      46.730   6.761  18.916  1.00  0.00     0.004 C 
ENDBRANCH  24  25
ENDBRANCH  23  24
ENDBRANCH  22  23
ENDBRANCH  21  22
ENDBRANCH  20  21
ENDBRANCH  19  20
ENDBRANCH  18  19
ENDBRANCH  17  18
ENDBRANCH  16  17
ENDBRANCH  15  16
ENDBRANCH   1  15
TORSDOF 22
ENDMDL
MODEL 9
REMARK VINA RESULT:    -3.261      3.053      7.837
REMARK INTER + INTRA:         -11.204
REMARK INTER:                  -8.675
REMARK INTRA:                  -2.528
REMARK UNBOUND:                -3.749
REMARK SMILES CCCCCCCCCCCCCCCCCCCCCCCC(=O)[O-]
REMARK SMILES IDX 13 1 14 2 15 3 16 4 17 5 18 6 19 7 20 8 21 9 22 10 23 11
REMARK SMILES IDX 24 12 25 13 26 14 12 15 11 16 10 17 9 18 8 19 7 20 6 21 5 22
REMARK SMILES IDX 4 23 3 24 2 25 1 26
REMARK H PARENT
REMARK Flexibility Score: inf
ROOT
ATOM      1  C   UNL     1      46.745   6.201  18.927  1.00  0.00     0.000 C 
ENDROOT
BRANCH   1   2
ATOM      2  C   UNL     1      46.428   6.811  17.556  1.00  0.00     0.000 C 
BRANCH   2   3
ATOM      3  C   UNL     1      47.522   6.461  16.536  1.00  0.00     0.000 C 
BRANCH   3   4
ATOM      4  C   UNL     1      46.968   6.185  15.126  1.00  0.00     0.000 C 
BRANCH   4   5
ATOM      5  C   UNL     1      45.745   5.250  15.072  1.00  0.00     0.000 C 
BRANCH   5   6
ATOM      6  C   UNL     1      44.594   5.815  14.222  1.00  0.00     0.000 C 
BRANCH   6   7
ATOM      7  C   UNL     1      44.704   7.334  14.003  1.00  0.00     0.000 C 
BRANCH   7   8
ATOM      8  C   UNL     1      43.741   8.191  14.849  1.00  0.00     0.000 C 
BRANCH   8   9
ATOM      9  C   UNL     1      44.200   8.465  16.295  1.00  0.00     0.000 C 
BRANCH   9  10
ATOM     10  C   UNL     1      43.915   9.887  16.812  1.00  0.00     0.006 C 
BRANCH  10  11
ATOM     11  C   UNL     1      44.772  10.957  16.123  1.00  0.00     0.053 C 
BRANCH  11  12
ATOM     12  C   UNL     1      46.229  10.686  16.337  1.00  0.00     0.041 C 
ATOM     13  O   UNL     1      46.754  10.908  17.460  1.00  0.00    -0.550 OA
ATOM     14  O   UNL     1      47.012  10.216  15.290  1.00  0.00    -0.550 OA
ENDBRANCH  11  12
ENDBRANCH  10  11
ENDBRANCH   9  10
ENDBRANCH   8   9
ENDBRANCH   7   8
ENDBRANCH   6   7
ENDBRANCH   5   6
ENDBRANCH   4   5
ENDBRANCH   3   4
ENDBRANCH   2   3
ENDBRANCH   1   2
BRANCH   1  15
ATOM     15  C   UNL     1      46.737   7.276  20.026  1.00  0.00     0.000 C 
BRANCH  15  16
ATOM     16  C   UNL     1      45.964   8.540  19.621  1.00  0.00     0.000 C 
BRANCH  16  17
ATOM     17  C   UNL     1      44.552   8.671  20.223  1.00  0.00     0.000 C 
BRANCH  17  18
ATOM     18  C   UNL     1      44.465   9.627  21.432  1.00  0.00    -0.000 C 
BRANCH  18  19
ATOM     19  C   UNL     1      45.841  10.174  21.853  1.00  0.00    -0.000 C 
BRANCH  19  20
ATOM     20  C   UNL     1      46.299   9.645  23.224  1.00  0.00    -0.000 C 
BRANCH  20  21
ATOM     21  C   UNL     1      45.348   8.620  23.874  1.00  0.00    -0.000 C 
BRANCH  21  22
ATOM     22  C   UNL     1      45.034   8.916  25.356  1.00  0.00    -0.000 C 
BRANCH  22  23
ATOM     23  C   UNL     1      44.558  10.365  25.574  1.00  0.00    -0.000 C 
BRANCH  23  24
ATOM     24  C   UNL     1      43.258  10.690  24.814  1.00  0.00    -0.000 C 
BRANCH  24  25
ATOM     25  C   UNL     1      42.064   9.787  25.164  1.00  0.00    -0.003 C 
ATOM     26  C   UNL     1      40.716  10.452  24.892  1.00  0.00     0.004 C 
ENDBRANCH  24  25
ENDBRANCH  23  24
ENDBRANCH  22  23
ENDBRANCH  21  22
ENDBRANCH  20  21
ENDBRANCH  19  20
ENDBRANCH  18  19
ENDBRANCH  17  18
ENDBRANCH  16  17
ENDBRANCH  15  16
ENDBRANCH   1  15
TORSDOF 22
ENDMDL
