MODEL 1
REMARK VINA RESULT:    -4.369      0.000      0.000
REMARK INTER + INTRA:          -4.765
REMARK INTER:                  -4.752
REMARK INTRA:                  -0.013
REMARK UNBOUND:                -0.013
REMARK SMILES OCc1ccco1
REMARK SMILES IDX 2 1 3 2 5 3 6 4 4 5 7 6 1 7
REMARK H PARENT 1 8
REMARK Flexibility Score: inf
ROOT
ATOM      1  C   UNL     1      53.201  62.361  43.260  1.00  0.00     0.231 C 
ENDROOT
BRANCH   1   2
ATOM      2  C   UNL     1      52.378  61.577  42.293  1.00  0.00     0.129 A 
ATOM      3  C   UNL     1      51.697  60.045  40.875  1.00  0.00     0.042 A 
ATOM      4  C   UNL     1      50.767  61.058  40.998  1.00  0.00     0.195 A 
ATOM      5  C   UNL     1      52.740  60.380  41.709  1.00  0.00     0.048 A 
ATOM      6  O   UNL     1      51.203  61.958  41.848  1.00  0.00    -0.467 OA
ENDBRANCH   1   2
BRANCH   1   7
ATOM      7  O   UNL     1      53.262  61.676  44.478  1.00  0.00    -0.388 OA
ATOM      8  H   UNL     1      52.379  61.804  44.911  1.00  0.00     0.211 HD
ENDBRANCH   1   7
TORSDOF 2
ENDMDL
MODEL 2
REMARK VINA RESULT:    -3.730      1.248      2.939
REMARK INTER + INTRA:          -4.070
REMARK INTER:                  -4.055
REMARK INTRA:                  -0.015
REMARK UNBOUND:                -0.013
REMARK SMILES OCc1ccco1
REMARK SMILES IDX 2 1 3 2 5 3 6 4 4 5 7 6 1 7
REMARK H PARENT 1 8
REMARK Flexibility Score: inf
ROOT
ATOM      1  C   UNL     1      50.190  62.188  40.888  1.00  0.00     0.231 C 
ENDROOT
BRANCH   1   2
ATOM      2  C   UNL     1      51.368  61.572  41.565  1.00  0.00     0.129 A 
ATOM      3  C   UNL     1      52.975  60.188  42.137  1.00  0.00     0.042 A 
ATOM      4  C   UNL     1      52.955  61.295  42.961  1.00  0.00     0.195 A 
ATOM      5  C   UNL     1      51.949  60.363  41.235  1.00  0.00     0.048 A 
ATOM      6  O   UNL     1      51.984  62.100  42.598  1.00  0.00    -0.467 OA
ENDBRANCH   1   2
BRANCH   1   7
ATOM      7  O   UNL     1      49.132  61.272  40.875  1.00  0.00    -0.388 OA
ATOM      8  H   UNL     1      48.418  61.669  41.437  1.00  0.00     0.211 HD
ENDBRANCH   1   7
TORSDOF 2
ENDMDL
MODEL 3
REMARK VINA RESULT:    -3.265     15.878     16.872
REMARK INTER + INTRA:          -3.565
REMARK INTER:                  -3.551
REMARK INTRA:                  -0.013
REMARK UNBOUND:                -0.013
REMARK SMILES OCc1ccco1
REMARK SMILES IDX 2 1 3 2 5 3 6 4 4 5 7 6 1 7
REMARK H PARENT 1 8
REMARK Flexibility Score: inf
ROOT
ATOM      1  C   UNL     1      43.068  45.347  41.659  1.00  0.00     0.231 C 
ENDROOT
BRANCH   1   2
ATOM      2  C   UNL     1      43.455  46.787  41.701  1.00  0.00     0.129 A 
ATOM      3  C   UNL     1      43.378  48.981  41.737  1.00  0.00     0.042 A 
ATOM      4  C   UNL     1      44.682  48.530  41.694  1.00  0.00     0.195 A 
ATOM      5  C   UNL     1      42.583  47.856  41.738  1.00  0.00     0.048 A 
ATOM      6  O   UNL     1      44.696  47.218  41.669  1.00  0.00    -0.467 OA
ENDBRANCH   1   2
BRANCH   1   7
ATOM      7  O   UNL     1      42.823  44.895  42.961  1.00  0.00    -0.388 OA
ATOM      8  H   UNL     1      42.162  44.159  42.877  1.00  0.00     0.211 HD
ENDBRANCH   1   7
TORSDOF 2
ENDMDL
MODEL 4
REMARK VINA RESULT:    -3.265     14.763     15.546
REMARK INTER + INTRA:          -3.564
REMARK INTER:                  -3.547
REMARK INTRA:                  -0.018
REMARK UNBOUND:                -0.013
REMARK SMILES OCc1ccco1
REMARK SMILES IDX 2 1 3 2 5 3 6 4 4 5 7 6 1 7
REMARK H PARENT 1 8
REMARK Flexibility Score: inf
ROOT
ATOM      1  C   UNL     1      44.984  60.962  55.152  1.00  0.00     0.231 C 
ENDROOT
BRANCH   1   2
ATOM      2  C   UNL     1      44.747  62.395  55.491  1.00  0.00     0.129 A 
ATOM      3  C   UNL     1      44.236  64.527  55.360  1.00  0.00     0.042 A 
ATOM      4  C   UNL     1      44.712  64.206  56.615  1.00  0.00     0.195 A 
ATOM      5  C   UNL     1      44.260  63.359  54.631  1.00  0.00     0.048 A 
ATOM      6  O   UNL     1      45.012  62.929  56.662  1.00  0.00    -0.467 OA
ENDBRANCH   1   2
BRANCH   1   7
ATOM      7  O   UNL     1      46.350  60.678  55.269  1.00  0.00    -0.388 OA
ATOM      8  H   UNL     1      46.748  60.873  54.381  1.00  0.00     0.211 HD
ENDBRANCH   1   7
TORSDOF 2
ENDMDL
MODEL 5
REMARK VINA RESULT:    -3.244     20.231     20.804
REMARK INTER + INTRA:          -3.541
REMARK INTER:                  -3.528
REMARK INTRA:                  -0.013
REMARK UNBOUND:                -0.013
REMARK SMILES OCc1ccco1
REMARK SMILES IDX 2 1 3 2 5 3 6 4 4 5 7 6 1 7
REMARK H PARENT 1 8
REMARK Flexibility Score: inf
ROOT
ATOM      1  C   UNL     1      49.024  46.097  57.375  1.00  0.00     0.231 C 
ENDROOT
BRANCH   1   2
ATOM      2  C   UNL     1      50.149  46.024  56.398  1.00  0.00     0.129 A 
ATOM      3  C   UNL     1      51.328  46.079  54.546  1.00  0.00     0.042 A 
ATOM      4  C   UNL     1      52.098  45.665  55.614  1.00  0.00     0.195 A 
ATOM      5  C   UNL     1      50.067  46.309  55.050  1.00  0.00     0.048 A 
ATOM      6  O   UNL     1      51.367  45.638  56.703  1.00  0.00    -0.467 OA
ENDBRANCH   1   2
BRANCH   1   7
ATOM      7  O   UNL     1      48.800  47.433  57.725  1.00  0.00    -0.388 OA
ATOM      8  H   UNL     1      49.138  47.535  58.653  1.00  0.00     0.211 HD
ENDBRANCH   1   7
TORSDOF 2
ENDMDL
MODEL 6
REMARK VINA RESULT:    -3.198     20.041     20.635
REMARK INTER + INTRA:          -3.491
REMARK INTER:                  -3.474
REMARK INTRA:                  -0.017
REMARK UNBOUND:                -0.013
REMARK SMILES OCc1ccco1
REMARK SMILES IDX 2 1 3 2 5 3 6 4 4 5 7 6 1 7
REMARK H PARENT 1 8
REMARK Flexibility Score: inf
ROOT
ATOM      1  C   UNL     1      52.632  45.113  54.530  1.00  0.00     0.231 C 
ENDROOT
BRANCH   1   2
ATOM      2  C   UNL     1      51.416  45.477  55.315  1.00  0.00     0.129 A 
ATOM      3  C   UNL     1      49.510  46.370  55.940  1.00  0.00     0.042 A 
ATOM      4  C   UNL     1      50.051  45.598  56.948  1.00  0.00     0.195 A 
ATOM      5  C   UNL     1      50.392  46.296  54.885  1.00  0.00     0.048 A 
ATOM      6  O   UNL     1      51.190  45.081  56.547  1.00  0.00    -0.467 OA
ENDBRANCH   1   2
BRANCH   1   7
ATOM      7  O   UNL     1      52.513  45.619  53.231  1.00  0.00    -0.388 OA
ATOM      8  H   UNL     1      52.519  44.832  52.627  1.00  0.00     0.211 HD
ENDBRANCH   1   7
TORSDOF 2
ENDMDL
MODEL 7
REMARK VINA RESULT:    -3.123     14.513     14.838
REMARK INTER + INTRA:          -3.410
REMARK INTER:                  -3.395
REMARK INTRA:                  -0.015
REMARK UNBOUND:                -0.013
REMARK SMILES OCc1ccco1
REMARK SMILES IDX 2 1 3 2 5 3 6 4 4 5 7 6 1 7
REMARK H PARENT 1 8
REMARK Flexibility Score: inf
ROOT
ATOM      1  C   UNL     1      50.282  46.914  46.088  1.00  0.00     0.231 C 
ENDROOT
BRANCH   1   2
ATOM      2  C   UNL     1      50.985  46.657  44.798  1.00  0.00     0.129 A 
ATOM      3  C   UNL     1      52.452  46.004  43.300  1.00  0.00     0.042 A 
ATOM      4  C   UNL     1      51.427  46.719  42.713  1.00  0.00     0.195 A 
ATOM      5  C   UNL     1      52.170  45.966  44.648  1.00  0.00     0.048 A 
ATOM      6  O   UNL     1      50.570  47.098  43.632  1.00  0.00    -0.467 OA
ENDBRANCH   1   2
BRANCH   1   7
ATOM      7  O   UNL     1      51.001  47.860  46.827  1.00  0.00    -0.388 OA
ATOM      8  H   UNL     1      51.960  47.657  46.674  1.00  0.00     0.211 HD
ENDBRANCH   1   7
TORSDOF 2
ENDMDL
MODEL 8
REMARK VINA RESULT:    -3.079     14.910     15.848
REMARK INTER + INTRA:          -3.363
REMARK INTER:                  -3.348
REMARK INTRA:                  -0.015
REMARK UNBOUND:                -0.013
REMARK SMILES OCc1ccco1
REMARK SMILES IDX 2 1 3 2 5 3 6 4 4 5 7 6 1 7
REMARK H PARENT 1 8
REMARK Flexibility Score: inf
ROOT
ATOM      1  C   UNL     1      44.104  49.696  42.342  1.00  0.00     0.231 C 
ENDROOT
BRANCH   1   2
ATOM      2  C   UNL     1      43.585  48.396  41.824  1.00  0.00     0.129 A 
ATOM      3  C   UNL     1      42.278  46.835  41.002  1.00  0.00     0.042 A 
ATOM      4  C   UNL     1      43.522  46.326  41.318  1.00  0.00     0.195 A 
ATOM      5  C   UNL     1      42.316  48.172  41.331  1.00  0.00     0.048 A 
ATOM      6  O   UNL     1      44.278  47.280  41.810  1.00  0.00    -0.467 OA
ENDBRANCH   1   2
BRANCH   1   7
ATOM      7  O   UNL     1      44.944  50.274  41.383  1.00  0.00    -0.388 OA
ATOM      8  H   UNL     1      45.073  49.586  40.680  1.00  0.00     0.211 HD
ENDBRANCH   1   7
TORSDOF 2
ENDMDL
