MODEL 1
REMARK VINA RESULT:    -2.783      0.000      0.000
REMARK INTER + INTRA:          -3.263
REMARK INTER:                  -3.190
REMARK INTRA:                  -0.073
REMARK UNBOUND:                -0.073
REMARK SMILES COc1cc(C=O)ccc1O
REMARK SMILES IDX 3 1 10 2 9 3 8 4 5 5 4 6 2 7 1 8 11 9 6 11 7 12
REMARK H PARENT 11 10
REMARK Flexibility Score: inf
ROOT
ATOM      1  C   UNL     1     111.911 113.400 108.252  1.00  0.00     0.161 A 
ATOM      2  C   UNL     1     111.414 113.339 109.563  1.00  0.00     0.157 A 
ATOM      3  C   UNL     1     110.103 112.907 109.798  1.00  0.00     0.051 A 
ATOM      4  C   UNL     1     109.283 112.534 108.731  1.00  0.00     0.015 A 
ATOM      5  C   UNL     1     109.762 112.589 107.415  1.00  0.00     0.018 A 
ATOM      6  C   UNL     1     111.079 113.024 107.180  1.00  0.00     0.062 A 
ENDROOT
BRANCH   1   7
ATOM      7  O   UNL     1     113.231 113.840 108.058  1.00  0.00    -0.493 OA
ATOM      8  C   UNL     1     113.586 115.100 107.501  1.00  0.00     0.278 C 
ENDBRANCH   1   7
BRANCH   2   9
ATOM      9  O   UNL     1     112.233 113.711 110.628  1.00  0.00    -0.504 OA
ATOM     10  H   UNL     1     112.339 114.680 110.901  1.00  0.00     0.293 HD
ENDBRANCH   2   9
BRANCH   5  11
ATOM     11  C   UNL     1     108.879 112.191 106.303  1.00  0.00     0.260 C 
ATOM     12  O   UNL     1     108.588 110.983 106.103  1.00  0.00    -0.298 OA
ENDBRANCH   5  11
TORSDOF 3
ENDMDL
MODEL 2
REMARK VINA RESULT:    -2.781      9.054     12.395
REMARK INTER + INTRA:          -3.261
REMARK INTER:                  -3.188
REMARK INTRA:                  -0.074
REMARK UNBOUND:                -0.073
REMARK SMILES COc1cc(C=O)ccc1O
REMARK SMILES IDX 3 1 10 2 9 3 8 4 5 5 4 6 2 7 1 8 11 9 6 11 7 12
REMARK H PARENT 11 10
REMARK Flexibility Score: inf
ROOT
ATOM      1  C   UNL     1     120.116 118.563 108.283  1.00  0.00     0.161 A 
ATOM      2  C   UNL     1     120.595 118.666 109.597  1.00  0.00     0.157 A 
ATOM      3  C   UNL     1     121.889 119.144 109.838  1.00  0.00     0.051 A 
ATOM      4  C   UNL     1     122.710 119.520 108.773  1.00  0.00     0.015 A 
ATOM      5  C   UNL     1     122.248 119.423 107.453  1.00  0.00     0.018 A 
ATOM      6  C   UNL     1     120.948 118.943 107.212  1.00  0.00     0.062 A 
ENDROOT
BRANCH   1   7
ATOM      7  O   UNL     1     118.812 118.079 108.083  1.00  0.00    -0.493 OA
ATOM      8  C   UNL     1     118.501 116.823 107.492  1.00  0.00     0.278 C 
ENDBRANCH   1   7
BRANCH   2   9
ATOM      9  O   UNL     1     119.776 118.291 110.661  1.00  0.00    -0.504 OA
ATOM     10  H   UNL     1     118.769 118.392 110.617  1.00  0.00     0.293 HD
ENDBRANCH   2   9
BRANCH   5  11
ATOM     11  C   UNL     1     123.131 119.826 106.343  1.00  0.00     0.260 C 
ATOM     12  O   UNL     1     123.612 120.987 106.281  1.00  0.00    -0.298 OA
ENDBRANCH   5  11
TORSDOF 3
ENDMDL
MODEL 3
REMARK VINA RESULT:    -2.781      7.187      8.719
REMARK INTER + INTRA:          -3.261
REMARK INTER:                  -3.190
REMARK INTRA:                  -0.071
REMARK UNBOUND:                -0.073
REMARK SMILES COc1cc(C=O)ccc1O
REMARK SMILES IDX 3 1 10 2 9 3 8 4 5 5 4 6 2 7 1 8 11 9 6 11 7 12
REMARK H PARENT 11 10
REMARK Flexibility Score: inf
ROOT
ATOM      1  C   UNL     1     113.451 120.074 108.283  1.00  0.00     0.161 A 
ATOM      2  C   UNL     1     113.338 120.570 109.590  1.00  0.00     0.157 A 
ATOM      3  C   UNL     1     112.868 121.870 109.812  1.00  0.00     0.051 A 
ATOM      4  C   UNL     1     112.508 122.681 108.734  1.00  0.00     0.015 A 
ATOM      5  C   UNL     1     112.614 122.203 107.420  1.00  0.00     0.018 A 
ATOM      6  C   UNL     1     113.086 120.897 107.199  1.00  0.00     0.062 A 
ENDROOT
BRANCH   1   7
ATOM      7  O   UNL     1     113.927 118.765 108.104  1.00  0.00    -0.493 OA
ATOM      8  C   UNL     1     115.152 118.435 107.458  1.00  0.00     0.278 C 
ENDBRANCH   1   7
BRANCH   2   9
ATOM      9  O   UNL     1     113.698 119.761 110.667  1.00  0.00    -0.504 OA
ATOM     10  H   UNL     1     114.652 119.450 110.802  1.00  0.00     0.293 HD
ENDBRANCH   2   9
BRANCH   5  11
ATOM     11  C   UNL     1     112.228 123.076 106.296  1.00  0.00     0.260 C 
ATOM     12  O   UNL     1     111.020 123.340 106.061  1.00  0.00    -0.298 OA
ENDBRANCH   5  11
TORSDOF 3
ENDMDL
MODEL 4
REMARK VINA RESULT:    -2.764      7.147      8.755
REMARK INTER + INTRA:          -3.241
REMARK INTER:                  -3.168
REMARK INTRA:                  -0.073
REMARK UNBOUND:                -0.073
REMARK SMILES COc1cc(C=O)ccc1O
REMARK SMILES IDX 3 1 10 2 9 3 8 4 5 5 4 6 2 7 1 8 11 9 6 11 7 12
REMARK H PARENT 11 10
REMARK Flexibility Score: inf
ROOT
ATOM      1  C   UNL     1     118.626 111.884 108.251  1.00  0.00     0.161 A 
ATOM      2  C   UNL     1     118.674 111.393 109.564  1.00  0.00     0.157 A 
ATOM      3  C   UNL     1     119.115 110.087 109.810  1.00  0.00     0.051 A 
ATOM      4  C   UNL     1     119.510 109.266 108.753  1.00  0.00     0.015 A 
ATOM      5  C   UNL     1     119.469 109.740 107.434  1.00  0.00     0.018 A 
ATOM      6  C   UNL     1     119.026 111.052 107.187  1.00  0.00     0.062 A 
ENDROOT
BRANCH   1   7
ATOM      7  O   UNL     1     118.177 113.199 108.045  1.00  0.00    -0.493 OA
ATOM      8  C   UNL     1     116.919 113.541 107.475  1.00  0.00     0.278 C 
ENDBRANCH   1   7
BRANCH   2   9
ATOM      9  O   UNL     1     118.279 112.212 110.621  1.00  0.00    -0.504 OA
ATOM     10  H   UNL     1     118.615 113.163 110.708  1.00  0.00     0.293 HD
ENDBRANCH   2   9
BRANCH   5  11
ATOM     11  C   UNL     1     119.892 108.857 106.331  1.00  0.00     0.260 C 
ATOM     12  O   UNL     1     120.920 109.110 105.651  1.00  0.00    -0.298 OA
ENDBRANCH   5  11
TORSDOF 3
ENDMDL
MODEL 5
REMARK VINA RESULT:    -2.650     11.800     13.755
REMARK INTER + INTRA:          -3.111
REMARK INTER:                  -3.032
REMARK INTRA:                  -0.078
REMARK UNBOUND:                -0.073
REMARK SMILES COc1cc(C=O)ccc1O
REMARK SMILES IDX 3 1 10 2 9 3 8 4 5 5 4 6 2 7 1 8 11 9 6 11 7 12
REMARK H PARENT 11 10
REMARK Flexibility Score: inf
ROOT
ATOM      1  C   UNL     1     123.180 117.411 107.996  1.00  0.00     0.161 A 
ATOM      2  C   UNL     1     122.024 117.155 108.747  1.00  0.00     0.157 A 
ATOM      3  C   UNL     1     121.523 118.128 109.620  1.00  0.00     0.051 A 
ATOM      4  C   UNL     1     122.171 119.358 109.749  1.00  0.00     0.015 A 
ATOM      5  C   UNL     1     123.328 119.632 109.007  1.00  0.00     0.018 A 
ATOM      6  C   UNL     1     123.830 118.654 108.129  1.00  0.00     0.062 A 
ENDROOT
BRANCH   1   7
ATOM      7  O   UNL     1     123.650 116.409 107.131  1.00  0.00    -0.493 OA
ATOM      8  C   UNL     1     124.728 115.529 107.428  1.00  0.00     0.278 C 
ENDBRANCH   1   7
BRANCH   2   9
ATOM      9  O   UNL     1     121.377 115.927 108.620  1.00  0.00    -0.504 OA
ATOM     10  H   UNL     1     121.381 115.245 109.368  1.00  0.00     0.293 HD
ENDBRANCH   2   9
BRANCH   5  11
ATOM     11  C   UNL     1     123.997 120.938 109.157  1.00  0.00     0.260 C 
ATOM     12  O   UNL     1     123.774 121.673 110.154  1.00  0.00    -0.298 OA
ENDBRANCH   5  11
TORSDOF 3
ENDMDL
MODEL 6
REMARK VINA RESULT:    -2.640      7.828      9.378
REMARK INTER + INTRA:          -3.099
REMARK INTER:                  -3.023
REMARK INTRA:                  -0.077
REMARK UNBOUND:                -0.073
REMARK SMILES COc1cc(C=O)ccc1O
REMARK SMILES IDX 3 1 10 2 9 3 8 4 5 5 4 6 2 7 1 8 11 9 6 11 7 12
REMARK H PARENT 11 10
REMARK Flexibility Score: inf
ROOT
ATOM      1  C   UNL     1     117.388 108.847 107.978  1.00  0.00     0.161 A 
ATOM      2  C   UNL     1     117.155 110.029 108.696  1.00  0.00     0.157 A 
ATOM      3  C   UNL     1     118.142 110.540 109.548  1.00  0.00     0.051 A 
ATOM      4  C   UNL     1     119.362 109.876 109.690  1.00  0.00     0.015 A 
ATOM      5  C   UNL     1     119.612 108.693 108.981  1.00  0.00     0.018 A 
ATOM      6  C   UNL     1     118.621 108.181 108.125  1.00  0.00     0.062 A 
ENDROOT
BRANCH   1   7
ATOM      7  O   UNL     1     116.374 108.367 107.133  1.00  0.00    -0.493 OA
ATOM      8  C   UNL     1     115.453 107.340 107.483  1.00  0.00     0.278 C 
ENDBRANCH   1   7
BRANCH   2   9
ATOM      9  O   UNL     1     115.937 110.692 108.555  1.00  0.00    -0.504 OA
ATOM     10  H   UNL     1     115.054 110.207 108.659  1.00  0.00     0.293 HD
ENDBRANCH   2   9
BRANCH   5  11
ATOM     11  C   UNL     1     120.908 108.008 109.145  1.00  0.00     0.260 C 
ATOM     12  O   UNL     1     121.650 108.245 110.134  1.00  0.00    -0.298 OA
ENDBRANCH   5  11
TORSDOF 3
ENDMDL
MODEL 7
REMARK VINA RESULT:    -2.638      2.828      3.523
REMARK INTER + INTRA:          -3.097
REMARK INTER:                  -3.019
REMARK INTRA:                  -0.078
REMARK UNBOUND:                -0.073
REMARK SMILES COc1cc(C=O)ccc1O
REMARK SMILES IDX 3 1 10 2 9 3 8 4 5 5 4 6 2 7 1 8 11 9 6 11 7 12
REMARK H PARENT 11 10
REMARK Flexibility Score: inf
ROOT
ATOM      1  C   UNL     1     108.902 114.562 107.956  1.00  0.00     0.161 A 
ATOM      2  C   UNL     1     110.068 114.801 108.697  1.00  0.00     0.157 A 
ATOM      3  C   UNL     1     110.540 113.835 109.594  1.00  0.00     0.051 A 
ATOM      4  C   UNL     1     109.855 112.630 109.757  1.00  0.00     0.015 A 
ATOM      5  C   UNL     1     108.688 112.374 109.024  1.00  0.00     0.018 A 
ATOM      6  C   UNL     1     108.214 113.344 108.123  1.00  0.00     0.062 A 
ENDROOT
BRANCH   1   7
ATOM      7  O   UNL     1     108.461 115.556 107.066  1.00  0.00    -0.493 OA
ATOM      8  C   UNL     1     107.432 116.496 107.355  1.00  0.00     0.278 C 
ENDBRANCH   1   7
BRANCH   2   9
ATOM      9  O   UNL     1     110.753 116.004 108.536  1.00  0.00    -0.504 OA
ATOM     10  H   UNL     1     111.614 116.058 108.005  1.00  0.00     0.293 HD
ENDBRANCH   2   9
BRANCH   5  11
ATOM     11  C   UNL     1     107.978 111.094 109.210  1.00  0.00     0.260 C 
ATOM     12  O   UNL     1     108.266 110.322 110.162  1.00  0.00    -0.298 OA
ENDBRANCH   5  11
TORSDOF 3
ENDMDL
MODEL 8
REMARK VINA RESULT:    -2.633      9.493     10.631
REMARK INTER + INTRA:          -3.091
REMARK INTER:                  -3.012
REMARK INTRA:                  -0.079
REMARK UNBOUND:                -0.073
REMARK SMILES COc1cc(C=O)ccc1O
REMARK SMILES IDX 3 1 10 2 9 3 8 4 5 5 4 6 2 7 1 8 11 9 6 11 7 12
REMARK H PARENT 11 10
REMARK Flexibility Score: inf
ROOT
ATOM      1  C   UNL     1     114.602 123.155 107.964  1.00  0.00     0.161 A 
ATOM      2  C   UNL     1     114.842 121.975 108.684  1.00  0.00     0.157 A 
ATOM      3  C   UNL     1     113.859 121.462 109.539  1.00  0.00     0.051 A 
ATOM      4  C   UNL     1     112.636 122.120 109.681  1.00  0.00     0.015 A 
ATOM      5  C   UNL     1     112.379 123.300 108.969  1.00  0.00     0.018 A 
ATOM      6  C   UNL     1     113.366 123.815 108.110  1.00  0.00     0.062 A 
ENDROOT
BRANCH   1   7
ATOM      7  O   UNL     1     115.614 123.637 107.117  1.00  0.00    -0.493 OA
ATOM      8  C   UNL     1     116.496 124.705 107.443  1.00  0.00     0.278 C 
ENDBRANCH   1   7
BRANCH   2   9
ATOM      9  O   UNL     1     116.063 121.318 108.544  1.00  0.00    -0.504 OA
ATOM     10  H   UNL     1     116.358 120.602 109.197  1.00  0.00     0.293 HD
ENDBRANCH   2   9
BRANCH   5  11
ATOM     11  C   UNL     1     111.080 123.979 109.132  1.00  0.00     0.260 C 
ATOM     12  O   UNL     1     110.371 123.793 110.156  1.00  0.00    -0.298 OA
ENDBRANCH   5  11
TORSDOF 3
ENDMDL
MODEL 9
REMARK VINA RESULT:    -2.625      6.833      8.378
REMARK INTER + INTRA:          -3.082
REMARK INTER:                  -3.004
REMARK INTRA:                  -0.078
REMARK UNBOUND:                -0.073
REMARK SMILES COc1cc(C=O)ccc1O
REMARK SMILES IDX 3 1 10 2 9 3 8 4 5 5 4 6 2 7 1 8 11 9 6 11 7 12
REMARK H PARENT 11 10
REMARK Flexibility Score: inf
ROOT
ATOM      1  C   UNL     1     117.425 111.081 107.999  1.00  0.00     0.161 A 
ATOM      2  C   UNL     1     118.055 111.884 108.962  1.00  0.00     0.157 A 
ATOM      3  C   UNL     1     119.043 111.341 109.793  1.00  0.00     0.051 A 
ATOM      4  C   UNL     1     119.407 109.999 109.668  1.00  0.00     0.015 A 
ATOM      5  C   UNL     1     118.789 109.182 108.712  1.00  0.00     0.018 A 
ATOM      6  C   UNL     1     117.797 109.728 107.878  1.00  0.00     0.062 A 
ENDROOT
BRANCH   1   7
ATOM      7  O   UNL     1     116.439 111.664 107.186  1.00  0.00    -0.493 OA
ATOM      8  C   UNL     1     115.046 111.395 107.292  1.00  0.00     0.278 C 
ENDBRANCH   1   7
BRANCH   2   9
ATOM      9  O   UNL     1     117.691 113.224 109.087  1.00  0.00    -0.504 OA
ATOM     10  H   UNL     1     116.966 113.633 108.510  1.00  0.00     0.293 HD
ENDBRANCH   2   9
BRANCH   5  11
ATOM     11  C   UNL     1     119.189 107.767 108.597  1.00  0.00     0.260 C 
ATOM     12  O   UNL     1     119.750 107.168 109.552  1.00  0.00    -0.298 OA
ENDBRANCH   5  11
TORSDOF 3
ENDMDL
