MODEL 1
REMARK VINA RESULT:    -4.458      0.000      0.000
REMARK INTER + INTRA:          -7.124
REMARK INTER:                  -6.543
REMARK INTRA:                  -0.581
REMARK UNBOUND:                -0.581
REMARK SMILES C=C1C=C[C@H](C(C)C)CCC(C)=CCC1
REMARK SMILES IDX 3 1 4 2 5 3 9 4 10 5 11 6 12 7 13 8 6 10 7 11 8 12 2 13 1 14
REMARK SMILES IDX 15 15 14 16
REMARK H PARENT
REMARK Flexibility Score: 70.00
ROOT
ATOM      1  C   UNL     1       2.499  13.136   2.940  1.00  0.00    -0.001 C 
ATOM      2  C   UNL     1       1.345  12.972   3.613  1.00  0.00    -0.023 C 
ENDROOT
BRANCH   2   3
ATOM      3  C   UNL     1       0.543  14.038   4.356  1.00  0.00     0.014 C 
BRANCH   3   4
ATOM      4  C   UNL     1      -0.785  14.318   3.586  1.00  0.00     0.012 C 
BRANCH   4   5
ATOM      5  C   UNL     1      -0.767  14.142   2.042  1.00  0.00     0.031 C 
BRANCH   5   6
ATOM      6  C   UNL     1      -0.566  15.400   1.202  1.00  0.00    -0.077 C 
ATOM      7  C   UNL     1      -1.745  16.306   0.947  1.00  0.00     0.039 C 
ATOM      8  C   UNL     1       0.597  15.713   0.587  1.00  0.00    -0.028 CG0
ATOM      9  G   UNL     1       1.878  14.932   0.700  1.00  0.00     0.000 G0
ENDBRANCH   5   6
ENDBRANCH   4   5
ENDBRANCH   3   4
BRANCH   3  10
ATOM     10  C   UNL     1       0.310  13.555   5.831  1.00  0.00    -0.010 C 
ATOM     11  C   UNL     1       1.600  13.374   6.642  1.00  0.00     0.008 C 
ATOM     12  C   UNL     1      -0.471  12.225   5.858  1.00  0.00     0.008 C 
ENDBRANCH   3  10
ENDBRANCH   2   3
BRANCH   1  13
ATOM     13  C   UNL     1       3.257  14.395   2.744  1.00  0.00    -0.055 C 
ATOM     14  C   UNL     1       4.327  14.614   3.514  1.00  0.00     0.012 C 
BRANCH  13  15
ATOM     15  C   UNL     1       2.779  15.493   1.828  1.00  0.00     0.039 C 
BRANCH  15  16
ATOM     16  C   UNL     1       1.893  14.953   0.686  1.00  0.00     0.032 CG0
ATOM     17  G   UNL     1       0.606  15.724   0.581  1.00  0.00     0.000 G0
ENDBRANCH  15  16
ENDBRANCH  13  15
ENDBRANCH   1  13
TORSDOF 1
ENDMDL
MODEL 2
REMARK VINA RESULT:    -4.394      2.294      5.221
REMARK INTER + INTRA:          -7.030
REMARK INTER:                  -6.586
REMARK INTRA:                  -0.444
REMARK UNBOUND:                -0.581
REMARK SMILES C=C1C=C[C@H](C(C)C)CCC(C)=CCC1
REMARK SMILES IDX 3 1 4 2 5 3 9 4 10 5 11 6 12 7 13 8 6 10 7 11 8 12 2 13 1 14
REMARK SMILES IDX 15 15 14 16
REMARK H PARENT
REMARK Flexibility Score: 70.00
ROOT
ATOM      1  C   UNL     1      -0.784  13.864   4.178  1.00  0.00    -0.001 C 
ATOM      2  C   UNL     1      -0.234  14.408   3.077  1.00  0.00    -0.023 C 
ENDROOT
BRANCH   2   3
ATOM      3  C   UNL     1       1.244  14.439   2.693  1.00  0.00     0.014 C 
BRANCH   3   4
ATOM      4  C   UNL     1       1.778  12.978   2.567  1.00  0.00     0.012 C 
BRANCH   4   5
ATOM      5  C   UNL     1       3.055  12.612   3.374  1.00  0.00     0.031 C 
BRANCH   5   6
ATOM      6  C   UNL     1       3.648  13.698   4.266  1.00  0.00    -0.077 C 
ATOM      7  C   UNL     1       4.763  14.561   3.727  1.00  0.00     0.039 C 
ATOM      8  C   UNL     1       3.296  13.883   5.558  1.00  0.00    -0.028 CG0
ATOM      9  G   UNL     1       2.223  13.118   6.285  1.00  0.00     0.000 G0
ENDBRANCH   5   6
ENDBRANCH   4   5
ENDBRANCH   3   4
BRANCH   3  10
ATOM     10  C   UNL     1       1.403  15.270   1.372  1.00  0.00    -0.010 C 
ATOM     11  C   UNL     1       1.742  14.423   0.137  1.00  0.00     0.008 C 
ATOM     12  C   UNL     1       2.490  16.353   1.531  1.00  0.00     0.008 C 
ENDBRANCH   3  10
ENDBRANCH   2   3
BRANCH   1  13
ATOM     13  C   UNL     1      -0.086  13.149   5.274  1.00  0.00    -0.055 C 
ATOM     14  C   UNL     1      -0.422  11.878   5.514  1.00  0.00     0.012 C 
BRANCH  13  15
ATOM     15  C   UNL     1       0.862  13.843   6.218  1.00  0.00     0.039 C 
BRANCH  15  16
ATOM     16  C   UNL     1       2.228  13.130   6.298  1.00  0.00     0.032 CG0
ATOM     17  G   UNL     1       3.287  13.891   5.548  1.00  0.00     0.000 G0
ENDBRANCH  15  16
ENDBRANCH  13  15
ENDBRANCH   1  13
TORSDOF 1
ENDMDL
MODEL 3
REMARK VINA RESULT:    -4.190      1.527      2.296
REMARK INTER + INTRA:          -6.730
REMARK INTER:                  -6.310
REMARK INTRA:                  -0.421
REMARK UNBOUND:                -0.581
REMARK SMILES C=C1C=C[C@H](C(C)C)CCC(C)=CCC1
REMARK SMILES IDX 3 1 4 2 5 3 9 4 10 5 11 6 12 7 13 8 6 10 7 11 8 12 2 13 1 14
REMARK SMILES IDX 15 15 14 16
REMARK H PARENT
REMARK Flexibility Score: 70.00
ROOT
ATOM      1  C   UNL     1       2.339  12.260   4.698  1.00  0.00    -0.001 C 
ATOM      2  C   UNL     1       0.998  12.374   4.685  1.00  0.00    -0.023 C 
ENDROOT
BRANCH   2   3
ATOM      3  C   UNL     1       0.172  13.653   4.785  1.00  0.00     0.014 C 
BRANCH   3   4
ATOM      4  C   UNL     1      -0.604  13.876   3.449  1.00  0.00     0.012 C 
BRANCH   4   5
ATOM      5  C   UNL     1       0.053  14.802   2.388  1.00  0.00     0.031 C 
BRANCH   5   6
ATOM      6  C   UNL     1       1.068  14.166   1.443  1.00  0.00    -0.077 C 
ATOM      7  C   UNL     1       0.569  13.385   0.251  1.00  0.00     0.039 C 
ATOM      8  C   UNL     1       2.403  14.182   1.656  1.00  0.00    -0.028 CG0
ATOM      9  G   UNL     1       3.094  14.887   2.790  1.00  0.00     0.000 G0
ENDBRANCH   5   6
ENDBRANCH   4   5
ENDBRANCH   3   4
BRANCH   3  10
ATOM     10  C   UNL     1      -0.771  13.548   6.035  1.00  0.00    -0.010 C 
ATOM     11  C   UNL     1      -1.294  12.131   6.307  1.00  0.00     0.008 C 
ATOM     12  C   UNL     1      -1.982  14.493   5.892  1.00  0.00     0.008 C 
ENDBRANCH   3  10
ENDBRANCH   2   3
BRANCH   1  13
ATOM     13  C   UNL     1       3.335  13.354   4.794  1.00  0.00    -0.055 C 
ATOM     14  C   UNL     1       3.523  13.935   5.983  1.00  0.00     0.012 C 
BRANCH  13  15
ATOM     15  C   UNL     1       4.020  13.934   3.583  1.00  0.00     0.039 C 
BRANCH  15  16
ATOM     16  C   UNL     1       3.099  14.889   2.795  1.00  0.00     0.032 CG0
ATOM     17  G   UNL     1       2.415  14.176   1.661  1.00  0.00     0.000 G0
ENDBRANCH  15  16
ENDBRANCH  13  15
ENDBRANCH   1  13
TORSDOF 1
ENDMDL
MODEL 4
REMARK VINA RESULT:    -4.177      2.445      4.552
REMARK INTER + INTRA:          -6.711
REMARK INTER:                  -6.290
REMARK INTRA:                  -0.420
REMARK UNBOUND:                -0.581
REMARK SMILES C=C1C=C[C@H](C(C)C)CCC(C)=CCC1
REMARK SMILES IDX 3 1 4 2 5 3 9 4 10 5 11 6 12 7 13 8 6 10 7 11 8 12 2 13 1 14
REMARK SMILES IDX 15 15 14 16
REMARK H PARENT
REMARK Flexibility Score: 70.00
ROOT
ATOM      1  C   UNL     1       3.269  14.258   2.809  1.00  0.00    -0.001 C 
ATOM      2  C   UNL     1       2.261  14.480   1.945  1.00  0.00    -0.023 C 
ENDROOT
BRANCH   2   3
ATOM      3  C   UNL     1       0.880  13.829   1.940  1.00  0.00     0.014 C 
BRANCH   3   4
ATOM      4  C   UNL     1      -0.000  14.469   3.058  1.00  0.00     0.012 C 
BRANCH   4   5
ATOM      5  C   UNL     1      -0.642  13.509   4.099  1.00  0.00     0.031 C 
BRANCH   5   6
ATOM      6  C   UNL     1      -0.545  13.910   5.567  1.00  0.00    -0.077 C 
ATOM      7  C   UNL     1      -1.651  14.737   6.176  1.00  0.00     0.039 C 
ATOM      8  C   UNL     1       0.528  13.645   6.348  1.00  0.00    -0.028 CG0
ATOM      9  G   UNL     1       1.736  12.854   5.926  1.00  0.00     0.000 G0
ENDBRANCH   5   6
ENDBRANCH   4   5
ENDBRANCH   3   4
BRANCH   3  10
ATOM     10  C   UNL     1       0.259  13.977   0.506  1.00  0.00    -0.010 C 
ATOM     11  C   UNL     1      -1.260  13.756   0.457  1.00  0.00     0.008 C 
ATOM     12  C   UNL     1       0.925  13.002  -0.485  1.00  0.00     0.008 C 
ENDBRANCH   3  10
ENDBRANCH   2   3
BRANCH   1  13
ATOM     13  C   UNL     1       3.273  13.340   3.973  1.00  0.00    -0.055 C 
ATOM     14  C   UNL     1       3.544  12.049   3.758  1.00  0.00     0.012 C 
BRANCH  13  15
ATOM     15  C   UNL     1       2.832  13.775   5.347  1.00  0.00     0.039 C 
BRANCH  15  16
ATOM     16  C   UNL     1       1.740  12.851   5.927  1.00  0.00     0.032 CG0
ATOM     17  G   UNL     1       0.532  13.638   6.357  1.00  0.00     0.000 G0
ENDBRANCH  15  16
ENDBRANCH  13  15
ENDBRANCH   1  13
TORSDOF 1
ENDMDL
MODEL 5
REMARK VINA RESULT:    -4.070      1.961      5.231
REMARK INTER + INTRA:          -6.555
REMARK INTER:                  -6.196
REMARK INTRA:                  -0.359
REMARK UNBOUND:                -0.581
REMARK SMILES C=C1C=C[C@H](C(C)C)CCC(C)=CCC1
REMARK SMILES IDX 3 1 4 2 5 3 9 4 10 5 11 6 12 7 13 8 6 10 7 11 8 12 2 13 1 14
REMARK SMILES IDX 15 15 14 16
REMARK H PARENT
REMARK Flexibility Score: 70.00
ROOT
ATOM      1  C   UNL     1       0.418  13.946   1.305  1.00  0.00    -0.001 C 
ATOM      2  C   UNL     1       1.727  14.256   1.342  1.00  0.00    -0.023 C 
ENDROOT
BRANCH   2   3
ATOM      3  C   UNL     1       2.427  15.226   2.291  1.00  0.00     0.014 C 
BRANCH   3   4
ATOM      4  C   UNL     1       3.589  14.488   3.026  1.00  0.00     0.012 C 
BRANCH   4   5
ATOM      5  C   UNL     1       3.226  13.209   3.832  1.00  0.00     0.031 C 
BRANCH   5   6
ATOM      6  C   UNL     1       2.450  13.403   5.131  1.00  0.00    -0.077 C 
ATOM      7  C   UNL     1       3.212  13.662   6.408  1.00  0.00     0.039 C 
ATOM      8  C   UNL     1       1.108  13.268   5.230  1.00  0.00    -0.028 CG0
ATOM      9  G   UNL     1       0.174  12.995   4.083  1.00  0.00     0.000 G0
ENDBRANCH   5   6
ENDBRANCH   4   5
ENDBRANCH   3   4
BRANCH   3  10
ATOM     10  C   UNL     1       2.911  16.473   1.470  1.00  0.00    -0.010 C 
ATOM     11  C   UNL     1       3.090  16.203  -0.030  1.00  0.00     0.008 C 
ATOM     12  C   UNL     1       4.242  17.016   2.028  1.00  0.00     0.008 C 
ENDBRANCH   3  10
ENDBRANCH   2   3
BRANCH   1  13
ATOM     13  C   UNL     1      -0.656  14.461   2.189  1.00  0.00    -0.055 C 
ATOM     14  C   UNL     1      -1.584  15.261   1.655  1.00  0.00     0.012 C 
BRANCH  13  15
ATOM     15  C   UNL     1      -0.648  14.244   3.680  1.00  0.00     0.039 C 
BRANCH  15  16
ATOM     16  C   UNL     1       0.151  12.987   4.082  1.00  0.00     0.032 CG0
ATOM     17  G   UNL     1       1.102  13.281   5.210  1.00  0.00     0.000 G0
ENDBRANCH  15  16
ENDBRANCH  13  15
ENDBRANCH   1  13
TORSDOF 1
ENDMDL
MODEL 6
REMARK VINA RESULT:    -4.051      1.237      3.351
REMARK INTER + INTRA:          -6.527
REMARK INTER:                  -6.092
REMARK INTRA:                  -0.435
REMARK UNBOUND:                -0.581
REMARK SMILES C=C1C=C[C@H](C(C)C)CCC(C)=CCC1
REMARK SMILES IDX 3 1 4 2 5 3 9 4 10 5 11 6 12 7 13 8 6 10 7 11 8 12 2 13 1 14
REMARK SMILES IDX 15 15 14 16
REMARK H PARENT
REMARK Flexibility Score: 70.00
ROOT
ATOM      1  C   UNL     1      -1.159  14.608   2.232  1.00  0.00    -0.001 C 
ATOM      2  C   UNL     1      -0.468  14.139   3.288  1.00  0.00    -0.023 C 
ENDROOT
BRANCH   2   3
ATOM      3  C   UNL     1       0.944  13.560   3.293  1.00  0.00     0.014 C 
BRANCH   3   4
ATOM      4  C   UNL     1       1.982  14.720   3.188  1.00  0.00     0.012 C 
BRANCH   4   5
ATOM      5  C   UNL     1       2.894  14.751   1.930  1.00  0.00     0.031 C 
BRANCH   5   6
ATOM      6  C   UNL     1       3.082  16.098   1.240  1.00  0.00    -0.077 C 
ATOM      7  C   UNL     1       4.117  17.058   1.775  1.00  0.00     0.039 C 
ATOM      8  C   UNL     1       2.308  16.532   0.219  1.00  0.00    -0.028 CG0
ATOM      9  G   UNL     1       1.216  15.737  -0.443  1.00  0.00     0.000 G0
ENDBRANCH   5   6
ENDBRANCH   4   5
ENDBRANCH   3   4
BRANCH   3  10
ATOM     10  C   UNL     1       1.125  12.686   4.584  1.00  0.00    -0.010 C 
ATOM     11  C   UNL     1      -0.186  12.375   5.319  1.00  0.00     0.008 C 
ATOM     12  C   UNL     1       2.089  13.366   5.578  1.00  0.00     0.008 C 
ENDBRANCH   3  10
ENDBRANCH   2   3
BRANCH   1  13
ATOM     13  C   UNL     1      -0.705  14.689   0.823  1.00  0.00    -0.055 C 
ATOM     14  C   UNL     1      -0.653  13.560   0.110  1.00  0.00     0.012 C 
BRANCH  13  15
ATOM     15  C   UNL     1      -0.156  15.958   0.221  1.00  0.00     0.039 C 
BRANCH  15  16
ATOM     16  C   UNL     1       1.212  15.734  -0.459  1.00  0.00     0.032 CG0
ATOM     17  G   UNL     1       2.295  16.527   0.221  1.00  0.00     0.000 G0
ENDBRANCH  15  16
ENDBRANCH  13  15
ENDBRANCH   1  13
TORSDOF 1
ENDMDL
MODEL 7
REMARK VINA RESULT:    -3.966      1.796      3.072
REMARK INTER + INTRA:          -6.401
REMARK INTER:                  -5.944
REMARK INTRA:                  -0.457
REMARK UNBOUND:                -0.581
REMARK SMILES C=C1C=C[C@H](C(C)C)CCC(C)=CCC1
REMARK SMILES IDX 3 1 4 2 5 3 9 4 10 5 11 6 12 7 13 8 6 10 7 11 8 12 2 13 1 14
REMARK SMILES IDX 15 15 14 16
REMARK H PARENT
REMARK Flexibility Score: 70.00
ROOT
ATOM      1  C   UNL     1       0.378  12.262   5.628  1.00  0.00    -0.001 C 
ATOM      2  C   UNL     1      -0.801  12.894   5.475  1.00  0.00    -0.023 C 
ENDROOT
BRANCH   2   3
ATOM      3  C   UNL     1      -1.047  14.266   4.854  1.00  0.00     0.014 C 
BRANCH   3   4
ATOM      4  C   UNL     1      -1.195  14.118   3.308  1.00  0.00     0.012 C 
BRANCH   4   5
ATOM      5  C   UNL     1      -0.149  14.846   2.418  1.00  0.00     0.031 C 
BRANCH   5   6
ATOM      6  C   UNL     1       0.625  13.993   1.416  1.00  0.00    -0.077 C 
ATOM      7  C   UNL     1       0.003  13.698   0.073  1.00  0.00     0.039 C 
ATOM      8  C   UNL     1       1.810  13.403   1.691  1.00  0.00    -0.028 CG0
ATOM      9  G   UNL     1       2.581  13.557   2.973  1.00  0.00     0.000 G0
ENDBRANCH   5   6
ENDBRANCH   4   5
ENDBRANCH   3   4
BRANCH   3  10
ATOM     10  C   UNL     1      -2.307  14.908   5.535  1.00  0.00    -0.010 C 
ATOM     11  C   UNL     1      -3.239  13.892   6.210  1.00  0.00     0.008 C 
ATOM     12  C   UNL     1      -3.131  15.719   4.514  1.00  0.00     0.008 C 
ENDBRANCH   3  10
ENDBRANCH   2   3
BRANCH   1  13
ATOM     13  C   UNL     1       1.718  12.743   5.214  1.00  0.00    -0.055 C 
ATOM     14  C   UNL     1       2.317  13.672   5.966  1.00  0.00     0.012 C 
BRANCH  13  15
ATOM     15  C   UNL     1       2.353  12.343   3.907  1.00  0.00     0.039 C 
BRANCH  15  16
ATOM     16  C   UNL     1       2.581  13.554   2.977  1.00  0.00     0.032 CG0
ATOM     17  G   UNL     1       1.816  13.405   1.690  1.00  0.00     0.000 G0
ENDBRANCH  15  16
ENDBRANCH  13  15
ENDBRANCH   1  13
TORSDOF 1
ENDMDL
MODEL 8
REMARK VINA RESULT:    -3.851      1.516      2.225
REMARK INTER + INTRA:          -6.232
REMARK INTER:                  -5.662
REMARK INTRA:                  -0.570
REMARK UNBOUND:                -0.581
REMARK SMILES C=C1C=C[C@H](C(C)C)CCC(C)=CCC1
REMARK SMILES IDX 3 1 4 2 5 3 9 4 10 5 11 6 12 7 13 8 6 10 7 11 8 12 2 13 1 14
REMARK SMILES IDX 15 15 14 16
REMARK H PARENT
REMARK Flexibility Score: 70.00
ROOT
ATOM      1  C   UNL     1       4.695  13.878   3.510  1.00  0.00    -0.001 C 
ATOM      2  C   UNL     1       3.576  13.194   3.814  1.00  0.00    -0.023 C 
ENDROOT
BRANCH   2   3
ATOM      3  C   UNL     1       2.202  13.763   4.157  1.00  0.00     0.014 C 
BRANCH   3   4
ATOM      4  C   UNL     1       1.220  13.497   2.974  1.00  0.00     0.012 C 
BRANCH   4   5
ATOM      5  C   UNL     1       0.673  14.733   2.207  1.00  0.00     0.031 C 
BRANCH   5   6
ATOM      6  C   UNL     1       1.370  15.105   0.901  1.00  0.00    -0.077 C 
ATOM      7  C   UNL     1       0.879  14.497  -0.390  1.00  0.00     0.039 C 
ATOM      8  C   UNL     1       2.472  15.886   0.835  1.00  0.00    -0.028 CG0
ATOM      9  G   UNL     1       3.125  16.569   2.006  1.00  0.00     0.000 G0
ENDBRANCH   5   6
ENDBRANCH   4   5
ENDBRANCH   3   4
BRANCH   3  10
ATOM     10  C   UNL     1       1.720  13.135   5.512  1.00  0.00    -0.010 C 
ATOM     11  C   UNL     1       0.295  13.537   5.917  1.00  0.00     0.008 C 
ATOM     12  C   UNL     1       2.676  13.510   6.663  1.00  0.00     0.008 C 
ENDBRANCH   3  10
ENDBRANCH   2   3
BRANCH   1  13
ATOM     13  C   UNL     1       4.855  15.349   3.419  1.00  0.00    -0.055 C 
ATOM     14  C   UNL     1       5.082  16.031   4.545  1.00  0.00     0.012 C 
BRANCH  13  15
ATOM     15  C   UNL     1       4.616  16.111   2.140  1.00  0.00     0.039 C 
BRANCH  15  16
ATOM     16  C   UNL     1       3.147  16.562   1.998  1.00  0.00     0.032 CG0
ATOM     17  G   UNL     1       2.475  15.879   0.839  1.00  0.00     0.000 G0
ENDBRANCH  15  16
ENDBRANCH  13  15
ENDBRANCH   1  13
TORSDOF 1
ENDMDL
MODEL 9
REMARK VINA RESULT:    -3.770      2.814      4.848
REMARK INTER + INTRA:          -6.113
REMARK INTER:                  -5.571
REMARK INTRA:                  -0.542
REMARK UNBOUND:                -0.581
REMARK SMILES C=C1C=C[C@H](C(C)C)CCC(C)=CCC1
REMARK SMILES IDX 3 1 4 2 5 3 9 4 10 5 11 6 12 7 13 8 6 10 7 11 8 12 2 13 1 14
REMARK SMILES IDX 15 15 14 16
REMARK H PARENT
REMARK Flexibility Score: 70.00
ROOT
ATOM      1  C   UNL     1      -2.375  15.197   6.212  1.00  0.00    -0.001 C 
ATOM      2  C   UNL     1      -1.226  14.601   5.843  1.00  0.00    -0.023 C 
ENDROOT
BRANCH   2   3
ATOM      3  C   UNL     1      -1.057  13.380   4.943  1.00  0.00     0.014 C 
BRANCH   3   4
ATOM      4  C   UNL     1      -0.160  13.755   3.721  1.00  0.00     0.012 C 
BRANCH   4   5
ATOM      5  C   UNL     1      -0.672  14.879   2.778  1.00  0.00     0.031 C 
BRANCH   5   6
ATOM      6  C   UNL     1      -1.984  14.626   2.042  1.00  0.00    -0.077 C 
ATOM      7  C   UNL     1      -1.965  13.809   0.773  1.00  0.00     0.039 C 
ATOM      8  C   UNL     1      -3.167  15.169   2.409  1.00  0.00    -0.028 CG0
ATOM      9  G   UNL     1      -3.391  16.023   3.627  1.00  0.00     0.000 G0
ENDBRANCH   5   6
ENDBRANCH   4   5
ENDBRANCH   3   4
BRANCH   3  10
ATOM     10  C   UNL     1      -0.473  12.201   5.797  1.00  0.00    -0.010 C 
ATOM     11  C   UNL     1      -1.497  11.534   6.726  1.00  0.00     0.008 C 
ATOM     12  C   UNL     1       0.719  12.678   6.652  1.00  0.00     0.008 C 
ENDBRANCH   3  10
ENDBRANCH   2   3
BRANCH   1  13
ATOM     13  C   UNL     1      -3.753  14.818   5.816  1.00  0.00    -0.055 C 
ATOM     14  C   UNL     1      -4.368  13.856   6.510  1.00  0.00     0.012 C 
BRANCH  13  15
ATOM     15  C   UNL     1      -4.417  15.361   4.576  1.00  0.00     0.039 C 
BRANCH  15  16
ATOM     16  C   UNL     1      -3.406  16.032   3.622  1.00  0.00     0.032 CG0
ATOM     17  G   UNL     1      -3.144  15.175   2.414  1.00  0.00     0.000 G0
ENDBRANCH  15  16
ENDBRANCH  13  15
ENDBRANCH   1  13
TORSDOF 1
ENDMDL
