MODEL 1
REMARK VINA RESULT:    -3.575      0.000      0.000
REMARK INTER + INTRA:          -5.162
REMARK INTER:                  -4.829
REMARK INTRA:                  -0.333
REMARK UNBOUND:                -0.333
REMARK SMILES C=C1CCC=C(C)CC[C@@H]2[C@@H]1CC2(C)C
REMARK SMILES IDX 11 1 12 2 13 3 10 4 14 5 15 6 9 7 8 8 6 9 7 10 5 11 2 13
REMARK SMILES IDX 1 14 3 15 4 16
REMARK H PARENT
REMARK Flexibility Score: 70.00
ROOT
ATOM      1  C   UNL     1      13.532  16.582  35.875  1.00  0.00     0.018 C 
ATOM      2  C   UNL     1      14.854  16.125  35.247  1.00  0.00     0.015 C 
ATOM      3  C   UNL     1      15.219  15.392  36.553  1.00  0.00    -0.031 C 
ATOM      4  C   UNL     1      13.953  15.986  37.225  1.00  0.00     0.002 C 
ATOM      5  C   UNL     1      15.238  13.860  36.367  1.00  0.00     0.011 C 
ATOM      6  C   UNL     1      16.533  15.885  37.185  1.00  0.00     0.011 C 
ENDROOT
BRANCH   4   7
ATOM      7  C   UNL     1      12.931  15.005  37.833  1.00  0.00     0.009 C 
BRANCH   7   8
ATOM      8  C   UNL     1      12.155  15.633  39.009  1.00  0.00     0.030 C 
BRANCH   8   9
ATOM      9  C   UNL     1      10.789  16.144  38.583  1.00  0.00    -0.077 C 
ATOM     10  C   UNL     1       9.610  15.216  38.745  1.00  0.00     0.039 C 
ATOM     11  C   UNL     1      10.556  17.365  38.046  1.00  0.00    -0.028 CG0
ATOM     12  G   UNL     1      11.576  18.440  37.754  1.00  0.00     0.000 G0
ENDBRANCH   8   9
ENDBRANCH   7   8
ENDBRANCH   4   7
BRANCH   1  13
ATOM     13  C   UNL     1      13.262  18.079  35.908  1.00  0.00    -0.074 C 
ATOM     14  C   UNL     1      14.243  18.989  35.764  1.00  0.00     0.008 C 
BRANCH  13  15
ATOM     15  C   UNL     1      11.860  18.546  36.223  1.00  0.00     0.035 C 
BRANCH  15  16
ATOM     16  C   UNL     1      11.564  18.459  37.729  1.00  0.00     0.032 CG0
ATOM     17  G   UNL     1      10.571  17.363  38.040  1.00  0.00     0.000 G0
ENDBRANCH  15  16
ENDBRANCH  13  15
ENDBRANCH   1  13
TORSDOF 0
ENDMDL
MODEL 2
REMARK VINA RESULT:    -3.385     14.491     16.004
REMARK INTER + INTRA:          -4.906
REMARK INTER:                  -4.584
REMARK INTRA:                  -0.322
REMARK UNBOUND:                -0.333
REMARK SMILES C=C1CCC=C(C)CC[C@@H]2[C@@H]1CC2(C)C
REMARK SMILES IDX 11 1 12 2 13 3 10 4 14 5 15 6 9 7 8 8 6 9 7 10 5 11 2 13
REMARK SMILES IDX 1 14 3 15 4 16
REMARK H PARENT
REMARK Flexibility Score: 70.00
ROOT
ATOM      1  C   UNL     1       7.004  19.430  24.209  1.00  0.00     0.018 C 
ATOM      2  C   UNL     1       8.335  19.511  24.966  1.00  0.00     0.015 C 
ATOM      3  C   UNL     1       8.205  21.046  25.026  1.00  0.00    -0.031 C 
ATOM      4  C   UNL     1       6.941  20.961  24.130  1.00  0.00     0.002 C 
ATOM      5  C   UNL     1       7.987  21.550  26.468  1.00  0.00     0.011 C 
ATOM      6  C   UNL     1       9.377  21.786  24.357  1.00  0.00     0.011 C 
ENDROOT
BRANCH   4   7
ATOM      7  C   UNL     1       5.632  21.573  24.669  1.00  0.00     0.009 C 
BRANCH   7   8
ATOM      8  C   UNL     1       4.685  22.006  23.532  1.00  0.00     0.030 C 
BRANCH   8   9
ATOM      9  C   UNL     1       3.601  20.974  23.267  1.00  0.00    -0.077 C 
ATOM     10  C   UNL     1       2.289  21.131  23.994  1.00  0.00     0.039 C 
ATOM     11  C   UNL     1       3.737  19.908  22.443  1.00  0.00    -0.028 CG0
ATOM     12  G   UNL     1       4.962  19.525  21.645  1.00  0.00     0.000 G0
ENDBRANCH   8   9
ENDBRANCH   7   8
ENDBRANCH   4   7
BRANCH   1  13
ATOM     13  C   UNL     1       7.017  18.733  22.857  1.00  0.00    -0.074 C 
ATOM     14  C   UNL     1       8.148  18.566  22.146  1.00  0.00     0.008 C 
BRANCH  13  15
ATOM     15  C   UNL     1       5.697  18.316  22.254  1.00  0.00     0.035 C 
BRANCH  15  16
ATOM     16  C   UNL     1       4.959  19.514  21.634  1.00  0.00     0.032 CG0
ATOM     17  G   UNL     1       3.745  19.902  22.445  1.00  0.00     0.000 G0
ENDBRANCH  15  16
ENDBRANCH  13  15
ENDBRANCH   1  13
TORSDOF 0
ENDMDL
MODEL 3
REMARK VINA RESULT:    -3.191     11.580     13.553
REMARK INTER + INTRA:          -4.643
REMARK INTER:                  -4.695
REMARK INTRA:                   0.052
REMARK UNBOUND:                -0.333
REMARK SMILES C=C1CCC=C(C)CC[C@@H]2[C@@H]1CC2(C)C
REMARK SMILES IDX 11 1 12 2 13 3 10 4 14 5 15 6 9 7 8 8 6 9 7 10 5 11 2 13
REMARK SMILES IDX 1 14 3 15 4 16
REMARK H PARENT
REMARK Flexibility Score: 70.00
ROOT
ATOM      1  C   UNL     1      10.732  19.156  26.211  1.00  0.00     0.018 C 
ATOM      2  C   UNL     1       9.376  19.396  26.885  1.00  0.00     0.015 C 
ATOM      3  C   UNL     1       8.863  20.081  25.603  1.00  0.00    -0.031 C 
ATOM      4  C   UNL     1      10.283  19.968  24.989  1.00  0.00     0.002 C 
ATOM      5  C   UNL     1       7.754  19.258  24.914  1.00  0.00     0.011 C 
ATOM      6  C   UNL     1       8.409  21.535  25.824  1.00  0.00     0.011 C 
ENDROOT
BRANCH   4   7
ATOM      7  C   UNL     1      10.432  19.228  23.644  1.00  0.00     0.009 C 
BRANCH   7   8
ATOM      8  C   UNL     1      11.910  18.984  23.279  1.00  0.00     0.030 C 
BRANCH   8   9
ATOM      9  C   UNL     1      12.655  20.282  23.015  1.00  0.00    -0.077 C 
ATOM     10  C   UNL     1      12.520  20.903  21.647  1.00  0.00     0.039 C 
ATOM     11  C   UNL     1      13.451  20.910  23.912  1.00  0.00    -0.028 CG0
ATOM     12  G   UNL     1      13.767  20.460  25.319  1.00  0.00     0.000 G0
ENDBRANCH   8   9
ENDBRANCH   7   8
ENDBRANCH   4   7
BRANCH   1  13
ATOM     13  C   UNL     1      11.962  19.710  26.914  1.00  0.00    -0.074 C 
ATOM     14  C   UNL     1      12.387  19.235  28.100  1.00  0.00     0.008 C 
BRANCH  13  15
ATOM     15  C   UNL     1      12.657  20.905  26.305  1.00  0.00     0.035 C 
BRANCH  15  16
ATOM     16  C   UNL     1      13.768  20.475  25.333  1.00  0.00     0.032 CG0
ATOM     17  G   UNL     1      13.458  20.893  23.914  1.00  0.00     0.000 G0
ENDBRANCH  15  16
ENDBRANCH  13  15
ENDBRANCH   1  13
TORSDOF 0
ENDMDL
MODEL 4
REMARK VINA RESULT:    -3.137     11.404     13.208
REMARK INTER + INTRA:          -4.571
REMARK INTER:                  -4.346
REMARK INTRA:                  -0.225
REMARK UNBOUND:                -0.333
REMARK SMILES C=C1CCC=C(C)CC[C@@H]2[C@@H]1CC2(C)C
REMARK SMILES IDX 11 1 12 2 13 3 10 4 14 5 15 6 9 7 8 8 6 9 7 10 5 11 2 13
REMARK SMILES IDX 1 14 3 15 4 16
REMARK H PARENT
REMARK Flexibility Score: 70.00
ROOT
ATOM      1  C   UNL     1       9.747  21.110  24.871  1.00  0.00     0.018 C 
ATOM      2  C   UNL     1       8.307  21.452  24.473  1.00  0.00     0.015 C 
ATOM      3  C   UNL     1       7.832  20.097  25.033  1.00  0.00    -0.031 C 
ATOM      4  C   UNL     1       9.310  19.700  25.292  1.00  0.00     0.002 C 
ATOM      5  C   UNL     1       6.944  20.270  26.283  1.00  0.00     0.011 C 
ATOM      6  C   UNL     1       7.138  19.209  23.985  1.00  0.00     0.011 C 
ENDROOT
BRANCH   4   7
ATOM      7  C   UNL     1       9.713  19.312  26.729  1.00  0.00     0.009 C 
BRANCH   7   8
ATOM      8  C   UNL     1      11.123  18.690  26.786  1.00  0.00     0.030 C 
BRANCH   8   9
ATOM      9  C   UNL     1      12.179  19.707  27.187  1.00  0.00    -0.077 C 
ATOM     10  C   UNL     1      12.354  19.996  28.657  1.00  0.00     0.039 C 
ATOM     11  C   UNL     1      12.959  20.391  26.316  1.00  0.00    -0.028 CG0
ATOM     12  G   UNL     1      12.936  20.300  24.808  1.00  0.00     0.000 G0
ENDBRANCH   8   9
ENDBRANCH   7   8
ENDBRANCH   4   7
BRANCH   1  13
ATOM     13  C   UNL     1      10.796  21.138  23.769  1.00  0.00    -0.074 C 
ATOM     14  C   UNL     1      10.519  20.769  22.504  1.00  0.00     0.008 C 
BRANCH  13  15
ATOM     15  C   UNL     1      12.217  21.487  24.142  1.00  0.00     0.035 C 
BRANCH  15  16
ATOM     16  C   UNL     1      12.938  20.293  24.790  1.00  0.00     0.032 CG0
ATOM     17  G   UNL     1      12.956  20.404  26.297  1.00  0.00     0.000 G0
ENDBRANCH  15  16
ENDBRANCH  13  15
ENDBRANCH   1  13
TORSDOF 0
ENDMDL
MODEL 5
REMARK VINA RESULT:    -3.036     12.364     14.288
REMARK INTER + INTRA:          -4.433
REMARK INTER:                  -4.117
REMARK INTRA:                  -0.316
REMARK UNBOUND:                -0.333
REMARK SMILES C=C1CCC=C(C)CC[C@@H]2[C@@H]1CC2(C)C
REMARK SMILES IDX 11 1 12 2 13 3 10 4 14 5 15 6 9 7 8 8 6 9 7 10 5 11 2 13
REMARK SMILES IDX 1 14 3 15 4 16
REMARK H PARENT
REMARK Flexibility Score: 70.00
ROOT
ATOM      1  C   UNL     1       8.828  19.654  25.340  1.00  0.00     0.018 C 
ATOM      2  C   UNL     1       7.382  19.149  25.273  1.00  0.00     0.015 C 
ATOM      3  C   UNL     1       7.325  19.518  23.778  1.00  0.00    -0.031 C 
ATOM      4  C   UNL     1       8.731  20.163  23.896  1.00  0.00     0.002 C 
ATOM      5  C   UNL     1       7.222  18.268  22.880  1.00  0.00     0.011 C 
ATOM      6  C   UNL     1       6.217  20.530  23.439  1.00  0.00     0.011 C 
ENDROOT
BRANCH   4   7
ATOM      7  C   UNL     1       9.845  19.645  22.963  1.00  0.00     0.009 C 
BRANCH   7   8
ATOM      8  C   UNL     1      10.902  20.728  22.669  1.00  0.00     0.030 C 
BRANCH   8   9
ATOM      9  C   UNL     1      12.137  20.573  23.541  1.00  0.00    -0.077 C 
ATOM     10  C   UNL     1      13.294  19.780  22.985  1.00  0.00     0.039 C 
ATOM     11  C   UNL     1      12.264  21.074  24.793  1.00  0.00    -0.028 CG0
ATOM     12  G   UNL     1      11.232  21.860  25.567  1.00  0.00     0.000 G0
ENDBRANCH   8   9
ENDBRANCH   7   8
ENDBRANCH   4   7
BRANCH   1  13
ATOM     13  C   UNL     1       9.138  20.734  26.367  1.00  0.00    -0.074 C 
ATOM     14  C   UNL     1       8.176  21.495  26.920  1.00  0.00     0.008 C 
BRANCH  13  15
ATOM     15  C   UNL     1      10.586  21.026  26.684  1.00  0.00     0.035 C 
BRANCH  15  16
ATOM     16  C   UNL     1      11.242  21.876  25.583  1.00  0.00     0.032 CG0
ATOM     17  G   UNL     1      12.259  21.082  24.798  1.00  0.00     0.000 G0
ENDBRANCH  15  16
ENDBRANCH  13  15
ENDBRANCH   1  13
TORSDOF 0
ENDMDL
MODEL 6
REMARK VINA RESULT:    -3.031      1.581      3.431
REMARK INTER + INTRA:          -4.428
REMARK INTER:                  -4.475
REMARK INTRA:                   0.047
REMARK UNBOUND:                -0.333
REMARK SMILES C=C1CCC=C(C)CC[C@@H]2[C@@H]1CC2(C)C
REMARK SMILES IDX 11 1 12 2 13 3 10 4 14 5 15 6 9 7 8 8 6 9 7 10 5 11 2 13
REMARK SMILES IDX 1 14 3 15 4 16
REMARK H PARENT
REMARK Flexibility Score: 70.00
ROOT
ATOM      1  C   UNL     1      14.066  16.073  36.905  1.00  0.00     0.018 C 
ATOM      2  C   UNL     1      14.477  16.627  35.536  1.00  0.00     0.015 C 
ATOM      3  C   UNL     1      13.421  17.741  35.672  1.00  0.00    -0.031 C 
ATOM      4  C   UNL     1      12.913  17.083  36.982  1.00  0.00     0.002 C 
ATOM      5  C   UNL     1      14.069  19.134  35.814  1.00  0.00     0.011 C 
ATOM      6  C   UNL     1      12.376  17.735  34.542  1.00  0.00     0.011 C 
ENDROOT
BRANCH   4   7
ATOM      7  C   UNL     1      12.903  17.940  38.264  1.00  0.00     0.009 C 
BRANCH   7   8
ATOM      8  C   UNL     1      12.513  17.116  39.507  1.00  0.00     0.030 C 
BRANCH   8   9
ATOM      9  C   UNL     1      11.102  16.561  39.404  1.00  0.00    -0.077 C 
ATOM     10  C   UNL     1       9.960  17.470  39.787  1.00  0.00     0.039 C 
ATOM     11  C   UNL     1      10.796  15.300  39.017  1.00  0.00    -0.028 CG0
ATOM     12  G   UNL     1      11.765  14.208  38.628  1.00  0.00     0.000 G0
ENDBRANCH   8   9
ENDBRANCH   7   8
ENDBRANCH   4   7
BRANCH   1  13
ATOM     13  C   UNL     1      13.628  14.617  36.961  1.00  0.00    -0.074 C 
ATOM     14  C   UNL     1      14.490  13.600  36.772  1.00  0.00     0.008 C 
BRANCH  13  15
ATOM     15  C   UNL     1      12.157  14.318  37.125  1.00  0.00     0.035 C 
BRANCH  15  16
ATOM     16  C   UNL     1      11.769  14.202  38.609  1.00  0.00     0.032 CG0
ATOM     17  G   UNL     1      10.798  15.286  39.016  1.00  0.00     0.000 G0
ENDBRANCH  15  16
ENDBRANCH  13  15
ENDBRANCH   1  13
TORSDOF 0
ENDMDL
MODEL 7
REMARK VINA RESULT:    -3.011     13.272     14.683
REMARK INTER + INTRA:          -4.401
REMARK INTER:                  -4.484
REMARK INTRA:                   0.083
REMARK UNBOUND:                -0.333
REMARK SMILES C=C1CCC=C(C)CC[C@@H]2[C@@H]1CC2(C)C
REMARK SMILES IDX 11 1 12 2 13 3 10 4 14 5 15 6 9 7 8 8 6 9 7 10 5 11 2 13
REMARK SMILES IDX 1 14 3 15 4 16
REMARK H PARENT
REMARK Flexibility Score: 70.00
ROOT
ATOM      1  C   UNL     1       7.585  18.947  23.471  1.00  0.00     0.018 C 
ATOM      2  C   UNL     1       8.733  18.721  22.481  1.00  0.00     0.015 C 
ATOM      3  C   UNL     1       9.626  19.671  23.302  1.00  0.00    -0.031 C 
ATOM      4  C   UNL     1       8.412  20.008  24.208  1.00  0.00     0.002 C 
ATOM      5  C   UNL     1      10.794  18.922  23.978  1.00  0.00     0.011 C 
ATOM      6  C   UNL     1      10.140  20.878  22.498  1.00  0.00     0.011 C 
ENDROOT
BRANCH   4   7
ATOM      7  C   UNL     1       8.553  19.764  25.725  1.00  0.00     0.009 C 
BRANCH   7   8
ATOM      8  C   UNL     1       7.291  20.195  26.499  1.00  0.00     0.030 C 
BRANCH   8   9
ATOM      9  C   UNL     1       6.929  21.648  26.237  1.00  0.00    -0.077 C 
ATOM     10  C   UNL     1       7.600  22.702  27.084  1.00  0.00     0.039 C 
ATOM     11  C   UNL     1       6.029  22.064  25.315  1.00  0.00    -0.028 CG0
ATOM     12  G   UNL     1       5.211  21.197  24.387  1.00  0.00     0.000 G0
ENDBRANCH   8   9
ENDBRANCH   7   8
ENDBRANCH   4   7
BRANCH   1  13
ATOM     13  C   UNL     1       6.271  19.461  22.902  1.00  0.00    -0.074 C 
ATOM     14  C   UNL     1       5.443  18.679  22.184  1.00  0.00     0.008 C 
BRANCH  13  15
ATOM     15  C   UNL     1       5.947  20.928  23.061  1.00  0.00     0.035 C 
BRANCH  15  16
ATOM     16  C   UNL     1       5.209  21.201  24.382  1.00  0.00     0.032 CG0
ATOM     17  G   UNL     1       6.024  22.077  25.305  1.00  0.00     0.000 G0
ENDBRANCH  15  16
ENDBRANCH  13  15
ENDBRANCH   1  13
TORSDOF 0
ENDMDL
MODEL 8
REMARK VINA RESULT:    -2.969     15.093     17.017
REMARK INTER + INTRA:          -4.344
REMARK INTER:                  -4.012
REMARK INTRA:                  -0.332
REMARK UNBOUND:                -0.333
REMARK SMILES C=C1CCC=C(C)CC[C@@H]2[C@@H]1CC2(C)C
REMARK SMILES IDX 11 1 12 2 13 3 10 4 14 5 15 6 9 7 8 8 6 9 7 10 5 11 2 13
REMARK SMILES IDX 1 14 3 15 4 16
REMARK H PARENT
REMARK Flexibility Score: 70.00
ROOT
ATOM      1  C   UNL     1       5.160  19.905  21.812  1.00  0.00     0.018 C 
ATOM      2  C   UNL     1       3.756  19.703  21.229  1.00  0.00     0.015 C 
ATOM      3  C   UNL     1       3.176  20.640  22.306  1.00  0.00    -0.031 C 
ATOM      4  C   UNL     1       4.574  20.714  22.976  1.00  0.00     0.002 C 
ATOM      5  C   UNL     1       2.640  21.953  21.700  1.00  0.00     0.011 C 
ATOM      6  C   UNL     1       2.111  19.969  23.192  1.00  0.00     0.011 C 
ENDROOT
BRANCH   4   7
ATOM      7  C   UNL     1       5.210  22.106  23.167  1.00  0.00     0.009 C 
BRANCH   7   8
ATOM      8  C   UNL     1       6.242  22.117  24.313  1.00  0.00     0.030 C 
BRANCH   8   9
ATOM      9  C   UNL     1       7.667  21.999  23.799  1.00  0.00    -0.077 C 
ATOM     10  C   UNL     1       8.411  23.275  23.493  1.00  0.00     0.039 C 
ATOM     11  C   UNL     1       8.310  20.829  23.573  1.00  0.00    -0.028 CG0
ATOM     12  G   UNL     1       7.759  19.436  23.768  1.00  0.00     0.000 G0
ENDBRANCH   8   9
ENDBRANCH   7   8
ENDBRANCH   4   7
BRANCH   1  13
ATOM     13  C   UNL     1       5.920  18.657  22.236  1.00  0.00    -0.074 C 
ATOM     14  C   UNL     1       5.295  17.504  22.539  1.00  0.00     0.008 C 
BRANCH  13  15
ATOM     15  C   UNL     1       7.415  18.759  22.425  1.00  0.00     0.035 C 
BRANCH  15  16
ATOM     16  C   UNL     1       7.767  19.420  23.768  1.00  0.00     0.032 CG0
ATOM     17  G   UNL     1       8.312  20.816  23.576  1.00  0.00     0.000 G0
ENDBRANCH  15  16
ENDBRANCH  13  15
ENDBRANCH   1  13
TORSDOF 0
ENDMDL
MODEL 9
REMARK VINA RESULT:    -2.959     12.447     14.196
REMARK INTER + INTRA:          -4.331
REMARK INTER:                  -4.012
REMARK INTRA:                  -0.319
REMARK UNBOUND:                -0.333
REMARK SMILES C=C1CCC=C(C)CC[C@@H]2[C@@H]1CC2(C)C
REMARK SMILES IDX 11 1 12 2 13 3 10 4 14 5 15 6 9 7 8 8 6 9 7 10 5 11 2 13
REMARK SMILES IDX 1 14 3 15 4 16
REMARK H PARENT
REMARK Flexibility Score: 70.00
ROOT
ATOM      1  C   UNL     1      10.378  20.999  25.506  1.00  0.00     0.018 C 
ATOM      2  C   UNL     1      10.215  20.725  27.005  1.00  0.00     0.015 C 
ATOM      3  C   UNL     1      11.281  19.616  26.916  1.00  0.00    -0.031 C 
ATOM      4  C   UNL     1      11.326  19.800  25.376  1.00  0.00     0.002 C 
ATOM      5  C   UNL     1      12.566  19.989  27.685  1.00  0.00     0.011 C 
ATOM      6  C   UNL     1      10.765  18.233  27.349  1.00  0.00     0.011 C 
ENDROOT
BRANCH   4   7
ATOM      7  C   UNL     1      12.685  20.131  24.727  1.00  0.00     0.009 C 
BRANCH   7   8
ATOM      8  C   UNL     1      12.764  19.640  23.267  1.00  0.00     0.030 C 
BRANCH   8   9
ATOM      9  C   UNL     1      12.494  20.758  22.274  1.00  0.00    -0.077 C 
ATOM     10  C   UNL     1      13.680  21.519  21.734  1.00  0.00     0.039 C 
ATOM     11  C   UNL     1      11.263  21.138  21.856  1.00  0.00    -0.028 CG0
ATOM     12  G   UNL     1       9.937  20.555  22.286  1.00  0.00     0.000 G0
ENDBRANCH   8   9
ENDBRANCH   7   8
ENDBRANCH   4   7
BRANCH   1  13
ATOM     13  C   UNL     1       9.127  20.906  24.644  1.00  0.00    -0.074 C 
ATOM     14  C   UNL     1       8.026  20.244  25.046  1.00  0.00     0.008 C 
BRANCH  13  15
ATOM     15  C   UNL     1       9.173  21.484  23.250  1.00  0.00     0.035 C 
BRANCH  15  16
ATOM     16  C   UNL     1       9.919  20.554  22.279  1.00  0.00     0.032 CG0
ATOM     17  G   UNL     1      11.249  21.136  21.861  1.00  0.00     0.000 G0
ENDBRANCH  15  16
ENDBRANCH  13  15
ENDBRANCH   1  13
TORSDOF 0
ENDMDL
