MODEL 1
REMARK VINA RESULT:    -3.085      0.000      0.000
REMARK INTER + INTRA:          -4.018
REMARK INTER:                  -3.807
REMARK INTRA:                  -0.212
REMARK UNBOUND:                -0.212
REMARK SMILES CCCCCC(=O)[O-]
REMARK SMILES IDX 4 1 5 2 6 3 7 4 8 5 3 6 2 7 1 8
REMARK H PARENT
REMARK Flexibility Score: inf
ROOT
ATOM      1  C   UNL     1     185.027 194.501 189.732  1.00  0.00     0.006 C 
ENDROOT
BRANCH   1   2
ATOM      2  C   UNL     1     184.712 195.878 190.324  1.00  0.00     0.053 C 
BRANCH   2   3
ATOM      3  C   UNL     1     185.568 196.929 189.690  1.00  0.00     0.041 C 
ATOM      4  O   UNL     1     185.887 196.839 188.476  1.00  0.00    -0.550 OA
ATOM      5  O   UNL     1     186.053 197.984 190.453  1.00  0.00    -0.550 OA
ENDBRANCH   2   3
ENDBRANCH   1   2
BRANCH   1   6
ATOM      6  C   UNL     1     186.296 193.910 190.357  1.00  0.00     0.000 C 
BRANCH   6   7
ATOM      7  C   UNL     1     187.423 193.808 189.323  1.00  0.00    -0.003 C 
ATOM      8  C   UNL     1     188.663 194.571 189.781  1.00  0.00     0.004 C 
ENDBRANCH   6   7
ENDBRANCH   1   6
TORSDOF 4
ENDMDL
MODEL 2
REMARK VINA RESULT:    -3.069      1.928      3.487
REMARK INTER + INTRA:          -3.999
REMARK INTER:                  -3.753
REMARK INTRA:                  -0.246
REMARK UNBOUND:                -0.212
REMARK SMILES CCCCCC(=O)[O-]
REMARK SMILES IDX 4 1 5 2 6 3 7 4 8 5 3 6 2 7 1 8
REMARK H PARENT
REMARK Flexibility Score: inf
ROOT
ATOM      1  C   UNL     1     185.054 194.005 189.741  1.00  0.00     0.006 C 
ENDROOT
BRANCH   1   2
ATOM      2  C   UNL     1     186.377 193.875 190.500  1.00  0.00     0.053 C 
BRANCH   2   3
ATOM      3  C   UNL     1     187.532 194.152 189.590  1.00  0.00     0.041 C 
ATOM      4  O   UNL     1     188.404 195.000 189.914  1.00  0.00    -0.550 OA
ATOM      5  O   UNL     1     187.620 193.509 188.362  1.00  0.00    -0.550 OA
ENDBRANCH   2   3
ENDBRANCH   1   2
BRANCH   1   6
ATOM      6  C   UNL     1     184.833 195.445 189.264  1.00  0.00     0.000 C 
BRANCH   6   7
ATOM      7  C   UNL     1     184.583 196.386 190.448  1.00  0.00    -0.003 C 
ATOM      8  C   UNL     1     185.626 197.498 190.499  1.00  0.00     0.004 C 
ENDBRANCH   6   7
ENDBRANCH   1   6
TORSDOF 4
ENDMDL
MODEL 3
REMARK VINA RESULT:    -3.066     12.923     14.258
REMARK INTER + INTRA:          -3.994
REMARK INTER:                  -3.859
REMARK INTRA:                  -0.136
REMARK UNBOUND:                -0.212
REMARK SMILES CCCCCC(=O)[O-]
REMARK SMILES IDX 4 1 5 2 6 3 7 4 8 5 3 6 2 7 1 8
REMARK H PARENT
REMARK Flexibility Score: inf
ROOT
ATOM      1  C   UNL     1     192.766 184.394 190.229  1.00  0.00     0.006 C 
ENDROOT
BRANCH   1   2
ATOM      2  C   UNL     1     193.362 183.218 189.451  1.00  0.00     0.053 C 
BRANCH   2   3
ATOM      3  C   UNL     1     193.632 182.067 190.368  1.00  0.00     0.041 C 
ATOM      4  O   UNL     1     192.793 181.135 190.479  1.00  0.00    -0.550 OA
ATOM      5  O   UNL     1     194.789 182.047 191.137  1.00  0.00    -0.550 OA
ENDBRANCH   2   3
ENDBRANCH   1   2
BRANCH   1   6
ATOM      6  C   UNL     1     191.236 184.391 190.144  1.00  0.00     0.000 C 
BRANCH   6   7
ATOM      7  C   UNL     1     190.765 184.320 188.687  1.00  0.00    -0.003 C 
ATOM      8  C   UNL     1     189.350 184.871 188.536  1.00  0.00     0.004 C 
ENDBRANCH   6   7
ENDBRANCH   1   6
TORSDOF 4
ENDMDL
MODEL 4
REMARK VINA RESULT:    -3.046     12.354     13.522
REMARK INTER + INTRA:          -3.970
REMARK INTER:                  -3.822
REMARK INTRA:                  -0.148
REMARK UNBOUND:                -0.212
REMARK SMILES CCCCCC(=O)[O-]
REMARK SMILES IDX 4 1 5 2 6 3 7 4 8 5 3 6 2 7 1 8
REMARK H PARENT
REMARK Flexibility Score: inf
ROOT
ATOM      1  C   UNL     1     192.352 183.737 190.035  1.00  0.00     0.006 C 
ENDROOT
BRANCH   1   2
ATOM      2  C   UNL     1     191.481 184.573 189.092  1.00  0.00     0.053 C 
BRANCH   2   3
ATOM      3  C   UNL     1     190.050 184.146 189.186  1.00  0.00     0.041 C 
ATOM      4  O   UNL     1     189.404 183.862 188.144  1.00  0.00    -0.550 OA
ATOM      5  O   UNL     1     189.416 184.108 190.422  1.00  0.00    -0.550 OA
ENDBRANCH   2   3
ENDBRANCH   1   2
BRANCH   1   6
ATOM      6  C   UNL     1     192.371 182.265 189.607  1.00  0.00     0.000 C 
BRANCH   6   7
ATOM      7  C   UNL     1     193.314 181.446 190.495  1.00  0.00    -0.003 C 
ATOM      8  C   UNL     1     194.553 182.252 190.876  1.00  0.00     0.004 C 
ENDBRANCH   6   7
ENDBRANCH   1   6
TORSDOF 4
ENDMDL
MODEL 5
REMARK VINA RESULT:    -3.032      8.773      9.706
REMARK INTER + INTRA:          -3.953
REMARK INTER:                  -3.831
REMARK INTRA:                  -0.122
REMARK UNBOUND:                -0.212
REMARK SMILES CCCCCC(=O)[O-]
REMARK SMILES IDX 4 1 5 2 6 3 7 4 8 5 3 6 2 7 1 8
REMARK H PARENT
REMARK Flexibility Score: inf
ROOT
ATOM      1  C   UNL     1     183.910 187.656 190.947  1.00  0.00     0.006 C 
ENDROOT
BRANCH   1   2
ATOM      2  C   UNL     1     185.300 187.868 191.553  1.00  0.00     0.053 C 
BRANCH   2   3
ATOM      3  C   UNL     1     185.784 186.612 192.206  1.00  0.00     0.041 C 
ATOM      4  O   UNL     1     186.095 185.613 191.506  1.00  0.00    -0.550 OA
ATOM      5  O   UNL     1     185.846 186.528 193.592  1.00  0.00    -0.550 OA
ENDBRANCH   2   3
ENDBRANCH   1   2
BRANCH   1   6
ATOM      6  C   UNL     1     182.878 187.338 192.035  1.00  0.00     0.000 C 
BRANCH   6   7
ATOM      7  C   UNL     1     181.452 187.391 191.474  1.00  0.00    -0.003 C 
ATOM      8  C   UNL     1     181.425 187.001 189.999  1.00  0.00     0.004 C 
ENDBRANCH   6   7
ENDBRANCH   1   6
TORSDOF 4
ENDMDL
MODEL 6
REMARK VINA RESULT:    -3.026     15.947     16.854
REMARK INTER + INTRA:          -3.945
REMARK INTER:                  -3.876
REMARK INTRA:                  -0.069
REMARK UNBOUND:                -0.212
REMARK SMILES CCCCCC(=O)[O-]
REMARK SMILES IDX 4 1 5 2 6 3 7 4 8 5 3 6 2 7 1 8
REMARK H PARENT
REMARK Flexibility Score: inf
ROOT
ATOM      1  C   UNL     1     183.212 182.256 199.833  1.00  0.00     0.006 C 
ENDROOT
BRANCH   1   2
ATOM      2  C   UNL     1     184.249 182.314 198.708  1.00  0.00     0.053 C 
BRANCH   2   3
ATOM      3  C   UNL     1     184.833 183.688 198.604  1.00  0.00     0.041 C 
ATOM      4  O   UNL     1     185.021 184.213 197.476  1.00  0.00    -0.550 OA
ATOM      5  O   UNL     1     185.213 184.370 199.753  1.00  0.00    -0.550 OA
ENDBRANCH   2   3
ENDBRANCH   1   2
BRANCH   1   6
ATOM      6  C   UNL     1     183.812 181.644 201.104  1.00  0.00     0.000 C 
BRANCH   6   7
ATOM      7  C   UNL     1     182.789 180.758 201.824  1.00  0.00    -0.003 C 
ATOM      8  C   UNL     1     181.593 180.455 200.926  1.00  0.00     0.004 C 
ENDBRANCH   6   7
ENDBRANCH   1   6
TORSDOF 4
ENDMDL
MODEL 7
REMARK VINA RESULT:    -2.992      2.267      3.810
REMARK INTER + INTRA:          -3.903
REMARK INTER:                  -3.662
REMARK INTRA:                  -0.241
REMARK UNBOUND:                -0.212
REMARK SMILES CCCCCC(=O)[O-]
REMARK SMILES IDX 4 1 5 2 6 3 7 4 8 5 3 6 2 7 1 8
REMARK H PARENT
REMARK Flexibility Score: inf
ROOT
ATOM      1  C   UNL     1     186.218 196.125 188.750  1.00  0.00     0.006 C 
ENDROOT
BRANCH   1   2
ATOM      2  C   UNL     1     187.522 195.343 188.573  1.00  0.00     0.053 C 
BRANCH   2   3
ATOM      3  C   UNL     1     187.851 194.582 189.818  1.00  0.00     0.041 C 
ATOM      4  O   UNL     1     189.035 194.545 190.244  1.00  0.00    -0.550 OA
ATOM      5  O   UNL     1     186.857 193.874 190.483  1.00  0.00    -0.550 OA
ENDBRANCH   2   3
ENDBRANCH   1   2
BRANCH   1   6
ATOM      6  C   UNL     1     186.371 197.215 189.817  1.00  0.00     0.000 C 
BRANCH   6   7
ATOM      7  C   UNL     1     185.152 197.251 190.746  1.00  0.00    -0.003 C 
ATOM      8  C   UNL     1     184.167 196.135 190.408  1.00  0.00     0.004 C 
ENDBRANCH   6   7
ENDBRANCH   1   6
TORSDOF 4
ENDMDL
MODEL 8
REMARK VINA RESULT:    -2.955      2.759      4.615
REMARK INTER + INTRA:          -3.858
REMARK INTER:                  -3.801
REMARK INTRA:                  -0.057
REMARK UNBOUND:                -0.212
REMARK SMILES CCCCCC(=O)[O-]
REMARK SMILES IDX 4 1 5 2 6 3 7 4 8 5 3 6 2 7 1 8
REMARK H PARENT
REMARK Flexibility Score: inf
ROOT
ATOM      1  C   UNL     1     183.651 196.750 191.733  1.00  0.00     0.006 C 
ENDROOT
BRANCH   1   2
ATOM      2  C   UNL     1     184.087 196.035 190.451  1.00  0.00     0.053 C 
BRANCH   2   3
ATOM      3  C   UNL     1     185.192 196.789 189.781  1.00  0.00     0.041 C 
ATOM      4  O   UNL     1     185.511 196.523 188.593  1.00  0.00    -0.550 OA
ATOM      5  O   UNL     1     185.903 197.752 190.486  1.00  0.00    -0.550 OA
ENDBRANCH   2   3
ENDBRANCH   1   2
BRANCH   1   6
ATOM      6  C   UNL     1     182.201 196.404 192.090  1.00  0.00     0.000 C 
BRANCH   6   7
ATOM      7  C   UNL     1     181.782 197.078 193.402  1.00  0.00    -0.003 C 
ATOM      8  C   UNL     1     181.700 196.065 194.541  1.00  0.00     0.004 C 
ENDBRANCH   6   7
ENDBRANCH   1   6
TORSDOF 4
ENDMDL
MODEL 9
REMARK VINA RESULT:    -2.890     16.757     17.692
REMARK INTER + INTRA:          -3.778
REMARK INTER:                  -3.680
REMARK INTRA:                  -0.098
REMARK UNBOUND:                -0.212
REMARK SMILES CCCCCC(=O)[O-]
REMARK SMILES IDX 4 1 5 2 6 3 7 4 8 5 3 6 2 7 1 8
REMARK H PARENT
REMARK Flexibility Score: inf
ROOT
ATOM      1  C   UNL     1     184.127 181.900 201.257  1.00  0.00     0.006 C 
ENDROOT
BRANCH   1   2
ATOM      2  C   UNL     1     184.850 182.971 202.078  1.00  0.00     0.053 C 
BRANCH   2   3
ATOM      3  C   UNL     1     185.862 183.681 201.235  1.00  0.00     0.041 C 
ATOM      4  O   UNL     1     185.492 184.522 200.374  1.00  0.00    -0.550 OA
ATOM      5  O   UNL     1     187.212 183.381 201.368  1.00  0.00    -0.550 OA
ENDBRANCH   2   3
ENDBRANCH   1   2
BRANCH   1   6
ATOM      6  C   UNL     1     183.134 181.118 202.125  1.00  0.00     0.000 C 
BRANCH   6   7
ATOM      7  C   UNL     1     181.744 181.088 201.481  1.00  0.00    -0.003 C 
ATOM      8  C   UNL     1     181.705 181.934 200.211  1.00  0.00     0.004 C 
ENDBRANCH   6   7
ENDBRANCH   1   6
TORSDOF 4
ENDMDL
