MODEL 1
REMARK VINA RESULT:    -5.146      0.000      0.000
REMARK INTER + INTRA:          -5.832
REMARK INTER:                  -5.597
REMARK INTRA:                  -0.235
REMARK UNBOUND:                -0.235
REMARK SMILES O=C([O-])c1ccccc1O
REMARK SMILES IDX 4 1 9 2 5 3 8 4 6 5 7 6 2 7 1 8 3 9 10 10
REMARK H PARENT 10 11
REMARK Flexibility Score: inf
ROOT
ATOM      1  C   UNL     1      54.791  16.536   0.076  1.00  0.00     0.039 A 
ATOM      2  C   UNL     1      53.961  17.133  -0.903  1.00  0.00     0.124 A 
ATOM      3  C   UNL     1      54.782  15.136   0.211  1.00  0.00     0.014 A 
ATOM      4  C   UNL     1      53.150  16.327  -1.716  1.00  0.00     0.047 A 
ATOM      5  C   UNL     1      53.969  14.345  -0.605  1.00  0.00     0.001 A 
ATOM      6  C   UNL     1      53.154  14.940  -1.567  1.00  0.00     0.004 A 
ENDROOT
BRANCH   1   7
ATOM      7  C   UNL     1      55.668  17.345   0.962  1.00  0.00     0.075 C 
ATOM      8  O   UNL     1      55.187  18.216   1.733  1.00  0.00    -0.545 OA
ATOM      9  O   UNL     1      57.045  17.151   0.951  1.00  0.00    -0.545 OA
ENDBRANCH   1   7
BRANCH   2  10
ATOM     10  O   UNL     1      53.938  18.517  -1.073  1.00  0.00    -0.507 OA
ATOM     11  H   UNL     1      54.733  19.097  -0.832  1.00  0.00     0.293 HD
ENDBRANCH   2  10
TORSDOF 2
ENDMDL
MODEL 2
REMARK VINA RESULT:    -5.128      2.711      3.919
REMARK INTER + INTRA:          -5.813
REMARK INTER:                  -5.574
REMARK INTRA:                  -0.239
REMARK UNBOUND:                -0.235
REMARK SMILES O=C([O-])c1ccccc1O
REMARK SMILES IDX 4 1 9 2 5 3 8 4 6 5 7 6 2 7 1 8 3 9 10 10
REMARK H PARENT 10 11
REMARK Flexibility Score: inf
ROOT
ATOM      1  C   UNL     1      54.184  15.554   0.624  1.00  0.00     0.039 A 
ATOM      2  C   UNL     1      53.245  16.025   1.574  1.00  0.00     0.124 A 
ATOM      3  C   UNL     1      55.432  16.196   0.529  1.00  0.00     0.014 A 
ATOM      4  C   UNL     1      53.570  17.113   2.398  1.00  0.00     0.047 A 
ATOM      5  C   UNL     1      55.743  17.279   1.355  1.00  0.00     0.001 A 
ATOM      6  C   UNL     1      54.813  17.737   2.288  1.00  0.00     0.004 A 
ENDROOT
BRANCH   1   7
ATOM      7  C   UNL     1      53.887  14.406  -0.271  1.00  0.00     0.075 C 
ATOM      8  O   UNL     1      52.899  14.428  -1.050  1.00  0.00    -0.545 OA
ATOM      9  O   UNL     1      54.704  13.281  -0.261  1.00  0.00    -0.545 OA
ENDBRANCH   1   7
BRANCH   2  10
ATOM     10  O   UNL     1      51.995  15.420   1.704  1.00  0.00    -0.507 OA
ATOM     11  H   UNL     1      51.616  15.169   2.609  1.00  0.00     0.293 HD
ENDBRANCH   2  10
TORSDOF 2
ENDMDL
MODEL 3
REMARK VINA RESULT:    -5.121      1.926      2.932
REMARK INTER + INTRA:          -5.805
REMARK INTER:                  -5.587
REMARK INTRA:                  -0.217
REMARK UNBOUND:                -0.235
REMARK SMILES O=C([O-])c1ccccc1O
REMARK SMILES IDX 4 1 9 2 5 3 8 4 6 5 7 6 2 7 1 8 3 9 10 10
REMARK H PARENT 10 11
REMARK Flexibility Score: inf
ROOT
ATOM      1  C   UNL     1      53.652  16.221   0.886  1.00  0.00     0.039 A 
ATOM      2  C   UNL     1      53.906  14.831   0.791  1.00  0.00     0.124 A 
ATOM      3  C   UNL     1      53.235  16.914  -0.265  1.00  0.00     0.014 A 
ATOM      4  C   UNL     1      53.740  14.173  -0.437  1.00  0.00     0.047 A 
ATOM      5  C   UNL     1      53.075  16.247  -1.482  1.00  0.00     0.001 A 
ATOM      6  C   UNL     1      53.327  14.878  -1.567  1.00  0.00     0.004 A 
ENDROOT
BRANCH   1   7
ATOM      7  C   UNL     1      53.812  16.964   2.163  1.00  0.00     0.075 C 
ATOM      8  O   UNL     1      54.942  17.086   2.705  1.00  0.00    -0.545 OA
ATOM      9  O   UNL     1      52.708  17.539   2.782  1.00  0.00    -0.545 OA
ENDBRANCH   1   7
BRANCH   2  10
ATOM     10  O   UNL     1      54.321  14.103   1.906  1.00  0.00    -0.507 OA
ATOM     11  H   UNL     1      54.405  13.094   1.882  1.00  0.00     0.293 HD
ENDBRANCH   2  10
TORSDOF 2
ENDMDL
MODEL 4
REMARK VINA RESULT:    -5.119      1.895      3.817
REMARK INTER + INTRA:          -5.803
REMARK INTER:                  -5.568
REMARK INTRA:                  -0.235
REMARK UNBOUND:                -0.235
REMARK SMILES O=C([O-])c1ccccc1O
REMARK SMILES IDX 4 1 9 2 5 3 8 4 6 5 7 6 2 7 1 8 3 9 10 10
REMARK H PARENT 10 11
REMARK Flexibility Score: inf
ROOT
ATOM      1  C   UNL     1      53.909  16.798  -0.276  1.00  0.00     0.039 A 
ATOM      2  C   UNL     1      55.299  17.047  -0.181  1.00  0.00     0.124 A 
ATOM      3  C   UNL     1      53.110  16.967   0.870  1.00  0.00     0.014 A 
ATOM      4  C   UNL     1      55.854  17.456   1.042  1.00  0.00     0.047 A 
ATOM      5  C   UNL     1      53.674  17.374   2.081  1.00  0.00     0.001 A 
ATOM      6  C   UNL     1      55.045  17.618   2.166  1.00  0.00     0.004 A 
ENDROOT
BRANCH   1   7
ATOM      7  C   UNL     1      53.274  16.363  -1.547  1.00  0.00     0.075 C 
ATOM      8  O   UNL     1      53.622  15.295  -2.115  1.00  0.00    -0.545 OA
ATOM      9  O   UNL     1      52.278  17.137  -2.133  1.00  0.00    -0.545 OA
ENDBRANCH   1   7
BRANCH   2  10
ATOM     10  O   UNL     1      56.131  16.893  -1.290  1.00  0.00    -0.507 OA
ATOM     11  H   UNL     1      56.927  16.267  -1.276  1.00  0.00     0.293 HD
ENDBRANCH   2  10
TORSDOF 2
ENDMDL
MODEL 5
REMARK VINA RESULT:    -5.001      1.541      1.964
REMARK INTER + INTRA:          -5.675
REMARK INTER:                  -5.424
REMARK INTRA:                  -0.251
REMARK UNBOUND:                -0.235
REMARK SMILES O=C([O-])c1ccccc1O
REMARK SMILES IDX 4 1 9 2 5 3 8 4 6 5 7 6 2 7 1 8 3 9 10 10
REMARK H PARENT 10 11
REMARK Flexibility Score: inf
ROOT
ATOM      1  C   UNL     1      53.519  16.319   0.838  1.00  0.00     0.039 A 
ATOM      2  C   UNL     1      53.005  16.919  -0.337  1.00  0.00     0.124 A 
ATOM      3  C   UNL     1      53.916  14.970   0.793  1.00  0.00     0.014 A 
ATOM      4  C   UNL     1      52.902  16.168  -1.517  1.00  0.00     0.047 A 
ATOM      5  C   UNL     1      53.807  14.233  -0.389  1.00  0.00     0.001 A 
ATOM      6  C   UNL     1      53.300  14.831  -1.542  1.00  0.00     0.004 A 
ENDROOT
BRANCH   1   7
ATOM      7  C   UNL     1      53.648  17.072   2.112  1.00  0.00     0.075 C 
ATOM      8  O   UNL     1      54.739  17.103   2.740  1.00  0.00    -0.545 OA
ATOM      9  O   UNL     1      52.557  17.759   2.634  1.00  0.00    -0.545 OA
ENDBRANCH   1   7
BRANCH   2  10
ATOM     10  O   UNL     1      52.599  18.254  -0.339  1.00  0.00    -0.507 OA
ATOM     11  H   UNL     1      51.853  18.585   0.261  1.00  0.00     0.293 HD
ENDBRANCH   2  10
TORSDOF 2
ENDMDL
MODEL 6
REMARK VINA RESULT:    -4.976      1.495      2.578
REMARK INTER + INTRA:          -5.647
REMARK INTER:                  -5.393
REMARK INTRA:                  -0.254
REMARK UNBOUND:                -0.235
REMARK SMILES O=C([O-])c1ccccc1O
REMARK SMILES IDX 4 1 9 2 5 3 8 4 6 5 7 6 2 7 1 8 3 9 10 10
REMARK H PARENT 10 11
REMARK Flexibility Score: inf
ROOT
ATOM      1  C   UNL     1      55.513  15.783  -0.054  1.00  0.00     0.039 A 
ATOM      2  C   UNL     1      55.167  14.424   0.140  1.00  0.00     0.124 A 
ATOM      3  C   UNL     1      54.721  16.569  -0.911  1.00  0.00     0.014 A 
ATOM      4  C   UNL     1      54.050  13.886  -0.518  1.00  0.00     0.047 A 
ATOM      5  C   UNL     1      53.613  16.021  -1.561  1.00  0.00     0.001 A 
ATOM      6  C   UNL     1      53.278  14.681  -1.365  1.00  0.00     0.004 A 
ENDROOT
BRANCH   1   7
ATOM      7  C   UNL     1      56.685  16.399   0.621  1.00  0.00     0.075 C 
ATOM      8  O   UNL     1      56.605  17.538   1.150  1.00  0.00    -0.545 OA
ATOM      9  O   UNL     1      57.897  15.720   0.677  1.00  0.00    -0.545 OA
ENDBRANCH   1   7
BRANCH   2  10
ATOM     10  O   UNL     1      55.922  13.607   0.982  1.00  0.00    -0.507 OA
ATOM     11  H   UNL     1      55.749  13.564   1.979  1.00  0.00     0.293 HD
ENDBRANCH   2  10
TORSDOF 2
ENDMDL
MODEL 7
REMARK VINA RESULT:    -4.968      2.436      3.876
REMARK INTER + INTRA:          -5.639
REMARK INTER:                  -5.395
REMARK INTRA:                  -0.244
REMARK UNBOUND:                -0.235
REMARK SMILES O=C([O-])c1ccccc1O
REMARK SMILES IDX 4 1 9 2 5 3 8 4 6 5 7 6 2 7 1 8 3 9 10 10
REMARK H PARENT 10 11
REMARK Flexibility Score: inf
ROOT
ATOM      1  C   UNL     1      54.270  15.505   0.515  1.00  0.00     0.039 A 
ATOM      2  C   UNL     1      55.569  16.067   0.482  1.00  0.00     0.124 A 
ATOM      3  C   UNL     1      53.318  16.048   1.396  1.00  0.00     0.014 A 
ATOM      4  C   UNL     1      55.884  17.148   1.320  1.00  0.00     0.047 A 
ATOM      5  C   UNL     1      53.645  17.124   2.226  1.00  0.00     0.001 A 
ATOM      6  C   UNL     1      54.926  17.673   2.188  1.00  0.00     0.004 A 
ENDROOT
BRANCH   1   7
ATOM      7  C   UNL     1      53.888  14.361  -0.353  1.00  0.00     0.075 C 
ATOM      8  O   UNL     1      52.900  14.437  -1.129  1.00  0.00    -0.545 OA
ATOM      9  O   UNL     1      54.621  13.179  -0.318  1.00  0.00    -0.545 OA
ENDBRANCH   1   7
BRANCH   2  10
ATOM     10  O   UNL     1      56.546  15.561  -0.376  1.00  0.00    -0.507 OA
ATOM     11  H   UNL     1      56.973  16.135  -1.094  1.00  0.00     0.293 HD
ENDBRANCH   2  10
TORSDOF 2
ENDMDL
MODEL 8
REMARK VINA RESULT:    -4.948      2.408      3.873
REMARK INTER + INTRA:          -5.617
REMARK INTER:                  -5.368
REMARK INTRA:                  -0.249
REMARK UNBOUND:                -0.235
REMARK SMILES O=C([O-])c1ccccc1O
REMARK SMILES IDX 4 1 9 2 5 3 8 4 6 5 7 6 2 7 1 8 3 9 10 10
REMARK H PARENT 10 11
REMARK Flexibility Score: inf
ROOT
ATOM      1  C   UNL     1      53.806  16.888  -0.148  1.00  0.00     0.039 A 
ATOM      2  C   UNL     1      53.044  17.084   1.028  1.00  0.00     0.124 A 
ATOM      3  C   UNL     1      55.202  17.060  -0.089  1.00  0.00     0.014 A 
ATOM      4  C   UNL     1      53.684  17.442   2.224  1.00  0.00     0.047 A 
ATOM      5  C   UNL     1      55.826  17.418   1.108  1.00  0.00     0.001 A 
ATOM      6  C   UNL     1      55.068  17.609   2.263  1.00  0.00     0.004 A 
ENDROOT
BRANCH   1   7
ATOM      7  C   UNL     1      53.176  16.507  -1.439  1.00  0.00     0.075 C 
ATOM      8  O   UNL     1      53.575  15.504  -2.086  1.00  0.00    -0.545 OA
ATOM      9  O   UNL     1      52.127  17.261  -1.955  1.00  0.00    -0.545 OA
ENDBRANCH   1   7
BRANCH   2  10
ATOM     10  O   UNL     1      51.658  16.923   1.017  1.00  0.00    -0.507 OA
ATOM     11  H   UNL     1      51.084  17.297   0.270  1.00  0.00     0.293 HD
ENDBRANCH   2  10
TORSDOF 2
ENDMDL
MODEL 9
REMARK VINA RESULT:    -4.804      2.238      3.291
REMARK INTER + INTRA:          -5.461
REMARK INTER:                  -5.244
REMARK INTRA:                  -0.217
REMARK UNBOUND:                -0.235
REMARK SMILES O=C([O-])c1ccccc1O
REMARK SMILES IDX 4 1 9 2 5 3 8 4 6 5 7 6 2 7 1 8 3 9 10 10
REMARK H PARENT 10 11
REMARK Flexibility Score: inf
ROOT
ATOM      1  C   UNL     1      54.402  15.030  -0.469  1.00  0.00     0.039 A 
ATOM      2  C   UNL     1      54.775  16.194   0.247  1.00  0.00     0.124 A 
ATOM      3  C   UNL     1      53.455  15.145  -1.504  1.00  0.00     0.014 A 
ATOM      4  C   UNL     1      54.201  17.431  -0.084  1.00  0.00     0.047 A 
ATOM      5  C   UNL     1      52.891  16.382  -1.822  1.00  0.00     0.001 A 
ATOM      6  C   UNL     1      53.264  17.524  -1.112  1.00  0.00     0.004 A 
ENDROOT
BRANCH   1   7
ATOM      7  C   UNL     1      54.981  13.698  -0.158  1.00  0.00     0.075 C 
ATOM      8  O   UNL     1      54.351  12.639  -0.418  1.00  0.00    -0.545 OA
ATOM      9  O   UNL     1      56.237  13.600   0.431  1.00  0.00    -0.545 OA
ENDBRANCH   1   7
BRANCH   2  10
ATOM     10  O   UNL     1      55.710  16.128   1.280  1.00  0.00    -0.507 OA
ATOM     11  H   UNL     1      55.438  16.226   2.251  1.00  0.00     0.293 HD
ENDBRANCH   2  10
TORSDOF 2
ENDMDL
