MODEL 1
REMARK VINA RESULT:    -3.666      0.000      0.000
REMARK INTER + INTRA:          -6.592
REMARK INTER:                  -5.595
REMARK INTRA:                  -0.997
REMARK UNBOUND:                -0.997
REMARK SMILES CCCCCCCCCCC(=O)[O-]
REMARK SMILES IDX 7 1 8 2 9 3 10 4 11 5 12 6 13 7 6 8 5 9 4 10 3 11 2 12 1 13
REMARK H PARENT
REMARK Flexibility Score: inf
ROOT
ATOM      1  C   UNL     1     153.437 154.724 164.849  1.00  0.00     0.000 C 
ENDROOT
BRANCH   1   2
ATOM      2  C   UNL     1     153.531 155.080 166.347  1.00  0.00     0.000 C 
BRANCH   2   3
ATOM      3  C   UNL     1     154.928 155.508 166.829  1.00  0.00     0.006 C 
BRANCH   3   4
ATOM      4  C   UNL     1     155.596 154.460 167.728  1.00  0.00     0.053 C 
BRANCH   4   5
ATOM      5  C   UNL     1     154.694 154.095 168.864  1.00  0.00     0.041 C 
ATOM      6  O   UNL     1     154.380 154.959 169.725  1.00  0.00    -0.550 OA
ATOM      7  O   UNL     1     154.240 152.791 169.001  1.00  0.00    -0.550 OA
ENDBRANCH   4   5
ENDBRANCH   3   4
ENDBRANCH   2   3
ENDBRANCH   1   2
BRANCH   1   8
ATOM      8  C   UNL     1     154.781 154.683 164.101  1.00  0.00     0.000 C 
BRANCH   8   9
ATOM      9  C   UNL     1     154.881 155.740 162.992  1.00  0.00    -0.000 C 
BRANCH   9  10
ATOM     10  C   UNL     1     153.595 156.576 162.912  1.00  0.00    -0.000 C 
BRANCH  10  11
ATOM     11  C   UNL     1     153.874 158.085 162.814  1.00  0.00    -0.000 C 
BRANCH  11  12
ATOM     12  C   UNL     1     153.213 158.882 163.947  1.00  0.00    -0.003 C 
ATOM     13  C   UNL     1     153.899 158.610 165.283  1.00  0.00     0.004 C 
ENDBRANCH  11  12
ENDBRANCH  10  11
ENDBRANCH   9  10
ENDBRANCH   8   9
ENDBRANCH   1   8
TORSDOF 9
ENDMDL
MODEL 2
REMARK VINA RESULT:    -3.538      1.693      3.607
REMARK INTER + INTRA:          -6.397
REMARK INTER:                  -5.338
REMARK INTRA:                  -1.059
REMARK UNBOUND:                -0.997
REMARK SMILES CCCCCCCCCCC(=O)[O-]
REMARK SMILES IDX 7 1 8 2 9 3 10 4 11 5 12 6 13 7 6 8 5 9 4 10 3 11 2 12 1 13
REMARK H PARENT
REMARK Flexibility Score: inf
ROOT
ATOM      1  C   UNL     1     154.465 156.905 165.627  1.00  0.00     0.000 C 
ENDROOT
BRANCH   1   2
ATOM      2  C   UNL     1     154.202 155.755 166.621  1.00  0.00     0.000 C 
BRANCH   2   3
ATOM      3  C   UNL     1     155.425 155.309 167.441  1.00  0.00     0.006 C 
BRANCH   3   4
ATOM      4  C   UNL     1     155.178 154.015 168.226  1.00  0.00     0.053 C 
BRANCH   4   5
ATOM      5  C   UNL     1     154.201 154.254 169.333  1.00  0.00     0.041 C 
ATOM      6  O   UNL     1     153.097 153.648 169.344  1.00  0.00    -0.550 OA
ATOM      7  O   UNL     1     154.486 155.183 170.325  1.00  0.00    -0.550 OA
ENDBRANCH   4   5
ENDBRANCH   3   4
ENDBRANCH   2   3
ENDBRANCH   1   2
BRANCH   1   8
ATOM      8  C   UNL     1     154.298 156.537 164.142  1.00  0.00     0.000 C 
BRANCH   8   9
ATOM      9  C   UNL     1     154.526 155.044 163.867  1.00  0.00    -0.000 C 
BRANCH   9  10
ATOM     10  C   UNL     1     155.960 154.787 163.383  1.00  0.00    -0.000 C 
BRANCH  10  11
ATOM     11  C   UNL     1     156.709 153.769 164.259  1.00  0.00    -0.000 C 
BRANCH  11  12
ATOM     12  C   UNL     1     155.785 152.676 164.815  1.00  0.00    -0.003 C 
ATOM     13  C   UNL     1     156.457 151.307 164.752  1.00  0.00     0.004 C 
ENDBRANCH  11  12
ENDBRANCH  10  11
ENDBRANCH   9  10
ENDBRANCH   8   9
ENDBRANCH   1   8
TORSDOF 9
ENDMDL
MODEL 3
REMARK VINA RESULT:    -3.319      3.346      5.940
REMARK INTER + INTRA:          -6.062
REMARK INTER:                  -5.043
REMARK INTRA:                  -1.019
REMARK UNBOUND:                -0.997
REMARK SMILES CCCCCCCCCCC(=O)[O-]
REMARK SMILES IDX 7 1 8 2 9 3 10 4 11 5 12 6 13 7 6 8 5 9 4 10 3 11 2 12 1 13
REMARK H PARENT
REMARK Flexibility Score: inf
ROOT
ATOM      1  C   UNL     1     155.902 154.631 167.444  1.00  0.00     0.000 C 
ENDROOT
BRANCH   1   2
ATOM      2  C   UNL     1     156.020 155.777 166.418  1.00  0.00     0.000 C 
BRANCH   2   3
ATOM      3  C   UNL     1     154.719 156.124 165.675  1.00  0.00     0.006 C 
BRANCH   3   4
ATOM      4  C   UNL     1     154.322 155.064 164.640  1.00  0.00     0.053 C 
BRANCH   4   5
ATOM      5  C   UNL     1     154.077 155.699 163.309  1.00  0.00     0.041 C 
ATOM      6  O   UNL     1     152.913 156.054 162.981  1.00  0.00    -0.550 OA
ATOM      7  O   UNL     1     155.122 155.856 162.409  1.00  0.00    -0.550 OA
ENDBRANCH   4   5
ENDBRANCH   3   4
ENDBRANCH   2   3
ENDBRANCH   1   2
BRANCH   1   8
ATOM      8  C   UNL     1     154.767 154.788 168.471  1.00  0.00     0.000 C 
BRANCH   8   9
ATOM      9  C   UNL     1     153.663 153.734 168.308  1.00  0.00    -0.000 C 
BRANCH   9  10
ATOM     10  C   UNL     1     154.081 152.398 168.940  1.00  0.00    -0.000 C 
BRANCH  10  11
ATOM     11  C   UNL     1     154.126 151.248 167.921  1.00  0.00    -0.000 C 
BRANCH  11  12
ATOM     12  C   UNL     1     153.859 151.721 166.485  1.00  0.00    -0.003 C 
ATOM     13  C   UNL     1     155.090 151.524 165.605  1.00  0.00     0.004 C 
ENDBRANCH  11  12
ENDBRANCH  10  11
ENDBRANCH   9  10
ENDBRANCH   8   9
ENDBRANCH   1   8
TORSDOF 9
ENDMDL
MODEL 4
REMARK VINA RESULT:    -3.306      3.445      6.269
REMARK INTER + INTRA:          -6.043
REMARK INTER:                  -5.541
REMARK INTRA:                  -0.502
REMARK UNBOUND:                -0.997
REMARK SMILES CCCCCCCCCCC(=O)[O-]
REMARK SMILES IDX 7 1 8 2 9 3 10 4 11 5 12 6 13 7 6 8 5 9 4 10 3 11 2 12 1 13
REMARK H PARENT
REMARK Flexibility Score: inf
ROOT
ATOM      1  C   UNL     1     156.094 155.223 166.941  1.00  0.00     0.000 C 
ENDROOT
BRANCH   1   2
ATOM      2  C   UNL     1     155.900 156.118 165.699  1.00  0.00     0.000 C 
BRANCH   2   3
ATOM      3  C   UNL     1     154.545 156.842 165.623  1.00  0.00     0.006 C 
BRANCH   3   4
ATOM      4  C   UNL     1     153.711 156.419 164.407  1.00  0.00     0.053 C 
BRANCH   4   5
ATOM      5  C   UNL     1     153.859 157.414 163.301  1.00  0.00     0.041 C 
ATOM      6  O   UNL     1     153.817 158.649 163.550  1.00  0.00    -0.550 OA
ATOM      7  O   UNL     1     153.994 156.982 161.988  1.00  0.00    -0.550 OA
ENDBRANCH   4   5
ENDBRANCH   3   4
ENDBRANCH   2   3
ENDBRANCH   1   2
BRANCH   1   8
ATOM      8  C   UNL     1     154.833 155.007 167.794  1.00  0.00     0.000 C 
BRANCH   8   9
ATOM      9  C   UNL     1     154.615 153.536 168.178  1.00  0.00    -0.000 C 
BRANCH   9  10
ATOM     10  C   UNL     1     153.889 153.422 169.526  1.00  0.00    -0.000 C 
BRANCH  10  11
ATOM     11  C   UNL     1     153.537 154.792 170.128  1.00  0.00    -0.000 C 
BRANCH  11  12
ATOM     12  C   UNL     1     154.286 155.071 171.439  1.00  0.00    -0.003 C 
ATOM     13  C   UNL     1     154.048 153.957 172.455  1.00  0.00     0.004 C 
ENDBRANCH  11  12
ENDBRANCH  10  11
ENDBRANCH   9  10
ENDBRANCH   8   9
ENDBRANCH   1   8
TORSDOF 9
ENDMDL
MODEL 5
REMARK VINA RESULT:    -3.275      3.518      4.416
REMARK INTER + INTRA:          -5.995
REMARK INTER:                  -5.068
REMARK INTRA:                  -0.928
REMARK UNBOUND:                -0.997
REMARK SMILES CCCCCCCCCCC(=O)[O-]
REMARK SMILES IDX 7 1 8 2 9 3 10 4 11 5 12 6 13 7 6 8 5 9 4 10 3 11 2 12 1 13
REMARK H PARENT
REMARK Flexibility Score: inf
ROOT
ATOM      1  C   UNL     1     156.107 155.433 165.975  1.00  0.00     0.000 C 
ENDROOT
BRANCH   1   2
ATOM      2  C   UNL     1     155.854 153.919 165.819  1.00  0.00     0.000 C 
BRANCH   2   3
ATOM      3  C   UNL     1     156.552 153.263 164.615  1.00  0.00     0.006 C 
BRANCH   3   4
ATOM      4  C   UNL     1     157.286 154.275 163.726  1.00  0.00     0.053 C 
BRANCH   4   5
ATOM      5  C   UNL     1     158.644 153.763 163.365  1.00  0.00     0.041 C 
ATOM      6  O   UNL     1     159.079 153.897 162.190  1.00  0.00    -0.550 OA
ATOM      7  O   UNL     1     159.411 153.095 164.309  1.00  0.00    -0.550 OA
ENDBRANCH   4   5
ENDBRANCH   3   4
ENDBRANCH   2   3
ENDBRANCH   1   2
BRANCH   1   8
ATOM      8  C   UNL     1     154.907 156.334 165.636  1.00  0.00     0.000 C 
BRANCH   8   9
ATOM      9  C   UNL     1     153.665 155.540 165.206  1.00  0.00    -0.000 C 
BRANCH   9  10
ATOM     10  C   UNL     1     153.240 155.914 163.779  1.00  0.00    -0.000 C 
BRANCH  10  11
ATOM     11  C   UNL     1     154.438 156.208 162.862  1.00  0.00    -0.000 C 
BRANCH  11  12
ATOM     12  C   UNL     1     154.162 157.354 161.877  1.00  0.00    -0.003 C 
ATOM     13  C   UNL     1     153.932 158.669 162.617  1.00  0.00     0.004 C 
ENDBRANCH  11  12
ENDBRANCH  10  11
ENDBRANCH   9  10
ENDBRANCH   8   9
ENDBRANCH   1   8
TORSDOF 9
ENDMDL
MODEL 6
REMARK VINA RESULT:    -3.243      3.036      5.047
REMARK INTER + INTRA:          -5.946
REMARK INTER:                  -5.076
REMARK INTRA:                  -0.871
REMARK UNBOUND:                -0.997
REMARK SMILES CCCCCCCCCCC(=O)[O-]
REMARK SMILES IDX 7 1 8 2 9 3 10 4 11 5 12 6 13 7 6 8 5 9 4 10 3 11 2 12 1 13
REMARK H PARENT
REMARK Flexibility Score: inf
ROOT
ATOM      1  C   UNL     1     155.308 154.801 163.759  1.00  0.00     0.000 C 
ENDROOT
BRANCH   1   2
ATOM      2  C   UNL     1     156.230 154.994 162.538  1.00  0.00     0.000 C 
BRANCH   2   3
ATOM      3  C   UNL     1     157.336 153.936 162.381  1.00  0.00     0.006 C 
BRANCH   3   4
ATOM      4  C   UNL     1     158.423 154.046 163.458  1.00  0.00     0.053 C 
BRANCH   4   5
ATOM      5  C   UNL     1     158.314 152.912 164.427  1.00  0.00     0.041 C 
ATOM      6  O   UNL     1     157.561 151.934 164.175  1.00  0.00    -0.550 OA
ATOM      7  O   UNL     1     159.006 152.955 165.631  1.00  0.00    -0.550 OA
ENDBRANCH   4   5
ENDBRANCH   3   4
ENDBRANCH   2   3
ENDBRANCH   1   2
BRANCH   1   8
ATOM      8  C   UNL     1     154.640 156.084 164.284  1.00  0.00     0.000 C 
BRANCH   8   9
ATOM      9  C   UNL     1     155.010 156.399 165.740  1.00  0.00    -0.000 C 
BRANCH   9  10
ATOM     10  C   UNL     1     156.324 155.709 166.135  1.00  0.00    -0.000 C 
BRANCH  10  11
ATOM     11  C   UNL     1     156.162 154.772 167.343  1.00  0.00    -0.000 C 
BRANCH  11  12
ATOM     12  C   UNL     1     154.691 154.522 167.704  1.00  0.00    -0.003 C 
ATOM     13  C   UNL     1     154.461 154.675 169.205  1.00  0.00     0.004 C 
ENDBRANCH  11  12
ENDBRANCH  10  11
ENDBRANCH   9  10
ENDBRANCH   8   9
ENDBRANCH   1   8
TORSDOF 9
ENDMDL
MODEL 7
REMARK VINA RESULT:    -3.230     15.025     17.938
REMARK INTER + INTRA:          -5.927
REMARK INTER:                  -4.621
REMARK INTRA:                  -1.306
REMARK UNBOUND:                -0.997
REMARK SMILES CCCCCCCCCCC(=O)[O-]
REMARK SMILES IDX 7 1 8 2 9 3 10 4 11 5 12 6 13 7 6 8 5 9 4 10 3 11 2 12 1 13
REMARK H PARENT
REMARK Flexibility Score: inf
ROOT
ATOM      1  C   UNL     1     166.386 151.522 177.241  1.00  0.00     0.000 C 
ENDROOT
BRANCH   1   2
ATOM      2  C   UNL     1     165.625 152.862 177.304  1.00  0.00     0.000 C 
BRANCH   2   3
ATOM      3  C   UNL     1     166.256 154.009 176.497  1.00  0.00     0.006 C 
BRANCH   3   4
ATOM      4  C   UNL     1     165.812 155.395 176.983  1.00  0.00     0.053 C 
BRANCH   4   5
ATOM      5  C   UNL     1     164.626 155.866 176.203  1.00  0.00     0.041 C 
ATOM      6  O   UNL     1     163.511 156.011 176.772  1.00  0.00    -0.550 OA
ATOM      7  O   UNL     1     164.737 156.099 174.839  1.00  0.00    -0.550 OA
ENDBRANCH   4   5
ENDBRANCH   3   4
ENDBRANCH   2   3
ENDBRANCH   1   2
BRANCH   1   8
ATOM      8  C   UNL     1     167.918 151.643 177.175  1.00  0.00     0.000 C 
BRANCH   8   9
ATOM      9  C   UNL     1     168.553 151.944 178.541  1.00  0.00    -0.000 C 
BRANCH   9  10
ATOM     10  C   UNL     1     169.176 153.347 178.560  1.00  0.00    -0.000 C 
BRANCH  10  11
ATOM     11  C   UNL     1     168.618 154.229 179.689  1.00  0.00    -0.000 C 
BRANCH  11  12
ATOM     12  C   UNL     1     167.489 153.542 180.471  1.00  0.00    -0.003 C 
ATOM     13  C   UNL     1     166.264 154.447 180.573  1.00  0.00     0.004 C 
ENDBRANCH  11  12
ENDBRANCH  10  11
ENDBRANCH   9  10
ENDBRANCH   8   9
ENDBRANCH   1   8
TORSDOF 9
ENDMDL
MODEL 8
REMARK VINA RESULT:    -3.213     16.617     18.631
REMARK INTER + INTRA:          -5.900
REMARK INTER:                  -4.617
REMARK INTRA:                  -1.283
REMARK UNBOUND:                -0.997
REMARK SMILES CCCCCCCCCCC(=O)[O-]
REMARK SMILES IDX 7 1 8 2 9 3 10 4 11 5 12 6 13 7 6 8 5 9 4 10 3 11 2 12 1 13
REMARK H PARENT
REMARK Flexibility Score: inf
ROOT
ATOM      1  C   UNL     1     166.006 152.525 177.220  1.00  0.00     0.000 C 
ENDROOT
BRANCH   1   2
ATOM      2  C   UNL     1     166.355 153.843 176.498  1.00  0.00     0.000 C 
BRANCH   2   3
ATOM      3  C   UNL     1     167.749 153.881 175.848  1.00  0.00     0.006 C 
BRANCH   3   4
ATOM      4  C   UNL     1     168.573 155.102 176.276  1.00  0.00     0.053 C 
BRANCH   4   5
ATOM      5  C   UNL     1     168.579 156.133 175.192  1.00  0.00     0.041 C 
ATOM      6  O   UNL     1     169.661 156.463 174.638  1.00  0.00    -0.550 OA
ATOM      7  O   UNL     1     167.398 156.767 174.827  1.00  0.00    -0.550 OA
ENDBRANCH   4   5
ENDBRANCH   3   4
ENDBRANCH   2   3
ENDBRANCH   1   2
BRANCH   1   8
ATOM      8  C   UNL     1     167.113 151.457 177.201  1.00  0.00     0.000 C 
BRANCH   8   9
ATOM      9  C   UNL     1     167.715 151.194 178.589  1.00  0.00    -0.000 C 
BRANCH   9  10
ATOM     10  C   UNL     1     168.994 152.018 178.798  1.00  0.00    -0.000 C 
BRANCH  10  11
ATOM     11  C   UNL     1     168.739 153.322 179.571  1.00  0.00    -0.000 C 
BRANCH  11  12
ATOM     12  C   UNL     1     167.561 153.209 180.549  1.00  0.00    -0.003 C 
ATOM     13  C   UNL     1     166.579 154.363 180.361  1.00  0.00     0.004 C 
ENDBRANCH  11  12
ENDBRANCH  10  11
ENDBRANCH   9  10
ENDBRANCH   8   9
ENDBRANCH   1   8
TORSDOF 9
ENDMDL
MODEL 9
REMARK VINA RESULT:    -3.206      4.018      6.021
REMARK INTER + INTRA:          -5.889
REMARK INTER:                  -5.235
REMARK INTRA:                  -0.655
REMARK UNBOUND:                -0.997
REMARK SMILES CCCCCCCCCCC(=O)[O-]
REMARK SMILES IDX 7 1 8 2 9 3 10 4 11 5 12 6 13 7 6 8 5 9 4 10 3 11 2 12 1 13
REMARK H PARENT
REMARK Flexibility Score: inf
ROOT
ATOM      1  C   UNL     1     155.913 156.072 166.040  1.00  0.00     0.000 C 
ENDROOT
BRANCH   1   2
ATOM      2  C   UNL     1     154.416 156.442 166.070  1.00  0.00     0.000 C 
BRANCH   2   3
ATOM      3  C   UNL     1     154.054 157.754 165.353  1.00  0.00     0.006 C 
BRANCH   3   4
ATOM      4  C   UNL     1     153.197 157.532 164.100  1.00  0.00     0.053 C 
BRANCH   4   5
ATOM      5  C   UNL     1     153.938 157.968 162.877  1.00  0.00     0.041 C 
ATOM      6  O   UNL     1     154.546 157.121 162.169  1.00  0.00    -0.550 OA
ATOM      7  O   UNL     1     154.001 159.315 162.543  1.00  0.00    -0.550 OA
ENDBRANCH   4   5
ENDBRANCH   3   4
ENDBRANCH   2   3
ENDBRANCH   1   2
BRANCH   1   8
ATOM      8  C   UNL     1     156.226 154.656 165.527  1.00  0.00     0.000 C 
BRANCH   8   9
ATOM      9  C   UNL     1     156.352 154.588 163.998  1.00  0.00    -0.000 C 
BRANCH   9  10
ATOM     10  C   UNL     1     156.825 153.199 163.546  1.00  0.00    -0.000 C 
BRANCH  10  11
ATOM     11  C   UNL     1     157.112 152.257 164.727  1.00  0.00    -0.000 C 
BRANCH  11  12
ATOM     12  C   UNL     1     158.561 151.749 164.739  1.00  0.00    -0.003 C 
ATOM     13  C   UNL     1     159.459 152.671 165.560  1.00  0.00     0.004 C 
ENDBRANCH  11  12
ENDBRANCH  10  11
ENDBRANCH   9  10
ENDBRANCH   8   9
ENDBRANCH   1   8
TORSDOF 9
ENDMDL
