MODEL 1
REMARK VINA RESULT:    -4.547      0.000      0.000
REMARK INTER + INTRA:          -7.401
REMARK INTER:                  -6.674
REMARK INTRA:                  -0.727
REMARK UNBOUND:                -0.727
REMARK SMILES O=C([O-])CCCCCCCC(=O)[O-]
REMARK SMILES IDX 7 1 6 2 5 3 4 4 2 5 1 6 3 7 8 8 9 9 10 10 11 11 12 12 13 13
REMARK H PARENT
REMARK Flexibility Score: inf
ROOT
ATOM      1  C   UNL     1     -22.140  -5.663  17.663  1.00  0.00     0.000 C 
ENDROOT
BRANCH   1   2
ATOM      2  C   UNL     1     -21.187  -4.940  16.700  1.00  0.00     0.000 C 
BRANCH   2   3
ATOM      3  C   UNL     1     -21.034  -5.668  15.352  1.00  0.00     0.006 C 
BRANCH   3   4
ATOM      4  C   UNL     1     -19.584  -6.031  14.989  1.00  0.00     0.053 C 
BRANCH   4   5
ATOM      5  C   UNL     1     -19.398  -7.508  14.830  1.00  0.00     0.041 C 
ATOM      6  O   UNL     1     -19.769  -8.083  13.772  1.00  0.00    -0.550 OA
ATOM      7  O   UNL     1     -18.785  -8.245  15.835  1.00  0.00    -0.550 OA
ENDBRANCH   4   5
ENDBRANCH   3   4
ENDBRANCH   2   3
ENDBRANCH   1   2
BRANCH   1   8
ATOM      8  C   UNL     1     -21.759  -7.141  17.805  1.00  0.00     0.000 C 
BRANCH   8   9
ATOM      9  C   UNL     1     -23.010  -8.030  17.868  1.00  0.00     0.006 C 
BRANCH   9  10
ATOM     10  C   UNL     1     -23.053  -9.056  16.727  1.00  0.00     0.053 C 
BRANCH  10  11
ATOM     11  C   UNL     1     -23.409  -8.419  15.419  1.00  0.00     0.041 C 
ATOM     12  O   UNL     1     -22.887  -8.834  14.350  1.00  0.00    -0.550 OA
ATOM     13  O   UNL     1     -24.340  -7.389  15.376  1.00  0.00    -0.550 OA
ENDBRANCH  10  11
ENDBRANCH   9  10
ENDBRANCH   8   9
ENDBRANCH   1   8
TORSDOF 8
ENDMDL
MODEL 2
REMARK VINA RESULT:    -4.524      0.920      1.619
REMARK INTER + INTRA:          -7.366
REMARK INTER:                  -6.868
REMARK INTRA:                  -0.499
REMARK UNBOUND:                -0.727
REMARK SMILES O=C([O-])CCCCCCCC(=O)[O-]
REMARK SMILES IDX 7 1 6 2 5 3 4 4 2 5 1 6 3 7 8 8 9 9 10 10 11 11 12 12 13 13
REMARK H PARENT
REMARK Flexibility Score: inf
ROOT
ATOM      1  C   UNL     1     -21.409  -5.099  16.965  1.00  0.00     0.000 C 
ENDROOT
BRANCH   1   2
ATOM      2  C   UNL     1     -21.202  -5.787  15.607  1.00  0.00     0.000 C 
BRANCH   2   3
ATOM      3  C   UNL     1     -19.965  -5.263  14.854  1.00  0.00     0.006 C 
BRANCH   3   4
ATOM      4  C   UNL     1     -18.761  -6.219  14.872  1.00  0.00     0.053 C 
BRANCH   4   5
ATOM      5  C   UNL     1     -19.185  -7.656  14.853  1.00  0.00     0.041 C 
ATOM      6  O   UNL     1     -18.921  -8.406  15.830  1.00  0.00    -0.550 OA
ATOM      7  O   UNL     1     -19.901  -8.157  13.774  1.00  0.00    -0.550 OA
ENDBRANCH   4   5
ENDBRANCH   3   4
ENDBRANCH   2   3
ENDBRANCH   1   2
BRANCH   1   8
ATOM      8  C   UNL     1     -22.250  -5.975  17.901  1.00  0.00     0.000 C 
BRANCH   8   9
ATOM      9  C   UNL     1     -21.923  -7.463  17.706  1.00  0.00     0.006 C 
BRANCH   9  10
ATOM     10  C   UNL     1     -23.186  -8.321  17.553  1.00  0.00     0.053 C 
BRANCH  10  11
ATOM     11  C   UNL     1     -23.080  -9.266  16.396  1.00  0.00     0.041 C 
ATOM     12  O   UNL     1     -23.120 -10.511  16.590  1.00  0.00    -0.550 OA
ATOM     13  O   UNL     1     -22.969  -8.775  15.101  1.00  0.00    -0.550 OA
ENDBRANCH  10  11
ENDBRANCH   9  10
ENDBRANCH   8   9
ENDBRANCH   1   8
TORSDOF 8
ENDMDL
MODEL 3
REMARK VINA RESULT:    -4.475      0.935      4.165
REMARK INTER + INTRA:          -7.294
REMARK INTER:                  -6.852
REMARK INTRA:                  -0.442
REMARK UNBOUND:                -0.727
REMARK SMILES O=C([O-])CCCCCCCC(=O)[O-]
REMARK SMILES IDX 7 1 6 2 5 3 4 4 2 5 1 6 3 7 8 8 9 9 10 10 11 11 12 12 13 13
REMARK H PARENT
REMARK Flexibility Score: inf
ROOT
ATOM      1  C   UNL     1     -21.406  -5.076  16.899  1.00  0.00     0.000 C 
ENDROOT
BRANCH   1   2
ATOM      2  C   UNL     1     -22.130  -5.980  17.908  1.00  0.00     0.000 C 
BRANCH   2   3
ATOM      3  C   UNL     1     -21.894  -7.479  17.643  1.00  0.00     0.006 C 
BRANCH   3   4
ATOM      4  C   UNL     1     -23.182  -8.305  17.492  1.00  0.00     0.053 C 
BRANCH   4   5
ATOM      5  C   UNL     1     -23.079  -9.308  16.385  1.00  0.00     0.041 C 
ATOM      6  O   UNL     1     -23.220 -10.536  16.627  1.00  0.00    -0.550 OA
ATOM      7  O   UNL     1     -22.861  -8.884  15.080  1.00  0.00    -0.550 OA
ENDBRANCH   4   5
ENDBRANCH   3   4
ENDBRANCH   2   3
ENDBRANCH   1   2
BRANCH   1   8
ATOM      8  C   UNL     1     -21.114  -5.831  15.597  1.00  0.00     0.000 C 
BRANCH   8   9
ATOM      9  C   UNL     1     -19.881  -5.252  14.889  1.00  0.00     0.006 C 
BRANCH   9  10
ATOM     10  C   UNL     1     -18.698  -6.230  14.887  1.00  0.00     0.053 C 
BRANCH  10  11
ATOM     11  C   UNL     1     -19.155  -7.656  14.865  1.00  0.00     0.041 C 
ATOM     12  O   UNL     1     -18.944  -8.404  15.856  1.00  0.00    -0.550 OA
ATOM     13  O   UNL     1     -19.843  -8.150  13.763  1.00  0.00    -0.550 OA
ENDBRANCH  10  11
ENDBRANCH   9  10
ENDBRANCH   8   9
ENDBRANCH   1   8
TORSDOF 8
ENDMDL
MODEL 4
REMARK VINA RESULT:    -4.435      1.430      4.630
REMARK INTER + INTRA:          -7.235
REMARK INTER:                  -6.503
REMARK INTRA:                  -0.732
REMARK UNBOUND:                -0.727
REMARK SMILES O=C([O-])CCCCCCCC(=O)[O-]
REMARK SMILES IDX 7 1 6 2 5 3 4 4 2 5 1 6 3 7 8 8 9 9 10 10 11 11 12 12 13 13
REMARK H PARENT
REMARK Flexibility Score: inf
ROOT
ATOM      1  C   UNL     1     -22.237  -5.818  17.556  1.00  0.00     0.000 C 
ENDROOT
BRANCH   1   2
ATOM      2  C   UNL     1     -21.705  -7.194  17.982  1.00  0.00     0.000 C 
BRANCH   2   3
ATOM      3  C   UNL     1     -22.393  -8.355  17.241  1.00  0.00     0.006 C 
BRANCH   3   4
ATOM      4  C   UNL     1     -23.739  -7.986  16.596  1.00  0.00     0.053 C 
BRANCH   4   5
ATOM      5  C   UNL     1     -24.893  -8.250  17.513  1.00  0.00     0.041 C 
ATOM      6  O   UNL     1     -25.350  -9.417  17.635  1.00  0.00    -0.550 OA
ATOM      7  O   UNL     1     -25.440  -7.215  18.260  1.00  0.00    -0.550 OA
ENDBRANCH   4   5
ENDBRANCH   3   4
ENDBRANCH   2   3
ENDBRANCH   1   2
BRANCH   1   8
ATOM      8  C   UNL     1     -21.168  -5.029  16.791  1.00  0.00     0.000 C 
BRANCH   8   9
ATOM      9  C   UNL     1     -21.104  -5.470  15.321  1.00  0.00     0.006 C 
BRANCH   9  10
ATOM     10  C   UNL     1     -19.715  -5.993  14.930  1.00  0.00     0.053 C 
BRANCH  10  11
ATOM     11  C   UNL     1     -19.689  -7.487  14.836  1.00  0.00     0.041 C 
ATOM     12  O   UNL     1     -20.244  -8.070  13.867  1.00  0.00    -0.550 OA
ATOM     13  O   UNL     1     -19.024  -8.236  15.800  1.00  0.00    -0.550 OA
ENDBRANCH  10  11
ENDBRANCH   9  10
ENDBRANCH   8   9
ENDBRANCH   1   8
TORSDOF 8
ENDMDL
MODEL 5
REMARK VINA RESULT:    -4.431      2.135      3.037
REMARK INTER + INTRA:          -7.230
REMARK INTER:                  -6.662
REMARK INTRA:                  -0.568
REMARK UNBOUND:                -0.727
REMARK SMILES O=C([O-])CCCCCCCC(=O)[O-]
REMARK SMILES IDX 7 1 6 2 5 3 4 4 2 5 1 6 3 7 8 8 9 9 10 10 11 11 12 12 13 13
REMARK H PARENT
REMARK Flexibility Score: inf
ROOT
ATOM      1  C   UNL     1     -23.719  -7.876  14.523  1.00  0.00     0.000 C 
ENDROOT
BRANCH   1   2
ATOM      2  C   UNL     1     -22.310  -8.389  14.854  1.00  0.00     0.000 C 
BRANCH   2   3
ATOM      3  C   UNL     1     -21.213  -7.345  14.574  1.00  0.00     0.006 C 
BRANCH   3   4
ATOM      4  C   UNL     1     -19.884  -7.941  14.078  1.00  0.00     0.053 C 
BRANCH   4   5
ATOM      5  C   UNL     1     -18.747  -7.620  14.999  1.00  0.00     0.041 C 
ATOM      6  O   UNL     1     -18.019  -6.616  14.780  1.00  0.00    -0.550 OA
ATOM      7  O   UNL     1     -18.512  -8.411  16.117  1.00  0.00    -0.550 OA
ENDBRANCH   4   5
ENDBRANCH   3   4
ENDBRANCH   2   3
ENDBRANCH   1   2
BRANCH   1   8
ATOM      8  C   UNL     1     -24.435  -7.385  15.786  1.00  0.00     0.000 C 
BRANCH   8   9
ATOM      9  C   UNL     1     -23.991  -8.187  17.018  1.00  0.00     0.006 C 
BRANCH   9  10
ATOM     10  C   UNL     1     -23.561  -7.280  18.180  1.00  0.00     0.053 C 
BRANCH  10  11
ATOM     11  C   UNL     1     -22.151  -6.802  18.020  1.00  0.00     0.041 C 
ATOM     12  O   UNL     1     -21.917  -5.585  17.789  1.00  0.00    -0.550 OA
ATOM     13  O   UNL     1     -21.093  -7.691  18.158  1.00  0.00    -0.550 OA
ENDBRANCH  10  11
ENDBRANCH   9  10
ENDBRANCH   8   9
ENDBRANCH   1   8
TORSDOF 8
ENDMDL
MODEL 6
REMARK VINA RESULT:    -4.429      0.762      4.214
REMARK INTER + INTRA:          -7.228
REMARK INTER:                  -6.477
REMARK INTRA:                  -0.751
REMARK UNBOUND:                -0.727
REMARK SMILES O=C([O-])CCCCCCCC(=O)[O-]
REMARK SMILES IDX 7 1 6 2 5 3 4 4 2 5 1 6 3 7 8 8 9 9 10 10 11 11 12 12 13 13
REMARK H PARENT
REMARK Flexibility Score: inf
ROOT
ATOM      1  C   UNL     1     -22.119  -5.694  17.555  1.00  0.00     0.000 C 
ENDROOT
BRANCH   1   2
ATOM      2  C   UNL     1     -21.705  -7.145  17.839  1.00  0.00     0.000 C 
BRANCH   2   3
ATOM      3  C   UNL     1     -22.579  -8.172  17.096  1.00  0.00     0.006 C 
BRANCH   3   4
ATOM      4  C   UNL     1     -23.997  -7.676  16.767  1.00  0.00     0.053 C 
BRANCH   4   5
ATOM      5  C   UNL     1     -24.225  -7.565  15.291  1.00  0.00     0.041 C 
ATOM      6  O   UNL     1     -23.316  -7.892  14.483  1.00  0.00    -0.550 OA
ATOM      7  O   UNL     1     -25.453  -7.134  14.806  1.00  0.00    -0.550 OA
ENDBRANCH   4   5
ENDBRANCH   3   4
ENDBRANCH   2   3
ENDBRANCH   1   2
BRANCH   1   8
ATOM      8  C   UNL     1     -21.019  -4.949  16.789  1.00  0.00     0.000 C 
BRANCH   8   9
ATOM      9  C   UNL     1     -20.922  -5.447  15.340  1.00  0.00     0.006 C 
BRANCH   9  10
ATOM     10  C   UNL     1     -19.521  -5.972  14.997  1.00  0.00     0.053 C 
BRANCH  10  11
ATOM     11  C   UNL     1     -19.505  -7.463  14.854  1.00  0.00     0.041 C 
ATOM     12  O   UNL     1     -18.975  -8.179  15.745  1.00  0.00    -0.550 OA
ATOM     13  O   UNL     1     -20.104  -8.064  13.754  1.00  0.00    -0.550 OA
ENDBRANCH  10  11
ENDBRANCH   9  10
ENDBRANCH   8   9
ENDBRANCH   1   8
TORSDOF 8
ENDMDL
MODEL 7
REMARK VINA RESULT:    -4.406      2.070      4.420
REMARK INTER + INTRA:          -7.194
REMARK INTER:                  -6.457
REMARK INTRA:                  -0.737
REMARK UNBOUND:                -0.727
REMARK SMILES O=C([O-])CCCCCCCC(=O)[O-]
REMARK SMILES IDX 7 1 6 2 5 3 4 4 2 5 1 6 3 7 8 8 9 9 10 10 11 11 12 12 13 13
REMARK H PARENT
REMARK Flexibility Score: inf
ROOT
ATOM      1  C   UNL     1     -22.908  -9.350  15.823  1.00  0.00     0.000 C 
ENDROOT
BRANCH   1   2
ATOM      2  C   UNL     1     -23.817  -9.207  17.052  1.00  0.00     0.000 C 
BRANCH   2   3
ATOM      3  C   UNL     1     -24.345  -7.773  17.242  1.00  0.00     0.006 C 
BRANCH   3   4
ATOM      4  C   UNL     1     -23.696  -7.008  18.407  1.00  0.00     0.053 C 
BRANCH   4   5
ATOM      5  C   UNL     1     -22.272  -6.645  18.117  1.00  0.00     0.041 C 
ATOM      6  O   UNL     1     -21.345  -7.454  18.386  1.00  0.00    -0.550 OA
ATOM      7  O   UNL     1     -21.972  -5.429  17.518  1.00  0.00    -0.550 OA
ENDBRANCH   4   5
ENDBRANCH   3   4
ENDBRANCH   2   3
ENDBRANCH   1   2
BRANCH   1   8
ATOM      8  C   UNL     1     -23.218  -8.267  14.783  1.00  0.00     0.000 C 
BRANCH   8   9
ATOM      9  C   UNL     1     -21.984  -7.394  14.512  1.00  0.00     0.006 C 
BRANCH   9  10
ATOM     10  C   UNL     1     -20.697  -8.017  15.070  1.00  0.00     0.053 C 
BRANCH  10  11
ATOM     11  C   UNL     1     -19.554  -7.050  15.044  1.00  0.00     0.041 C 
ATOM     12  O   UNL     1     -18.369  -7.471  14.961  1.00  0.00    -0.550 OA
ATOM     13  O   UNL     1     -19.797  -5.682  15.078  1.00  0.00    -0.550 OA
ENDBRANCH  10  11
ENDBRANCH   9  10
ENDBRANCH   8   9
ENDBRANCH   1   8
TORSDOF 8
ENDMDL
MODEL 8
REMARK VINA RESULT:    -4.357      1.317      1.928
REMARK INTER + INTRA:          -7.121
REMARK INTER:                  -6.437
REMARK INTRA:                  -0.684
REMARK UNBOUND:                -0.727
REMARK SMILES O=C([O-])CCCCCCCC(=O)[O-]
REMARK SMILES IDX 7 1 6 2 5 3 4 4 2 5 1 6 3 7 8 8 9 9 10 10 11 11 12 12 13 13
REMARK H PARENT
REMARK Flexibility Score: inf
ROOT
ATOM      1  C   UNL     1     -21.346  -5.312  16.657  1.00  0.00     0.000 C 
ENDROOT
BRANCH   1   2
ATOM      2  C   UNL     1     -21.106  -5.655  15.179  1.00  0.00     0.000 C 
BRANCH   2   3
ATOM      3  C   UNL     1     -21.414  -7.128  14.850  1.00  0.00     0.006 C 
BRANCH   3   4
ATOM      4  C   UNL     1     -20.269  -7.872  14.144  1.00  0.00     0.053 C 
BRANCH   4   5
ATOM      5  C   UNL     1     -18.966  -7.709  14.863  1.00  0.00     0.041 C 
ATOM      6  O   UNL     1     -18.766  -8.307  15.954  1.00  0.00    -0.550 OA
ATOM      7  O   UNL     1     -17.960  -6.925  14.314  1.00  0.00    -0.550 OA
ENDBRANCH   4   5
ENDBRANCH   3   4
ENDBRANCH   2   3
ENDBRANCH   1   2
BRANCH   1   8
ATOM      8  C   UNL     1     -21.776  -6.554  17.445  1.00  0.00     0.000 C 
BRANCH   8   9
ATOM      9  C   UNL     1     -23.166  -6.359  18.068  1.00  0.00     0.006 C 
BRANCH   9  10
ATOM     10  C   UNL     1     -23.918  -7.685  18.242  1.00  0.00     0.053 C 
BRANCH  10  11
ATOM     11  C   UNL     1     -24.151  -8.369  16.930  1.00  0.00     0.041 C 
ATOM     12  O   UNL     1     -24.760  -7.770  16.004  1.00  0.00    -0.550 OA
ATOM     13  O   UNL     1     -23.670  -9.654  16.718  1.00  0.00    -0.550 OA
ENDBRANCH  10  11
ENDBRANCH   9  10
ENDBRANCH   8   9
ENDBRANCH   1   8
TORSDOF 8
ENDMDL
MODEL 9
REMARK VINA RESULT:    -4.303      2.379      4.938
REMARK INTER + INTRA:          -7.042
REMARK INTER:                  -6.440
REMARK INTRA:                  -0.602
REMARK UNBOUND:                -0.727
REMARK SMILES O=C([O-])CCCCCCCC(=O)[O-]
REMARK SMILES IDX 7 1 6 2 5 3 4 4 2 5 1 6 3 7 8 8 9 9 10 10 11 11 12 12 13 13
REMARK H PARENT
REMARK Flexibility Score: inf
ROOT
ATOM      1  C   UNL     1     -19.978  -6.477  15.165  1.00  0.00     0.000 C 
ENDROOT
BRANCH   1   2
ATOM      2  C   UNL     1     -21.454  -6.312  15.556  1.00  0.00     0.000 C 
BRANCH   2   3
ATOM      3  C   UNL     1     -21.639  -5.912  17.032  1.00  0.00     0.006 C 
BRANCH   3   4
ATOM      4  C   UNL     1     -21.812  -7.101  17.992  1.00  0.00     0.053 C 
BRANCH   4   5
ATOM      5  C   UNL     1     -22.910  -8.021  17.556  1.00  0.00     0.041 C 
ATOM      6  O   UNL     1     -22.639  -9.081  16.934  1.00  0.00    -0.550 OA
ATOM      7  O   UNL     1     -24.231  -7.724  17.866  1.00  0.00    -0.550 OA
ENDBRANCH   4   5
ENDBRANCH   3   4
ENDBRANCH   2   3
ENDBRANCH   1   2
BRANCH   1   8
ATOM      8  C   UNL     1     -19.565  -7.953  15.191  1.00  0.00     0.000 C 
BRANCH   8   9
ATOM      9  C   UNL     1     -18.501  -8.208  16.269  1.00  0.00     0.006 C 
BRANCH   9  10
ATOM     10  C   UNL     1     -18.965  -9.234  17.312  1.00  0.00     0.053 C 
BRANCH  10  11
ATOM     11  C   UNL     1     -17.854  -9.628  18.236  1.00  0.00     0.041 C 
ATOM     12  O   UNL     1     -17.947 -10.678  18.927  1.00  0.00    -0.550 OA
ATOM     13  O   UNL     1     -16.703  -8.854  18.312  1.00  0.00    -0.550 OA
ENDBRANCH  10  11
ENDBRANCH   9  10
ENDBRANCH   8   9
ENDBRANCH   1   8
TORSDOF 8
ENDMDL
