MODEL 1
REMARK VINA RESULT:    -1.751      0.000      0.000
REMARK INTER + INTRA:          -3.593
REMARK INTER:                  -2.672
REMARK INTRA:                  -0.920
REMARK UNBOUND:                -0.920
REMARK SMILES OC[C@H]1O[C@H](O[C@]2(CO)O[C@H](CO)[C@H](O)[C@@H]2O)[C@@H](O)[C@@H](O)[C@@H]1O
REMARK SMILES IDX 6 1 5 2 3 3 22 4 4 5 20 6 18 7 2 8 1 9 23 11 21 13 19 15
REMARK SMILES IDX 7 17 16 18 10 19 14 20 11 21 8 22 9 23 17 25 15 27 12 29
REMARK SMILES IDX 13 30
REMARK H PARENT 1 10 23 12 21 14 19 16 9 24 17 26 15 28 13 31
REMARK Flexibility Score: inf
ROOT
ATOM      1  O   UNL     1      27.212  15.889  48.219  1.00  0.00    -0.313 OA
ENDROOT
BRANCH   1   2
ATOM      2  C   UNL     1      28.693  15.847  48.413  1.00  0.00     0.285 C 
ATOM      3  C   UNL     1      30.296  14.749  49.938  1.00  0.00     0.178 C 
ATOM      4  C   UNL     1      30.116  13.386  49.264  1.00  0.00     0.177 C 
ATOM      5  O   UNL     1      29.088  15.564  49.742  1.00  0.00    -0.341 OA
ATOM      6  C   UNL     1      29.434  13.476  47.882  1.00  0.00     0.179 C 
ATOM      7  C   UNL     1      29.351  14.940  47.339  1.00  0.00     0.202 C 
BRANCH   3   8
ATOM      8  C   UNL     1      31.771  15.259  49.709  1.00  0.00     0.191 C 
BRANCH   8   9
ATOM      9  O   UNL     1      31.963  16.510  49.044  1.00  0.00    -0.394 OA
ATOM     10  H   UNL     1      32.545  17.087  49.628  1.00  0.00     0.210 HD
ENDBRANCH   8   9
ENDBRANCH   3   8
BRANCH   4  11
ATOM     11  O   UNL     1      29.442  12.517  50.125  1.00  0.00    -0.387 OA
ATOM     12  H   UNL     1      29.527  12.954  51.023  1.00  0.00     0.211 HD
ENDBRANCH   4  11
BRANCH   6  13
ATOM     13  O   UNL     1      30.083  12.613  46.956  1.00  0.00    -0.387 OA
ATOM     14  H   UNL     1      29.474  12.505  46.176  1.00  0.00     0.211 HD
ENDBRANCH   6  13
BRANCH   7  15
ATOM     15  O   UNL     1      30.645  15.396  46.964  1.00  0.00    -0.385 OA
ATOM     16  H   UNL     1      31.291  14.621  47.001  1.00  0.00     0.211 HD
ENDBRANCH   7  15
ENDBRANCH   1   2
BRANCH   1  17
ATOM     17  C   UNL     1      26.076  16.144  49.191  1.00  0.00     0.224 C 
ATOM     18  C   UNL     1      24.634  16.229  48.552  1.00  0.00     0.208 C 
ATOM     19  O   UNL     1      25.965  14.963  50.065  1.00  0.00    -0.337 OA
ATOM     20  C   UNL     1      23.822  15.748  49.777  1.00  0.00     0.180 C 
ATOM     21  C   UNL     1      24.586  14.494  50.125  1.00  0.00     0.179 C 
BRANCH  17  22
ATOM     22  C   UNL     1      26.163  17.530  50.125  1.00  0.00     0.225 C 
BRANCH  22  23
ATOM     23  O   UNL     1      27.429  18.123  50.001  1.00  0.00    -0.391 OA
ATOM     24  H   UNL     1      28.030  17.425  49.615  1.00  0.00     0.210 HD
ENDBRANCH  22  23
ENDBRANCH  17  22
BRANCH  18  25
ATOM     25  O   UNL     1      24.381  15.504  47.349  1.00  0.00    -0.385 OA
ATOM     26  H   UNL     1      24.133  14.571  47.602  1.00  0.00     0.211 HD
ENDBRANCH  18  25
BRANCH  20  27
ATOM     27  O   UNL     1      22.454  15.632  49.393  1.00  0.00    -0.387 OA
ATOM     28  H   UNL     1      21.935  15.649  50.246  1.00  0.00     0.211 HD
ENDBRANCH  20  27
BRANCH  21  29
ATOM     29  C   UNL     1      24.436  13.227  49.289  1.00  0.00     0.191 C 
BRANCH  29  30
ATOM     30  O   UNL     1      25.613  12.959  48.557  1.00  0.00    -0.394 OA
ATOM     31  H   UNL     1      25.285  12.673  47.644  1.00  0.00     0.210 HD
ENDBRANCH  29  30
ENDBRANCH  21  29
ENDBRANCH   1  17
TORSDOF 13
ENDMDL
MODEL 2
REMARK VINA RESULT:    -1.598      1.323      3.065
REMARK INTER + INTRA:          -3.359
REMARK INTER:                  -3.039
REMARK INTRA:                  -0.321
REMARK UNBOUND:                -0.920
REMARK SMILES OC[C@H]1O[C@H](O[C@]2(CO)O[C@H](CO)[C@H](O)[C@@H]2O)[C@@H](O)[C@@H](O)[C@@H]1O
REMARK SMILES IDX 6 1 5 2 3 3 22 4 4 5 20 6 18 7 2 8 1 9 23 11 21 13 19 15
REMARK SMILES IDX 7 17 16 18 10 19 14 20 11 21 8 22 9 23 17 25 15 27 12 29
REMARK SMILES IDX 13 30
REMARK H PARENT 1 10 23 12 21 14 19 16 9 24 17 26 15 28 13 31
REMARK Flexibility Score: inf
ROOT
ATOM      1  O   UNL     1      26.745  13.241  49.419  1.00  0.00    -0.313 OA
ENDROOT
BRANCH   1   2
ATOM      2  C   UNL     1      28.080  13.837  49.728  1.00  0.00     0.285 C 
ATOM      3  C   UNL     1      30.454  13.269  49.356  1.00  0.00     0.178 C 
ATOM      4  C   UNL     1      30.383  13.628  47.870  1.00  0.00     0.177 C 
ATOM      5  O   UNL     1      29.120  12.883  49.839  1.00  0.00    -0.341 OA
ATOM      6  C   UNL     1      29.136  14.461  47.505  1.00  0.00     0.179 C 
ATOM      7  C   UNL     1      28.382  15.011  48.759  1.00  0.00     0.202 C 
BRANCH   3   8
ATOM      8  C   UNL     1      31.422  14.270  50.095  1.00  0.00     0.191 C 
BRANCH   8   9
ATOM      9  O   UNL     1      31.907  15.406  49.374  1.00  0.00    -0.394 OA
ATOM     10  H   UNL     1      32.711  15.117  48.842  1.00  0.00     0.210 HD
ENDBRANCH   8   9
ENDBRANCH   3   8
BRANCH   4  11
ATOM     11  O   UNL     1      30.483  12.469  47.096  1.00  0.00    -0.387 OA
ATOM     12  H   UNL     1      31.306  12.017  47.447  1.00  0.00     0.211 HD
ENDBRANCH   4  11
BRANCH   6  13
ATOM     13  O   UNL     1      29.488  15.508  46.608  1.00  0.00    -0.387 OA
ATOM     14  H   UNL     1      30.481  15.512  46.534  1.00  0.00     0.211 HD
ENDBRANCH   6  13
BRANCH   7  15
ATOM     15  O   UNL     1      29.147  16.039  49.377  1.00  0.00    -0.385 OA
ATOM     16  H   UNL     1      29.672  16.530  48.668  1.00  0.00     0.211 HD
ENDBRANCH   7  15
ENDBRANCH   1   2
BRANCH   1  17
ATOM     17  C   UNL     1      25.351  13.840  49.416  1.00  0.00     0.224 C 
ATOM     18  C   UNL     1      25.212  15.253  50.107  1.00  0.00     0.208 C 
ATOM     19  O   UNL     1      25.000  14.137  48.015  1.00  0.00    -0.337 OA
ATOM     20  C   UNL     1      24.014  15.783  49.285  1.00  0.00     0.180 C 
ATOM     21  C   UNL     1      24.508  15.504  47.887  1.00  0.00     0.179 C 
BRANCH  17  22
ATOM     22  C   UNL     1      24.129  12.944  50.125  1.00  0.00     0.225 C 
BRANCH  22  23
ATOM     23  O   UNL     1      24.040  11.678  49.523  1.00  0.00    -0.391 OA
ATOM     24  H   UNL     1      24.705  11.098  49.989  1.00  0.00     0.210 HD
ENDBRANCH  22  23
ENDBRANCH  17  22
BRANCH  18  25
ATOM     25  O   UNL     1      26.349  16.115  50.125  1.00  0.00    -0.385 OA
ATOM     26  H   UNL     1      26.319  16.675  49.299  1.00  0.00     0.211 HD
ENDBRANCH  18  25
BRANCH  20  27
ATOM     27  O   UNL     1      23.767  17.133  49.668  1.00  0.00    -0.387 OA
ATOM     28  H   UNL     1      24.666  17.566  49.716  1.00  0.00     0.211 HD
ENDBRANCH  20  27
BRANCH  21  29
ATOM     29  C   UNL     1      25.579  16.379  47.246  1.00  0.00     0.191 C 
BRANCH  29  30
ATOM     30  O   UNL     1      25.462  17.720  47.673  1.00  0.00    -0.394 OA
ATOM     31  H   UNL     1      26.097  18.233  47.076  1.00  0.00     0.210 HD
ENDBRANCH  29  30
ENDBRANCH  21  29
ENDBRANCH   1  17
TORSDOF 13
ENDMDL
MODEL 3
REMARK VINA RESULT:     0.354      1.289      2.596
REMARK INTER + INTRA:          -0.380
REMARK INTER:                  -0.126
REMARK INTRA:                  -0.253
REMARK UNBOUND:                -0.920
REMARK SMILES OC[C@H]1O[C@H](O[C@]2(CO)O[C@H](CO)[C@H](O)[C@@H]2O)[C@@H](O)[C@@H](O)[C@@H]1O
REMARK SMILES IDX 6 1 5 2 3 3 22 4 4 5 20 6 18 7 2 8 1 9 23 11 21 13 19 15
REMARK SMILES IDX 7 17 16 18 10 19 14 20 11 21 8 22 9 23 17 25 15 27 12 29
REMARK SMILES IDX 13 30
REMARK H PARENT 1 10 23 12 21 14 19 16 9 24 17 26 15 28 13 31
REMARK Flexibility Score: inf
ROOT
ATOM      1  O   UNL     1      27.043  14.469  48.098  1.00  0.00    -0.313 OA
ENDROOT
BRANCH   1   2
ATOM      2  C   UNL     1      28.404  13.871  48.246  1.00  0.00     0.285 C 
ATOM      3  C   UNL     1      30.617  14.102  47.174  1.00  0.00     0.178 C 
ATOM      4  C   UNL     1      30.885  15.449  47.851  1.00  0.00     0.177 C 
ATOM      5  O   UNL     1      29.167  13.886  47.054  1.00  0.00    -0.341 OA
ATOM      6  C   UNL     1      29.940  15.732  49.037  1.00  0.00     0.179 C 
ATOM      7  C   UNL     1      29.125  14.473  49.481  1.00  0.00     0.202 C 
BRANCH   3   8
ATOM      8  C   UNL     1      31.644  13.031  47.707  1.00  0.00     0.191 C 
BRANCH   8   9
ATOM      9  O   UNL     1      31.425  11.655  47.382  1.00  0.00    -0.394 OA
ATOM     10  H   UNL     1      32.084  11.104  47.904  1.00  0.00     0.210 HD
ENDBRANCH   8   9
ENDBRANCH   3   8
BRANCH   4  11
ATOM     11  O   UNL     1      30.854  16.472  46.900  1.00  0.00    -0.387 OA
ATOM     12  H   UNL     1      31.819  16.697  46.757  1.00  0.00     0.211 HD
ENDBRANCH   4  11
BRANCH   6  13
ATOM     13  O   UNL     1      30.668  16.291  50.125  1.00  0.00    -0.387 OA
ATOM     14  H   UNL     1      30.124  17.041  50.489  1.00  0.00     0.211 HD
ENDBRANCH   6  13
BRANCH   7  15
ATOM     15  O   UNL     1      29.985  13.535  50.117  1.00  0.00    -0.385 OA
ATOM     16  H   UNL     1      29.647  12.601  49.932  1.00  0.00     0.211 HD
ENDBRANCH   7  15
ENDBRANCH   1   2
BRANCH   1  17
ATOM     17  C   UNL     1      26.082  15.050  49.118  1.00  0.00     0.224 C 
ATOM     18  C   UNL     1      24.708  15.576  48.543  1.00  0.00     0.208 C 
ATOM     19  O   UNL     1      25.655  13.951  50.002  1.00  0.00    -0.337 OA
ATOM     20  C   UNL     1      23.843  15.355  49.804  1.00  0.00     0.180 C 
ATOM     21  C   UNL     1      24.202  13.925  50.125  1.00  0.00     0.179 C 
BRANCH  17  22
ATOM     22  C   UNL     1      26.628  16.336  50.040  1.00  0.00     0.225 C 
BRANCH  22  23
ATOM     23  O   UNL     1      27.180  17.328  49.215  1.00  0.00    -0.391 OA
ATOM     24  H   UNL     1      28.137  17.078  49.076  1.00  0.00     0.210 HD
ENDBRANCH  22  23
ENDBRANCH  17  22
BRANCH  18  25
ATOM     25  O   UNL     1      24.195  14.973  47.355  1.00  0.00    -0.385 OA
ATOM     26  H   UNL     1      23.509  14.301  47.627  1.00  0.00     0.211 HD
ENDBRANCH  18  25
BRANCH  20  27
ATOM     27  O   UNL     1      22.489  15.665  49.482  1.00  0.00    -0.387 OA
ATOM     28  H   UNL     1      22.493  15.904  48.512  1.00  0.00     0.211 HD
ENDBRANCH  20  27
BRANCH  21  29
ATOM     29  C   UNL     1      23.636  12.771  49.303  1.00  0.00     0.191 C 
BRANCH  29  30
ATOM     30  O   UNL     1      24.514  11.665  49.309  1.00  0.00    -0.394 OA
ATOM     31  H   UNL     1      24.256  11.141  50.134  1.00  0.00     0.210 HD
ENDBRANCH  29  30
ENDBRANCH  21  29
ENDBRANCH   1  17
TORSDOF 13
ENDMDL
MODEL 4
REMARK VINA RESULT:     0.431      1.985      5.700
REMARK INTER + INTRA:          -0.262
REMARK INTER:                  -0.928
REMARK INTRA:                   0.666
REMARK UNBOUND:                -0.920
REMARK SMILES OC[C@H]1O[C@H](O[C@]2(CO)O[C@H](CO)[C@H](O)[C@@H]2O)[C@@H](O)[C@@H](O)[C@@H]1O
REMARK SMILES IDX 6 1 5 2 3 3 22 4 4 5 20 6 18 7 2 8 1 9 23 11 21 13 19 15
REMARK SMILES IDX 7 17 16 18 10 19 14 20 11 21 8 22 9 23 17 25 15 27 12 29
REMARK SMILES IDX 13 30
REMARK H PARENT 1 10 23 12 21 14 19 16 9 24 17 26 15 28 13 31
REMARK Flexibility Score: inf
ROOT
ATOM      1  O   UNL     1      27.212  16.694  46.522  1.00  0.00    -0.313 OA
ENDROOT
BRANCH   1   2
ATOM      2  C   UNL     1      26.242  16.634  47.657  1.00  0.00     0.285 C 
ATOM      3  C   UNL     1      24.345  15.216  48.355  1.00  0.00     0.178 C 
ATOM      4  C   UNL     1      25.265  14.069  48.781  1.00  0.00     0.177 C 
ATOM      5  O   UNL     1      25.008  16.028  47.324  1.00  0.00    -0.341 OA
ATOM      6  C   UNL     1      26.739  14.496  48.935  1.00  0.00     0.179 C 
ATOM      7  C   UNL     1      26.928  16.049  48.921  1.00  0.00     0.202 C 
BRANCH   3   8
ATOM      8  C   UNL     1      23.608  15.799  49.622  1.00  0.00     0.191 C 
BRANCH   8   9
ATOM      9  O   UNL     1      23.502  17.219  49.755  1.00  0.00    -0.394 OA
ATOM     10  H   UNL     1      22.530  17.466  49.688  1.00  0.00     0.210 HD
ENDBRANCH   8   9
ENDBRANCH   3   8
BRANCH   4  11
ATOM     11  O   UNL     1      25.120  12.994  47.901  1.00  0.00    -0.387 OA
ATOM     12  H   UNL     1      24.782  13.417  47.058  1.00  0.00     0.211 HD
ENDBRANCH   4  11
BRANCH   6  13
ATOM     13  O   UNL     1      27.302  13.914  50.105  1.00  0.00    -0.387 OA
ATOM     14  H   UNL     1      28.027  14.520  50.417  1.00  0.00     0.211 HD
ENDBRANCH   6  13
BRANCH   7  15
ATOM     15  O   UNL     1      26.419  16.613  50.123  1.00  0.00    -0.385 OA
ATOM     16  H   UNL     1      25.410  16.597  50.094  1.00  0.00     0.211 HD
ENDBRANCH   7  15
ENDBRANCH   1   2
BRANCH   1  17
ATOM     17  C   UNL     1      28.655  17.153  46.454  1.00  0.00     0.224 C 
ATOM     18  C   UNL     1      29.176  17.963  47.706  1.00  0.00     0.208 C 
ATOM     19  O   UNL     1      29.506  15.950  46.481  1.00  0.00    -0.337 OA
ATOM     20  C   UNL     1      30.671  17.582  47.610  1.00  0.00     0.180 C 
ATOM     21  C   UNL     1      30.554  16.082  47.486  1.00  0.00     0.179 C 
BRANCH  17  22
ATOM     22  C   UNL     1      29.092  18.123  45.162  1.00  0.00     0.225 C 
BRANCH  22  23
ATOM     23  O   UNL     1      28.431  17.707  43.995  1.00  0.00    -0.391 OA
ATOM     24  H   UNL     1      27.534  18.144  44.010  1.00  0.00     0.210 HD
ENDBRANCH  22  23
ENDBRANCH  17  22
BRANCH  18  25
ATOM     25  O   UNL     1      28.577  17.708  48.977  1.00  0.00    -0.385 OA
ATOM     26  H   UNL     1      27.912  18.432  49.150  1.00  0.00     0.211 HD
ENDBRANCH  18  25
BRANCH  20  27
ATOM     27  O   UNL     1      31.348  18.125  48.740  1.00  0.00    -0.387 OA
ATOM     28  H   UNL     1      31.888  18.888  48.387  1.00  0.00     0.211 HD
ENDBRANCH  20  27
BRANCH  21  29
ATOM     29  C   UNL     1      30.216  15.220  48.699  1.00  0.00     0.191 C 
BRANCH  29  30
ATOM     30  O   UNL     1      30.600  15.859  49.898  1.00  0.00    -0.394 OA
ATOM     31  H   UNL     1      30.536  15.136  50.603  1.00  0.00     0.210 HD
ENDBRANCH  29  30
ENDBRANCH  21  29
ENDBRANCH   1  17
TORSDOF 13
ENDMDL
