MODEL 1
REMARK VINA RESULT:    -4.915      0.000      0.000
REMARK INTER + INTRA:          -6.321
REMARK INTER:                  -6.351
REMARK INTRA:                   0.030
REMARK UNBOUND:                 0.030
REMARK SMILES CCCCCCC(=O)[O-]
REMARK SMILES IDX 5 1 6 2 7 3 8 4 9 5 4 6 3 7 2 8 1 9
REMARK H PARENT
REMARK Flexibility Score: inf
ROOT
ATOM      1  C   UNL     1       2.608  -3.008  -0.627  1.00  0.00     0.006 C 
ENDROOT
BRANCH   1   2
ATOM      2  C   UNL     1       1.496  -2.342   0.189  1.00  0.00     0.053 C 
BRANCH   2   3
ATOM      3  C   UNL     1       0.253  -2.208  -0.632  1.00  0.00     0.041 C 
ATOM      4  O   UNL     1       0.010  -3.031  -1.554  1.00  0.00    -0.550 OA
ATOM      5  O   UNL     1      -0.664  -1.204  -0.347  1.00  0.00    -0.550 OA
ENDBRANCH   2   3
ENDBRANCH   1   2
BRANCH   1   6
ATOM      6  C   UNL     1       3.010  -2.135  -1.821  1.00  0.00     0.000 C 
BRANCH   6   7
ATOM      7  C   UNL     1       4.105  -2.812  -2.655  1.00  0.00    -0.000 C 
BRANCH   7   8
ATOM      8  C   UNL     1       4.091  -2.302  -4.100  1.00  0.00    -0.003 C 
ATOM      9  C   UNL     1       3.722  -0.822  -4.158  1.00  0.00     0.004 C 
ENDBRANCH   7   8
ENDBRANCH   6   7
ENDBRANCH   1   6
TORSDOF 5
ENDMDL
MODEL 2
REMARK VINA RESULT:    -4.320      2.663      4.238
REMARK INTER + INTRA:          -5.553
REMARK INTER:                  -5.391
REMARK INTRA:                  -0.163
REMARK UNBOUND:                 0.030
REMARK SMILES CCCCCCC(=O)[O-]
REMARK SMILES IDX 5 1 6 2 7 3 8 4 9 5 4 6 3 7 2 8 1 9
REMARK H PARENT
REMARK Flexibility Score: inf
ROOT
ATOM      1  C   UNL     1       3.537  -2.971  -1.757  1.00  0.00     0.006 C 
ENDROOT
BRANCH   1   2
ATOM      2  C   UNL     1       3.393  -1.577  -2.375  1.00  0.00     0.053 C 
BRANCH   2   3
ATOM      3  C   UNL     1       3.642  -1.629  -3.848  1.00  0.00     0.041 C 
ATOM      4  O   UNL     1       3.998  -2.708  -4.393  1.00  0.00    -0.550 OA
ATOM      5  O   UNL     1       3.434  -0.500  -4.630  1.00  0.00    -0.550 OA
ENDBRANCH   2   3
ENDBRANCH   1   2
BRANCH   1   6
ATOM      6  C   UNL     1       2.631  -3.124  -0.529  1.00  0.00     0.000 C 
BRANCH   6   7
ATOM      7  C   UNL     1       1.891  -1.815  -0.223  1.00  0.00    -0.000 C 
BRANCH   7   8
ATOM      8  C   UNL     1       0.376  -1.991  -0.377  1.00  0.00    -0.003 C 
ATOM      9  C   UNL     1       0.044  -2.890  -1.565  1.00  0.00     0.004 C 
ENDBRANCH   7   8
ENDBRANCH   6   7
ENDBRANCH   1   6
TORSDOF 5
ENDMDL
MODEL 3
REMARK VINA RESULT:    -4.220      1.225      1.704
REMARK INTER + INTRA:          -5.424
REMARK INTER:                  -5.542
REMARK INTRA:                   0.117
REMARK UNBOUND:                 0.030
REMARK SMILES CCCCCCC(=O)[O-]
REMARK SMILES IDX 5 1 6 2 7 3 8 4 9 5 4 6 3 7 2 8 1 9
REMARK H PARENT
REMARK Flexibility Score: inf
ROOT
ATOM      1  C   UNL     1       1.651  -2.640  -2.495  1.00  0.00     0.006 C 
ENDROOT
BRANCH   1   2
ATOM      2  C   UNL     1       0.453  -3.067  -1.642  1.00  0.00     0.053 C 
BRANCH   2   3
ATOM      3  C   UNL     1       0.658  -2.668  -0.215  1.00  0.00     0.041 C 
ATOM      4  O   UNL     1       0.278  -1.538   0.189  1.00  0.00    -0.550 OA
ATOM      5  O   UNL     1       1.224  -3.565   0.683  1.00  0.00    -0.550 OA
ENDBRANCH   2   3
ENDBRANCH   1   2
BRANCH   1   6
ATOM      6  C   UNL     1       2.911  -2.486  -1.635  1.00  0.00     0.000 C 
BRANCH   6   7
ATOM      7  C   UNL     1       4.179  -2.621  -2.486  1.00  0.00    -0.000 C 
BRANCH   7   8
ATOM      8  C   UNL     1       3.886  -2.323  -3.961  1.00  0.00    -0.003 C 
ATOM      9  C   UNL     1       4.199  -0.868  -4.302  1.00  0.00     0.004 C 
ENDBRANCH   7   8
ENDBRANCH   6   7
ENDBRANCH   1   6
TORSDOF 5
ENDMDL
MODEL 4
REMARK VINA RESULT:    -4.015     12.189     13.357
REMARK INTER + INTRA:          -5.158
REMARK INTER:                  -4.890
REMARK INTRA:                  -0.268
REMARK UNBOUND:                 0.030
REMARK SMILES CCCCCCC(=O)[O-]
REMARK SMILES IDX 5 1 6 2 7 3 8 4 9 5 4 6 3 7 2 8 1 9
REMARK H PARENT
REMARK Flexibility Score: inf
ROOT
ATOM      1  C   UNL     1      -3.051   9.049  -3.343  1.00  0.00     0.006 C 
ENDROOT
BRANCH   1   2
ATOM      2  C   UNL     1      -1.906   9.553  -4.226  1.00  0.00     0.053 C 
BRANCH   2   3
ATOM      3  C   UNL     1      -1.386   8.449  -5.091  1.00  0.00     0.041 C 
ATOM      4  O   UNL     1      -2.089   7.998  -6.034  1.00  0.00    -0.550 OA
ATOM      5  O   UNL     1      -0.106   7.950  -4.888  1.00  0.00    -0.550 OA
ENDBRANCH   2   3
ENDBRANCH   1   2
BRANCH   1   6
ATOM      6  C   UNL     1      -4.175  10.089  -3.254  1.00  0.00     0.000 C 
BRANCH   6   7
ATOM      7  C   UNL     1      -5.067  10.044  -4.501  1.00  0.00    -0.000 C 
BRANCH   7   8
ATOM      8  C   UNL     1      -5.375   8.597  -4.905  1.00  0.00    -0.003 C 
ATOM      9  C   UNL     1      -6.875   8.318  -4.851  1.00  0.00     0.004 C 
ENDBRANCH   7   8
ENDBRANCH   6   7
ENDBRANCH   1   6
TORSDOF 5
ENDMDL
MODEL 5
REMARK VINA RESULT:    -3.960     11.140     11.663
REMARK INTER + INTRA:          -5.087
REMARK INTER:                  -4.890
REMARK INTRA:                  -0.197
REMARK UNBOUND:                 0.030
REMARK SMILES CCCCCCC(=O)[O-]
REMARK SMILES IDX 5 1 6 2 7 3 8 4 9 5 4 6 3 7 2 8 1 9
REMARK H PARENT
REMARK Flexibility Score: inf
ROOT
ATOM      1  C   UNL     1       0.180   9.014  -7.131  1.00  0.00     0.006 C 
ENDROOT
BRANCH   1   2
ATOM      2  C   UNL     1       0.068   8.315  -5.773  1.00  0.00     0.053 C 
BRANCH   2   3
ATOM      3  C   UNL     1      -1.349   8.329  -5.293  1.00  0.00     0.041 C 
ATOM      4  O   UNL     1      -2.258   7.799  -5.984  1.00  0.00    -0.550 OA
ATOM      5  O   UNL     1      -1.659   8.884  -4.057  1.00  0.00    -0.550 OA
ENDBRANCH   2   3
ENDBRANCH   1   2
BRANCH   1   6
ATOM      6  C   UNL     1       1.503   8.662  -7.822  1.00  0.00     0.000 C 
BRANCH   6   7
ATOM      7  C   UNL     1       2.171   7.455  -7.152  1.00  0.00    -0.000 C 
BRANCH   7   8
ATOM      8  C   UNL     1       3.365   6.959  -7.976  1.00  0.00    -0.003 C 
ATOM      9  C   UNL     1       3.639   7.883  -9.159  1.00  0.00     0.004 C 
ENDBRANCH   7   8
ENDBRANCH   6   7
ENDBRANCH   1   6
TORSDOF 5
ENDMDL
MODEL 6
REMARK VINA RESULT:    -3.884      9.395     11.075
REMARK INTER + INTRA:          -4.989
REMARK INTER:                  -4.805
REMARK INTRA:                  -0.185
REMARK UNBOUND:                 0.030
REMARK SMILES CCCCCCC(=O)[O-]
REMARK SMILES IDX 5 1 6 2 7 3 8 4 9 5 4 6 3 7 2 8 1 9
REMARK H PARENT
REMARK Flexibility Score: inf
ROOT
ATOM      1  C   UNL     1      -1.334  -8.545   6.852  1.00  0.00     0.006 C 
ENDROOT
BRANCH   1   2
ATOM      2  C   UNL     1      -2.213  -7.550   6.088  1.00  0.00     0.053 C 
BRANCH   2   3
ATOM      3  C   UNL     1      -1.963  -7.654   4.617  1.00  0.00     0.041 C 
ATOM      4  O   UNL     1      -1.486  -8.713   4.128  1.00  0.00    -0.550 OA
ATOM      5  O   UNL     1      -2.304  -6.602   3.777  1.00  0.00    -0.550 OA
ENDBRANCH   2   3
ENDBRANCH   1   2
BRANCH   1   6
ATOM      6  C   UNL     1      -0.856  -7.947   8.181  1.00  0.00     0.000 C 
BRANCH   6   7
ATOM      7  C   UNL     1      -1.601  -6.645   8.499  1.00  0.00    -0.000 C 
BRANCH   7   8
ATOM      8  C   UNL     1      -0.826  -5.803   9.520  1.00  0.00    -0.003 C 
ATOM      9  C   UNL     1      -0.665  -4.364   9.039  1.00  0.00     0.004 C 
ENDBRANCH   7   8
ENDBRANCH   6   7
ENDBRANCH   1   6
TORSDOF 5
ENDMDL
MODEL 7
REMARK VINA RESULT:    -3.679      9.892     12.131
REMARK INTER + INTRA:          -4.724
REMARK INTER:                  -4.511
REMARK INTRA:                  -0.213
REMARK UNBOUND:                 0.030
REMARK SMILES CCCCCCC(=O)[O-]
REMARK SMILES IDX 5 1 6 2 7 3 8 4 9 5 4 6 3 7 2 8 1 9
REMARK H PARENT
REMARK Flexibility Score: inf
ROOT
ATOM      1  C   UNL     1      -1.900  -7.576   7.011  1.00  0.00     0.006 C 
ENDROOT
BRANCH   1   2
ATOM      2  C   UNL     1      -2.719  -7.159   5.786  1.00  0.00     0.053 C 
BRANCH   2   3
ATOM      3  C   UNL     1      -2.002  -7.529   4.526  1.00  0.00     0.041 C 
ATOM      4  O   UNL     1      -1.536  -8.689   4.380  1.00  0.00    -0.550 OA
ATOM      5  O   UNL     1      -1.892  -6.607   3.493  1.00  0.00    -0.550 OA
ENDBRANCH   2   3
ENDBRANCH   1   2
BRANCH   1   6
ATOM      6  C   UNL     1      -2.814  -8.046   8.149  1.00  0.00     0.000 C 
BRANCH   6   7
ATOM      7  C   UNL     1      -4.263  -8.194   7.666  1.00  0.00    -0.000 C 
BRANCH   7   8
ATOM      8  C   UNL     1      -5.219  -8.391   8.849  1.00  0.00    -0.003 C 
ATOM      9  C   UNL     1      -5.477  -7.072   9.573  1.00  0.00     0.004 C 
ENDBRANCH   7   8
ENDBRANCH   6   7
ENDBRANCH   1   6
TORSDOF 5
ENDMDL
MODEL 8
REMARK VINA RESULT:    -3.677     12.226     13.179
REMARK INTER + INTRA:          -4.722
REMARK INTER:                  -4.432
REMARK INTRA:                  -0.290
REMARK UNBOUND:                 0.030
REMARK SMILES CCCCCCC(=O)[O-]
REMARK SMILES IDX 5 1 6 2 7 3 8 4 9 5 4 6 3 7 2 8 1 9
REMARK H PARENT
REMARK Flexibility Score: inf
ROOT
ATOM      1  C   UNL     1      -5.130   9.571  -4.855  1.00  0.00     0.006 C 
ENDROOT
BRANCH   1   2
ATOM      2  C   UNL     1      -5.038   8.062  -5.098  1.00  0.00     0.053 C 
BRANCH   2   3
ATOM      3  C   UNL     1      -6.389   7.430  -4.985  1.00  0.00     0.041 C 
ATOM      4  O   UNL     1      -6.499   6.178  -4.918  1.00  0.00    -0.550 OA
ATOM      5  O   UNL     1      -7.525   8.226  -4.904  1.00  0.00    -0.550 OA
ENDBRANCH   2   3
ENDBRANCH   1   2
BRANCH   1   6
ATOM      6  C   UNL     1      -4.455   9.957  -3.533  1.00  0.00     0.000 C 
BRANCH   6   7
ATOM      7  C   UNL     1      -3.215   9.092  -3.274  1.00  0.00    -0.000 C 
BRANCH   7   8
ATOM      8  C   UNL     1      -1.964   9.723  -3.897  1.00  0.00    -0.003 C 
ATOM      9  C   UNL     1      -1.196   8.708  -4.739  1.00  0.00     0.004 C 
ENDBRANCH   7   8
ENDBRANCH   6   7
ENDBRANCH   1   6
TORSDOF 5
ENDMDL
MODEL 9
REMARK VINA RESULT:    -3.575     12.313     13.393
REMARK INTER + INTRA:          -4.590
REMARK INTER:                  -4.205
REMARK INTRA:                  -0.385
REMARK UNBOUND:                 0.030
REMARK SMILES CCCCCCC(=O)[O-]
REMARK SMILES IDX 5 1 6 2 7 3 8 4 9 5 4 6 3 7 2 8 1 9
REMARK H PARENT
REMARK Flexibility Score: inf
ROOT
ATOM      1  C   UNL     1      -5.424   9.847  -4.823  1.00  0.00     0.006 C 
ENDROOT
BRANCH   1   2
ATOM      2  C   UNL     1      -4.464   9.856  -3.631  1.00  0.00     0.053 C 
BRANCH   2   3
ATOM      3  C   UNL     1      -3.128   9.313  -4.030  1.00  0.00     0.041 C 
ATOM      4  O   UNL     1      -2.316   8.919  -3.152  1.00  0.00    -0.550 OA
ATOM      5  O   UNL     1      -2.799   9.194  -5.374  1.00  0.00    -0.550 OA
ENDBRANCH   2   3
ENDBRANCH   1   2
BRANCH   1   6
ATOM      6  C   UNL     1      -6.379   8.649  -4.751  1.00  0.00     0.000 C 
BRANCH   6   7
ATOM      7  C   UNL     1      -6.148   7.688  -5.923  1.00  0.00    -0.000 C 
BRANCH   7   8
ATOM      8  C   UNL     1      -5.398   6.431  -5.465  1.00  0.00    -0.003 C 
ATOM      9  C   UNL     1      -4.219   6.128  -6.385  1.00  0.00     0.004 C 
ENDBRANCH   7   8
ENDBRANCH   6   7
ENDBRANCH   1   6
TORSDOF 5
ENDMDL
