MODEL 1
REMARK VINA RESULT:    -6.539      0.000      0.000
REMARK INTER + INTRA:          -6.539
REMARK INTER:                  -6.539
REMARK INTRA:                   0.000
REMARK UNBOUND:                 0.000
REMARK SMILES C=C1CCC[C@]2(C)C=C3OC(=O)C(C)=C3C[C@@H]12
REMARK SMILES IDX 14 1 13 2 15 3 16 4 17 5 2 6 1 7 3 8 4 9 5 10 6 11 8 12 9 13
REMARK SMILES IDX 10 14 11 15 12 16 7 17
REMARK H PARENT
REMARK Flexibility Score: inf
ROOT
ATOM      1  C   UNL     1     -27.863  16.807  57.002  1.00  0.00     0.053 C 
ATOM      2  C   UNL     1     -29.281  17.228  57.225  1.00  0.00     0.041 C 
ATOM      3  C   UNL     1     -30.361  16.458  57.123  1.00  0.00     0.005 C 
ATOM      4  C   UNL     1     -30.457  14.989  56.834  1.00  0.00     0.049 C 
ATOM      5  C   UNL     1     -31.888  14.679  56.313  1.00  0.00     0.029 C 
ATOM      6  C   UNL     1     -32.198  13.212  56.043  1.00  0.00    -0.073 C 
ATOM      7  C   UNL     1     -31.316  12.212  56.234  1.00  0.00     0.008 C 
ATOM      8  C   UNL     1     -33.560  12.918  55.456  1.00  0.00     0.031 C 
ATOM      9  C   UNL     1     -34.669  13.578  56.286  1.00  0.00     0.005 C 
ATOM     10  C   UNL     1     -34.390  15.070  56.552  1.00  0.00     0.012 C 
ATOM     11  C   UNL     1     -33.007  15.313  57.218  1.00  0.00    -0.004 C 
ATOM     12  C   UNL     1     -32.778  16.814  57.348  1.00  0.00     0.027 C 
ATOM     13  C   UNL     1     -31.533  17.291  57.351  1.00  0.00     0.131 C 
ATOM     14  O   UNL     1     -31.153  18.608  57.556  1.00  0.00    -0.423 OA
ATOM     15  C   UNL     1     -29.766  18.588  57.479  1.00  0.00     0.339 C 
ATOM     16  O   UNL     1     -29.041  19.611  57.604  1.00  0.00    -0.246 OA
ATOM     17  C   UNL     1     -32.990  14.715  58.647  1.00  0.00     0.016 C 
ENDROOT
TORSDOF 0
ENDMDL
MODEL 2
REMARK VINA RESULT:    -6.501      1.478      2.614
REMARK INTER + INTRA:          -6.501
REMARK INTER:                  -6.501
REMARK INTRA:                   0.000
REMARK UNBOUND:                 0.000
REMARK SMILES C=C1CCC[C@]2(C)C=C3OC(=O)C(C)=C3C[C@@H]12
REMARK SMILES IDX 14 1 13 2 15 3 16 4 17 5 2 6 1 7 3 8 4 9 5 10 6 11 8 12 9 13
REMARK SMILES IDX 10 14 11 15 12 16 7 17
REMARK H PARENT
REMARK Flexibility Score: inf
ROOT
ATOM      1  C   UNL     1     -30.395  19.244  58.932  1.00  0.00     0.053 C 
ATOM      2  C   UNL     1     -30.556  18.429  57.688  1.00  0.00     0.041 C 
ATOM      3  C   UNL     1     -31.332  17.360  57.536  1.00  0.00     0.005 C 
ATOM      4  C   UNL     1     -32.286  16.732  58.510  1.00  0.00     0.049 C 
ATOM      5  C   UNL     1     -32.544  15.263  58.073  1.00  0.00     0.029 C 
ATOM      6  C   UNL     1     -33.559  14.487  58.904  1.00  0.00    -0.073 C 
ATOM      7  C   UNL     1     -34.216  15.005  59.958  1.00  0.00     0.008 C 
ATOM      8  C   UNL     1     -33.748  13.034  58.533  1.00  0.00     0.031 C 
ATOM      9  C   UNL     1     -34.025  12.883  57.031  1.00  0.00     0.005 C 
ATOM     10  C   UNL     1     -32.997  13.640  56.168  1.00  0.00     0.012 C 
ATOM     11  C   UNL     1     -32.890  15.144  56.543  1.00  0.00    -0.004 C 
ATOM     12  C   UNL     1     -31.783  15.783  55.712  1.00  0.00     0.027 C 
ATOM     13  C   UNL     1     -31.127  16.839  56.194  1.00  0.00     0.131 C 
ATOM     14  O   UNL     1     -30.169  17.589  55.529  1.00  0.00    -0.423 OA
ATOM     15  C   UNL     1     -29.803  18.574  56.438  1.00  0.00     0.339 C 
ATOM     16  O   UNL     1     -28.935  19.456  56.206  1.00  0.00    -0.246 OA
ATOM     17  C   UNL     1     -34.211  15.876  56.200  1.00  0.00     0.016 C 
ENDROOT
TORSDOF 0
ENDMDL
MODEL 3
REMARK VINA RESULT:    -6.446      1.922      5.402
REMARK INTER + INTRA:          -6.446
REMARK INTER:                  -6.446
REMARK INTRA:                   0.000
REMARK UNBOUND:                 0.000
REMARK SMILES C=C1CCC[C@]2(C)C=C3OC(=O)C(C)=C3C[C@@H]12
REMARK SMILES IDX 14 1 13 2 15 3 16 4 17 5 2 6 1 7 3 8 4 9 5 10 6 11 8 12 9 13
REMARK SMILES IDX 10 14 11 15 12 16 7 17
REMARK H PARENT
REMARK Flexibility Score: inf
ROOT
ATOM      1  C   UNL     1     -31.343  13.303  56.242  1.00  0.00     0.053 C 
ATOM      2  C   UNL     1     -31.869  14.684  56.474  1.00  0.00     0.041 C 
ATOM      3  C   UNL     1     -31.153  15.766  56.765  1.00  0.00     0.005 C 
ATOM      4  C   UNL     1     -29.664  15.921  56.869  1.00  0.00     0.049 C 
ATOM      5  C   UNL     1     -29.355  17.187  57.715  1.00  0.00     0.029 C 
ATOM      6  C   UNL     1     -27.883  17.552  57.860  1.00  0.00    -0.073 C 
ATOM      7  C   UNL     1     -26.879  16.849  57.302  1.00  0.00     0.008 C 
ATOM      8  C   UNL     1     -27.576  18.732  58.753  1.00  0.00     0.031 C 
ATOM      9  C   UNL     1     -28.416  19.954  58.354  1.00  0.00     0.005 C 
ATOM     10  C   UNL     1     -29.914  19.615  58.225  1.00  0.00     0.012 C 
ATOM     11  C   UNL     1     -30.181  18.440  57.245  1.00  0.00    -0.004 C 
ATOM     12  C   UNL     1     -31.670  18.112  57.260  1.00  0.00     0.027 C 
ATOM     13  C   UNL     1     -32.073  16.873  56.980  1.00  0.00     0.131 C 
ATOM     14  O   UNL     1     -33.383  16.438  56.857  1.00  0.00    -0.423 OA
ATOM     15  C   UNL     1     -33.277  15.087  56.549  1.00  0.00     0.339 C 
ATOM     16  O   UNL     1     -34.265  14.329  56.368  1.00  0.00    -0.246 OA
ATOM     17  C   UNL     1     -29.811  18.855  55.799  1.00  0.00     0.016 C 
ENDROOT
TORSDOF 0
ENDMDL
MODEL 4
REMARK VINA RESULT:    -6.353      2.246      5.848
REMARK INTER + INTRA:          -6.353
REMARK INTER:                  -6.353
REMARK INTRA:                   0.000
REMARK UNBOUND:                 0.000
REMARK SMILES C=C1CCC[C@]2(C)C=C3OC(=O)C(C)=C3C[C@@H]12
REMARK SMILES IDX 14 1 13 2 15 3 16 4 17 5 2 6 1 7 3 8 4 9 5 10 6 11 8 12 9 13
REMARK SMILES IDX 10 14 11 15 12 16 7 17
REMARK H PARENT
REMARK Flexibility Score: inf
ROOT
ATOM      1  C   UNL     1     -33.485  15.358  59.299  1.00  0.00     0.053 C 
ATOM      2  C   UNL     1     -32.668  15.455  58.050  1.00  0.00     0.041 C 
ATOM      3  C   UNL     1     -31.826  16.433  57.727  1.00  0.00     0.005 C 
ATOM      4  C   UNL     1     -31.417  17.636  58.526  1.00  0.00     0.049 C 
ATOM      5  C   UNL     1     -30.851  18.707  57.553  1.00  0.00     0.029 C 
ATOM      6  C   UNL     1     -30.306  19.975  58.198  1.00  0.00    -0.073 C 
ATOM      7  C   UNL     1     -30.293  20.194  59.526  1.00  0.00     0.008 C 
ATOM      8  C   UNL     1     -29.834  21.053  57.249  1.00  0.00     0.031 C 
ATOM      9  C   UNL     1     -28.848  20.484  56.219  1.00  0.00     0.005 C 
ATOM     10  C   UNL     1     -29.388  19.213  55.535  1.00  0.00     0.012 C 
ATOM     11  C   UNL     1     -29.796  18.110  56.551  1.00  0.00    -0.004 C 
ATOM     12  C   UNL     1     -30.408  16.940  55.791  1.00  0.00     0.027 C 
ATOM     13  C   UNL     1     -31.306  16.161  56.397  1.00  0.00     0.131 C 
ATOM     14  O   UNL     1     -31.880  15.009  55.883  1.00  0.00    -0.423 OA
ATOM     15  C   UNL     1     -32.727  14.561  56.888  1.00  0.00     0.339 C 
ATOM     16  O   UNL     1     -33.445  13.531  56.795  1.00  0.00    -0.246 OA
ATOM     17  C   UNL     1     -28.544  17.578  57.293  1.00  0.00     0.016 C 
ENDROOT
TORSDOF 0
ENDMDL
MODEL 5
REMARK VINA RESULT:    -6.101      1.447      2.568
REMARK INTER + INTRA:          -6.101
REMARK INTER:                  -6.101
REMARK INTRA:                   0.000
REMARK UNBOUND:                 0.000
REMARK SMILES C=C1CCC[C@]2(C)C=C3OC(=O)C(C)=C3C[C@@H]12
REMARK SMILES IDX 14 1 13 2 15 3 16 4 17 5 2 6 1 7 3 8 4 9 5 10 6 11 8 12 9 13
REMARK SMILES IDX 10 14 11 15 12 16 7 17
REMARK H PARENT
REMARK Flexibility Score: inf
ROOT
ATOM      1  C   UNL     1     -30.379  19.244  54.906  1.00  0.00     0.053 C 
ATOM      2  C   UNL     1     -30.226  18.188  55.954  1.00  0.00     0.041 C 
ATOM      3  C   UNL     1     -31.084  17.209  56.224  1.00  0.00     0.005 C 
ATOM      4  C   UNL     1     -32.369  16.854  55.534  1.00  0.00     0.049 C 
ATOM      5  C   UNL     1     -33.235  16.004  56.506  1.00  0.00     0.029 C 
ATOM      6  C   UNL     1     -34.550  15.480  55.944  1.00  0.00    -0.073 C 
ATOM      7  C   UNL     1     -34.974  15.713  54.688  1.00  0.00     0.008 C 
ATOM      8  C   UNL     1     -35.432  14.727  56.913  1.00  0.00     0.031 C 
ATOM      9  C   UNL     1     -34.645  13.614  57.620  1.00  0.00     0.005 C 
ATOM     10  C   UNL     1     -33.320  14.125  58.218  1.00  0.00     0.012 C 
ATOM     11  C   UNL     1     -32.420  14.832  57.166  1.00  0.00    -0.004 C 
ATOM     12  C   UNL     1     -31.187  15.390  57.867  1.00  0.00     0.027 C 
ATOM     13  C   UNL     1     -30.573  16.460  57.362  1.00  0.00     0.131 C 
ATOM     14  O   UNL     1     -29.394  17.028  57.819  1.00  0.00    -0.423 OA
ATOM     15  C   UNL     1     -29.166  18.099  56.964  1.00  0.00     0.339 C 
ATOM     16  O   UNL     1     -28.182  18.879  57.062  1.00  0.00    -0.246 OA
ATOM     17  C   UNL     1     -31.932  13.811  56.108  1.00  0.00     0.016 C 
ENDROOT
TORSDOF 0
ENDMDL
MODEL 6
REMARK VINA RESULT:    -5.992      2.334      5.648
REMARK INTER + INTRA:          -5.992
REMARK INTER:                  -5.992
REMARK INTRA:                   0.000
REMARK UNBOUND:                 0.000
REMARK SMILES C=C1CCC[C@]2(C)C=C3OC(=O)C(C)=C3C[C@@H]12
REMARK SMILES IDX 14 1 13 2 15 3 16 4 17 5 2 6 1 7 3 8 4 9 5 10 6 11 8 12 9 13
REMARK SMILES IDX 10 14 11 15 12 16 7 17
REMARK H PARENT
REMARK Flexibility Score: inf
ROOT
ATOM      1  C   UNL     1     -34.309  16.008  55.156  1.00  0.00     0.053 C 
ATOM      2  C   UNL     1     -33.323  15.900  56.275  1.00  0.00     0.041 C 
ATOM      3  C   UNL     1     -32.198  16.595  56.410  1.00  0.00     0.005 C 
ATOM      4  C   UNL     1     -31.652  17.696  55.548  1.00  0.00     0.049 C 
ATOM      5  C   UNL     1     -30.124  17.817  55.806  1.00  0.00     0.029 C 
ATOM      6  C   UNL     1     -29.409  18.945  55.074  1.00  0.00    -0.073 C 
ATOM      7  C   UNL     1     -30.026  19.810  54.246  1.00  0.00     0.008 C 
ATOM      8  C   UNL     1     -27.910  19.010  55.256  1.00  0.00     0.031 C 
ATOM      9  C   UNL     1     -27.538  18.989  56.746  1.00  0.00     0.005 C 
ATOM     10  C   UNL     1     -28.231  17.840  57.504  1.00  0.00     0.012 C 
ATOM     11  C   UNL     1     -29.776  17.857  57.339  1.00  0.00    -0.004 C 
ATOM     12  C   UNL     1     -30.361  16.634  58.035  1.00  0.00     0.027 C 
ATOM     13  C   UNL     1     -31.511  16.119  57.600  1.00  0.00     0.131 C 
ATOM     14  O   UNL     1     -32.219  15.077  58.178  1.00  0.00    -0.423 OA
ATOM     15  C   UNL     1     -33.340  14.925  57.371  1.00  0.00     0.339 C 
ATOM     16  O   UNL     1     -34.233  14.059  57.565  1.00  0.00    -0.246 OA
ATOM     17  C   UNL     1     -30.372  19.112  58.025  1.00  0.00     0.016 C 
ENDROOT
TORSDOF 0
ENDMDL
MODEL 7
REMARK VINA RESULT:    -5.716      1.560      2.781
REMARK INTER + INTRA:          -5.716
REMARK INTER:                  -5.716
REMARK INTRA:                   0.000
REMARK UNBOUND:                 0.000
REMARK SMILES C=C1CCC[C@]2(C)C=C3OC(=O)C(C)=C3C[C@@H]12
REMARK SMILES IDX 14 1 13 2 15 3 16 4 17 5 2 6 1 7 3 8 4 9 5 10 6 11 8 12 9 13
REMARK SMILES IDX 10 14 11 15 12 16 7 17
REMARK H PARENT
REMARK Flexibility Score: inf
ROOT
ATOM      1  C   UNL     1     -30.893  18.406  58.917  1.00  0.00     0.053 C 
ATOM      2  C   UNL     1     -30.962  17.526  57.710  1.00  0.00     0.041 C 
ATOM      3  C   UNL     1     -31.753  16.470  57.543  1.00  0.00     0.005 C 
ATOM      4  C   UNL     1     -32.812  15.923  58.454  1.00  0.00     0.049 C 
ATOM      5  C   UNL     1     -33.074  14.438  58.074  1.00  0.00     0.029 C 
ATOM      6  C   UNL     1     -34.186  13.737  58.844  1.00  0.00    -0.073 C 
ATOM      7  C   UNL     1     -34.923  14.331  59.802  1.00  0.00     0.008 C 
ATOM      8  C   UNL     1     -34.384  12.270  58.536  1.00  0.00     0.031 C 
ATOM      9  C   UNL     1     -34.524  12.042  57.025  1.00  0.00     0.005 C 
ATOM     10  C   UNL     1     -33.396  12.722  56.224  1.00  0.00     0.012 C 
ATOM     11  C   UNL     1     -33.278  14.242  56.527  1.00  0.00    -0.004 C 
ATOM     12  C   UNL     1     -32.079  14.804  55.772  1.00  0.00     0.027 C 
ATOM     13  C   UNL     1     -31.438  15.868  56.256  1.00  0.00     0.131 C 
ATOM     14  O   UNL     1     -30.400  16.555  55.646  1.00  0.00    -0.423 OA
ATOM     15  C   UNL     1     -30.090  17.580  56.532  1.00  0.00     0.339 C 
ATOM     16  O   UNL     1     -29.178  18.425  56.336  1.00  0.00    -0.246 OA
ATOM     17  C   UNL     1     -34.538  14.987  56.019  1.00  0.00     0.016 C 
ENDROOT
TORSDOF 0
ENDMDL
MODEL 8
REMARK VINA RESULT:    -5.136      1.636      2.774
REMARK INTER + INTRA:          -5.136
REMARK INTER:                  -5.136
REMARK INTRA:                   0.000
REMARK UNBOUND:                 0.000
REMARK SMILES C=C1CCC[C@]2(C)C=C3OC(=O)C(C)=C3C[C@@H]12
REMARK SMILES IDX 14 1 13 2 15 3 16 4 17 5 2 6 1 7 3 8 4 9 5 10 6 11 8 12 9 13
REMARK SMILES IDX 10 14 11 15 12 16 7 17
REMARK H PARENT
REMARK Flexibility Score: inf
ROOT
ATOM      1  C   UNL     1     -31.152  18.005  55.113  1.00  0.00     0.053 C 
ATOM      2  C   UNL     1     -31.276  17.210  56.373  1.00  0.00     0.041 C 
ATOM      3  C   UNL     1     -32.206  16.299  56.647  1.00  0.00     0.005 C 
ATOM      4  C   UNL     1     -33.311  15.778  55.776  1.00  0.00     0.049 C 
ATOM      5  C   UNL     1     -34.403  15.148  56.685  1.00  0.00     0.029 C 
ATOM      6  C   UNL     1     -35.573  14.489  55.965  1.00  0.00    -0.073 C 
ATOM      7  C   UNL     1     -35.691  14.430  54.625  1.00  0.00     0.008 C 
ATOM      8  C   UNL     1     -36.678  13.953  56.847  1.00  0.00     0.031 C 
ATOM      9  C   UNL     1     -36.110  13.038  57.942  1.00  0.00     0.005 C 
ATOM     10  C   UNL     1     -34.939  13.693  58.700  1.00  0.00     0.012 C 
ATOM     11  C   UNL     1     -33.801  14.166  57.755  1.00  0.00    -0.004 C 
ATOM     12  C   UNL     1     -32.741  14.887  58.580  1.00  0.00     0.027 C 
ATOM     13  C   UNL     1     -31.993  15.831  58.008  1.00  0.00     0.131 C 
ATOM     14  O   UNL     1     -30.931  16.507  58.587  1.00  0.00    -0.423 OA
ATOM     15  C   UNL     1     -30.478  17.366  57.594  1.00  0.00     0.339 C 
ATOM     16  O   UNL     1     -29.517  18.166  57.742  1.00  0.00    -0.246 OA
ATOM     17  C   UNL     1     -33.119  12.946  57.087  1.00  0.00     0.016 C 
ENDROOT
TORSDOF 0
ENDMDL
MODEL 9
REMARK VINA RESULT:    -3.746      4.888      5.966
REMARK INTER + INTRA:          -3.746
REMARK INTER:                  -3.746
REMARK INTRA:                   0.000
REMARK UNBOUND:                 0.000
REMARK SMILES C=C1CCC[C@]2(C)C=C3OC(=O)C(C)=C3C[C@@H]12
REMARK SMILES IDX 14 1 13 2 15 3 16 4 17 5 2 6 1 7 3 8 4 9 5 10 6 11 8 12 9 13
REMARK SMILES IDX 10 14 11 15 12 16 7 17
REMARK H PARENT
REMARK Flexibility Score: inf
ROOT
ATOM      1  C   UNL     1     -34.094  15.535  60.522  1.00  0.00     0.053 C 
ATOM      2  C   UNL     1     -34.943  14.355  60.169  1.00  0.00     0.041 C 
ATOM      3  C   UNL     1     -35.220  13.915  58.945  1.00  0.00     0.005 C 
ATOM      4  C   UNL     1     -34.721  14.415  57.621  1.00  0.00     0.049 C 
ATOM      5  C   UNL     1     -35.701  13.940  56.512  1.00  0.00     0.029 C 
ATOM      6  C   UNL     1     -35.310  14.287  55.081  1.00  0.00    -0.073 C 
ATOM      7  C   UNL     1     -34.191  14.960  54.752  1.00  0.00     0.008 C 
ATOM      8  C   UNL     1     -36.304  13.902  54.009  1.00  0.00     0.031 C 
ATOM      9  C   UNL     1     -36.701  12.424  54.135  1.00  0.00     0.005 C 
ATOM     10  C   UNL     1     -37.124  12.054  55.570  1.00  0.00     0.012 C 
ATOM     11  C   UNL     1     -36.041  12.409  56.626  1.00  0.00    -0.004 C 
ATOM     12  C   UNL     1     -36.586  12.103  58.016  1.00  0.00     0.027 C 
ATOM     13  C   UNL     1     -36.136  12.792  59.065  1.00  0.00     0.131 C 
ATOM     14  O   UNL     1     -36.456  12.573  60.395  1.00  0.00    -0.423 OA
ATOM     15  C   UNL     1     -35.730  13.532  61.092  1.00  0.00     0.339 C 
ATOM     16  O   UNL     1     -35.763  13.664  62.344  1.00  0.00    -0.246 OA
ATOM     17  C   UNL     1     -34.782  11.530  56.417  1.00  0.00     0.016 C 
ENDROOT
TORSDOF 0
ENDMDL
