MODEL 1
REMARK VINA RESULT:    -4.148      0.000      0.000
REMARK INTER + INTRA:          -6.836
REMARK INTER:                  -6.331
REMARK INTRA:                  -0.506
REMARK UNBOUND:                -0.506
REMARK SMILES CCCCCCCCCCC(=O)[O-]
REMARK SMILES IDX 7 1 8 2 9 3 10 4 11 5 12 6 13 7 6 8 5 9 4 10 3 11 2 12 1 13
REMARK H PARENT
REMARK Flexibility Score: inf
ROOT
ATOM      1  C   UNL     1      39.342  -8.090  10.854  1.00  0.00     0.000 C 
ENDROOT
BRANCH   1   2
ATOM      2  C   UNL     1      37.905  -7.583  11.047  1.00  0.00     0.000 C 
BRANCH   2   3
ATOM      3  C   UNL     1      37.328  -7.945  12.426  1.00  0.00     0.006 C 
BRANCH   3   4
ATOM      4  C   UNL     1      37.122  -6.710  13.310  1.00  0.00     0.053 C 
BRANCH   4   5
ATOM      5  C   UNL     1      35.811  -6.759  14.035  1.00  0.00     0.041 C 
ATOM      6  O   UNL     1      34.746  -6.989  13.404  1.00  0.00    -0.550 OA
ATOM      7  O   UNL     1      35.772  -6.585  15.412  1.00  0.00    -0.550 OA
ENDBRANCH   4   5
ENDBRANCH   3   4
ENDBRANCH   2   3
ENDBRANCH   1   2
BRANCH   1   8
ATOM      8  C   UNL     1      40.236  -7.072  10.129  1.00  0.00     0.000 C 
BRANCH   8   9
ATOM      9  C   UNL     1      39.415  -6.211   9.162  1.00  0.00    -0.000 C 
BRANCH   9  10
ATOM     10  C   UNL     1      39.589  -6.690   7.715  1.00  0.00    -0.000 C 
BRANCH  10  11
ATOM     11  C   UNL     1      40.853  -7.548   7.567  1.00  0.00    -0.000 C 
BRANCH  11  12
ATOM     12  C   UNL     1      41.519  -7.387   6.192  1.00  0.00    -0.003 C 
ATOM     13  C   UNL     1      40.643  -6.625   5.197  1.00  0.00     0.004 C 
ENDBRANCH  11  12
ENDBRANCH  10  11
ENDBRANCH   9  10
ENDBRANCH   8   9
ENDBRANCH   1   8
TORSDOF 9
ENDMDL
MODEL 2
REMARK VINA RESULT:    -4.112      4.290      7.288
REMARK INTER + INTRA:          -6.781
REMARK INTER:                  -6.212
REMARK INTRA:                  -0.569
REMARK UNBOUND:                -0.506
REMARK SMILES CCCCCCCCCCC(=O)[O-]
REMARK SMILES IDX 7 1 8 2 9 3 10 4 11 5 12 6 13 7 6 8 5 9 4 10 3 11 2 12 1 13
REMARK H PARENT
REMARK Flexibility Score: inf
ROOT
ATOM      1  C   UNL     1      40.247  -6.971  10.244  1.00  0.00     0.000 C 
ENDROOT
BRANCH   1   2
ATOM      2  C   UNL     1      39.598  -6.236   9.061  1.00  0.00     0.000 C 
BRANCH   2   3
ATOM      3  C   UNL     1      39.887  -6.914   7.711  1.00  0.00     0.006 C 
BRANCH   3   4
ATOM      4  C   UNL     1      40.950  -8.013   7.830  1.00  0.00     0.053 C 
BRANCH   4   5
ATOM      5  C   UNL     1      42.187  -7.676   7.055  1.00  0.00     0.041 C 
ATOM      6  O   UNL     1      43.324  -7.860   7.563  1.00  0.00    -0.550 OA
ATOM      7  O   UNL     1      42.082  -7.189   5.758  1.00  0.00    -0.550 OA
ENDBRANCH   4   5
ENDBRANCH   3   4
ENDBRANCH   2   3
ENDBRANCH   1   2
BRANCH   1   8
ATOM      8  C   UNL     1      39.224  -7.730  11.102  1.00  0.00     0.000 C 
BRANCH   8   9
ATOM      9  C   UNL     1      37.797  -7.496  10.592  1.00  0.00    -0.000 C 
BRANCH   9  10
ATOM     10  C   UNL     1      36.783  -7.560  11.740  1.00  0.00    -0.000 C 
BRANCH  10  11
ATOM     11  C   UNL     1      37.357  -6.931  13.018  1.00  0.00    -0.000 C 
BRANCH  11  12
ATOM     12  C   UNL     1      36.271  -6.602  14.053  1.00  0.00    -0.003 C 
ATOM     13  C   UNL     1      34.910  -7.197  13.693  1.00  0.00     0.004 C 
ENDBRANCH  11  12
ENDBRANCH  10  11
ENDBRANCH   9  10
ENDBRANCH   8   9
ENDBRANCH   1   8
TORSDOF 9
ENDMDL
MODEL 3
REMARK VINA RESULT:    -4.088      3.616      6.717
REMARK INTER + INTRA:          -6.744
REMARK INTER:                  -5.761
REMARK INTRA:                  -0.982
REMARK UNBOUND:                -0.506
REMARK SMILES CCCCCCCCCCC(=O)[O-]
REMARK SMILES IDX 7 1 8 2 9 3 10 4 11 5 12 6 13 7 6 8 5 9 4 10 3 11 2 12 1 13
REMARK H PARENT
REMARK Flexibility Score: inf
ROOT
ATOM      1  C   UNL     1      39.039  -7.867  11.609  1.00  0.00     0.000 C 
ENDROOT
BRANCH   1   2
ATOM      2  C   UNL     1      38.118  -7.162  10.601  1.00  0.00     0.000 C 
BRANCH   2   3
ATOM      3  C   UNL     1      38.763  -7.009   9.214  1.00  0.00     0.006 C 
BRANCH   3   4
ATOM      4  C   UNL     1      40.285  -6.838   9.298  1.00  0.00     0.053 C 
BRANCH   4   5
ATOM      5  C   UNL     1      41.006  -7.917   8.549  1.00  0.00     0.041 C 
ATOM      6  O   UNL     1      42.159  -7.708   8.090  1.00  0.00    -0.550 OA
ATOM      7  O   UNL     1      40.416  -9.165   8.390  1.00  0.00    -0.550 OA
ENDBRANCH   4   5
ENDBRANCH   3   4
ENDBRANCH   2   3
ENDBRANCH   1   2
BRANCH   1   8
ATOM      8  C   UNL     1      38.612  -9.316  11.888  1.00  0.00     0.000 C 
BRANCH   8   9
ATOM      9  C   UNL     1      37.087  -9.430  11.985  1.00  0.00    -0.000 C 
BRANCH   9  10
ATOM     10  C   UNL     1      36.603  -9.173  13.418  1.00  0.00    -0.000 C 
BRANCH  10  11
ATOM     11  C   UNL     1      35.258  -8.432  13.419  1.00  0.00    -0.000 C 
BRANCH  11  12
ATOM     12  C   UNL     1      35.404  -6.944  13.067  1.00  0.00    -0.003 C 
ATOM     13  C   UNL     1      36.487  -6.244  13.889  1.00  0.00     0.004 C 
ENDBRANCH  11  12
ENDBRANCH  10  11
ENDBRANCH   9  10
ENDBRANCH   8   9
ENDBRANCH   1   8
TORSDOF 9
ENDMDL
MODEL 4
REMARK VINA RESULT:    -4.084      1.413      2.277
REMARK INTER + INTRA:          -6.739
REMARK INTER:                  -5.936
REMARK INTRA:                  -0.803
REMARK UNBOUND:                -0.506
REMARK SMILES CCCCCCCCCCC(=O)[O-]
REMARK SMILES IDX 7 1 8 2 9 3 10 4 11 5 12 6 13 7 6 8 5 9 4 10 3 11 2 12 1 13
REMARK H PARENT
REMARK Flexibility Score: inf
ROOT
ATOM      1  C   UNL     1      37.106  -9.209  10.961  1.00  0.00     0.000 C 
ENDROOT
BRANCH   1   2
ATOM      2  C   UNL     1      37.644  -9.615  12.341  1.00  0.00     0.000 C 
BRANCH   2   3
ATOM      3  C   UNL     1      36.578  -9.517  13.445  1.00  0.00     0.006 C 
BRANCH   3   4
ATOM      4  C   UNL     1      36.399  -8.080  13.952  1.00  0.00     0.053 C 
BRANCH   4   5
ATOM      5  C   UNL     1      35.070  -7.513  13.553  1.00  0.00     0.041 C 
ATOM      6  O   UNL     1      34.996  -6.667  12.625  1.00  0.00    -0.550 OA
ATOM      7  O   UNL     1      33.912  -7.947  14.185  1.00  0.00    -0.550 OA
ENDBRANCH   4   5
ENDBRANCH   3   4
ENDBRANCH   2   3
ENDBRANCH   1   2
BRANCH   1   8
ATOM      8  C   UNL     1      37.657  -7.856  10.486  1.00  0.00     0.000 C 
BRANCH   8   9
ATOM      9  C   UNL     1      38.974  -7.519  11.196  1.00  0.00    -0.000 C 
BRANCH   9  10
ATOM     10  C   UNL     1      40.037  -7.051  10.194  1.00  0.00    -0.000 C 
BRANCH  10  11
ATOM     11  C   UNL     1      39.397  -6.261   9.043  1.00  0.00    -0.000 C 
BRANCH  11  12
ATOM     12  C   UNL     1      39.855  -6.755   7.662  1.00  0.00    -0.003 C 
ATOM     13  C   UNL     1      40.815  -7.943   7.747  1.00  0.00     0.004 C 
ENDBRANCH  11  12
ENDBRANCH  10  11
ENDBRANCH   9  10
ENDBRANCH   8   9
ENDBRANCH   1   8
TORSDOF 9
ENDMDL
MODEL 5
REMARK VINA RESULT:    -4.055      1.973      3.732
REMARK INTER + INTRA:          -6.694
REMARK INTER:                  -6.172
REMARK INTRA:                  -0.522
REMARK UNBOUND:                -0.506
REMARK SMILES CCCCCCCCCCC(=O)[O-]
REMARK SMILES IDX 7 1 8 2 9 3 10 4 11 5 12 6 13 7 6 8 5 9 4 10 3 11 2 12 1 13
REMARK H PARENT
REMARK Flexibility Score: inf
ROOT
ATOM      1  C   UNL     1      35.374  -6.990  12.436  1.00  0.00     0.000 C 
ENDROOT
BRANCH   1   2
ATOM      2  C   UNL     1      35.798  -6.342  13.763  1.00  0.00     0.000 C 
BRANCH   2   3
ATOM      3  C   UNL     1      35.349  -7.153  14.990  1.00  0.00     0.006 C 
BRANCH   3   4
ATOM      4  C   UNL     1      34.122  -8.023  14.691  1.00  0.00     0.053 C 
BRANCH   4   5
ATOM      5  C   UNL     1      33.167  -8.051  15.845  1.00  0.00     0.041 C 
ATOM      6  O   UNL     1      33.501  -8.590  16.932  1.00  0.00    -0.550 OA
ATOM      7  O   UNL     1      31.920  -7.449  15.729  1.00  0.00    -0.550 OA
ENDBRANCH   4   5
ENDBRANCH   3   4
ENDBRANCH   2   3
ENDBRANCH   1   2
BRANCH   1   8
ATOM      8  C   UNL     1      36.493  -7.832  11.805  1.00  0.00     0.000 C 
BRANCH   8   9
ATOM      9  C   UNL     1      37.870  -7.379  12.304  1.00  0.00    -0.000 C 
BRANCH   9  10
ATOM     10  C   UNL     1      38.950  -7.621  11.242  1.00  0.00    -0.000 C 
BRANCH  10  11
ATOM     11  C   UNL     1      38.346  -7.599   9.830  1.00  0.00    -0.000 C 
BRANCH  11  12
ATOM     12  C   UNL     1      38.788  -6.372   9.019  1.00  0.00    -0.003 C 
ATOM     13  C   UNL     1      39.571  -6.745   7.759  1.00  0.00     0.004 C 
ENDBRANCH  11  12
ENDBRANCH  10  11
ENDBRANCH   9  10
ENDBRANCH   8   9
ENDBRANCH   1   8
TORSDOF 9
ENDMDL
MODEL 6
REMARK VINA RESULT:    -4.033      1.642      2.580
REMARK INTER + INTRA:          -6.661
REMARK INTER:                  -5.474
REMARK INTRA:                  -1.187
REMARK UNBOUND:                -0.506
REMARK SMILES CCCCCCCCCCC(=O)[O-]
REMARK SMILES IDX 7 1 8 2 9 3 10 4 11 5 12 6 13 7 6 8 5 9 4 10 3 11 2 12 1 13
REMARK H PARENT
REMARK Flexibility Score: inf
ROOT
ATOM      1  C   UNL     1      38.031  -9.595  10.193  1.00  0.00     0.000 C 
ENDROOT
BRANCH   1   2
ATOM      2  C   UNL     1      38.851  -9.226  11.438  1.00  0.00     0.000 C 
BRANCH   2   3
ATOM      3  C   UNL     1      38.504  -7.831  11.985  1.00  0.00     0.006 C 
BRANCH   3   4
ATOM      4  C   UNL     1      37.062  -7.423  11.658  1.00  0.00     0.053 C 
BRANCH   4   5
ATOM      5  C   UNL     1      36.360  -6.857  12.855  1.00  0.00     0.041 C 
ATOM      6  O   UNL     1      37.015  -6.267  13.753  1.00  0.00    -0.550 OA
ATOM      7  O   UNL     1      34.978  -6.952  12.959  1.00  0.00    -0.550 OA
ENDBRANCH   4   5
ENDBRANCH   3   4
ENDBRANCH   2   3
ENDBRANCH   1   2
BRANCH   1   8
ATOM      8  C   UNL     1      38.880 -10.265   9.102  1.00  0.00     0.000 C 
BRANCH   8   9
ATOM      9  C   UNL     1      40.376 -10.110   9.398  1.00  0.00    -0.000 C 
BRANCH   9  10
ATOM     10  C   UNL     1      41.062  -9.242   8.336  1.00  0.00    -0.000 C 
BRANCH  10  11
ATOM     11  C   UNL     1      40.991  -7.755   8.712  1.00  0.00    -0.000 C 
BRANCH  11  12
ATOM     12  C   UNL     1      40.039  -6.961   7.804  1.00  0.00    -0.003 C 
ATOM     13  C   UNL     1      38.894  -6.306   8.577  1.00  0.00     0.004 C 
ENDBRANCH  11  12
ENDBRANCH  10  11
ENDBRANCH   9  10
ENDBRANCH   8   9
ENDBRANCH   1   8
TORSDOF 9
ENDMDL
MODEL 7
REMARK VINA RESULT:    -3.995      1.460      2.198
REMARK INTER + INTRA:          -6.603
REMARK INTER:                  -6.122
REMARK INTRA:                  -0.481
REMARK UNBOUND:                -0.506
REMARK SMILES CCCCCCCCCCC(=O)[O-]
REMARK SMILES IDX 7 1 8 2 9 3 10 4 11 5 12 6 13 7 6 8 5 9 4 10 3 11 2 12 1 13
REMARK H PARENT
REMARK Flexibility Score: inf
ROOT
ATOM      1  C   UNL     1      39.527  -7.372  10.700  1.00  0.00     0.000 C 
ENDROOT
BRANCH   1   2
ATOM      2  C   UNL     1      38.112  -7.273  10.108  1.00  0.00     0.000 C 
BRANCH   2   3
ATOM      3  C   UNL     1      37.023  -7.718  11.098  1.00  0.00     0.006 C 
BRANCH   3   4
ATOM      4  C   UNL     1      37.419  -7.448  12.555  1.00  0.00     0.053 C 
BRANCH   4   5
ATOM      5  C   UNL     1      36.353  -6.691  13.288  1.00  0.00     0.041 C 
ATOM      6  O   UNL     1      36.629  -6.077  14.351  1.00  0.00    -0.550 OA
ATOM      7  O   UNL     1      35.062  -6.638  12.777  1.00  0.00    -0.550 OA
ENDBRANCH   4   5
ENDBRANCH   3   4
ENDBRANCH   2   3
ENDBRANCH   1   2
BRANCH   1   8
ATOM      8  C   UNL     1      40.625  -7.208   9.639  1.00  0.00     0.000 C 
BRANCH   8   9
ATOM      9  C   UNL     1      40.205  -7.846   8.310  1.00  0.00    -0.000 C 
BRANCH   9  10
ATOM     10  C   UNL     1      41.351  -8.668   7.706  1.00  0.00    -0.000 C 
BRANCH  10  11
ATOM     11  C   UNL     1      42.178  -7.822   6.728  1.00  0.00    -0.000 C 
BRANCH  11  12
ATOM     12  C   UNL     1      43.640  -7.664   7.175  1.00  0.00    -0.003 C 
ATOM     13  C   UNL     1      44.170  -8.895   7.910  1.00  0.00     0.004 C 
ENDBRANCH  11  12
ENDBRANCH  10  11
ENDBRANCH   9  10
ENDBRANCH   8   9
ENDBRANCH   1   8
TORSDOF 9
ENDMDL
MODEL 8
REMARK VINA RESULT:    -3.992      3.280      6.548
REMARK INTER + INTRA:          -6.599
REMARK INTER:                  -5.574
REMARK INTRA:                  -1.024
REMARK UNBOUND:                -0.506
REMARK SMILES CCCCCCCCCCC(=O)[O-]
REMARK SMILES IDX 7 1 8 2 9 3 10 4 11 5 12 6 13 7 6 8 5 9 4 10 3 11 2 12 1 13
REMARK H PARENT
REMARK Flexibility Score: inf
ROOT
ATOM      1  C   UNL     1      37.943  -7.330  12.501  1.00  0.00     0.000 C 
ENDROOT
BRANCH   1   2
ATOM      2  C   UNL     1      37.587  -7.685  11.049  1.00  0.00     0.000 C 
BRANCH   2   3
ATOM      3  C   UNL     1      38.498  -8.778  10.465  1.00  0.00     0.006 C 
BRANCH   3   4
ATOM      4  C   UNL     1      39.000  -8.424   9.060  1.00  0.00     0.053 C 
BRANCH   4   5
ATOM      5  C   UNL     1      39.553  -7.032   9.004  1.00  0.00     0.041 C 
ATOM      6  O   UNL     1      39.085  -6.197   8.187  1.00  0.00    -0.550 OA
ATOM      7  O   UNL     1      40.563  -6.650   9.879  1.00  0.00    -0.550 OA
ENDBRANCH   4   5
ENDBRANCH   3   4
ENDBRANCH   2   3
ENDBRANCH   1   2
BRANCH   1   8
ATOM      8  C   UNL     1      36.795  -6.623  13.237  1.00  0.00     0.000 C 
BRANCH   8   9
ATOM      9  C   UNL     1      35.436  -7.041  12.665  1.00  0.00    -0.000 C 
BRANCH   9  10
ATOM     10  C   UNL     1      34.556  -7.682  13.746  1.00  0.00    -0.000 C 
BRANCH  10  11
ATOM     11  C   UNL     1      35.170  -8.997  14.247  1.00  0.00    -0.000 C 
BRANCH  11  12
ATOM     12  C   UNL     1      35.377 -10.019  13.118  1.00  0.00    -0.003 C 
ATOM     13  C   UNL     1      36.708 -10.764  13.232  1.00  0.00     0.004 C 
ENDBRANCH  11  12
ENDBRANCH  10  11
ENDBRANCH   9  10
ENDBRANCH   8   9
ENDBRANCH   1   8
TORSDOF 9
ENDMDL
MODEL 9
REMARK VINA RESULT:    -3.965      2.115      3.486
REMARK INTER + INTRA:          -6.557
REMARK INTER:                  -5.605
REMARK INTRA:                  -0.952
REMARK UNBOUND:                -0.506
REMARK SMILES CCCCCCCCCCC(=O)[O-]
REMARK SMILES IDX 7 1 8 2 9 3 10 4 11 5 12 6 13 7 6 8 5 9 4 10 3 11 2 12 1 13
REMARK H PARENT
REMARK Flexibility Score: inf
ROOT
ATOM      1  C   UNL     1      36.071 -10.291  12.035  1.00  0.00     0.000 C 
ENDROOT
BRANCH   1   2
ATOM      2  C   UNL     1      36.214  -9.805  13.486  1.00  0.00     0.000 C 
BRANCH   2   3
ATOM      3  C   UNL     1      35.018  -8.954  13.947  1.00  0.00     0.006 C 
BRANCH   3   4
ATOM      4  C   UNL     1      35.158  -7.485  13.531  1.00  0.00     0.053 C 
BRANCH   4   5
ATOM      5  C   UNL     1      36.027  -6.720  14.482  1.00  0.00     0.041 C 
ATOM      6  O   UNL     1      37.066  -6.144  14.069  1.00  0.00    -0.550 OA
ATOM      7  O   UNL     1      35.666  -6.615  15.820  1.00  0.00    -0.550 OA
ENDBRANCH   4   5
ENDBRANCH   3   4
ENDBRANCH   2   3
ENDBRANCH   1   2
BRANCH   1   8
ATOM      8  C   UNL     1      37.196  -9.774  11.125  1.00  0.00     0.000 C 
BRANCH   8   9
ATOM      9  C   UNL     1      38.386  -9.274  11.952  1.00  0.00    -0.000 C 
BRANCH   9  10
ATOM     10  C   UNL     1      38.735  -7.824  11.595  1.00  0.00    -0.000 C 
BRANCH  10  11
ATOM     11  C   UNL     1      37.956  -7.359  10.356  1.00  0.00    -0.000 C 
BRANCH  11  12
ATOM     12  C   UNL     1      38.849  -6.642   9.332  1.00  0.00    -0.003 C 
ATOM     13  C   UNL     1      40.329  -6.664   9.719  1.00  0.00     0.004 C 
ENDBRANCH  11  12
ENDBRANCH  10  11
ENDBRANCH   9  10
ENDBRANCH   8   9
ENDBRANCH   1   8
TORSDOF 9
ENDMDL
