MODEL 1
REMARK VINA RESULT:    -4.178      0.000      0.000
REMARK INTER + INTRA:          -8.859
REMARK INTER:                  -7.354
REMARK INTRA:                  -1.506
REMARK UNBOUND:                -1.506
REMARK SMILES CCCCCCCCCCCCCCC(=O)[O-]
REMARK SMILES IDX 9 1 10 2 11 3 12 4 13 5 14 6 15 7 16 8 17 9 8 10 7 11 6 12
REMARK SMILES IDX 5 13 4 14 3 15 2 16 1 17
REMARK H PARENT
REMARK Flexibility Score: inf
ROOT
ATOM      1  C   UNL     1     104.252  96.942  97.495  1.00  0.00     0.000 C 
ENDROOT
BRANCH   1   2
ATOM      2  C   UNL     1     105.520  97.119  96.647  1.00  0.00     0.000 C 
BRANCH   2   3
ATOM      3  C   UNL     1     105.210  97.421  95.172  1.00  0.00     0.000 C 
BRANCH   3   4
ATOM      4  C   UNL     1     104.294  98.645  94.999  1.00  0.00     0.000 C 
BRANCH   4   5
ATOM      5  C   UNL     1     104.978  99.957  95.414  1.00  0.00     0.006 C 
BRANCH   5   6
ATOM      6  C   UNL     1     106.053 100.407  94.415  1.00  0.00     0.053 C 
BRANCH   6   7
ATOM      7  C   UNL     1     107.389 100.480  95.085  1.00  0.00     0.041 C 
ATOM      8  O   UNL     1     107.970  99.427  95.458  1.00  0.00    -0.550 OA
ATOM      9  O   UNL     1     108.016 101.709  95.252  1.00  0.00    -0.550 OA
ENDBRANCH   6   7
ENDBRANCH   5   6
ENDBRANCH   4   5
ENDBRANCH   3   4
ENDBRANCH   2   3
ENDBRANCH   1   2
BRANCH   1  10
ATOM     10  C   UNL     1     104.170  95.522  98.069  1.00  0.00     0.000 C 
BRANCH  10  11
ATOM     11  C   UNL     1     102.892  95.336  98.897  1.00  0.00    -0.000 C 
BRANCH  11  12
ATOM     12  C   UNL     1     102.011  96.589  98.840  1.00  0.00    -0.000 C 
BRANCH  12  13
ATOM     13  C   UNL     1     100.673  96.292  98.146  1.00  0.00    -0.000 C 
BRANCH  13  14
ATOM     14  C   UNL     1     100.027  97.562  97.554  1.00  0.00    -0.000 C 
BRANCH  14  15
ATOM     15  C   UNL     1     100.851  98.203  96.423  1.00  0.00    -0.000 C 
BRANCH  15  16
ATOM     16  C   UNL     1     101.108  99.699  96.645  1.00  0.00    -0.003 C 
ATOM     17  C   UNL     1     101.019 100.474  95.333  1.00  0.00     0.004 C 
ENDBRANCH  15  16
ENDBRANCH  14  15
ENDBRANCH  13  14
ENDBRANCH  12  13
ENDBRANCH  11  12
ENDBRANCH  10  11
ENDBRANCH   1  10
TORSDOF 13
ENDMDL
MODEL 2
REMARK VINA RESULT:    -4.145      3.084      4.187
REMARK INTER + INTRA:          -8.800
REMARK INTER:                  -6.772
REMARK INTRA:                  -2.028
REMARK UNBOUND:                -1.506
REMARK SMILES CCCCCCCCCCCCCCC(=O)[O-]
REMARK SMILES IDX 9 1 10 2 11 3 12 4 13 5 14 6 15 7 16 8 17 9 8 10 7 11 6 12
REMARK SMILES IDX 5 13 4 14 3 15 2 16 1 17
REMARK H PARENT
REMARK Flexibility Score: inf
ROOT
ATOM      1  C   UNL     1     104.231  97.527  97.681  1.00  0.00     0.000 C 
ENDROOT
BRANCH   1   2
ATOM      2  C   UNL     1     104.960  97.303  96.348  1.00  0.00     0.000 C 
BRANCH   2   3
ATOM      3  C   UNL     1     104.276  98.017  95.171  1.00  0.00     0.000 C 
BRANCH   3   4
ATOM      4  C   UNL     1     104.019  99.507  95.453  1.00  0.00     0.000 C 
BRANCH   4   5
ATOM      5  C   UNL     1     102.593  99.942  95.078  1.00  0.00     0.006 C 
BRANCH   5   6
ATOM      6  C   UNL     1     102.067 101.077  95.968  1.00  0.00     0.053 C 
BRANCH   6   7
ATOM      7  C   UNL     1     100.674 101.448  95.568  1.00  0.00     0.041 C 
ATOM      8  O   UNL     1     100.326 102.657  95.528  1.00  0.00    -0.550 OA
ATOM      9  O   UNL     1      99.773 100.459  95.188  1.00  0.00    -0.550 OA
ENDBRANCH   6   7
ENDBRANCH   5   6
ENDBRANCH   4   5
ENDBRANCH   3   4
ENDBRANCH   2   3
ENDBRANCH   1   2
BRANCH   1  10
ATOM     10  C   UNL     1     103.607  96.223  98.192  1.00  0.00     0.000 C 
BRANCH  10  11
ATOM     11  C   UNL     1     102.174  96.454  98.685  1.00  0.00    -0.000 C 
BRANCH  11  12
ATOM     12  C   UNL     1     101.730  97.900  98.431  1.00  0.00    -0.000 C 
BRANCH  12  13
ATOM     13  C   UNL     1     100.416  97.942  97.636  1.00  0.00    -0.000 C 
BRANCH  13  14
ATOM     14  C   UNL     1     100.508  97.153  96.313  1.00  0.00    -0.000 C 
BRANCH  14  15
ATOM     15  C   UNL     1      99.306  96.226  96.063  1.00  0.00    -0.000 C 
BRANCH  15  16
ATOM     16  C   UNL     1      98.643  95.743  97.360  1.00  0.00    -0.003 C 
ATOM     17  C   UNL     1      99.033  94.302  97.673  1.00  0.00     0.004 C 
ENDBRANCH  15  16
ENDBRANCH  14  15
ENDBRANCH  13  14
ENDBRANCH  12  13
ENDBRANCH  11  12
ENDBRANCH  10  11
ENDBRANCH   1  10
TORSDOF 13
ENDMDL
MODEL 3
REMARK VINA RESULT:    -4.144      4.347      6.591
REMARK INTER + INTRA:          -8.798
REMARK INTER:                  -7.022
REMARK INTRA:                  -1.777
REMARK UNBOUND:                -1.506
REMARK SMILES CCCCCCCCCCCCCCC(=O)[O-]
REMARK SMILES IDX 9 1 10 2 11 3 12 4 13 5 14 6 15 7 16 8 17 9 8 10 7 11 6 12
REMARK SMILES IDX 5 13 4 14 3 15 2 16 1 17
REMARK H PARENT
REMARK Flexibility Score: inf
ROOT
ATOM      1  C   UNL     1     102.637  96.101  99.092  1.00  0.00     0.000 C 
ENDROOT
BRANCH   1   2
ATOM      2  C   UNL     1     102.049  97.510  98.923  1.00  0.00     0.000 C 
BRANCH   2   3
ATOM      3  C   UNL     1     100.604  97.491  98.399  1.00  0.00     0.000 C 
BRANCH   3   4
ATOM      4  C   UNL     1     100.532  97.292  96.875  1.00  0.00     0.000 C 
BRANCH   4   5
ATOM      5  C   UNL     1      99.577  96.156  96.472  1.00  0.00     0.006 C 
BRANCH   5   6
ATOM      6  C   UNL     1      99.280  95.193  97.630  1.00  0.00     0.053 C 
BRANCH   6   7
ATOM      7  C   UNL     1      97.804  95.079  97.846  1.00  0.00     0.041 C 
ATOM      8  O   UNL     1      97.286  93.962  98.107  1.00  0.00    -0.550 OA
ATOM      9  O   UNL     1      97.007  96.217  97.813  1.00  0.00    -0.550 OA
ENDBRANCH   6   7
ENDBRANCH   5   6
ENDBRANCH   4   5
ENDBRANCH   3   4
ENDBRANCH   2   3
ENDBRANCH   1   2
BRANCH   1  10
ATOM     10  C   UNL     1     103.818  95.882  98.139  1.00  0.00     0.000 C 
BRANCH  10  11
ATOM     11  C   UNL     1     104.300  97.211  97.543  1.00  0.00    -0.000 C 
BRANCH  11  12
ATOM     12  C   UNL     1     105.294  96.974  96.400  1.00  0.00    -0.000 C 
BRANCH  12  13
ATOM     13  C   UNL     1     104.900  97.776  95.151  1.00  0.00    -0.000 C 
BRANCH  13  14
ATOM     14  C   UNL     1     104.393  99.192  95.501  1.00  0.00    -0.000 C 
BRANCH  14  15
ATOM     15  C   UNL     1     103.257  99.683  94.588  1.00  0.00    -0.000 C 
BRANCH  15  16
ATOM     16  C   UNL     1     102.108 100.341  95.365  1.00  0.00    -0.003 C 
ATOM     17  C   UNL     1     102.509 100.617  96.811  1.00  0.00     0.004 C 
ENDBRANCH  15  16
ENDBRANCH  14  15
ENDBRANCH  13  14
ENDBRANCH  12  13
ENDBRANCH  11  12
ENDBRANCH  10  11
ENDBRANCH   1  10
TORSDOF 13
ENDMDL
MODEL 4
REMARK VINA RESULT:    -4.141      1.521      2.611
REMARK INTER + INTRA:          -8.794
REMARK INTER:                  -7.386
REMARK INTRA:                  -1.408
REMARK UNBOUND:                -1.506
REMARK SMILES CCCCCCCCCCCCCCC(=O)[O-]
REMARK SMILES IDX 9 1 10 2 11 3 12 4 13 5 14 6 15 7 16 8 17 9 8 10 7 11 6 12
REMARK SMILES IDX 5 13 4 14 3 15 2 16 1 17
REMARK H PARENT
REMARK Flexibility Score: inf
ROOT
ATOM      1  C   UNL     1     103.849  95.623  98.173  1.00  0.00     0.000 C 
ENDROOT
BRANCH   1   2
ATOM      2  C   UNL     1     104.804  96.408  97.263  1.00  0.00     0.000 C 
BRANCH   2   3
ATOM      3  C   UNL     1     104.203  97.737  96.777  1.00  0.00     0.000 C 
BRANCH   3   4
ATOM      4  C   UNL     1     104.555  98.042  95.311  1.00  0.00     0.000 C 
BRANCH   4   5
ATOM      5  C   UNL     1     106.023  97.729  94.979  1.00  0.00     0.006 C 
BRANCH   5   6
ATOM      6  C   UNL     1     106.897  98.989  94.911  1.00  0.00     0.053 C 
BRANCH   6   7
ATOM      7  C   UNL     1     107.869  99.010  96.049  1.00  0.00     0.041 C 
ATOM      8  O   UNL     1     107.848  98.098  96.917  1.00  0.00    -0.550 OA
ATOM      9  O   UNL     1     108.833 100.008  96.121  1.00  0.00    -0.550 OA
ENDBRANCH   6   7
ENDBRANCH   5   6
ENDBRANCH   4   5
ENDBRANCH   3   4
ENDBRANCH   2   3
ENDBRANCH   1   2
BRANCH   1  10
ATOM     10  C   UNL     1     103.075  96.567  99.101  1.00  0.00     0.000 C 
BRANCH  10  11
ATOM     11  C   UNL     1     101.577  96.559  98.770  1.00  0.00    -0.000 C 
BRANCH  11  12
ATOM     12  C   UNL     1     101.001  97.980  98.789  1.00  0.00    -0.000 C 
BRANCH  12  13
ATOM     13  C   UNL     1     100.342  98.327  97.446  1.00  0.00    -0.000 C 
BRANCH  13  14
ATOM     14  C   UNL     1     100.517  97.203  96.402  1.00  0.00    -0.000 C 
BRANCH  14  15
ATOM     15  C   UNL     1      99.189  96.695  95.814  1.00  0.00    -0.000 C 
BRANCH  15  16
ATOM     16  C   UNL     1      98.910  95.224  96.151  1.00  0.00    -0.003 C 
ATOM     17  C   UNL     1      98.559  95.055  97.626  1.00  0.00     0.004 C 
ENDBRANCH  15  16
ENDBRANCH  14  15
ENDBRANCH  13  14
ENDBRANCH  12  13
ENDBRANCH  11  12
ENDBRANCH  10  11
ENDBRANCH   1  10
TORSDOF 13
ENDMDL
MODEL 5
REMARK VINA RESULT:    -4.120      1.694      3.003
REMARK INTER + INTRA:          -8.756
REMARK INTER:                  -7.102
REMARK INTRA:                  -1.654
REMARK UNBOUND:                -1.506
REMARK SMILES CCCCCCCCCCCCCCC(=O)[O-]
REMARK SMILES IDX 9 1 10 2 11 3 12 4 13 5 14 6 15 7 16 8 17 9 8 10 7 11 6 12
REMARK SMILES IDX 5 13 4 14 3 15 2 16 1 17
REMARK H PARENT
REMARK Flexibility Score: inf
ROOT
ATOM      1  C   UNL     1     102.350  99.888  98.506  1.00  0.00     0.000 C 
ENDROOT
BRANCH   1   2
ATOM      2  C   UNL     1     103.008 100.037  97.126  1.00  0.00     0.000 C 
BRANCH   2   3
ATOM      3  C   UNL     1     102.371  99.126  96.064  1.00  0.00     0.000 C 
BRANCH   3   4
ATOM      4  C   UNL     1     103.420  98.395  95.209  1.00  0.00     0.000 C 
BRANCH   4   5
ATOM      5  C   UNL     1     104.540  97.767  96.055  1.00  0.00     0.006 C 
BRANCH   5   6
ATOM      6  C   UNL     1     105.789  97.431  95.229  1.00  0.00     0.053 C 
BRANCH   6   7
ATOM      7  C   UNL     1     106.776  98.553  95.299  1.00  0.00     0.041 C 
ATOM      8  O   UNL     1     106.698  99.518  94.493  1.00  0.00    -0.550 OA
ATOM      9  O   UNL     1     107.752  98.561  96.289  1.00  0.00    -0.550 OA
ENDBRANCH   6   7
ENDBRANCH   5   6
ENDBRANCH   4   5
ENDBRANCH   3   4
ENDBRANCH   2   3
ENDBRANCH   1   2
BRANCH   1  10
ATOM     10  C   UNL     1     103.170  98.957  99.407  1.00  0.00     0.000 C 
BRANCH  10  11
ATOM     11  C   UNL     1     102.346  97.735  99.833  1.00  0.00    -0.000 C 
BRANCH  11  12
ATOM     12  C   UNL     1     102.863  96.460  99.157  1.00  0.00    -0.000 C 
BRANCH  12  13
ATOM     13  C   UNL     1     101.728  95.718  98.436  1.00  0.00    -0.000 C 
BRANCH  13  14
ATOM     14  C   UNL     1     100.589  96.668  98.006  1.00  0.00    -0.000 C 
BRANCH  14  15
ATOM     15  C   UNL     1      99.215  95.982  97.917  1.00  0.00    -0.000 C 
BRANCH  15  16
ATOM     16  C   UNL     1      98.968  95.311  96.560  1.00  0.00    -0.003 C 
ATOM     17  C   UNL     1      99.341  96.242  95.410  1.00  0.00     0.004 C 
ENDBRANCH  15  16
ENDBRANCH  14  15
ENDBRANCH  13  14
ENDBRANCH  12  13
ENDBRANCH  11  12
ENDBRANCH  10  11
ENDBRANCH   1  10
TORSDOF 13
ENDMDL
MODEL 6
REMARK VINA RESULT:    -4.111      3.184      5.679
REMARK INTER + INTRA:          -8.740
REMARK INTER:                  -6.864
REMARK INTRA:                  -1.876
REMARK UNBOUND:                -1.506
REMARK SMILES CCCCCCCCCCCCCCC(=O)[O-]
REMARK SMILES IDX 9 1 10 2 11 3 12 4 13 5 14 6 15 7 16 8 17 9 8 10 7 11 6 12
REMARK SMILES IDX 5 13 4 14 3 15 2 16 1 17
REMARK H PARENT
REMARK Flexibility Score: inf
ROOT
ATOM      1  C   UNL     1     104.347  96.918  97.232  1.00  0.00     0.000 C 
ENDROOT
BRANCH   1   2
ATOM      2  C   UNL     1     104.215  95.615  98.033  1.00  0.00     0.000 C 
BRANCH   2   3
ATOM      3  C   UNL     1     102.883  95.519  98.795  1.00  0.00     0.000 C 
BRANCH   3   4
ATOM      4  C   UNL     1     102.058  96.814  98.706  1.00  0.00     0.000 C 
BRANCH   4   5
ATOM      5  C   UNL     1     100.725  96.615  97.967  1.00  0.00     0.006 C 
BRANCH   5   6
ATOM      6  C   UNL     1     100.671  97.365  96.629  1.00  0.00     0.053 C 
BRANCH   6   7
ATOM      7  C   UNL     1      99.779  98.561  96.739  1.00  0.00     0.041 C 
ATOM      8  O   UNL     1      99.330  98.917  97.860  1.00  0.00    -0.550 OA
ATOM      9  O   UNL     1      99.487  99.316  95.609  1.00  0.00    -0.550 OA
ENDBRANCH   6   7
ENDBRANCH   5   6
ENDBRANCH   4   5
ENDBRANCH   3   4
ENDBRANCH   2   3
ENDBRANCH   1   2
BRANCH   1  10
ATOM     10  C   UNL     1     105.748  97.049  96.624  1.00  0.00     0.000 C 
BRANCH  10  11
ATOM     11  C   UNL     1     105.671  97.352  95.122  1.00  0.00    -0.000 C 
BRANCH  11  12
ATOM     12  C   UNL     1     106.532  98.568  94.761  1.00  0.00    -0.000 C 
BRANCH  12  13
ATOM     13  C   UNL     1     106.581  99.574  95.921  1.00  0.00    -0.000 C 
BRANCH  13  14
ATOM     14  C   UNL     1     105.513 100.680  95.781  1.00  0.00    -0.000 C 
BRANCH  14  15
ATOM     15  C   UNL     1     104.451 100.656  96.893  1.00  0.00    -0.000 C 
BRANCH  15  16
ATOM     16  C   UNL     1     103.056 100.277  96.379  1.00  0.00    -0.003 C 
ATOM     17  C   UNL     1     103.072 100.032  94.873  1.00  0.00     0.004 C 
ENDBRANCH  15  16
ENDBRANCH  14  15
ENDBRANCH  13  14
ENDBRANCH  12  13
ENDBRANCH  11  12
ENDBRANCH  10  11
ENDBRANCH   1  10
TORSDOF 13
ENDMDL
MODEL 7
REMARK VINA RESULT:    -4.106      1.674      3.587
REMARK INTER + INTRA:          -8.732
REMARK INTER:                  -7.283
REMARK INTRA:                  -1.449
REMARK UNBOUND:                -1.506
REMARK SMILES CCCCCCCCCCCCCCC(=O)[O-]
REMARK SMILES IDX 9 1 10 2 11 3 12 4 13 5 14 6 15 7 16 8 17 9 8 10 7 11 6 12
REMARK SMILES IDX 5 13 4 14 3 15 2 16 1 17
REMARK H PARENT
REMARK Flexibility Score: inf
ROOT
ATOM      1  C   UNL     1     102.440  96.881  99.257  1.00  0.00     0.000 C 
ENDROOT
BRANCH   1   2
ATOM      2  C   UNL     1     102.965  95.471  98.953  1.00  0.00     0.000 C 
BRANCH   2   3
ATOM      3  C   UNL     1     104.177  95.481  98.008  1.00  0.00     0.000 C 
BRANCH   3   4
ATOM      4  C   UNL     1     104.595  96.904  97.598  1.00  0.00     0.000 C 
BRANCH   4   5
ATOM      5  C   UNL     1     105.097  96.977  96.147  1.00  0.00     0.006 C 
BRANCH   5   6
ATOM      6  C   UNL     1     105.193  98.417  95.625  1.00  0.00     0.053 C 
BRANCH   6   7
ATOM      7  C   UNL     1     106.625  98.804  95.428  1.00  0.00     0.041 C 
ATOM      8  O   UNL     1     107.485  98.521  96.303  1.00  0.00    -0.550 OA
ATOM      9  O   UNL     1     107.019  99.432  94.252  1.00  0.00    -0.550 OA
ENDBRANCH   6   7
ENDBRANCH   5   6
ENDBRANCH   4   5
ENDBRANCH   3   4
ENDBRANCH   2   3
ENDBRANCH   1   2
BRANCH   1  10
ATOM     10  C   UNL     1     101.098  97.130  98.559  1.00  0.00     0.000 C 
BRANCH  10  11
ATOM     11  C   UNL     1     101.274  98.030  97.330  1.00  0.00    -0.000 C 
BRANCH  11  12
ATOM     12  C   UNL     1     100.583  97.427  96.101  1.00  0.00    -0.000 C 
BRANCH  12  13
ATOM     13  C   UNL     1      99.090  97.787  96.075  1.00  0.00    -0.000 C 
BRANCH  13  14
ATOM     14  C   UNL     1      98.187  96.548  96.252  1.00  0.00    -0.000 C 
BRANCH  14  15
ATOM     15  C   UNL     1      98.954  95.215  96.210  1.00  0.00    -0.000 C 
BRANCH  15  16
ATOM     16  C   UNL     1      98.838  94.417  97.515  1.00  0.00    -0.003 C 
ATOM     17  C   UNL     1      97.722  94.967  98.399  1.00  0.00     0.004 C 
ENDBRANCH  15  16
ENDBRANCH  14  15
ENDBRANCH  13  14
ENDBRANCH  12  13
ENDBRANCH  11  12
ENDBRANCH  10  11
ENDBRANCH   1  10
TORSDOF 13
ENDMDL
MODEL 8
REMARK VINA RESULT:    -4.101      1.371      3.842
REMARK INTER + INTRA:          -8.723
REMARK INTER:                  -6.902
REMARK INTRA:                  -1.821
REMARK UNBOUND:                -1.506
REMARK SMILES CCCCCCCCCCCCCCC(=O)[O-]
REMARK SMILES IDX 9 1 10 2 11 3 12 4 13 5 14 6 15 7 16 8 17 9 8 10 7 11 6 12
REMARK SMILES IDX 5 13 4 14 3 15 2 16 1 17
REMARK H PARENT
REMARK Flexibility Score: inf
ROOT
ATOM      1  C   UNL     1     102.119 100.742  95.674  1.00  0.00     0.000 C 
ENDROOT
BRANCH   1   2
ATOM      2  C   UNL     1     102.942  99.761  94.826  1.00  0.00     0.000 C 
BRANCH   2   3
ATOM      3  C   UNL     1     103.030  98.361  95.457  1.00  0.00     0.000 C 
BRANCH   3   4
ATOM      4  C   UNL     1     104.107  98.274  96.552  1.00  0.00     0.000 C 
BRANCH   4   5
ATOM      5  C   UNL     1     105.188  97.229  96.234  1.00  0.00     0.006 C 
BRANCH   5   6
ATOM      6  C   UNL     1     105.934  97.526  94.926  1.00  0.00     0.053 C 
BRANCH   6   7
ATOM      7  C   UNL     1     106.769  98.760  95.072  1.00  0.00     0.041 C 
ATOM      8  O   UNL     1     106.532  99.773  94.363  1.00  0.00    -0.550 OA
ATOM      9  O   UNL     1     107.776  98.809  96.028  1.00  0.00    -0.550 OA
ENDBRANCH   6   7
ENDBRANCH   5   6
ENDBRANCH   4   5
ENDBRANCH   3   4
ENDBRANCH   2   3
ENDBRANCH   1   2
BRANCH   1  10
ATOM     10  C   UNL     1     100.647 100.739  95.244  1.00  0.00     0.000 C 
BRANCH  10  11
ATOM     11  C   UNL     1      99.838  99.717  96.052  1.00  0.00    -0.000 C 
BRANCH  11  12
ATOM     12  C   UNL     1      99.911 100.020  97.553  1.00  0.00    -0.000 C 
BRANCH  12  13
ATOM     13  C   UNL     1     100.139  98.736  98.365  1.00  0.00    -0.000 C 
BRANCH  13  14
ATOM     14  C   UNL     1      99.853  97.464  97.539  1.00  0.00    -0.000 C 
BRANCH  14  15
ATOM     15  C   UNL     1     100.728  96.262  97.936  1.00  0.00    -0.000 C 
BRANCH  15  16
ATOM     16  C   UNL     1     101.914  96.654  98.826  1.00  0.00    -0.003 C 
ATOM     17  C   UNL     1     102.885  95.489  98.996  1.00  0.00     0.004 C 
ENDBRANCH  15  16
ENDBRANCH  14  15
ENDBRANCH  13  14
ENDBRANCH  12  13
ENDBRANCH  11  12
ENDBRANCH  10  11
ENDBRANCH   1  10
TORSDOF 13
ENDMDL
MODEL 9
REMARK VINA RESULT:    -4.097      2.224      4.817
REMARK INTER + INTRA:          -8.716
REMARK INTER:                  -7.089
REMARK INTRA:                  -1.627
REMARK UNBOUND:                -1.506
REMARK SMILES CCCCCCCCCCCCCCC(=O)[O-]
REMARK SMILES IDX 9 1 10 2 11 3 12 4 13 5 14 6 15 7 16 8 17 9 8 10 7 11 6 12
REMARK SMILES IDX 5 13 4 14 3 15 2 16 1 17
REMARK H PARENT
REMARK Flexibility Score: inf
ROOT
ATOM      1  C   UNL     1     102.602  96.915  99.401  1.00  0.00     0.000 C 
ENDROOT
BRANCH   1   2
ATOM      2  C   UNL     1     101.142  97.262  99.077  1.00  0.00     0.000 C 
BRANCH   2   3
ATOM      3  C   UNL     1     100.694  96.723  97.708  1.00  0.00     0.000 C 
BRANCH   3   4
ATOM      4  C   UNL     1     100.471  97.844  96.678  1.00  0.00     0.000 C 
BRANCH   4   5
ATOM      5  C   UNL     1     101.763  98.239  95.946  1.00  0.00     0.006 C 
BRANCH   5   6
ATOM      6  C   UNL     1     102.299  99.608  96.387  1.00  0.00     0.053 C 
BRANCH   6   7
ATOM      7  C   UNL     1     102.315 100.558  95.230  1.00  0.00     0.041 C 
ATOM      8  O   UNL     1     102.821 100.210  94.131  1.00  0.00    -0.550 OA
ATOM      9  O   UNL     1     101.722 101.809  95.350  1.00  0.00    -0.550 OA
ENDBRANCH   6   7
ENDBRANCH   5   6
ENDBRANCH   4   5
ENDBRANCH   3   4
ENDBRANCH   2   3
ENDBRANCH   1   2
BRANCH   1  10
ATOM     10  C   UNL     1     102.944  95.494  98.939  1.00  0.00     0.000 C 
BRANCH  10  11
ATOM     11  C   UNL     1     104.197  95.489  98.054  1.00  0.00    -0.000 C 
BRANCH  11  12
ATOM     12  C   UNL     1     104.489  96.889  97.504  1.00  0.00    -0.000 C 
BRANCH  12  13
ATOM     13  C   UNL     1     105.638  96.854  96.485  1.00  0.00    -0.000 C 
BRANCH  13  14
ATOM     14  C   UNL     1     105.280  97.588  95.175  1.00  0.00    -0.000 C 
BRANCH  14  15
ATOM     15  C   UNL     1     106.069  98.892  94.964  1.00  0.00    -0.000 C 
BRANCH  15  16
ATOM     16  C   UNL     1     106.811  99.353  96.226  1.00  0.00    -0.003 C 
ATOM     17  C   UNL     1     108.318  99.395  95.994  1.00  0.00     0.004 C 
ENDBRANCH  15  16
ENDBRANCH  14  15
ENDBRANCH  13  14
ENDBRANCH  12  13
ENDBRANCH  11  12
ENDBRANCH  10  11
ENDBRANCH   1  10
TORSDOF 13
ENDMDL
