MODEL 1
REMARK VINA RESULT:    -4.980      0.000      0.000
REMARK INTER + INTRA:          -4.980
REMARK INTER:                  -4.980
REMARK INTRA:                   0.000
REMARK UNBOUND:                 0.000
REMARK SMILES CC(C)=C1CC[C@H](C)CC1=O
REMARK SMILES IDX 8 1 7 2 6 3 5 4 4 5 2 6 1 7 3 8 10 9 11 10 9 11
REMARK H PARENT
REMARK Flexibility Score: inf
ROOT
ATOM      1  C   UNL     1       8.774 -18.303  18.461  1.00  0.00     0.008 C 
ATOM      2  C   UNL     1      10.016 -17.841  19.229  1.00  0.00    -0.006 C 
ATOM      3  C   UNL     1       9.915 -18.236  20.711  1.00  0.00     0.008 C 
ATOM      4  C   UNL     1      11.102 -17.694  21.517  1.00  0.00     0.039 C 
ATOM      5  C   UNL     1      12.444 -18.069  20.903  1.00  0.00    -0.006 C 
ATOM      6  C   UNL     1      13.547 -18.277  21.681  1.00  0.00    -0.070 C 
ATOM      7  C   UNL     1      13.485 -18.128  23.184  1.00  0.00     0.039 C 
ATOM      8  C   UNL     1      14.870 -18.706  21.088  1.00  0.00     0.039 C 
ATOM      9  C   UNL     1      12.503 -18.078  19.410  1.00  0.00     0.159 C 
ATOM     10  O   UNL     1      13.560 -17.775  18.795  1.00  0.00    -0.295 OA
ATOM     11  C   UNL     1      11.287 -18.446  18.611  1.00  0.00     0.084 C 
ENDROOT
TORSDOF 0
ENDMDL
MODEL 2
REMARK VINA RESULT:    -4.978      2.132      4.807
REMARK INTER + INTRA:          -4.978
REMARK INTER:                  -4.978
REMARK INTRA:                   0.000
REMARK UNBOUND:                 0.000
REMARK SMILES CC(C)=C1CC[C@H](C)CC1=O
REMARK SMILES IDX 8 1 7 2 6 3 5 4 4 5 2 6 1 7 3 8 10 9 11 10 9 11
REMARK H PARENT
REMARK Flexibility Score: inf
ROOT
ATOM      1  C   UNL     1      13.482 -18.164  19.267  1.00  0.00     0.008 C 
ATOM      2  C   UNL     1      12.030 -17.707  19.442  1.00  0.00    -0.006 C 
ATOM      3  C   UNL     1      11.126 -18.362  18.385  1.00  0.00     0.008 C 
ATOM      4  C   UNL     1       9.687 -17.839  18.481  1.00  0.00     0.039 C 
ATOM      5  C   UNL     1       9.117 -17.952  19.888  1.00  0.00    -0.006 C 
ATOM      6  C   UNL     1       7.785 -18.169  20.099  1.00  0.00    -0.070 C 
ATOM      7  C   UNL     1       6.818 -18.290  18.944  1.00  0.00     0.039 C 
ATOM      8  C   UNL     1       7.217 -18.340  21.490  1.00  0.00     0.039 C 
ATOM      9  C   UNL     1      10.074 -17.696  21.006  1.00  0.00     0.159 C 
ATOM     10  O   UNL     1       9.692 -17.177  22.088  1.00  0.00    -0.295 OA
ATOM     11  C   UNL     1      11.524 -18.052  20.851  1.00  0.00     0.084 C 
ENDROOT
TORSDOF 0
ENDMDL
MODEL 3
REMARK VINA RESULT:    -4.891      1.635      4.619
REMARK INTER + INTRA:          -4.891
REMARK INTER:                  -4.891
REMARK INTRA:                   0.000
REMARK UNBOUND:                 0.000
REMARK SMILES CC(C)=C1CC[C@H](C)CC1=O
REMARK SMILES IDX 8 1 7 2 6 3 5 4 4 5 2 6 1 7 3 8 10 9 11 10 9 11
REMARK H PARENT
REMARK Flexibility Score: inf
ROOT
ATOM      1  C   UNL     1      15.467 -18.656  21.883  1.00  0.00     0.008 C 
ATOM      2  C   UNL     1      14.211 -18.012  21.289  1.00  0.00    -0.006 C 
ATOM      3  C   UNL     1      13.920 -18.581  19.890  1.00  0.00     0.008 C 
ATOM      4  C   UNL     1      12.725 -17.875  19.238  1.00  0.00     0.039 C 
ATOM      5  C   UNL     1      11.493 -17.866  20.132  1.00  0.00    -0.006 C 
ATOM      6  C   UNL     1      10.234 -17.904  19.605  1.00  0.00    -0.070 C 
ATOM      7  C   UNL     1      10.010 -17.938  18.111  1.00  0.00     0.039 C 
ATOM      8  C   UNL     1       9.004 -17.952  20.484  1.00  0.00     0.039 C 
ATOM      9  C   UNL     1      11.746 -17.697  21.595  1.00  0.00     0.159 C 
ATOM     10  O   UNL     1      10.922 -17.096  22.335  1.00  0.00    -0.295 OA
ATOM     11  C   UNL     1      13.002 -18.241  22.209  1.00  0.00     0.084 C 
ENDROOT
TORSDOF 0
ENDMDL
MODEL 4
REMARK VINA RESULT:    -4.787      1.746      2.837
REMARK INTER + INTRA:          -4.787
REMARK INTER:                  -4.787
REMARK INTRA:                   0.000
REMARK UNBOUND:                 0.000
REMARK SMILES CC(C)=C1CC[C@H](C)CC1=O
REMARK SMILES IDX 8 1 7 2 6 3 5 4 4 5 2 6 1 7 3 8 10 9 11 10 9 11
REMARK H PARENT
REMARK Flexibility Score: inf
ROOT
ATOM      1  C   UNL     1       7.012 -18.109  18.907  1.00  0.00     0.008 C 
ATOM      2  C   UNL     1       8.453 -18.595  19.088  1.00  0.00    -0.006 C 
ATOM      3  C   UNL     1       9.411 -17.799  18.186  1.00  0.00     0.008 C 
ATOM      4  C   UNL     1      10.843 -18.339  18.278  1.00  0.00     0.039 C 
ATOM      5  C   UNL     1      11.339 -18.436  19.714  1.00  0.00    -0.006 C 
ATOM      6  C   UNL     1      12.658 -18.261  20.023  1.00  0.00    -0.070 C 
ATOM      7  C   UNL     1      13.683 -17.979  18.949  1.00  0.00     0.039 C 
ATOM      8  C   UNL     1      13.153 -18.298  21.450  1.00  0.00     0.039 C 
ATOM      9  C   UNL     1      10.325 -18.846  20.732  1.00  0.00     0.159 C 
ATOM     10  O   UNL     1      10.652 -19.521  21.745  1.00  0.00    -0.295 OA
ATOM     11  C   UNL     1       8.885 -18.462  20.556  1.00  0.00     0.084 C 
ENDROOT
TORSDOF 0
ENDMDL
MODEL 5
REMARK VINA RESULT:    -4.704     11.145     11.362
REMARK INTER + INTRA:          -4.704
REMARK INTER:                  -4.704
REMARK INTRA:                   0.000
REMARK UNBOUND:                 0.000
REMARK SMILES CC(C)=C1CC[C@H](C)CC1=O
REMARK SMILES IDX 8 1 7 2 6 3 5 4 4 5 2 6 1 7 3 8 10 9 11 10 9 11
REMARK H PARENT
REMARK Flexibility Score: inf
ROOT
ATOM      1  C   UNL     1      15.751  -8.831  25.400  1.00  0.00     0.008 C 
ATOM      2  C   UNL     1      17.003  -9.500  25.976  1.00  0.00    -0.006 C 
ATOM      3  C   UNL     1      16.624 -10.741  26.801  1.00  0.00     0.008 C 
ATOM      4  C   UNL     1      17.856 -11.365  27.468  1.00  0.00     0.039 C 
ATOM      5  C   UNL     1      18.979 -11.643  26.478  1.00  0.00    -0.006 C 
ATOM      6  C   UNL     1      19.832 -12.695  26.651  1.00  0.00    -0.070 C 
ATOM      7  C   UNL     1      19.708 -13.618  27.841  1.00  0.00     0.039 C 
ATOM      8  C   UNL     1      20.914 -13.015  25.645  1.00  0.00     0.039 C 
ATOM      9  C   UNL     1      19.156 -10.637  25.389  1.00  0.00     0.159 C 
ATOM     10  O   UNL     1      20.294 -10.386  24.909  1.00  0.00    -0.295 OA
ATOM     11  C   UNL     1      17.968  -9.896  24.847  1.00  0.00     0.084 C 
ENDROOT
TORSDOF 0
ENDMDL
MODEL 6
REMARK VINA RESULT:    -4.679      1.668      2.504
REMARK INTER + INTRA:          -4.679
REMARK INTER:                  -4.679
REMARK INTRA:                   0.000
REMARK UNBOUND:                 0.000
REMARK SMILES CC(C)=C1CC[C@H](C)CC1=O
REMARK SMILES IDX 8 1 7 2 6 3 5 4 4 5 2 6 1 7 3 8 10 9 11 10 9 11
REMARK H PARENT
REMARK Flexibility Score: inf
ROOT
ATOM      1  C   UNL     1       9.617 -17.862  18.208  1.00  0.00     0.008 C 
ATOM      2  C   UNL     1      10.598 -18.388  19.262  1.00  0.00    -0.006 C 
ATOM      3  C   UNL     1      12.034 -17.950  18.931  1.00  0.00     0.008 C 
ATOM      4  C   UNL     1      13.042 -18.551  19.919  1.00  0.00     0.039 C 
ATOM      5  C   UNL     1      12.669 -18.282  21.370  1.00  0.00    -0.006 C 
ATOM      6  C   UNL     1      13.627 -18.129  22.332  1.00  0.00    -0.070 C 
ATOM      7  C   UNL     1      15.097 -18.237  21.998  1.00  0.00     0.039 C 
ATOM      8  C   UNL     1      13.271 -17.805  23.765  1.00  0.00     0.039 C 
ATOM      9  C   UNL     1      11.210 -18.313  21.689  1.00  0.00     0.159 C 
ATOM     10  O   UNL     1      10.795 -18.702  22.813  1.00  0.00    -0.295 OA
ATOM     11  C   UNL     1      10.205 -17.885  20.660  1.00  0.00     0.084 C 
ENDROOT
TORSDOF 0
ENDMDL
MODEL 7
REMARK VINA RESULT:    -4.568      1.420      4.154
REMARK INTER + INTRA:          -4.568
REMARK INTER:                  -4.568
REMARK INTRA:                   0.000
REMARK UNBOUND:                 0.000
REMARK SMILES CC(C)=C1CC[C@H](C)CC1=O
REMARK SMILES IDX 8 1 7 2 6 3 5 4 4 5 2 6 1 7 3 8 10 9 11 10 9 11
REMARK H PARENT
REMARK Flexibility Score: inf
ROOT
ATOM      1  C   UNL     1      14.466 -18.524  20.768  1.00  0.00     0.008 C 
ATOM      2  C   UNL     1      12.979 -18.843  20.577  1.00  0.00    -0.006 C 
ATOM      3  C   UNL     1      12.150 -18.276  21.741  1.00  0.00     0.008 C 
ATOM      4  C   UNL     1      10.673 -18.671  21.619  1.00  0.00     0.039 C 
ATOM      5  C   UNL     1      10.085 -18.322  20.259  1.00  0.00    -0.006 C 
ATOM      6  C   UNL     1       8.771 -17.979  20.121  1.00  0.00    -0.070 C 
ATOM      7  C   UNL     1       7.840 -17.949  21.312  1.00  0.00     0.039 C 
ATOM      8  C   UNL     1       8.189 -17.576  18.786  1.00  0.00     0.039 C 
ATOM      9  C   UNL     1      10.997 -18.491  19.088  1.00  0.00     0.159 C 
ATOM     10  O   UNL     1      10.553 -18.825  17.957  1.00  0.00    -0.295 OA
ATOM     11  C   UNL     1      12.473 -18.269  19.245  1.00  0.00     0.084 C 
ENDROOT
TORSDOF 0
ENDMDL
MODEL 8
REMARK VINA RESULT:    -4.525      7.048      8.197
REMARK INTER + INTRA:          -4.525
REMARK INTER:                  -4.525
REMARK INTRA:                   0.000
REMARK UNBOUND:                 0.000
REMARK SMILES CC(C)=C1CC[C@H](C)CC1=O
REMARK SMILES IDX 8 1 7 2 6 3 5 4 4 5 2 6 1 7 3 8 10 9 11 10 9 11
REMARK H PARENT
REMARK Flexibility Score: inf
ROOT
ATOM      1  C   UNL     1      10.453 -21.619  21.739  1.00  0.00     0.008 C 
ATOM      2  C   UNL     1       9.776 -22.401  22.870  1.00  0.00    -0.006 C 
ATOM      3  C   UNL     1       8.916 -21.466  23.735  1.00  0.00     0.008 C 
ATOM      4  C   UNL     1       8.311 -22.212  24.932  1.00  0.00     0.039 C 
ATOM      5  C   UNL     1       7.566 -23.474  24.517  1.00  0.00    -0.006 C 
ATOM      6  C   UNL     1       6.480 -23.918  25.215  1.00  0.00    -0.070 C 
ATOM      7  C   UNL     1       5.981 -23.184  26.438  1.00  0.00     0.039 C 
ATOM      8  C   UNL     1       5.699 -25.136  24.780  1.00  0.00     0.039 C 
ATOM      9  C   UNL     1       8.164 -24.246  23.387  1.00  0.00     0.159 C 
ATOM     10  O   UNL     1       8.064 -25.501  23.327  1.00  0.00    -0.295 OA
ATOM     11  C   UNL     1       8.907 -23.531  22.296  1.00  0.00     0.084 C 
ENDROOT
TORSDOF 0
ENDMDL
MODEL 9
REMARK VINA RESULT:    -4.500      2.386      3.435
REMARK INTER + INTRA:          -4.500
REMARK INTER:                  -4.500
REMARK INTRA:                   0.000
REMARK UNBOUND:                 0.000
REMARK SMILES CC(C)=C1CC[C@H](C)CC1=O
REMARK SMILES IDX 8 1 7 2 6 3 5 4 4 5 2 6 1 7 3 8 10 9 11 10 9 11
REMARK H PARENT
REMARK Flexibility Score: inf
ROOT
ATOM      1  C   UNL     1      10.095 -19.370  16.583  1.00  0.00     0.008 C 
ATOM      2  C   UNL     1      10.163 -19.269  18.111  1.00  0.00    -0.006 C 
ATOM      3  C   UNL     1      11.469 -18.590  18.551  1.00  0.00     0.008 C 
ATOM      4  C   UNL     1      11.601 -18.571  20.079  1.00  0.00     0.039 C 
ATOM      5  C   UNL     1      10.376 -17.979  20.764  1.00  0.00    -0.006 C 
ATOM      6  C   UNL     1      10.482 -17.292  21.939  1.00  0.00    -0.070 C 
ATOM      7  C   UNL     1      11.819 -17.104  22.618  1.00  0.00     0.039 C 
ATOM      8  C   UNL     1       9.282 -16.652  22.598  1.00  0.00     0.039 C 
ATOM      9  C   UNL     1       9.058 -18.297  20.137  1.00  0.00     0.159 C 
ATOM     10  O   UNL     1       8.015 -18.419  20.833  1.00  0.00    -0.295 OA
ATOM     11  C   UNL     1       8.957 -18.486  18.651  1.00  0.00     0.084 C 
ENDROOT
TORSDOF 0
ENDMDL
