MODEL 1
REMARK VINA RESULT:    -5.437      0.000      0.000
REMARK INTER + INTRA:         -11.638
REMARK INTER:                 -10.522
REMARK INTRA:                  -1.116
REMARK UNBOUND:                -1.116
REMARK SMILES CCCCCCCCCCCCCCCCCC(=O)[O-]
REMARK SMILES IDX 10 1 11 2 12 3 13 4 14 5 15 6 16 7 17 8 18 9 19 10 20 11
REMARK SMILES IDX 9 12 8 13 7 14 6 15 5 16 4 17 3 18 2 19 1 20
REMARK H PARENT
REMARK Flexibility Score: inf
ROOT
ATOM      1  C   UNL     1      -1.365   3.552  16.267  1.00  0.00     0.000 C 
ENDROOT
BRANCH   1   2
ATOM      2  C   UNL     1      -2.736   3.026  15.811  1.00  0.00     0.000 C 
BRANCH   2   3
ATOM      3  C   UNL     1      -3.628   2.603  16.993  1.00  0.00     0.000 C 
BRANCH   3   4
ATOM      4  C   UNL     1      -5.124   2.568  16.632  1.00  0.00     0.000 C 
BRANCH   4   5
ATOM      5  C   UNL     1      -5.731   3.923  16.227  1.00  0.00     0.000 C 
BRANCH   5   6
ATOM      6  C   UNL     1      -5.240   5.085  17.104  1.00  0.00     0.000 C 
BRANCH   6   7
ATOM      7  C   UNL     1      -5.193   6.393  16.305  1.00  0.00     0.006 C 
BRANCH   7   8
ATOM      8  C   UNL     1      -6.301   7.351  16.753  1.00  0.00     0.053 C 
BRANCH   8   9
ATOM      9  C   UNL     1      -7.486   7.242  15.845  1.00  0.00     0.041 C 
ATOM     10  O   UNL     1      -8.385   6.392  16.077  1.00  0.00    -0.550 OA
ATOM     11  O   UNL     1      -7.573   8.048  14.716  1.00  0.00    -0.550 OA
ENDBRANCH   8   9
ENDBRANCH   7   8
ENDBRANCH   6   7
ENDBRANCH   5   6
ENDBRANCH   4   5
ENDBRANCH   3   4
ENDBRANCH   2   3
ENDBRANCH   1   2
BRANCH   1  12
ATOM     12  C   UNL     1      -1.381   5.062  16.561  1.00  0.00     0.000 C 
BRANCH  12  13
ATOM     13  C   UNL     1      -0.014   5.589  17.024  1.00  0.00    -0.000 C 
BRANCH  13  14
ATOM     14  C   UNL     1      -0.094   6.373  18.342  1.00  0.00    -0.000 C 
BRANCH  14  15
ATOM     15  C   UNL     1       0.656   7.707  18.234  1.00  0.00    -0.000 C 
BRANCH  15  16
ATOM     16  C   UNL     1       0.943   8.290  19.626  1.00  0.00    -0.000 C 
BRANCH  16  17
ATOM     17  C   UNL     1       0.340   7.444  20.759  1.00  0.00    -0.000 C 
BRANCH  17  18
ATOM     18  C   UNL     1       1.411   6.819  21.665  1.00  0.00    -0.000 C 
BRANCH  18  19
ATOM     19  C   UNL     1       0.878   6.624  23.090  1.00  0.00    -0.003 C 
ATOM     20  C   UNL     1      -0.641   6.482  23.095  1.00  0.00     0.004 C 
ENDBRANCH  18  19
ENDBRANCH  17  18
ENDBRANCH  16  17
ENDBRANCH  15  16
ENDBRANCH  14  15
ENDBRANCH  13  14
ENDBRANCH  12  13
ENDBRANCH   1  12
TORSDOF 16
ENDMDL
MODEL 2
REMARK VINA RESULT:    -5.212      1.968      2.361
REMARK INTER + INTRA:         -11.202
REMARK INTER:                 -10.290
REMARK INTRA:                  -0.912
REMARK UNBOUND:                -1.116
REMARK SMILES CCCCCCCCCCCCCCCCCC(=O)[O-]
REMARK SMILES IDX 10 1 11 2 12 3 13 4 14 5 15 6 16 7 17 8 18 9 19 10 20 11
REMARK SMILES IDX 9 12 8 13 7 14 6 15 5 16 4 17 3 18 2 19 1 20
REMARK H PARENT
REMARK Flexibility Score: inf
ROOT
ATOM      1  C   UNL     1      -1.356   3.720  16.041  1.00  0.00     0.000 C 
ENDROOT
BRANCH   1   2
ATOM      2  C   UNL     1      -2.743   3.260  15.561  1.00  0.00     0.000 C 
BRANCH   2   3
ATOM      3  C   UNL     1      -3.590   2.660  16.697  1.00  0.00     0.000 C 
BRANCH   3   4
ATOM      4  C   UNL     1      -5.082   3.022  16.587  1.00  0.00     0.000 C 
BRANCH   4   5
ATOM      5  C   UNL     1      -5.420   4.497  16.875  1.00  0.00     0.000 C 
BRANCH   5   6
ATOM      6  C   UNL     1      -5.562   5.338  15.597  1.00  0.00     0.000 C 
BRANCH   6   7
ATOM      7  C   UNL     1      -6.467   4.638  14.576  1.00  0.00     0.006 C 
BRANCH   7   8
ATOM      8  C   UNL     1      -5.643   4.033  13.436  1.00  0.00     0.053 C 
BRANCH   8   9
ATOM      9  C   UNL     1      -6.011   4.666  12.131  1.00  0.00     0.041 C 
ATOM     10  O   UNL     1      -5.399   5.690  11.729  1.00  0.00    -0.550 OA
ATOM     11  O   UNL     1      -7.063   4.154  11.382  1.00  0.00    -0.550 OA
ENDBRANCH   8   9
ENDBRANCH   7   8
ENDBRANCH   6   7
ENDBRANCH   5   6
ENDBRANCH   4   5
ENDBRANCH   3   4
ENDBRANCH   2   3
ENDBRANCH   1   2
BRANCH   1  12
ATOM     12  C   UNL     1      -1.360   5.174  16.544  1.00  0.00     0.000 C 
BRANCH  12  13
ATOM     13  C   UNL     1       0.018   5.626  17.052  1.00  0.00    -0.000 C 
BRANCH  13  14
ATOM     14  C   UNL     1      -0.065   6.435  18.355  1.00  0.00    -0.000 C 
BRANCH  14  15
ATOM     15  C   UNL     1       0.696   7.761  18.229  1.00  0.00    -0.000 C 
BRANCH  15  16
ATOM     16  C   UNL     1       1.050   8.326  19.612  1.00  0.00    -0.000 C 
BRANCH  16  17
ATOM     17  C   UNL     1       0.394   7.540  20.759  1.00  0.00    -0.000 C 
BRANCH  17  18
ATOM     18  C   UNL     1       1.420   6.814  21.642  1.00  0.00    -0.000 C 
BRANCH  18  19
ATOM     19  C   UNL     1       0.920   6.707  23.088  1.00  0.00    -0.003 C 
ATOM     20  C   UNL     1      -0.580   6.437  23.134  1.00  0.00     0.004 C 
ENDBRANCH  18  19
ENDBRANCH  17  18
ENDBRANCH  16  17
ENDBRANCH  15  16
ENDBRANCH  14  15
ENDBRANCH  13  14
ENDBRANCH  12  13
ENDBRANCH   1  12
TORSDOF 16
ENDMDL
MODEL 3
REMARK VINA RESULT:    -5.209      1.300      2.094
REMARK INTER + INTRA:         -11.196
REMARK INTER:                  -9.784
REMARK INTRA:                  -1.413
REMARK UNBOUND:                -1.116
REMARK SMILES CCCCCCCCCCCCCCCCCC(=O)[O-]
REMARK SMILES IDX 10 1 11 2 12 3 13 4 14 5 15 6 16 7 17 8 18 9 19 10 20 11
REMARK SMILES IDX 9 12 8 13 7 14 6 15 5 16 4 17 3 18 2 19 1 20
REMARK H PARENT
REMARK Flexibility Score: inf
ROOT
ATOM      1  C   UNL     1      -0.155   4.945  17.587  1.00  0.00     0.000 C 
ENDROOT
BRANCH   1   2
ATOM      2  C   UNL     1      -1.163   3.928  17.025  1.00  0.00     0.000 C 
BRANCH   2   3
ATOM      3  C   UNL     1      -1.897   4.453  15.779  1.00  0.00     0.000 C 
BRANCH   3   4
ATOM      4  C   UNL     1      -3.145   3.625  15.425  1.00  0.00     0.000 C 
BRANCH   4   5
ATOM      5  C   UNL     1      -3.751   2.823  16.592  1.00  0.00     0.000 C 
BRANCH   5   6
ATOM      6  C   UNL     1      -5.212   3.197  16.879  1.00  0.00     0.000 C 
BRANCH   6   7
ATOM      7  C   UNL     1      -5.421   4.714  16.780  1.00  0.00     0.006 C 
BRANCH   7   8
ATOM      8  C   UNL     1      -6.525   5.052  15.773  1.00  0.00     0.053 C 
BRANCH   8   9
ATOM      9  C   UNL     1      -6.093   6.171  14.878  1.00  0.00     0.041 C 
ATOM     10  O   UNL     1      -4.939   6.662  14.991  1.00  0.00    -0.550 OA
ATOM     11  O   UNL     1      -6.981   6.703  13.953  1.00  0.00    -0.550 OA
ENDBRANCH   8   9
ENDBRANCH   7   8
ENDBRANCH   6   7
ENDBRANCH   5   6
ENDBRANCH   4   5
ENDBRANCH   3   4
ENDBRANCH   2   3
ENDBRANCH   1   2
BRANCH   1  12
ATOM     12  C   UNL     1      -0.216   6.298  16.858  1.00  0.00     0.000 C 
BRANCH  12  13
ATOM     13  C   UNL     1       1.142   7.018  16.834  1.00  0.00    -0.000 C 
BRANCH  13  14
ATOM     14  C   UNL     1       1.054   8.470  17.326  1.00  0.00    -0.000 C 
BRANCH  14  15
ATOM     15  C   UNL     1       1.543   8.589  18.775  1.00  0.00    -0.000 C 
BRANCH  15  16
ATOM     16  C   UNL     1       0.398   8.326  19.765  1.00  0.00    -0.000 C 
BRANCH  16  17
ATOM     17  C   UNL     1       0.582   7.018  20.551  1.00  0.00    -0.000 C 
BRANCH  17  18
ATOM     18  C   UNL     1      -0.450   6.851  21.676  1.00  0.00    -0.000 C 
BRANCH  18  19
ATOM     19  C   UNL     1       0.228   6.430  22.985  1.00  0.00    -0.003 C 
ATOM     20  C   UNL     1       1.730   6.697  22.938  1.00  0.00     0.004 C 
ENDBRANCH  18  19
ENDBRANCH  17  18
ENDBRANCH  16  17
ENDBRANCH  15  16
ENDBRANCH  14  15
ENDBRANCH  13  14
ENDBRANCH  12  13
ENDBRANCH   1  12
TORSDOF 16
ENDMDL
MODEL 4
REMARK VINA RESULT:    -5.170      4.001      8.242
REMARK INTER + INTRA:         -11.121
REMARK INTER:                  -9.534
REMARK INTRA:                  -1.587
REMARK UNBOUND:                -1.116
REMARK SMILES CCCCCCCCCCCCCCCCCC(=O)[O-]
REMARK SMILES IDX 10 1 11 2 12 3 13 4 14 5 15 6 16 7 17 8 18 9 19 10 20 11
REMARK SMILES IDX 9 12 8 13 7 14 6 15 5 16 4 17 3 18 2 19 1 20
REMARK H PARENT
REMARK Flexibility Score: inf
ROOT
ATOM      1  C   UNL     1      -3.361   3.084  16.636  1.00  0.00     0.000 C 
ENDROOT
BRANCH   1   2
ATOM      2  C   UNL     1      -2.166   3.556  15.791  1.00  0.00     0.000 C 
BRANCH   2   3
ATOM      3  C   UNL     1      -0.957   3.960  16.654  1.00  0.00     0.000 C 
BRANCH   3   4
ATOM      4  C   UNL     1      -1.006   5.433  17.101  1.00  0.00     0.000 C 
BRANCH   4   5
ATOM      5  C   UNL     1      -0.139   5.773  18.327  1.00  0.00     0.000 C 
BRANCH   5   6
ATOM      6  C   UNL     1       0.442   7.194  18.272  1.00  0.00     0.000 C 
BRANCH   6   7
ATOM      7  C   UNL     1       0.568   7.790  19.680  1.00  0.00     0.006 C 
BRANCH   7   8
ATOM      8  C   UNL     1      -0.106   6.890  20.720  1.00  0.00     0.053 C 
BRANCH   8   9
ATOM      9  C   UNL     1       0.743   6.780  21.947  1.00  0.00     0.041 C 
ATOM     10  O   UNL     1       0.227   6.454  23.047  1.00  0.00    -0.550 OA
ATOM     11  O   UNL     1       2.097   7.085  21.884  1.00  0.00    -0.550 OA
ENDBRANCH   8   9
ENDBRANCH   7   8
ENDBRANCH   6   7
ENDBRANCH   5   6
ENDBRANCH   4   5
ENDBRANCH   3   4
ENDBRANCH   2   3
ENDBRANCH   1   2
BRANCH   1  12
ATOM     12  C   UNL     1      -4.691   3.153  15.866  1.00  0.00     0.000 C 
BRANCH  12  13
ATOM     13  C   UNL     1      -5.692   4.130  16.503  1.00  0.00    -0.000 C 
BRANCH  13  14
ATOM     14  C   UNL     1      -5.063   5.489  16.842  1.00  0.00    -0.000 C 
BRANCH  14  15
ATOM     15  C   UNL     1      -4.971   6.379  15.596  1.00  0.00    -0.000 C 
BRANCH  15  16
ATOM     16  C   UNL     1      -6.357   6.899  15.188  1.00  0.00    -0.000 C 
BRANCH  16  17
ATOM     17  C   UNL     1      -6.727   6.530  13.742  1.00  0.00    -0.000 C 
BRANCH  17  18
ATOM     18  C   UNL     1      -7.526   5.222  13.649  1.00  0.00    -0.000 C 
BRANCH  18  19
ATOM     19  C   UNL     1      -7.137   4.429  12.397  1.00  0.00    -0.003 C 
ATOM     20  C   UNL     1      -5.708   3.905  12.499  1.00  0.00     0.004 C 
ENDBRANCH  18  19
ENDBRANCH  17  18
ENDBRANCH  16  17
ENDBRANCH  15  16
ENDBRANCH  14  15
ENDBRANCH  13  14
ENDBRANCH  12  13
ENDBRANCH   1  12
TORSDOF 16
ENDMDL
MODEL 5
REMARK VINA RESULT:    -5.132      3.659      7.661
REMARK INTER + INTRA:         -11.048
REMARK INTER:                  -9.949
REMARK INTRA:                  -1.099
REMARK UNBOUND:                -1.116
REMARK SMILES CCCCCCCCCCCCCCCCCC(=O)[O-]
REMARK SMILES IDX 10 1 11 2 12 3 13 4 14 5 15 6 16 7 17 8 18 9 19 10 20 11
REMARK SMILES IDX 9 12 8 13 7 14 6 15 5 16 4 17 3 18 2 19 1 20
REMARK H PARENT
REMARK Flexibility Score: inf
ROOT
ATOM      1  C   UNL     1      -0.877   4.115  16.152  1.00  0.00     0.000 C 
ENDROOT
BRANCH   1   2
ATOM      2  C   UNL     1      -1.112   5.520  16.731  1.00  0.00     0.000 C 
BRANCH   2   3
ATOM      3  C   UNL     1       0.085   6.025  17.556  1.00  0.00     0.000 C 
BRANCH   3   4
ATOM      4  C   UNL     1       0.671   7.343  17.018  1.00  0.00     0.000 C 
BRANCH   4   5
ATOM      5  C   UNL     1       1.279   8.272  18.084  1.00  0.00     0.000 C 
BRANCH   5   6
ATOM      6  C   UNL     1       0.416   8.376  19.350  1.00  0.00     0.000 C 
BRANCH   6   7
ATOM      7  C   UNL     1       0.939   7.442  20.449  1.00  0.00     0.006 C 
BRANCH   7   8
ATOM      8  C   UNL     1      -0.213   6.710  21.143  1.00  0.00     0.053 C 
BRANCH   8   9
ATOM      9  C   UNL     1       0.014   6.659  22.621  1.00  0.00     0.041 C 
ATOM     10  O   UNL     1       1.184   6.588  23.080  1.00  0.00    -0.550 OA
ATOM     11  O   UNL     1      -1.070   6.641  23.490  1.00  0.00    -0.550 OA
ENDBRANCH   8   9
ENDBRANCH   7   8
ENDBRANCH   6   7
ENDBRANCH   5   6
ENDBRANCH   4   5
ENDBRANCH   3   4
ENDBRANCH   2   3
ENDBRANCH   1   2
BRANCH   1  12
ATOM     12  C   UNL     1      -1.782   3.052  16.798  1.00  0.00     0.000 C 
BRANCH  12  13
ATOM     13  C   UNL     1      -3.054   2.782  15.979  1.00  0.00    -0.000 C 
BRANCH  13  14
ATOM     14  C   UNL     1      -4.340   2.966  16.799  1.00  0.00    -0.000 C 
BRANCH  14  15
ATOM     15  C   UNL     1      -5.480   3.498  15.922  1.00  0.00    -0.000 C 
BRANCH  15  16
ATOM     16  C   UNL     1      -4.947   4.468  14.857  1.00  0.00    -0.000 C 
BRANCH  16  17
ATOM     17  C   UNL     1      -5.374   5.923  15.113  1.00  0.00    -0.000 C 
BRANCH  17  18
ATOM     18  C   UNL     1      -6.433   6.044  16.218  1.00  0.00    -0.000 C 
BRANCH  18  19
ATOM     19  C   UNL     1      -5.851   6.721  17.464  1.00  0.00    -0.003 C 
ATOM     20  C   UNL     1      -6.953   7.131  18.436  1.00  0.00     0.004 C 
ENDBRANCH  18  19
ENDBRANCH  17  18
ENDBRANCH  16  17
ENDBRANCH  15  16
ENDBRANCH  14  15
ENDBRANCH  13  14
ENDBRANCH  12  13
ENDBRANCH   1  12
TORSDOF 16
ENDMDL
MODEL 6
REMARK VINA RESULT:    -5.082      1.495      1.954
REMARK INTER + INTRA:         -10.952
REMARK INTER:                  -9.718
REMARK INTRA:                  -1.235
REMARK UNBOUND:                -1.116
REMARK SMILES CCCCCCCCCCCCCCCCCC(=O)[O-]
REMARK SMILES IDX 10 1 11 2 12 3 13 4 14 5 15 6 16 7 17 8 18 9 19 10 20 11
REMARK SMILES IDX 9 12 8 13 7 14 6 15 5 16 4 17 3 18 2 19 1 20
REMARK H PARENT
REMARK Flexibility Score: inf
ROOT
ATOM      1  C   UNL     1      -2.253   3.428  15.827  1.00  0.00     0.000 C 
ENDROOT
BRANCH   1   2
ATOM      2  C   UNL     1      -3.572   2.860  16.377  1.00  0.00     0.000 C 
BRANCH   2   3
ATOM      3  C   UNL     1      -4.799   3.663  15.907  1.00  0.00     0.000 C 
BRANCH   3   4
ATOM      4  C   UNL     1      -4.485   4.603  14.729  1.00  0.00     0.000 C 
BRANCH   4   5
ATOM      5  C   UNL     1      -5.529   5.705  14.475  1.00  0.00     0.000 C 
BRANCH   5   6
ATOM      6  C   UNL     1      -6.967   5.242  14.750  1.00  0.00     0.000 C 
BRANCH   6   7
ATOM      7  C   UNL     1      -7.625   6.107  15.832  1.00  0.00     0.006 C 
BRANCH   7   8
ATOM      8  C   UNL     1      -6.731   7.294  16.205  1.00  0.00     0.053 C 
BRANCH   8   9
ATOM      9  C   UNL     1      -6.472   7.313  17.679  1.00  0.00     0.041 C 
ATOM     10  O   UNL     1      -6.618   8.378  18.334  1.00  0.00    -0.550 OA
ATOM     11  O   UNL     1      -6.023   6.165  18.320  1.00  0.00    -0.550 OA
ENDBRANCH   8   9
ENDBRANCH   7   8
ENDBRANCH   6   7
ENDBRANCH   5   6
ENDBRANCH   4   5
ENDBRANCH   3   4
ENDBRANCH   2   3
ENDBRANCH   1   2
BRANCH   1  12
ATOM     12  C   UNL     1      -1.257   3.791  16.943  1.00  0.00     0.000 C 
BRANCH  12  13
ATOM     13  C   UNL     1      -0.981   5.300  17.020  1.00  0.00    -0.000 C 
BRANCH  13  14
ATOM     14  C   UNL     1       0.153   5.648  17.996  1.00  0.00    -0.000 C 
BRANCH  14  15
ATOM     15  C   UNL     1       0.435   7.156  17.996  1.00  0.00    -0.000 C 
BRANCH  15  16
ATOM     16  C   UNL     1       0.278   7.744  19.407  1.00  0.00    -0.000 C 
BRANCH  16  17
ATOM     17  C   UNL     1       0.256   6.664  20.500  1.00  0.00    -0.000 C 
BRANCH  17  18
ATOM     18  C   UNL     1       1.402   6.820  21.511  1.00  0.00    -0.000 C 
BRANCH  18  19
ATOM     19  C   UNL     1       0.866   6.850  22.947  1.00  0.00    -0.003 C 
ATOM     20  C   UNL     1      -0.608   6.461  22.994  1.00  0.00     0.004 C 
ENDBRANCH  18  19
ENDBRANCH  17  18
ENDBRANCH  16  17
ENDBRANCH  15  16
ENDBRANCH  14  15
ENDBRANCH  13  14
ENDBRANCH  12  13
ENDBRANCH   1  12
TORSDOF 16
ENDMDL
MODEL 7
REMARK VINA RESULT:    -5.003      4.751      8.519
REMARK INTER + INTRA:         -10.798
REMARK INTER:                  -7.568
REMARK INTRA:                  -3.230
REMARK UNBOUND:                -1.116
REMARK SMILES CCCCCCCCCCCCCCCCCC(=O)[O-]
REMARK SMILES IDX 10 1 11 2 12 3 13 4 14 5 15 6 16 7 17 8 18 9 19 10 20 11
REMARK SMILES IDX 9 12 8 13 7 14 6 15 5 16 4 17 3 18 2 19 1 20
REMARK H PARENT
REMARK Flexibility Score: inf
ROOT
ATOM      1  C   UNL     1      -7.923   5.893  15.345  1.00  0.00     0.000 C 
ENDROOT
BRANCH   1   2
ATOM      2  C   UNL     1      -7.561   7.379  15.509  1.00  0.00     0.000 C 
BRANCH   2   3
ATOM      3  C   UNL     1      -6.091   7.585  15.915  1.00  0.00     0.000 C 
BRANCH   3   4
ATOM      4  C   UNL     1      -5.101   7.170  14.810  1.00  0.00     0.000 C 
BRANCH   4   5
ATOM      5  C   UNL     1      -4.118   6.051  15.200  1.00  0.00     0.000 C 
BRANCH   5   6
ATOM      6  C   UNL     1      -4.414   5.449  16.581  1.00  0.00     0.000 C 
BRANCH   6   7
ATOM      7  C   UNL     1      -4.300   3.920  16.549  1.00  0.00     0.006 C 
BRANCH   7   8
ATOM      8  C   UNL     1      -3.216   3.470  15.565  1.00  0.00     0.053 C 
BRANCH   8   9
ATOM      9  C   UNL     1      -1.901   3.325  16.264  1.00  0.00     0.041 C 
ATOM     10  O   UNL     1      -1.004   4.195  16.113  1.00  0.00    -0.550 OA
ATOM     11  O   UNL     1      -1.649   2.204  17.046  1.00  0.00    -0.550 OA
ENDBRANCH   8   9
ENDBRANCH   7   8
ENDBRANCH   6   7
ENDBRANCH   5   6
ENDBRANCH   4   5
ENDBRANCH   3   4
ENDBRANCH   2   3
ENDBRANCH   1   2
BRANCH   1  12
ATOM     12  C   UNL     1      -8.805   5.634  14.111  1.00  0.00     0.000 C 
BRANCH  12  13
ATOM     13  C   UNL     1      -8.130   4.707  13.087  1.00  0.00    -0.000 C 
BRANCH  13  14
ATOM     14  C   UNL     1      -6.824   4.092  13.611  1.00  0.00    -0.000 C 
BRANCH  14  15
ATOM     15  C   UNL     1      -5.744   4.084  12.522  1.00  0.00    -0.000 C 
BRANCH  15  16
ATOM     16  C   UNL     1      -6.169   4.942  11.321  1.00  0.00    -0.000 C 
BRANCH  16  17
ATOM     17  C   UNL     1      -5.055   5.889  10.845  1.00  0.00    -0.000 C 
BRANCH  17  18
ATOM     18  C   UNL     1      -5.309   7.350  11.244  1.00  0.00    -0.000 C 
BRANCH  18  19
ATOM     19  C   UNL     1      -6.805   7.608  11.460  1.00  0.00    -0.003 C 
ATOM     20  C   UNL     1      -7.040   8.957  12.131  1.00  0.00     0.004 C 
ENDBRANCH  18  19
ENDBRANCH  17  18
ENDBRANCH  16  17
ENDBRANCH  15  16
ENDBRANCH  14  15
ENDBRANCH  13  14
ENDBRANCH  12  13
ENDBRANCH   1  12
TORSDOF 16
ENDMDL
MODEL 8
REMARK VINA RESULT:    -4.980      3.744      8.367
REMARK INTER + INTRA:         -10.753
REMARK INTER:                  -8.472
REMARK INTRA:                  -2.281
REMARK UNBOUND:                -1.116
REMARK SMILES CCCCCCCCCCCCCCCCCC(=O)[O-]
REMARK SMILES IDX 10 1 11 2 12 3 13 4 14 5 15 6 16 7 17 8 18 9 19 10 20 11
REMARK SMILES IDX 9 12 8 13 7 14 6 15 5 16 4 17 3 18 2 19 1 20
REMARK H PARENT
REMARK Flexibility Score: inf
ROOT
ATOM      1  C   UNL     1      -4.947   6.105  15.548  1.00  0.00     0.000 C 
ENDROOT
BRANCH   1   2
ATOM      2  C   UNL     1      -4.970   5.688  17.028  1.00  0.00     0.000 C 
BRANCH   2   3
ATOM      3  C   UNL     1      -5.504   4.258  17.227  1.00  0.00     0.000 C 
BRANCH   3   4
ATOM      4  C   UNL     1      -4.878   3.243  16.253  1.00  0.00     0.000 C 
BRANCH   4   5
ATOM      5  C   UNL     1      -3.520   2.667  16.692  1.00  0.00     0.000 C 
BRANCH   5   6
ATOM      6  C   UNL     1      -2.354   3.150  15.817  1.00  0.00     0.000 C 
BRANCH   6   7
ATOM      7  C   UNL     1      -1.227   3.734  16.678  1.00  0.00     0.006 C 
BRANCH   7   8
ATOM      8  C   UNL     1      -1.283   5.265  16.693  1.00  0.00     0.053 C 
BRANCH   8   9
ATOM      9  C   UNL     1      -0.119   5.824  17.450  1.00  0.00     0.041 C 
ATOM     10  O   UNL     1       0.765   6.490  16.851  1.00  0.00    -0.550 OA
ATOM     11  O   UNL     1       0.013   5.569  18.809  1.00  0.00    -0.550 OA
ENDBRANCH   8   9
ENDBRANCH   7   8
ENDBRANCH   6   7
ENDBRANCH   5   6
ENDBRANCH   4   5
ENDBRANCH   3   4
ENDBRANCH   2   3
ENDBRANCH   1   2
BRANCH   1  12
ATOM     12  C   UNL     1      -6.027   7.148  15.213  1.00  0.00     0.000 C 
BRANCH  12  13
ATOM     13  C   UNL     1      -7.402   6.782  15.795  1.00  0.00    -0.000 C 
BRANCH  13  14
ATOM     14  C   UNL     1      -8.114   5.684  14.992  1.00  0.00    -0.000 C 
BRANCH  14  15
ATOM     15  C   UNL     1      -9.047   6.291  13.936  1.00  0.00    -0.000 C 
BRANCH  15  16
ATOM     16  C   UNL     1      -8.823   5.638  12.564  1.00  0.00    -0.000 C 
BRANCH  16  17
ATOM     17  C   UNL     1      -7.795   6.395  11.708  1.00  0.00    -0.000 C 
BRANCH  17  18
ATOM     18  C   UNL     1      -6.734   5.468  11.096  1.00  0.00    -0.000 C 
BRANCH  18  19
ATOM     19  C   UNL     1      -5.582   5.229  12.078  1.00  0.00    -0.003 C 
ATOM     20  C   UNL     1      -5.630   3.817  12.653  1.00  0.00     0.004 C 
ENDBRANCH  18  19
ENDBRANCH  17  18
ENDBRANCH  16  17
ENDBRANCH  15  16
ENDBRANCH  14  15
ENDBRANCH  13  14
ENDBRANCH  12  13
ENDBRANCH   1  12
TORSDOF 16
ENDMDL
MODEL 9
REMARK VINA RESULT:    -4.902      3.915      7.670
REMARK INTER + INTRA:         -10.603
REMARK INTER:                  -8.281
REMARK INTRA:                  -2.322
REMARK UNBOUND:                -1.116
REMARK SMILES CCCCCCCCCCCCCCCCCC(=O)[O-]
REMARK SMILES IDX 10 1 11 2 12 3 13 4 14 5 15 6 16 7 17 8 18 9 19 10 20 11
REMARK SMILES IDX 9 12 8 13 7 14 6 15 5 16 4 17 3 18 2 19 1 20
REMARK H PARENT
REMARK Flexibility Score: inf
ROOT
ATOM      1  C   UNL     1      -5.458   3.779  12.829  1.00  0.00     0.000 C 
ENDROOT
BRANCH   1   2
ATOM      2  C   UNL     1      -5.084   4.471  14.150  1.00  0.00     0.000 C 
BRANCH   2   3
ATOM      3  C   UNL     1      -6.057   4.125  15.292  1.00  0.00     0.000 C 
BRANCH   3   4
ATOM      4  C   UNL     1      -5.346   3.901  16.639  1.00  0.00     0.000 C 
BRANCH   4   5
ATOM      5  C   UNL     1      -4.950   2.444  16.935  1.00  0.00     0.000 C 
BRANCH   5   6
ATOM      6  C   UNL     1      -3.472   2.293  17.326  1.00  0.00     0.000 C 
BRANCH   6   7
ATOM      7  C   UNL     1      -2.554   2.789  16.202  1.00  0.00     0.006 C 
BRANCH   7   8
ATOM      8  C   UNL     1      -1.264   3.389  16.770  1.00  0.00     0.053 C 
BRANCH   8   9
ATOM      9  C   UNL     1      -1.166   4.841  16.424  1.00  0.00     0.041 C 
ATOM     10  O   UNL     1      -2.052   5.385  15.715  1.00  0.00    -0.550 OA
ATOM     11  O   UNL     1      -0.069   5.583  16.846  1.00  0.00    -0.550 OA
ENDBRANCH   8   9
ENDBRANCH   7   8
ENDBRANCH   6   7
ENDBRANCH   5   6
ENDBRANCH   4   5
ENDBRANCH   3   4
ENDBRANCH   2   3
ENDBRANCH   1   2
BRANCH   1  12
ATOM     12  C   UNL     1      -5.874   4.780  11.737  1.00  0.00     0.000 C 
BRANCH  12  13
ATOM     13  C   UNL     1      -7.294   4.523  11.210  1.00  0.00    -0.000 C 
BRANCH  13  14
ATOM     14  C   UNL     1      -8.292   5.611  11.634  1.00  0.00    -0.000 C 
BRANCH  14  15
ATOM     15  C   UNL     1      -8.708   5.433  13.100  1.00  0.00    -0.000 C 
BRANCH  15  16
ATOM     16  C   UNL     1      -8.702   6.779  13.840  1.00  0.00    -0.000 C 
BRANCH  16  17
ATOM     17  C   UNL     1      -7.295   7.388  13.952  1.00  0.00    -0.000 C 
BRANCH  17  18
ATOM     18  C   UNL     1      -6.967   7.868  15.374  1.00  0.00    -0.000 C 
BRANCH  18  19
ATOM     19  C   UNL     1      -7.710   7.029  16.420  1.00  0.00    -0.003 C 
ATOM     20  C   UNL     1      -6.999   7.074  17.769  1.00  0.00     0.004 C 
ENDBRANCH  18  19
ENDBRANCH  17  18
ENDBRANCH  16  17
ENDBRANCH  15  16
ENDBRANCH  14  15
ENDBRANCH  13  14
ENDBRANCH  12  13
ENDBRANCH   1  12
TORSDOF 16
ENDMDL
