MODEL 1
REMARK VINA RESULT:    -2.560      0.000      0.000
REMARK INTER + INTRA:          -3.124
REMARK INTER:                  -3.010
REMARK INTRA:                  -0.114
REMARK UNBOUND:                -0.114
REMARK SMILES O=C([O-])CCC(=O)[O-]
REMARK SMILES IDX 4 1 2 2 1 3 3 4 5 5 6 6 7 7 8 8
REMARK H PARENT
REMARK Flexibility Score: inf
ROOT
ATOM      1  C   UNL     1      50.138  49.288  61.087  1.00  0.00     0.059 C 
ENDROOT
BRANCH   1   2
ATOM      2  C   UNL     1      50.200  50.487  61.982  1.00  0.00     0.042 C 
ATOM      3  O   UNL     1      50.255  51.644  61.490  1.00  0.00    -0.550 OA
ATOM      4  O   UNL     1      50.156  50.328  63.362  1.00  0.00    -0.550 OA
ENDBRANCH   1   2
BRANCH   1   5
ATOM      5  C   UNL     1      51.400  48.427  61.208  1.00  0.00     0.059 C 
BRANCH   5   6
ATOM      6  C   UNL     1      51.095  47.081  61.792  1.00  0.00     0.042 C 
ATOM      7  O   UNL     1      51.050  46.926  63.040  1.00  0.00    -0.550 OA
ATOM      8  O   UNL     1      50.821  46.007  60.954  1.00  0.00    -0.550 OA
ENDBRANCH   5   6
ENDBRANCH   1   5
TORSDOF 3
ENDMDL
MODEL 2
REMARK VINA RESULT:    -2.556     15.815     17.057
REMARK INTER + INTRA:          -3.118
REMARK INTER:                  -3.075
REMARK INTRA:                  -0.043
REMARK UNBOUND:                -0.114
REMARK SMILES O=C([O-])CCC(=O)[O-]
REMARK SMILES IDX 4 1 2 2 1 3 3 4 5 5 6 6 7 7 8 8
REMARK H PARENT
REMARK Flexibility Score: inf
ROOT
ATOM      1  C   UNL     1      53.447  54.580  46.532  1.00  0.00     0.059 C 
ENDROOT
BRANCH   1   2
ATOM      2  C   UNL     1      53.044  53.661  47.644  1.00  0.00     0.042 C 
ATOM      3  O   UNL     1      52.764  54.125  48.780  1.00  0.00    -0.550 OA
ATOM      4  O   UNL     1      52.939  52.296  47.413  1.00  0.00    -0.550 OA
ENDBRANCH   1   2
BRANCH   1   5
ATOM      5  C   UNL     1      52.784  55.956  46.668  1.00  0.00     0.059 C 
BRANCH   5   6
ATOM      6  C   UNL     1      51.990  56.308  45.448  1.00  0.00     0.042 C 
ATOM      7  O   UNL     1      50.812  56.738  45.559  1.00  0.00    -0.550 OA
ATOM      8  O   UNL     1      52.566  56.196  44.189  1.00  0.00    -0.550 OA
ENDBRANCH   5   6
ENDBRANCH   1   5
TORSDOF 3
ENDMDL
MODEL 3
REMARK VINA RESULT:    -2.555     15.713     16.685
REMARK INTER + INTRA:          -3.118
REMARK INTER:                  -3.079
REMARK INTRA:                  -0.038
REMARK UNBOUND:                -0.114
REMARK SMILES O=C([O-])CCC(=O)[O-]
REMARK SMILES IDX 4 1 2 2 1 3 3 4 5 5 6 6 7 7 8 8
REMARK H PARENT
REMARK Flexibility Score: inf
ROOT
ATOM      1  C   UNL     1      52.754  55.826  46.811  1.00  0.00     0.059 C 
ENDROOT
BRANCH   1   2
ATOM      2  C   UNL     1      52.074  56.227  45.538  1.00  0.00     0.042 C 
ATOM      3  O   UNL     1      50.878  56.621  45.554  1.00  0.00    -0.550 OA
ATOM      4  O   UNL     1      52.774  56.203  44.338  1.00  0.00    -0.550 OA
ENDBRANCH   1   2
BRANCH   1   5
ATOM      5  C   UNL     1      53.498  54.495  46.659  1.00  0.00     0.059 C 
BRANCH   5   6
ATOM      6  C   UNL     1      53.045  53.492  47.676  1.00  0.00     0.042 C 
ATOM      7  O   UNL     1      53.027  52.266  47.393  1.00  0.00    -0.550 OA
ATOM      8  O   UNL     1      52.680  53.910  48.949  1.00  0.00    -0.550 OA
ENDBRANCH   5   6
ENDBRANCH   1   5
TORSDOF 3
ENDMDL
MODEL 4
REMARK VINA RESULT:    -2.549      0.079      4.015
REMARK INTER + INTRA:          -3.110
REMARK INTER:                  -2.990
REMARK INTRA:                  -0.120
REMARK UNBOUND:                -0.114
REMARK SMILES O=C([O-])CCC(=O)[O-]
REMARK SMILES IDX 4 1 2 2 1 3 3 4 5 5 6 6 7 7 8 8
REMARK H PARENT
REMARK Flexibility Score: inf
ROOT
ATOM      1  C   UNL     1      51.360  48.460  61.223  1.00  0.00     0.059 C 
ENDROOT
BRANCH   1   2
ATOM      2  C   UNL     1      51.039  47.132  61.837  1.00  0.00     0.042 C 
ATOM      3  O   UNL     1      50.946  47.017  63.087  1.00  0.00    -0.550 OA
ATOM      4  O   UNL     1      50.801  46.030  61.025  1.00  0.00    -0.550 OA
ENDBRANCH   1   2
BRANCH   1   5
ATOM      5  C   UNL     1      50.110  49.335  61.083  1.00  0.00     0.059 C 
BRANCH   5   6
ATOM      6  C   UNL     1      50.162  50.520  62.000  1.00  0.00     0.042 C 
ATOM      7  O   UNL     1      50.205  51.686  61.527  1.00  0.00    -0.550 OA
ATOM      8  O   UNL     1      50.124  50.335  63.375  1.00  0.00    -0.550 OA
ENDBRANCH   5   6
ENDBRANCH   1   5
TORSDOF 3
ENDMDL
MODEL 5
REMARK VINA RESULT:    -2.530     11.467     12.186
REMARK INTER + INTRA:          -3.088
REMARK INTER:                  -2.968
REMARK INTRA:                  -0.120
REMARK UNBOUND:                -0.114
REMARK SMILES O=C([O-])CCC(=O)[O-]
REMARK SMILES IDX 4 1 2 2 1 3 3 4 5 5 6 6 7 7 8 8
REMARK H PARENT
REMARK Flexibility Score: inf
ROOT
ATOM      1  C   UNL     1      52.744  53.605  51.696  1.00  0.00     0.059 C 
ENDROOT
BRANCH   1   2
ATOM      2  C   UNL     1      52.573  54.903  50.970  1.00  0.00     0.042 C 
ATOM      3  O   UNL     1      53.028  55.043  49.804  1.00  0.00    -0.550 OA
ATOM      4  O   UNL     1      51.875  55.946  51.564  1.00  0.00    -0.550 OA
ENDBRANCH   1   2
BRANCH   1   5
ATOM      5  C   UNL     1      51.828  52.515  51.130  1.00  0.00     0.059 C 
BRANCH   5   6
ATOM      6  C   UNL     1      52.615  51.407  50.499  1.00  0.00     0.042 C 
ATOM      7  O   UNL     1      52.590  50.250  50.994  1.00  0.00    -0.550 OA
ATOM      8  O   UNL     1      53.345  51.645  49.342  1.00  0.00    -0.550 OA
ENDBRANCH   5   6
ENDBRANCH   1   5
TORSDOF 3
ENDMDL
MODEL 6
REMARK VINA RESULT:    -2.520     11.433     12.697
REMARK INTER + INTRA:          -3.076
REMARK INTER:                  -2.956
REMARK INTRA:                  -0.120
REMARK UNBOUND:                -0.114
REMARK SMILES O=C([O-])CCC(=O)[O-]
REMARK SMILES IDX 4 1 2 2 1 3 3 4 5 5 6 6 7 7 8 8
REMARK H PARENT
REMARK Flexibility Score: inf
ROOT
ATOM      1  C   UNL     1      51.837  52.330  51.045  1.00  0.00     0.059 C 
ENDROOT
BRANCH   1   2
ATOM      2  C   UNL     1      52.738  51.249  50.531  1.00  0.00     0.042 C 
ATOM      3  O   UNL     1      52.653  50.080  50.990  1.00  0.00    -0.550 OA
ATOM      4  O   UNL     1      53.644  51.524  49.514  1.00  0.00    -0.550 OA
ENDBRANCH   1   2
BRANCH   1   5
ATOM      5  C   UNL     1      52.631  53.448  51.730  1.00  0.00     0.059 C 
BRANCH   5   6
ATOM      6  C   UNL     1      52.510  54.743  50.987  1.00  0.00     0.042 C 
ATOM      7  O   UNL     1      51.953  55.735  51.528  1.00  0.00    -0.550 OA
ATOM      8  O   UNL     1      53.047  54.866  49.713  1.00  0.00    -0.550 OA
ENDBRANCH   5   6
ENDBRANCH   1   5
TORSDOF 3
ENDMDL
MODEL 7
REMARK VINA RESULT:    -2.489     12.661     13.832
REMARK INTER + INTRA:          -3.040
REMARK INTER:                  -2.924
REMARK INTRA:                  -0.116
REMARK UNBOUND:                -0.114
REMARK SMILES O=C([O-])CCC(=O)[O-]
REMARK SMILES IDX 4 1 2 2 1 3 3 4 5 5 6 6 7 7 8 8
REMARK H PARENT
REMARK Flexibility Score: inf
ROOT
ATOM      1  C   UNL     1      53.466  51.788  49.364  1.00  0.00     0.059 C 
ENDROOT
BRANCH   1   2
ATOM      2  C   UNL     1      52.566  51.370  50.485  1.00  0.00     0.042 C 
ATOM      3  O   UNL     1      52.564  50.176  50.885  1.00  0.00    -0.550 OA
ATOM      4  O   UNL     1      51.759  52.308  51.116  1.00  0.00    -0.550 OA
ENDBRANCH   1   2
BRANCH   1   5
ATOM      5  C   UNL     1      52.676  52.412  48.208  1.00  0.00     0.059 C 
BRANCH   5   6
ATOM      6  C   UNL     1      52.952  53.880  48.082  1.00  0.00     0.042 C 
ATOM      7  O   UNL     1      52.977  54.425  46.947  1.00  0.00    -0.550 OA
ATOM      8  O   UNL     1      53.144  54.651  49.221  1.00  0.00    -0.550 OA
ENDBRANCH   5   6
ENDBRANCH   1   5
TORSDOF 3
ENDMDL
MODEL 8
REMARK VINA RESULT:    -2.426      1.610      2.405
REMARK INTER + INTRA:          -2.966
REMARK INTER:                  -2.843
REMARK INTRA:                  -0.123
REMARK UNBOUND:                -0.114
REMARK SMILES O=C([O-])CCC(=O)[O-]
REMARK SMILES IDX 4 1 2 2 1 3 3 4 5 5 6 6 7 7 8 8
REMARK H PARENT
REMARK Flexibility Score: inf
ROOT
ATOM      1  C   UNL     1      51.296  50.817  61.484  1.00  0.00     0.059 C 
ENDROOT
BRANCH   1   2
ATOM      2  C   UNL     1      51.009  52.082  62.232  1.00  0.00     0.042 C 
ATOM      3  O   UNL     1      51.335  52.192  63.443  1.00  0.00    -0.550 OA
ATOM      4  O   UNL     1      50.417  53.156  61.580  1.00  0.00    -0.550 OA
ENDBRANCH   1   2
BRANCH   1   5
ATOM      5  C   UNL     1      50.083  49.880  61.472  1.00  0.00     0.059 C 
BRANCH   5   6
ATOM      6  C   UNL     1      50.105  48.936  62.636  1.00  0.00     0.042 C 
ATOM      7  O   UNL     1      49.486  49.219  63.695  1.00  0.00    -0.550 OA
ATOM      8  O   UNL     1      50.779  47.726  62.535  1.00  0.00    -0.550 OA
ENDBRANCH   5   6
ENDBRANCH   1   5
TORSDOF 3
ENDMDL
MODEL 9
REMARK VINA RESULT:    -2.403     13.244     14.323
REMARK INTER + INTRA:          -2.938
REMARK INTER:                  -2.829
REMARK INTRA:                  -0.109
REMARK UNBOUND:                -0.114
REMARK SMILES O=C([O-])CCC(=O)[O-]
REMARK SMILES IDX 4 1 2 2 1 3 3 4 5 5 6 6 7 7 8 8
REMARK H PARENT
REMARK Flexibility Score: inf
ROOT
ATOM      1  C   UNL     1      52.595  52.336  48.057  1.00  0.00     0.059 C 
ENDROOT
BRANCH   1   2
ATOM      2  C   UNL     1      53.594  53.056  47.205  1.00  0.00     0.042 C 
ATOM      3  O   UNL     1      54.644  52.472  46.827  1.00  0.00    -0.550 OA
ATOM      4  O   UNL     1      53.347  54.360  46.794  1.00  0.00    -0.550 OA
ENDBRANCH   1   2
BRANCH   1   5
ATOM      5  C   UNL     1      53.079  52.204  49.505  1.00  0.00     0.059 C 
BRANCH   5   6
ATOM      6  C   UNL     1      52.372  53.166  50.411  1.00  0.00     0.042 C 
ATOM      7  O   UNL     1      51.599  52.741  51.309  1.00  0.00    -0.550 OA
ATOM      8  O   UNL     1      52.598  54.531  50.286  1.00  0.00    -0.550 OA
ENDBRANCH   5   6
ENDBRANCH   1   5
TORSDOF 3
ENDMDL
