MODEL 1
REMARK VINA RESULT:    -5.495      0.000      0.000
REMARK INTER + INTRA:          -8.348
REMARK INTER:                  -7.423
REMARK INTRA:                  -0.925
REMARK UNBOUND:                -0.925
REMARK SMILES CC(=O)CCC=C(C)CCC=C(C)C
REMARK SMILES IDX 7 1 6 2 8 3 9 4 10 5 11 6 13 7 12 8 14 9 5 10 4 11 2 12 3 13
REMARK SMILES IDX 1 14
REMARK H PARENT
REMARK Flexibility Score: inf
ROOT
ATOM      1  C   UNL     1      -7.857  20.778  70.208  1.00  0.00    -0.077 C 
ATOM      2  C   UNL     1      -7.621  19.651  69.497  1.00  0.00    -0.028 C 
ATOM      3  C   UNL     1      -7.462  20.801  71.661  1.00  0.00     0.039 C 
ENDROOT
BRANCH   1   4
ATOM      4  C   UNL     1      -8.448  22.032  69.594  1.00  0.00     0.034 C 
BRANCH   4   5
ATOM      5  C   UNL     1      -7.454  23.196  69.672  1.00  0.00     0.032 C 
BRANCH   5   6
ATOM      6  C   UNL     1      -7.397  23.949  68.366  1.00  0.00    -0.028 C 
ATOM      7  C   UNL     1      -7.952  25.696  66.731  1.00  0.00     0.039 C 
ATOM      8  C   UNL     1      -8.129  25.049  68.080  1.00  0.00    -0.080 C 
ATOM      9  C   UNL     1      -9.123  25.630  69.058  1.00  0.00     0.039 C 
ENDBRANCH   5   6
ENDBRANCH   4   5
ENDBRANCH   1   4
BRANCH   2  10
ATOM     10  C   UNL     1      -7.968  19.460  68.042  1.00  0.00     0.035 C 
BRANCH  10  11
ATOM     11  C   UNL     1      -6.851  19.996  67.140  1.00  0.00     0.079 C 
BRANCH  11  12
ATOM     12  C   UNL     1      -7.404  20.418  65.804  1.00  0.00     0.130 C 
ATOM     13  O   UNL     1      -7.226  19.705  64.827  1.00  0.00    -0.300 OA
ATOM     14  C   UNL     1      -8.160  21.703  65.641  1.00  0.00     0.087 C 
ENDBRANCH  11  12
ENDBRANCH  10  11
ENDBRANCH   2  10
TORSDOF 6
ENDMDL
MODEL 2
REMARK VINA RESULT:    -5.399      1.207      4.182
REMARK INTER + INTRA:          -8.218
REMARK INTER:                  -7.361
REMARK INTRA:                  -0.857
REMARK UNBOUND:                -0.925
REMARK SMILES CC(=O)CCC=C(C)CCC=C(C)C
REMARK SMILES IDX 7 1 6 2 8 3 9 4 10 5 11 6 13 7 12 8 14 9 5 10 4 11 2 12 3 13
REMARK SMILES IDX 1 14
REMARK H PARENT
REMARK Flexibility Score: inf
ROOT
ATOM      1  C   UNL     1      -8.222  24.032  67.398  1.00  0.00    -0.077 C 
ATOM      2  C   UNL     1      -8.392  23.236  66.317  1.00  0.00    -0.028 C 
ATOM      3  C   UNL     1      -7.822  25.467  67.170  1.00  0.00     0.039 C 
ENDROOT
BRANCH   1   4
ATOM      4  C   UNL     1      -8.470  23.562  68.817  1.00  0.00     0.034 C 
BRANCH   4   5
ATOM      5  C   UNL     1      -7.224  22.879  69.390  1.00  0.00     0.032 C 
BRANCH   5   6
ATOM      6  C   UNL     1      -7.582  21.972  70.541  1.00  0.00    -0.028 C 
ATOM      7  C   UNL     1      -8.000  19.854  71.713  1.00  0.00     0.039 C 
ATOM      8  C   UNL     1      -7.636  20.624  70.469  1.00  0.00    -0.080 C 
ATOM      9  C   UNL     1      -7.361  19.875  69.186  1.00  0.00     0.039 C 
ENDBRANCH   5   6
ENDBRANCH   4   5
ENDBRANCH   1   4
BRANCH   2  10
ATOM     10  C   UNL     1      -8.776  21.779  66.372  1.00  0.00     0.035 C 
BRANCH  10  11
ATOM     11  C   UNL     1      -7.669  20.900  65.781  1.00  0.00     0.079 C 
BRANCH  11  12
ATOM     12  C   UNL     1      -8.252  19.665  65.145  1.00  0.00     0.130 C 
ATOM     13  O   UNL     1      -8.729  19.735  64.022  1.00  0.00    -0.300 OA
ATOM     14  C   UNL     1      -8.272  18.349  65.866  1.00  0.00     0.087 C 
ENDBRANCH  11  12
ENDBRANCH  10  11
ENDBRANCH   2  10
TORSDOF 6
ENDMDL
MODEL 3
REMARK VINA RESULT:    -5.397      2.323      5.251
REMARK INTER + INTRA:          -8.215
REMARK INTER:                  -7.341
REMARK INTRA:                  -0.874
REMARK UNBOUND:                -0.925
REMARK SMILES CC(=O)CCC=C(C)CCC=C(C)C
REMARK SMILES IDX 7 1 6 2 8 3 9 4 10 5 11 6 13 7 12 8 14 9 5 10 4 11 2 12 3 13
REMARK SMILES IDX 1 14
REMARK H PARENT
REMARK Flexibility Score: inf
ROOT
ATOM      1  C   UNL     1      -7.975  21.199  66.147  1.00  0.00    -0.077 C 
ATOM      2  C   UNL     1      -8.091  22.546  66.222  1.00  0.00    -0.028 C 
ATOM      3  C   UNL     1      -7.413  20.601  64.883  1.00  0.00     0.039 C 
ENDROOT
BRANCH   1   4
ATOM      4  C   UNL     1      -8.332  20.275  67.294  1.00  0.00     0.034 C 
BRANCH   4   5
ATOM      5  C   UNL     1      -7.109  20.005  68.176  1.00  0.00     0.032 C 
BRANCH   5   6
ATOM      6  C   UNL     1      -7.522  19.519  69.543  1.00  0.00    -0.028 C 
ATOM      7  C   UNL     1      -8.098  19.676  71.926  1.00  0.00     0.039 C 
ATOM      8  C   UNL     1      -7.668  20.311  70.629  1.00  0.00    -0.080 C 
ATOM      9  C   UNL     1      -7.398  21.797  70.583  1.00  0.00     0.039 C 
ENDBRANCH   5   6
ENDBRANCH   4   5
ENDBRANCH   1   4
BRANCH   2  10
ATOM     10  C   UNL     1      -8.645  23.299  67.404  1.00  0.00     0.035 C 
BRANCH  10  11
ATOM     11  C   UNL     1      -7.626  24.316  67.930  1.00  0.00     0.079 C 
BRANCH  11  12
ATOM     12  C   UNL     1      -8.085  25.722  67.649  1.00  0.00     0.130 C 
ATOM     13  O   UNL     1      -8.531  26.403  68.560  1.00  0.00    -0.300 OA
ATOM     14  C   UNL     1      -8.017  26.306  66.268  1.00  0.00     0.087 C 
ENDBRANCH  11  12
ENDBRANCH  10  11
ENDBRANCH   2  10
TORSDOF 6
ENDMDL
MODEL 4
REMARK VINA RESULT:    -5.285      2.321      5.254
REMARK INTER + INTRA:          -8.064
REMARK INTER:                  -7.061
REMARK INTRA:                  -1.003
REMARK UNBOUND:                -0.925
REMARK SMILES CC(=O)CCC=C(C)CCC=C(C)C
REMARK SMILES IDX 7 1 6 2 8 3 9 4 10 5 11 6 13 7 12 8 14 9 5 10 4 11 2 12 3 13
REMARK SMILES IDX 1 14
REMARK H PARENT
REMARK Flexibility Score: inf
ROOT
ATOM      1  C   UNL     1      -8.259  23.405  68.391  1.00  0.00    -0.077 C 
ATOM      2  C   UNL     1      -8.096  22.852  69.615  1.00  0.00    -0.028 C 
ATOM      3  C   UNL     1      -7.625  24.745  68.122  1.00  0.00     0.039 C 
ENDROOT
BRANCH   1   4
ATOM      4  C   UNL     1      -9.001  22.712  67.265  1.00  0.00     0.034 C 
BRANCH   4   5
ATOM      5  C   UNL     1      -8.027  22.244  66.178  1.00  0.00     0.032 C 
BRANCH   5   6
ATOM      6  C   UNL     1      -8.279  20.804  65.806  1.00  0.00    -0.028 C 
ATOM      7  C   UNL     1      -8.006  18.364  65.878  1.00  0.00     0.039 C 
ATOM      8  C   UNL     1      -7.634  19.747  66.347  1.00  0.00    -0.080 C 
ATOM      9  C   UNL     1      -6.550  19.912  67.387  1.00  0.00     0.039 C 
ENDBRANCH   5   6
ENDBRANCH   4   5
ENDBRANCH   1   4
BRANCH   2  10
ATOM     10  C   UNL     1      -8.675  21.530  70.049  1.00  0.00     0.035 C 
BRANCH  10  11
ATOM     11  C   UNL     1      -7.625  20.688  70.781  1.00  0.00     0.079 C 
BRANCH  11  12
ATOM     12  C   UNL     1      -8.230  20.011  71.983  1.00  0.00     0.130 C 
ATOM     13  O   UNL     1      -7.999  18.829  72.188  1.00  0.00    -0.300 OA
ATOM     14  C   UNL     1      -9.123  20.755  72.933  1.00  0.00     0.087 C 
ENDBRANCH  11  12
ENDBRANCH  10  11
ENDBRANCH   2  10
TORSDOF 6
ENDMDL
MODEL 5
REMARK VINA RESULT:    -5.229      2.483      5.154
REMARK INTER + INTRA:          -7.988
REMARK INTER:                  -7.236
REMARK INTRA:                  -0.752
REMARK UNBOUND:                -0.925
REMARK SMILES CC(=O)CCC=C(C)CCC=C(C)C
REMARK SMILES IDX 7 1 6 2 8 3 9 4 10 5 11 6 13 7 12 8 14 9 5 10 4 11 2 12 3 13
REMARK SMILES IDX 1 14
REMARK H PARENT
REMARK Flexibility Score: inf
ROOT
ATOM      1  C   UNL     1      -7.296  21.077  67.870  1.00  0.00    -0.077 C 
ATOM      2  C   UNL     1      -7.831  21.855  66.901  1.00  0.00    -0.028 C 
ATOM      3  C   UNL     1      -6.488  19.875  67.456  1.00  0.00     0.039 C 
ENDROOT
BRANCH   1   4
ATOM      4  C   UNL     1      -7.427  21.392  69.348  1.00  0.00     0.034 C 
BRANCH   4   5
ATOM      5  C   UNL     1      -8.811  20.990  69.869  1.00  0.00     0.032 C 
BRANCH   5   6
ATOM      6  C   UNL     1      -9.002  21.432  71.299  1.00  0.00    -0.028 C 
ATOM      7  C   UNL     1      -9.009  21.244  73.748  1.00  0.00     0.039 C 
ATOM      8  C   UNL     1      -8.782  20.653  72.381  1.00  0.00    -0.080 C 
ATOM      9  C   UNL     1      -8.337  19.214  72.258  1.00  0.00     0.039 C 
ENDBRANCH   5   6
ENDBRANCH   4   5
ENDBRANCH   1   4
BRANCH   2  10
ATOM     10  C   UNL     1      -8.675  23.080  67.146  1.00  0.00     0.035 C 
BRANCH  10  11
ATOM     11  C   UNL     1      -7.794  24.317  67.352  1.00  0.00     0.079 C 
BRANCH  11  12
ATOM     12  C   UNL     1      -8.428  25.262  68.339  1.00  0.00     0.130 C 
ATOM     13  O   UNL     1      -8.369  26.467  68.141  1.00  0.00    -0.300 OA
ATOM     14  C   UNL     1      -9.123  24.758  69.570  1.00  0.00     0.087 C 
ENDBRANCH  11  12
ENDBRANCH  10  11
ENDBRANCH   2  10
TORSDOF 6
ENDMDL
MODEL 6
REMARK VINA RESULT:    -5.084      2.083      3.132
REMARK INTER + INTRA:          -7.792
REMARK INTER:                  -6.537
REMARK INTRA:                  -1.255
REMARK UNBOUND:                -0.925
REMARK SMILES CC(=O)CCC=C(C)CCC=C(C)C
REMARK SMILES IDX 7 1 6 2 8 3 9 4 10 5 11 6 13 7 12 8 14 9 5 10 4 11 2 12 3 13
REMARK SMILES IDX 1 14
REMARK H PARENT
REMARK Flexibility Score: inf
ROOT
ATOM      1  C   UNL     1      -7.426  20.092  66.952  1.00  0.00    -0.077 C 
ATOM      2  C   UNL     1      -6.895  20.093  65.707  1.00  0.00    -0.028 C 
ATOM      3  C   UNL     1      -6.493  19.933  68.124  1.00  0.00     0.039 C 
ENDROOT
BRANCH   1   4
ATOM      4  C   UNL     1      -8.903  20.297  67.220  1.00  0.00     0.034 C 
BRANCH   4   5
ATOM      5  C   UNL     1      -9.125  21.475  68.175  1.00  0.00     0.032 C 
BRANCH   5   6
ATOM      6  C   UNL     1      -9.015  22.792  67.447  1.00  0.00    -0.028 C 
ATOM      7  C   UNL     1      -8.079  24.986  66.859  1.00  0.00     0.039 C 
ATOM      8  C   UNL     1      -8.061  23.721  67.678  1.00  0.00    -0.080 C 
ATOM      9  C   UNL     1      -6.998  23.536  68.736  1.00  0.00     0.039 C 
ENDBRANCH   5   6
ENDBRANCH   4   5
ENDBRANCH   1   4
BRANCH   2  10
ATOM     10  C   UNL     1      -7.689  20.227  64.432  1.00  0.00     0.035 C 
BRANCH  10  11
ATOM     11  C   UNL     1      -6.873  20.949  63.354  1.00  0.00     0.079 C 
BRANCH  11  12
ATOM     12  C   UNL     1      -7.607  22.167  62.859  1.00  0.00     0.130 C 
ATOM     13  O   UNL     1      -7.500  22.499  61.688  1.00  0.00    -0.300 OA
ATOM     14  C   UNL     1      -8.460  22.993  63.776  1.00  0.00     0.087 C 
ENDBRANCH  11  12
ENDBRANCH  10  11
ENDBRANCH   2  10
TORSDOF 6
ENDMDL
MODEL 7
REMARK VINA RESULT:    -5.081      2.059      4.327
REMARK INTER + INTRA:          -7.788
REMARK INTER:                  -7.037
REMARK INTRA:                  -0.751
REMARK UNBOUND:                -0.925
REMARK SMILES CC(=O)CCC=C(C)CCC=C(C)C
REMARK SMILES IDX 7 1 6 2 8 3 9 4 10 5 11 6 13 7 12 8 14 9 5 10 4 11 2 12 3 13
REMARK SMILES IDX 1 14
REMARK H PARENT
REMARK Flexibility Score: inf
ROOT
ATOM      1  C   UNL     1      -7.692  22.704  67.296  1.00  0.00    -0.077 C 
ATOM      2  C   UNL     1      -8.374  22.870  66.139  1.00  0.00    -0.028 C 
ATOM      3  C   UNL     1      -7.398  23.922  68.133  1.00  0.00     0.039 C 
ENDROOT
BRANCH   1   4
ATOM      4  C   UNL     1      -7.261  21.345  67.812  1.00  0.00     0.034 C 
BRANCH   4   5
ATOM      5  C   UNL     1      -8.397  20.673  68.591  1.00  0.00     0.032 C 
BRANCH   5   6
ATOM      6  C   UNL     1      -7.943  20.266  69.970  1.00  0.00    -0.028 C 
ATOM      7  C   UNL     1      -7.690  20.413  72.409  1.00  0.00     0.039 C 
ATOM      8  C   UNL     1      -8.205  20.957  71.101  1.00  0.00    -0.080 C 
ATOM      9  C   UNL     1      -8.977  22.256  71.089  1.00  0.00     0.039 C 
ENDBRANCH   5   6
ENDBRANCH   4   5
ENDBRANCH   1   4
BRANCH   2  10
ATOM     10  C   UNL     1      -8.735  21.762  65.183  1.00  0.00     0.035 C 
BRANCH  10  11
ATOM     11  C   UNL     1      -7.657  21.598  64.106  1.00  0.00     0.079 C 
BRANCH  11  12
ATOM     12  C   UNL     1      -7.985  22.431  62.895  1.00  0.00     0.130 C 
ATOM     13  O   UNL     1      -9.125  22.841  62.737  1.00  0.00    -0.300 OA
ATOM     14  C   UNL     1      -6.943  22.761  61.867  1.00  0.00     0.087 C 
ENDBRANCH  11  12
ENDBRANCH  10  11
ENDBRANCH   2  10
TORSDOF 6
ENDMDL
MODEL 8
REMARK VINA RESULT:    -5.045      2.392      4.670
REMARK INTER + INTRA:          -7.740
REMARK INTER:                  -7.076
REMARK INTRA:                  -0.663
REMARK UNBOUND:                -0.925
REMARK SMILES CC(=O)CCC=C(C)CCC=C(C)C
REMARK SMILES IDX 7 1 6 2 8 3 9 4 10 5 11 6 13 7 12 8 14 9 5 10 4 11 2 12 3 13
REMARK SMILES IDX 1 14
REMARK H PARENT
REMARK Flexibility Score: inf
ROOT
ATOM      1  C   UNL     1      -8.213  21.647  66.244  1.00  0.00    -0.077 C 
ATOM      2  C   UNL     1      -7.946  21.794  64.926  1.00  0.00    -0.028 C 
ATOM      3  C   UNL     1      -8.748  22.835  67.001  1.00  0.00     0.039 C 
ENDROOT
BRANCH   1   4
ATOM      4  C   UNL     1      -8.052  20.330  66.977  1.00  0.00     0.034 C 
BRANCH   4   5
ATOM      5  C   UNL     1      -6.904  20.407  67.989  1.00  0.00     0.032 C 
BRANCH   5   6
ATOM      6  C   UNL     1      -7.336  19.898  69.341  1.00  0.00    -0.028 C 
ATOM      7  C   UNL     1      -8.012  20.019  71.699  1.00  0.00     0.039 C 
ATOM      8  C   UNL     1      -7.577  20.680  70.417  1.00  0.00    -0.080 C 
ATOM      9  C   UNL     1      -7.405  22.180  70.374  1.00  0.00     0.039 C 
ENDBRANCH   5   6
ENDBRANCH   4   5
ENDBRANCH   1   4
BRANCH   2  10
ATOM     10  C   UNL     1      -7.395  20.713  64.032  1.00  0.00     0.035 C 
BRANCH  10  11
ATOM     11  C   UNL     1      -7.207  21.230  62.601  1.00  0.00     0.079 C 
BRANCH  11  12
ATOM     12  C   UNL     1      -5.803  20.970  62.121  1.00  0.00     0.130 C 
ATOM     13  O   UNL     1      -4.929  20.712  62.934  1.00  0.00    -0.300 OA
ATOM     14  C   UNL     1      -5.450  21.034  60.665  1.00  0.00     0.087 C 
ENDBRANCH  11  12
ENDBRANCH  10  11
ENDBRANCH   2  10
TORSDOF 6
ENDMDL
