MODEL 1
REMARK VINA RESULT:    -3.732      0.000      0.000
REMARK INTER + INTRA:          -4.461
REMARK INTER:                  -4.387
REMARK INTRA:                  -0.074
REMARK UNBOUND:                -0.074
REMARK SMILES O=C([O-])CCC(=O)[O-]
REMARK SMILES IDX 4 1 2 2 1 3 3 4 5 5 6 6 7 7 8 8
REMARK H PARENT
REMARK Flexibility Score: inf
ROOT
ATOM      1  C   UNL     1      25.824   6.304   5.773  1.00  0.00     0.059 C 
ENDROOT
BRANCH   1   2
ATOM      2  C   UNL     1      26.506   5.548   6.873  1.00  0.00     0.042 C 
ATOM      3  O   UNL     1      26.778   6.120   7.961  1.00  0.00    -0.550 OA
ATOM      4  O   UNL     1      26.804   4.201   6.710  1.00  0.00    -0.550 OA
ENDBRANCH   1   2
BRANCH   1   5
ATOM      5  C   UNL     1      25.438   7.719   6.216  1.00  0.00     0.059 C 
BRANCH   5   6
ATOM      6  C   UNL     1      23.997   8.014   5.929  1.00  0.00     0.042 C 
ATOM      7  O   UNL     1      23.118   7.137   6.139  1.00  0.00    -0.550 OA
ATOM      8  O   UNL     1      23.623   9.268   5.467  1.00  0.00    -0.550 OA
ENDBRANCH   5   6
ENDBRANCH   1   5
TORSDOF 3
ENDMDL
MODEL 2
REMARK VINA RESULT:    -3.663      0.239      4.057
REMARK INTER + INTRA:          -4.380
REMARK INTER:                  -4.293
REMARK INTRA:                  -0.087
REMARK UNBOUND:                -0.074
REMARK SMILES O=C([O-])CCC(=O)[O-]
REMARK SMILES IDX 4 1 2 2 1 3 3 4 5 5 6 6 7 7 8 8
REMARK H PARENT
REMARK Flexibility Score: inf
ROOT
ATOM      1  C   UNL     1      25.461   7.830   5.945  1.00  0.00     0.059 C 
ENDROOT
BRANCH   1   2
ATOM      2  C   UNL     1      23.998   8.137   5.832  1.00  0.00     0.042 C 
ATOM      3  O   UNL     1      23.618   9.269   5.437  1.00  0.00    -0.550 OA
ATOM      4  O   UNL     1      23.058   7.157   6.125  1.00  0.00    -0.550 OA
ENDBRANCH   1   2
BRANCH   1   5
ATOM      5  C   UNL     1      25.742   6.338   5.740  1.00  0.00     0.059 C 
BRANCH   5   6
ATOM      6  C   UNL     1      26.362   5.720   6.956  1.00  0.00     0.042 C 
ATOM      7  O   UNL     1      26.651   6.435   7.952  1.00  0.00    -0.550 OA
ATOM      8  O   UNL     1      26.582   4.350   7.005  1.00  0.00    -0.550 OA
ENDBRANCH   5   6
ENDBRANCH   1   5
TORSDOF 3
ENDMDL
MODEL 3
REMARK VINA RESULT:    -3.661      1.026      1.213
REMARK INTER + INTRA:          -4.377
REMARK INTER:                  -4.259
REMARK INTRA:                  -0.117
REMARK UNBOUND:                -0.074
REMARK SMILES O=C([O-])CCC(=O)[O-]
REMARK SMILES IDX 4 1 2 2 1 3 3 4 5 5 6 6 7 7 8 8
REMARK H PARENT
REMARK Flexibility Score: inf
ROOT
ATOM      1  C   UNL     1      25.847   6.249   5.778  1.00  0.00     0.059 C 
ENDROOT
BRANCH   1   2
ATOM      2  C   UNL     1      26.619   5.478   6.805  1.00  0.00     0.042 C 
ATOM      3  O   UNL     1      26.894   6.002   7.916  1.00  0.00    -0.550 OA
ATOM      4  O   UNL     1      26.999   4.166   6.549  1.00  0.00    -0.550 OA
ENDBRANCH   1   2
BRANCH   1   5
ATOM      5  C   UNL     1      24.496   6.722   6.325  1.00  0.00     0.059 C 
BRANCH   5   6
ATOM      6  C   UNL     1      24.408   8.217   6.366  1.00  0.00     0.042 C 
ATOM      7  O   UNL     1      23.685   8.831   5.539  1.00  0.00    -0.550 OA
ATOM      8  O   UNL     1      25.094   8.926   7.343  1.00  0.00    -0.550 OA
ENDBRANCH   5   6
ENDBRANCH   1   5
TORSDOF 3
ENDMDL
MODEL 4
REMARK VINA RESULT:    -3.517      1.787      2.243
REMARK INTER + INTRA:          -4.209
REMARK INTER:                  -4.112
REMARK INTRA:                  -0.097
REMARK UNBOUND:                -0.074
REMARK SMILES O=C([O-])CCC(=O)[O-]
REMARK SMILES IDX 4 1 2 2 1 3 3 4 5 5 6 6 7 7 8 8
REMARK H PARENT
REMARK Flexibility Score: inf
ROOT
ATOM      1  C   UNL     1      25.765   6.918   7.077  1.00  0.00     0.059 C 
ENDROOT
BRANCH   1   2
ATOM      2  C   UNL     1      26.409   7.922   7.983  1.00  0.00     0.042 C 
ATOM      3  O   UNL     1      27.661   7.959   8.099  1.00  0.00    -0.550 OA
ATOM      4  O   UNL     1      25.625   8.843   8.667  1.00  0.00    -0.550 OA
ENDBRANCH   1   2
BRANCH   1   5
ATOM      5  C   UNL     1      25.348   7.546   5.743  1.00  0.00     0.059 C 
BRANCH   5   6
ATOM      6  C   UNL     1      23.933   8.038   5.783  1.00  0.00     0.042 C 
ATOM      7  O   UNL     1      23.000   7.257   6.108  1.00  0.00    -0.550 OA
ATOM      8  O   UNL     1      23.652   9.368   5.499  1.00  0.00    -0.550 OA
ENDBRANCH   5   6
ENDBRANCH   1   5
TORSDOF 3
ENDMDL
MODEL 5
REMARK VINA RESULT:    -3.507      1.890      3.814
REMARK INTER + INTRA:          -4.196
REMARK INTER:                  -4.096
REMARK INTRA:                  -0.100
REMARK UNBOUND:                -0.074
REMARK SMILES O=C([O-])CCC(=O)[O-]
REMARK SMILES IDX 4 1 2 2 1 3 3 4 5 5 6 6 7 7 8 8
REMARK H PARENT
REMARK Flexibility Score: inf
ROOT
ATOM      1  C   UNL     1      25.364   7.535   5.761  1.00  0.00     0.059 C 
ENDROOT
BRANCH   1   2
ATOM      2  C   UNL     1      23.951   8.033   5.790  1.00  0.00     0.042 C 
ATOM      3  O   UNL     1      23.693   9.225   5.480  1.00  0.00    -0.550 OA
ATOM      4  O   UNL     1      22.916   7.167   6.121  1.00  0.00    -0.550 OA
ENDBRANCH   1   2
BRANCH   1   5
ATOM      5  C   UNL     1      25.804   7.002   7.128  1.00  0.00     0.059 C 
BRANCH   5   6
ATOM      6  C   UNL     1      26.410   8.080   7.973  1.00  0.00     0.042 C 
ATOM      7  O   UNL     1      27.661   8.227   8.009  1.00  0.00    -0.550 OA
ATOM      8  O   UNL     1      25.594   8.946   8.687  1.00  0.00    -0.550 OA
ENDBRANCH   5   6
ENDBRANCH   1   5
TORSDOF 3
ENDMDL
MODEL 6
REMARK VINA RESULT:    -3.382      1.296      3.804
REMARK INTER + INTRA:          -4.049
REMARK INTER:                  -3.912
REMARK INTRA:                  -0.137
REMARK UNBOUND:                -0.074
REMARK SMILES O=C([O-])CCC(=O)[O-]
REMARK SMILES IDX 4 1 2 2 1 3 3 4 5 5 6 6 7 7 8 8
REMARK H PARENT
REMARK Flexibility Score: inf
ROOT
ATOM      1  C   UNL     1      25.753   6.646   5.563  1.00  0.00     0.059 C 
ENDROOT
BRANCH   1   2
ATOM      2  C   UNL     1      24.554   7.148   6.310  1.00  0.00     0.042 C 
ATOM      3  O   UNL     1      23.578   6.384   6.525  1.00  0.00    -0.550 OA
ATOM      4  O   UNL     1      24.536   8.447   6.803  1.00  0.00    -0.550 OA
ENDBRANCH   1   2
BRANCH   1   5
ATOM      5  C   UNL     1      26.492   5.556   6.347  1.00  0.00     0.059 C 
BRANCH   5   6
ATOM      6  C   UNL     1      27.187   6.116   7.550  1.00  0.00     0.042 C 
ATOM      7  O   UNL     1      27.298   5.424   8.596  1.00  0.00    -0.550 OA
ATOM      8  O   UNL     1      27.748   7.385   7.501  1.00  0.00    -0.550 OA
ENDBRANCH   5   6
ENDBRANCH   1   5
TORSDOF 3
ENDMDL
MODEL 7
REMARK VINA RESULT:    -3.375     10.573     12.719
REMARK INTER + INTRA:          -4.041
REMARK INTER:                  -3.929
REMARK INTRA:                  -0.112
REMARK UNBOUND:                -0.074
REMARK SMILES O=C([O-])CCC(=O)[O-]
REMARK SMILES IDX 4 1 2 2 1 3 3 4 5 5 6 6 7 7 8 8
REMARK H PARENT
REMARK Flexibility Score: inf
ROOT
ATOM      1  C   UNL     1      17.732  17.404   8.002  1.00  0.00     0.059 C 
ENDROOT
BRANCH   1   2
ATOM      2  C   UNL     1      18.295  18.181   9.153  1.00  0.00     0.042 C 
ATOM      3  O   UNL     1      17.624  18.325  10.208  1.00  0.00    -0.550 OA
ATOM      4  O   UNL     1      19.577  18.711   9.074  1.00  0.00    -0.550 OA
ENDBRANCH   1   2
BRANCH   1   5
ATOM      5  C   UNL     1      18.386  16.024   7.879  1.00  0.00     0.059 C 
BRANCH   5   6
ATOM      6  C   UNL     1      19.142  15.882   6.594  1.00  0.00     0.042 C 
ATOM      7  O   UNL     1      19.433  16.903   5.916  1.00  0.00    -0.550 OA
ATOM      8  O   UNL     1      19.561  14.629   6.168  1.00  0.00    -0.550 OA
ENDBRANCH   5   6
ENDBRANCH   1   5
TORSDOF 3
ENDMDL
MODEL 8
REMARK VINA RESULT:    -3.329      1.396      2.051
REMARK INTER + INTRA:          -3.988
REMARK INTER:                  -3.878
REMARK INTRA:                  -0.109
REMARK UNBOUND:                -0.074
REMARK SMILES O=C([O-])CCC(=O)[O-]
REMARK SMILES IDX 4 1 2 2 1 3 3 4 5 5 6 6 7 7 8 8
REMARK H PARENT
REMARK Flexibility Score: inf
ROOT
ATOM      1  C   UNL     1      26.395   5.398   6.804  1.00  0.00     0.059 C 
ENDROOT
BRANCH   1   2
ATOM      2  C   UNL     1      27.315   6.004   7.821  1.00  0.00     0.042 C 
ATOM      3  O   UNL     1      27.597   5.374   8.873  1.00  0.00    -0.550 OA
ATOM      4  O   UNL     1      27.890   7.246   7.584  1.00  0.00    -0.550 OA
ENDBRANCH   1   2
BRANCH   1   5
ATOM      5  C   UNL     1      25.858   6.452   5.829  1.00  0.00     0.059 C 
BRANCH   5   6
ATOM      6  C   UNL     1      24.672   7.172   6.393  1.00  0.00     0.042 C 
ATOM      7  O   UNL     1      24.785   8.360   6.794  1.00  0.00    -0.550 OA
ATOM      8  O   UNL     1      23.434   6.545   6.437  1.00  0.00    -0.550 OA
ENDBRANCH   5   6
ENDBRANCH   1   5
TORSDOF 3
ENDMDL
MODEL 9
REMARK VINA RESULT:    -3.286     13.093     14.255
REMARK INTER + INTRA:          -3.937
REMARK INTER:                  -3.814
REMARK INTRA:                  -0.123
REMARK UNBOUND:                -0.074
REMARK SMILES O=C([O-])CCC(=O)[O-]
REMARK SMILES IDX 4 1 2 2 1 3 3 4 5 5 6 6 7 7 8 8
REMARK H PARENT
REMARK Flexibility Score: inf
ROOT
ATOM      1  C   UNL     1      15.031   1.084  -1.148  1.00  0.00     0.059 C 
ENDROOT
BRANCH   1   2
ATOM      2  C   UNL     1      14.368   0.571  -2.391  1.00  0.00     0.042 C 
ATOM      3  O   UNL     1      13.228   0.990  -2.719  1.00  0.00    -0.550 OA
ATOM      4  O   UNL     1      15.030  -0.339  -3.205  1.00  0.00    -0.550 OA
ENDBRANCH   1   2
BRANCH   1   5
ATOM      5  C   UNL     1      16.014   2.217  -1.460  1.00  0.00     0.059 C 
BRANCH   5   6
ATOM      6  C   UNL     1      15.397   3.563  -1.232  1.00  0.00     0.042 C 
ATOM      7  O   UNL     1      15.664   4.213  -0.186  1.00  0.00    -0.550 OA
ATOM      8  O   UNL     1      14.561   4.116  -2.192  1.00  0.00    -0.550 OA
ENDBRANCH   5   6
ENDBRANCH   1   5
TORSDOF 3
ENDMDL
