MODEL 1
REMARK VINA RESULT:    20.095      0.000      0.000
REMARK INTER + INTRA:          22.257
REMARK INTER:                  22.445
REMARK INTRA:                  -0.188
REMARK UNBOUND:                -0.188
REMARK SMILES O=C([O-])c1ccccc1C(=O)[O-]
REMARK SMILES IDX 4 1 9 2 5 3 8 4 6 5 7 6 2 7 1 8 3 9 10 10 11 11 12 12
REMARK H PARENT
REMARK Flexibility Score: inf
ROOT
ATOM      1  C   UNL     1      -1.159  -9.078  24.795  1.00  0.00     0.006 A 
ATOM      2  C   UNL     1      -0.990  -7.782  24.230  1.00  0.00     0.006 A 
ATOM      3  C   UNL     1      -0.496  -9.393  25.996  1.00  0.00     0.010 A 
ATOM      4  C   UNL     1      -0.113  -6.876  24.852  1.00  0.00     0.010 A 
ATOM      5  C   UNL     1       0.351  -8.470  26.607  1.00  0.00     0.001 A 
ATOM      6  C   UNL     1       0.552  -7.218  26.031  1.00  0.00     0.001 A 
ENDROOT
BRANCH   1   7
ATOM      7  C   UNL     1      -1.952 -10.141  24.135  1.00  0.00     0.072 C 
ATOM      8  O   UNL     1      -1.373 -11.058  23.493  1.00  0.00    -0.545 OA
ATOM      9  O   UNL     1      -3.342 -10.107  24.158  1.00  0.00    -0.545 OA
ENDBRANCH   1   7
BRANCH   2  10
ATOM     10  C   UNL     1      -1.749  -7.313  23.049  1.00  0.00     0.072 C 
ATOM     11  O   UNL     1      -1.242  -7.358  21.897  1.00  0.00    -0.545 OA
ATOM     12  O   UNL     1      -3.060  -6.875  23.192  1.00  0.00    -0.545 OA
ENDBRANCH   2  10
TORSDOF 2
ENDMDL
MODEL 2
REMARK VINA RESULT:    20.561      0.542      3.110
REMARK INTER + INTRA:          22.777
REMARK INTER:                  22.912
REMARK INTRA:                  -0.135
REMARK UNBOUND:                -0.188
REMARK SMILES O=C([O-])c1ccccc1C(=O)[O-]
REMARK SMILES IDX 4 1 9 2 5 3 8 4 6 5 7 6 2 7 1 8 3 9 10 10 11 11 12 12
REMARK H PARENT
REMARK Flexibility Score: inf
ROOT
ATOM      1  C   UNL     1      -1.091  -7.883  24.303  1.00  0.00     0.006 A 
ATOM      2  C   UNL     1      -0.893  -9.246  24.665  1.00  0.00     0.006 A 
ATOM      3  C   UNL     1      -0.492  -6.875  25.082  1.00  0.00     0.010 A 
ATOM      4  C   UNL     1      -0.160  -9.544  25.828  1.00  0.00     0.010 A 
ATOM      5  C   UNL     1       0.249  -7.196  26.219  1.00  0.00     0.001 A 
ATOM      6  C   UNL     1       0.405  -8.527  26.598  1.00  0.00     0.001 A 
ENDROOT
BRANCH   1   7
ATOM      7  C   UNL     1      -1.961  -7.473  23.178  1.00  0.00     0.072 C 
ATOM      8  O   UNL     1      -3.128  -7.052  23.399  1.00  0.00    -0.545 OA
ATOM      9  O   UNL     1      -1.530  -7.607  21.862  1.00  0.00    -0.545 OA
ENDBRANCH   1   7
BRANCH   2  10
ATOM     10  C   UNL     1      -1.365 -10.377  23.834  1.00  0.00     0.072 C 
ATOM     11  O   UNL     1      -2.582 -10.703  23.821  1.00  0.00    -0.545 OA
ATOM     12  O   UNL     1      -0.477 -11.052  23.005  1.00  0.00    -0.545 OA
ENDBRANCH   2  10
TORSDOF 2
ENDMDL
MODEL 3
REMARK VINA RESULT:    21.074      2.120      4.183
REMARK INTER + INTRA:          23.351
REMARK INTER:                  23.401
REMARK INTRA:                  -0.050
REMARK UNBOUND:                -0.188
REMARK SMILES O=C([O-])c1ccccc1C(=O)[O-]
REMARK SMILES IDX 4 1 9 2 5 3 8 4 6 5 7 6 2 7 1 8 3 9 10 10 11 11 12 12
REMARK H PARENT
REMARK Flexibility Score: inf
ROOT
ATOM      1  C   UNL     1      -1.836  -8.066  22.021  1.00  0.00     0.006 A 
ATOM      2  C   UNL     1      -2.245  -8.023  23.384  1.00  0.00     0.006 A 
ATOM      3  C   UNL     1      -2.652  -7.467  21.042  1.00  0.00     0.010 A 
ATOM      4  C   UNL     1      -3.485  -7.443  23.707  1.00  0.00     0.010 A 
ATOM      5  C   UNL     1      -3.866  -6.877  21.390  1.00  0.00     0.001 A 
ATOM      6  C   UNL     1      -4.288  -6.875  22.717  1.00  0.00     0.001 A 
ENDROOT
BRANCH   1   7
ATOM      7  C   UNL     1      -0.616  -8.777  21.573  1.00  0.00     0.072 C 
ATOM      8  O   UNL     1       0.256  -8.174  20.894  1.00  0.00    -0.545 OA
ATOM      9  O   UNL     1      -0.448 -10.132  21.839  1.00  0.00    -0.545 OA
ENDBRANCH   1   7
BRANCH   2  10
ATOM     10  C   UNL     1      -1.393  -8.502  24.496  1.00  0.00     0.072 C 
ATOM     11  O   UNL     1      -1.422  -9.709  24.856  1.00  0.00    -0.545 OA
ATOM     12  O   UNL     1      -0.500  -7.635  25.114  1.00  0.00    -0.545 OA
ENDBRANCH   2  10
TORSDOF 2
ENDMDL
MODEL 4
REMARK VINA RESULT:    21.209      2.168      4.021
REMARK INTER + INTRA:          23.501
REMARK INTER:                  23.637
REMARK INTRA:                  -0.136
REMARK UNBOUND:                -0.188
REMARK SMILES O=C([O-])c1ccccc1C(=O)[O-]
REMARK SMILES IDX 4 1 9 2 5 3 8 4 6 5 7 6 2 7 1 8 3 9 10 10 11 11 12 12
REMARK H PARENT
REMARK Flexibility Score: inf
ROOT
ATOM      1  C   UNL     1      -2.229  -7.978  23.162  1.00  0.00     0.006 A 
ATOM      2  C   UNL     1      -1.745  -8.112  21.829  1.00  0.00     0.006 A 
ATOM      3  C   UNL     1      -3.483  -7.376  23.376  1.00  0.00     0.010 A 
ATOM      4  C   UNL     1      -2.502  -7.579  20.771  1.00  0.00     0.010 A 
ATOM      5  C   UNL     1      -4.227  -6.875  22.308  1.00  0.00     0.001 A 
ATOM      6  C   UNL     1      -3.733  -6.966  21.009  1.00  0.00     0.001 A 
ENDROOT
BRANCH   1   7
ATOM      7  C   UNL     1      -1.437  -8.383  24.346  1.00  0.00     0.072 C 
ATOM      8  O   UNL     1      -1.636  -9.503  24.888  1.00  0.00    -0.545 OA
ATOM      9  O   UNL     1      -0.513  -7.512  24.912  1.00  0.00    -0.545 OA
ENDBRANCH   1   7
BRANCH   2  10
ATOM     10  C   UNL     1      -0.506  -8.850  21.493  1.00  0.00     0.072 C 
ATOM     11  O   UNL     1       0.483  -8.254  20.990  1.00  0.00    -0.545 OA
ATOM     12  O   UNL     1      -0.398 -10.203  21.791  1.00  0.00    -0.545 OA
ENDBRANCH   2  10
TORSDOF 2
ENDMDL
MODEL 5
REMARK VINA RESULT:    22.213      8.294      9.748
REMARK INTER + INTRA:          24.622
REMARK INTER:                  24.224
REMARK INTRA:                   0.399
REMARK UNBOUND:                -0.188
REMARK SMILES O=C([O-])c1ccccc1C(=O)[O-]
REMARK SMILES IDX 4 1 9 2 5 3 8 4 6 5 7 6 2 7 1 8 3 9 10 10 11 11 12 12
REMARK H PARENT
REMARK Flexibility Score: inf
ROOT
ATOM      1  C   UNL     1      -5.216 -17.393  25.886  1.00  0.00     0.006 A 
ATOM      2  C   UNL     1      -4.774 -16.705  24.720  1.00  0.00     0.006 A 
ATOM      3  C   UNL     1      -5.424 -16.664  27.072  1.00  0.00     0.010 A 
ATOM      4  C   UNL     1      -4.496 -15.329  24.804  1.00  0.00     0.010 A 
ATOM      5  C   UNL     1      -5.163 -15.296  27.125  1.00  0.00     0.001 A 
ATOM      6  C   UNL     1      -4.688 -14.631  25.997  1.00  0.00     0.001 A 
ENDROOT
BRANCH   1   7
ATOM      7  C   UNL     1      -5.399 -18.862  25.926  1.00  0.00     0.072 C 
ATOM      8  O   UNL     1      -4.998 -19.524  26.920  1.00  0.00    -0.545 OA
ATOM      9  O   UNL     1      -5.956 -19.537  24.845  1.00  0.00    -0.545 OA
ENDBRANCH   1   7
BRANCH   2  10
ATOM     10  C   UNL     1      -4.658 -17.356  23.396  1.00  0.00     0.072 C 
ATOM     11  O   UNL     1      -3.539 -17.735  22.960  1.00  0.00    -0.545 OA
ATOM     12  O   UNL     1      -5.798 -17.617  22.644  1.00  0.00    -0.545 OA
ENDBRANCH   2  10
TORSDOF 2
ENDMDL
MODEL 6
REMARK VINA RESULT:    22.368      8.333     10.108
REMARK INTER + INTRA:          24.795
REMARK INTER:                  24.548
REMARK INTRA:                   0.247
REMARK UNBOUND:                -0.188
REMARK SMILES O=C([O-])c1ccccc1C(=O)[O-]
REMARK SMILES IDX 4 1 9 2 5 3 8 4 6 5 7 6 2 7 1 8 3 9 10 10 11 11 12 12
REMARK H PARENT
REMARK Flexibility Score: inf
ROOT
ATOM      1  C   UNL     1      -4.782 -16.745  24.704  1.00  0.00     0.006 A 
ATOM      2  C   UNL     1      -5.250 -17.439  25.855  1.00  0.00     0.006 A 
ATOM      3  C   UNL     1      -4.490 -15.372  24.804  1.00  0.00     0.010 A 
ATOM      4  C   UNL     1      -5.470 -16.720  27.044  1.00  0.00     0.010 A 
ATOM      5  C   UNL     1      -4.695 -14.684  26.000  1.00  0.00     0.001 A 
ATOM      6  C   UNL     1      -5.195 -15.353  27.114  1.00  0.00     0.001 A 
ENDROOT
BRANCH   1   7
ATOM      7  C   UNL     1      -4.655 -17.391  23.377  1.00  0.00     0.072 C 
ATOM      8  O   UNL     1      -3.526 -17.764  22.959  1.00  0.00    -0.545 OA
ATOM      9  O   UNL     1      -5.763 -17.536  22.549  1.00  0.00    -0.545 OA
ENDBRANCH   1   7
BRANCH   2  10
ATOM     10  C   UNL     1      -5.453 -18.905  25.885  1.00  0.00     0.072 C 
ATOM     11  O   UNL     1      -5.101 -19.585  26.886  1.00  0.00    -0.545 OA
ATOM     12  O   UNL     1      -6.098 -19.542  24.831  1.00  0.00    -0.545 OA
ENDBRANCH   2  10
TORSDOF 2
ENDMDL
MODEL 7
REMARK VINA RESULT:    22.923     15.667     17.144
REMARK INTER + INTRA:          25.416
REMARK INTER:                  25.468
REMARK INTRA:                  -0.052
REMARK UNBOUND:                -0.188
REMARK SMILES O=C([O-])c1ccccc1C(=O)[O-]
REMARK SMILES IDX 4 1 9 2 5 3 8 4 6 5 7 6 2 7 1 8 3 9 10 10 11 11 12 12
REMARK H PARENT
REMARK Flexibility Score: inf
ROOT
ATOM      1  C   UNL     1       4.043 -19.088  12.405  1.00  0.00     0.006 A 
ATOM      2  C   UNL     1       2.788 -19.463  11.847  1.00  0.00     0.006 A 
ATOM      3  C   UNL     1       5.125 -19.985  12.322  1.00  0.00     0.010 A 
ATOM      4  C   UNL     1       2.647 -20.745  11.286  1.00  0.00     0.010 A 
ATOM      5  C   UNL     1       4.966 -21.242  11.741  1.00  0.00     0.001 A 
ATOM      6  C   UNL     1       3.727 -21.627  11.235  1.00  0.00     0.001 A 
ENDROOT
BRANCH   1   7
ATOM      7  C   UNL     1       4.245 -17.816  13.137  1.00  0.00     0.072 C 
ATOM      8  O   UNL     1       4.364 -16.733  12.505  1.00  0.00    -0.545 OA
ATOM      9  O   UNL     1       4.370 -17.807  14.522  1.00  0.00    -0.545 OA
ENDBRANCH   1   7
BRANCH   2  10
ATOM     10  C   UNL     1       1.635 -18.539  11.763  1.00  0.00     0.072 C 
ATOM     11  O   UNL     1       0.613 -18.717  12.478  1.00  0.00    -0.545 OA
ATOM     12  O   UNL     1       1.694 -17.421  10.939  1.00  0.00    -0.545 OA
ENDBRANCH   2  10
TORSDOF 2
ENDMDL
