MODEL 1
REMARK VINA RESULT:    -2.931      0.000      0.000
REMARK INTER + INTRA:          -6.816
REMARK INTER:                  -5.158
REMARK INTRA:                  -1.658
REMARK UNBOUND:                -1.658
REMARK SMILES CCCCCCCCCCCCCCC(=O)[O-]
REMARK SMILES IDX 9 1 10 2 11 3 12 4 13 5 14 6 15 7 16 8 17 9 8 10 7 11 6 12
REMARK SMILES IDX 5 13 4 14 3 15 2 16 1 17
REMARK H PARENT
REMARK Flexibility Score: inf
ROOT
ATOM      1  C   UNL     1     -53.242 121.283  -8.758  1.00  0.00     0.000 C 
ENDROOT
BRANCH   1   2
ATOM      2  C   UNL     1     -53.142 122.713  -9.320  1.00  0.00     0.000 C 
BRANCH   2   3
ATOM      3  C   UNL     1     -54.449 123.196  -9.967  1.00  0.00     0.000 C 
BRANCH   3   4
ATOM      4  C   UNL     1     -54.439 122.945 -11.479  1.00  0.00     0.000 C 
BRANCH   4   5
ATOM      5  C   UNL     1     -55.674 122.141 -11.913  1.00  0.00     0.006 C 
BRANCH   5   6
ATOM      6  C   UNL     1     -56.370 121.461 -10.727  1.00  0.00     0.053 C 
BRANCH   6   7
ATOM      7  C   UNL     1     -57.066 120.202 -11.140  1.00  0.00     0.041 C 
ATOM      8  O   UNL     1     -58.252 120.242 -11.563  1.00  0.00    -0.550 OA
ATOM      9  O   UNL     1     -56.417 118.979 -11.029  1.00  0.00    -0.550 OA
ENDBRANCH   6   7
ENDBRANCH   5   6
ENDBRANCH   4   5
ENDBRANCH   3   4
ENDBRANCH   2   3
ENDBRANCH   1   2
BRANCH   1  10
ATOM     10  C   UNL     1     -52.475 120.216  -9.560  1.00  0.00     0.000 C 
BRANCH  10  11
ATOM     11  C   UNL     1     -53.112 119.924 -10.929  1.00  0.00    -0.000 C 
BRANCH  11  12
ATOM     12  C   UNL     1     -52.189 120.286 -12.103  1.00  0.00    -0.000 C 
BRANCH  12  13
ATOM     13  C   UNL     1     -50.898 120.986 -11.644  1.00  0.00    -0.000 C 
BRANCH  13  14
ATOM     14  C   UNL     1     -50.821 122.456 -12.094  1.00  0.00    -0.000 C 
BRANCH  14  15
ATOM     15  C   UNL     1     -49.486 123.168 -11.789  1.00  0.00    -0.000 C 
BRANCH  15  16
ATOM     16  C   UNL     1     -48.875 122.843 -10.416  1.00  0.00    -0.003 C 
ATOM     17  C   UNL     1     -49.160 123.917  -9.367  1.00  0.00     0.004 C 
ENDBRANCH  15  16
ENDBRANCH  14  15
ENDBRANCH  13  14
ENDBRANCH  12  13
ENDBRANCH  11  12
ENDBRANCH  10  11
ENDBRANCH   1  10
TORSDOF 13
ENDMDL
MODEL 2
REMARK VINA RESULT:    -2.881      1.613      2.299
REMARK INTER + INTRA:          -6.729
REMARK INTER:                  -5.623
REMARK INTRA:                  -1.106
REMARK UNBOUND:                -1.658
REMARK SMILES CCCCCCCCCCCCCCC(=O)[O-]
REMARK SMILES IDX 9 1 10 2 11 3 12 4 13 5 14 6 15 7 16 8 17 9 8 10 7 11 6 12
REMARK SMILES IDX 5 13 4 14 3 15 2 16 1 17
REMARK H PARENT
REMARK Flexibility Score: inf
ROOT
ATOM      1  C   UNL     1     -53.331 121.692  -8.869  1.00  0.00     0.000 C 
ENDROOT
BRANCH   1   2
ATOM      2  C   UNL     1     -53.079 120.219  -9.238  1.00  0.00     0.000 C 
BRANCH   2   3
ATOM      3  C   UNL     1     -54.302 119.546  -9.881  1.00  0.00     0.000 C 
BRANCH   3   4
ATOM      4  C   UNL     1     -54.394 119.886 -11.373  1.00  0.00     0.000 C 
BRANCH   4   5
ATOM      5  C   UNL     1     -55.855 119.889 -11.848  1.00  0.00     0.006 C 
BRANCH   5   6
ATOM      6  C   UNL     1     -56.824 120.321 -10.740  1.00  0.00     0.053 C 
BRANCH   6   7
ATOM      7  C   UNL     1     -56.631 121.756 -10.361  1.00  0.00     0.041 C 
ATOM      8  O   UNL     1     -56.757 122.119  -9.161  1.00  0.00    -0.550 OA
ATOM      9  O   UNL     1     -56.342 122.701 -11.338  1.00  0.00    -0.550 OA
ENDBRANCH   6   7
ENDBRANCH   5   6
ENDBRANCH   4   5
ENDBRANCH   3   4
ENDBRANCH   2   3
ENDBRANCH   1   2
BRANCH   1  10
ATOM     10  C   UNL     1     -52.492 122.711  -9.661  1.00  0.00     0.000 C 
BRANCH  10  11
ATOM     11  C   UNL     1     -52.827 122.724 -11.162  1.00  0.00    -0.000 C 
BRANCH  11  12
ATOM     12  C   UNL     1     -51.620 122.367 -12.044  1.00  0.00    -0.000 C 
BRANCH  12  13
ATOM     13  C   UNL     1     -50.661 121.379 -11.358  1.00  0.00    -0.000 C 
BRANCH  13  14
ATOM     14  C   UNL     1     -49.180 121.760 -11.536  1.00  0.00    -0.000 C 
BRANCH  14  15
ATOM     15  C   UNL     1     -48.925 123.205 -12.015  1.00  0.00    -0.000 C 
BRANCH  15  16
ATOM     16  C   UNL     1     -48.907 124.265 -10.900  1.00  0.00    -0.003 C 
ATOM     17  C   UNL     1     -48.875 123.656  -9.499  1.00  0.00     0.004 C 
ENDBRANCH  15  16
ENDBRANCH  14  15
ENDBRANCH  13  14
ENDBRANCH  12  13
ENDBRANCH  11  12
ENDBRANCH  10  11
ENDBRANCH   1  10
TORSDOF 13
ENDMDL
MODEL 3
REMARK VINA RESULT:    -2.334      3.104      6.401
REMARK INTER + INTRA:          -5.766
REMARK INTER:                  -4.671
REMARK INTRA:                  -1.095
REMARK UNBOUND:                -1.658
REMARK SMILES CCCCCCCCCCCCCCC(=O)[O-]
REMARK SMILES IDX 9 1 10 2 11 3 12 4 13 5 14 6 15 7 16 8 17 9 8 10 7 11 6 12
REMARK SMILES IDX 5 13 4 14 3 15 2 16 1 17
REMARK H PARENT
REMARK Flexibility Score: inf
ROOT
ATOM      1  C   UNL     1     -53.187 119.880 -11.048  1.00  0.00     0.000 C 
ENDROOT
BRANCH   1   2
ATOM      2  C   UNL     1     -52.137 120.250 -12.110  1.00  0.00     0.000 C 
BRANCH   2   3
ATOM      3  C   UNL     1     -51.324 121.500 -11.740  1.00  0.00     0.000 C 
BRANCH   3   4
ATOM      4  C   UNL     1     -49.843 121.155 -11.548  1.00  0.00     0.000 C 
BRANCH   4   5
ATOM      5  C   UNL     1     -49.350 121.593 -10.161  1.00  0.00     0.006 C 
BRANCH   5   6
ATOM      6  C   UNL     1     -48.875 123.052 -10.148  1.00  0.00     0.053 C 
BRANCH   6   7
ATOM      7  C   UNL     1     -49.559 123.847  -9.080  1.00  0.00     0.041 C 
ATOM      8  O   UNL     1     -48.965 124.811  -8.526  1.00  0.00    -0.550 OA
ATOM      9  O   UNL     1     -50.843 123.507  -8.672  1.00  0.00    -0.550 OA
ENDBRANCH   6   7
ENDBRANCH   5   6
ENDBRANCH   4   5
ENDBRANCH   3   4
ENDBRANCH   2   3
ENDBRANCH   1   2
BRANCH   1  10
ATOM     10  C   UNL     1     -52.892 120.410  -9.633  1.00  0.00     0.000 C 
BRANCH  10  11
ATOM     11  C   UNL     1     -53.971 121.381  -9.122  1.00  0.00    -0.000 C 
BRANCH  11  12
ATOM     12  C   UNL     1     -54.207 122.562 -10.076  1.00  0.00    -0.000 C 
BRANCH  12  13
ATOM     13  C   UNL     1     -55.576 122.489 -10.775  1.00  0.00    -0.000 C 
BRANCH  13  14
ATOM     14  C   UNL     1     -55.521 121.750 -12.124  1.00  0.00    -0.000 C 
BRANCH  14  15
ATOM     15  C   UNL     1     -56.141 120.337 -12.125  1.00  0.00    -0.000 C 
BRANCH  15  16
ATOM     16  C   UNL     1     -57.404 120.181 -11.261  1.00  0.00    -0.003 C 
ATOM     17  C   UNL     1     -57.149 119.412  -9.965  1.00  0.00     0.004 C 
ENDBRANCH  15  16
ENDBRANCH  14  15
ENDBRANCH  13  14
ENDBRANCH  12  13
ENDBRANCH  11  12
ENDBRANCH  10  11
ENDBRANCH   1  10
TORSDOF 13
ENDMDL
MODEL 4
REMARK VINA RESULT:    -2.315      1.752      3.237
REMARK INTER + INTRA:          -5.733
REMARK INTER:                  -4.805
REMARK INTRA:                  -0.928
REMARK UNBOUND:                -1.658
REMARK SMILES CCCCCCCCCCCCCCC(=O)[O-]
REMARK SMILES IDX 9 1 10 2 11 3 12 4 13 5 14 6 15 7 16 8 17 9 8 10 7 11 6 12
REMARK SMILES IDX 5 13 4 14 3 15 2 16 1 17
REMARK H PARENT
REMARK Flexibility Score: inf
ROOT
ATOM      1  C   UNL     1     -52.263 120.667 -10.246  1.00  0.00     0.000 C 
ENDROOT
BRANCH   1   2
ATOM      2  C   UNL     1     -53.537 119.879 -10.600  1.00  0.00     0.000 C 
BRANCH   2   3
ATOM      3  C   UNL     1     -54.048 120.172 -12.019  1.00  0.00     0.000 C 
BRANCH   3   4
ATOM      4  C   UNL     1     -55.555 119.910 -12.125  1.00  0.00     0.000 C 
BRANCH   4   5
ATOM      5  C   UNL     1     -56.119 119.391 -10.794  1.00  0.00     0.006 C 
BRANCH   5   6
ATOM      6  C   UNL     1     -57.211 120.309 -10.229  1.00  0.00     0.053 C 
BRANCH   6   7
ATOM      7  C   UNL     1     -56.650 121.615  -9.760  1.00  0.00     0.041 C 
ATOM      8  O   UNL     1     -56.229 122.461 -10.594  1.00  0.00    -0.550 OA
ATOM      9  O   UNL     1     -56.562 121.888  -8.401  1.00  0.00    -0.550 OA
ENDBRANCH   6   7
ENDBRANCH   5   6
ENDBRANCH   4   5
ENDBRANCH   3   4
ENDBRANCH   2   3
ENDBRANCH   1   2
BRANCH   1  10
ATOM     10  C   UNL     1     -51.578 121.361 -11.437  1.00  0.00     0.000 C 
BRANCH  10  11
ATOM     11  C   UNL     1     -50.063 121.538 -11.234  1.00  0.00    -0.000 C 
BRANCH  11  12
ATOM     12  C   UNL     1     -49.563 122.923 -11.673  1.00  0.00    -0.000 C 
BRANCH  12  13
ATOM     13  C   UNL     1     -48.936 123.717 -10.515  1.00  0.00    -0.000 C 
BRANCH  13  14
ATOM     14  C   UNL     1     -49.515 123.332  -9.142  1.00  0.00    -0.000 C 
BRANCH  14  15
ATOM     15  C   UNL     1     -50.832 124.040  -8.761  1.00  0.00    -0.000 C 
BRANCH  15  16
ATOM     16  C   UNL     1     -51.918 123.122  -8.177  1.00  0.00    -0.003 C 
ATOM     17  C   UNL     1     -53.328 123.506  -8.627  1.00  0.00     0.004 C 
ENDBRANCH  15  16
ENDBRANCH  14  15
ENDBRANCH  13  14
ENDBRANCH  12  13
ENDBRANCH  11  12
ENDBRANCH  10  11
ENDBRANCH   1  10
TORSDOF 13
ENDMDL
MODEL 5
REMARK VINA RESULT:    -2.228      3.279      6.098
REMARK INTER + INTRA:          -5.579
REMARK INTER:                  -5.394
REMARK INTRA:                  -0.185
REMARK UNBOUND:                -1.658
REMARK SMILES CCCCCCCCCCCCCCC(=O)[O-]
REMARK SMILES IDX 9 1 10 2 11 3 12 4 13 5 14 6 15 7 16 8 17 9 8 10 7 11 6 12
REMARK SMILES IDX 5 13 4 14 3 15 2 16 1 17
REMARK H PARENT
REMARK Flexibility Score: inf
ROOT
ATOM      1  C   UNL     1     -53.959 120.287 -11.528  1.00  0.00     0.000 C 
ENDROOT
BRANCH   1   2
ATOM      2  C   UNL     1     -52.543 120.100 -12.102  1.00  0.00     0.000 C 
BRANCH   2   3
ATOM      3  C   UNL     1     -51.464 120.827 -11.286  1.00  0.00     0.000 C 
BRANCH   3   4
ATOM      4  C   UNL     1     -51.148 122.199 -11.892  1.00  0.00     0.000 C 
BRANCH   4   5
ATOM      5  C   UNL     1     -49.633 122.398 -12.047  1.00  0.00     0.006 C 
BRANCH   5   6
ATOM      6  C   UNL     1     -49.107 123.553 -11.185  1.00  0.00     0.053 C 
BRANCH   6   7
ATOM      7  C   UNL     1     -49.021 123.171  -9.740  1.00  0.00     0.041 C 
ATOM      8  O   UNL     1     -48.876 121.964  -9.410  1.00  0.00    -0.550 OA
ATOM      9  O   UNL     1     -49.131 124.145  -8.756  1.00  0.00    -0.550 OA
ENDBRANCH   6   7
ENDBRANCH   5   6
ENDBRANCH   4   5
ENDBRANCH   3   4
ENDBRANCH   2   3
ENDBRANCH   1   2
BRANCH   1  10
ATOM     10  C   UNL     1     -54.751 121.465 -12.125  1.00  0.00     0.000 C 
BRANCH  10  11
ATOM     11  C   UNL     1     -56.274 121.269 -12.031  1.00  0.00    -0.000 C 
BRANCH  11  12
ATOM     12  C   UNL     1     -56.662 119.909 -11.430  1.00  0.00    -0.000 C 
BRANCH  12  13
ATOM     13  C   UNL     1     -56.568 119.896  -9.895  1.00  0.00    -0.000 C 
BRANCH  13  14
ATOM     14  C   UNL     1     -56.740 121.293  -9.272  1.00  0.00    -0.000 C 
BRANCH  14  15
ATOM     15  C   UNL     1     -55.599 121.740  -8.334  1.00  0.00    -0.000 C 
BRANCH  15  16
ATOM     16  C   UNL     1     -54.211 121.821  -8.992  1.00  0.00    -0.003 C 
ATOM     17  C   UNL     1     -53.473 123.120  -8.669  1.00  0.00     0.004 C 
ENDBRANCH  15  16
ENDBRANCH  14  15
ENDBRANCH  13  14
ENDBRANCH  12  13
ENDBRANCH  11  12
ENDBRANCH  10  11
ENDBRANCH   1  10
TORSDOF 13
ENDMDL
MODEL 6
REMARK VINA RESULT:    -2.191      2.291      3.295
REMARK INTER + INTRA:          -5.513
REMARK INTER:                  -4.856
REMARK INTRA:                  -0.657
REMARK UNBOUND:                -1.658
REMARK SMILES CCCCCCCCCCCCCCC(=O)[O-]
REMARK SMILES IDX 9 1 10 2 11 3 12 4 13 5 14 6 15 7 16 8 17 9 8 10 7 11 6 12
REMARK SMILES IDX 5 13 4 14 3 15 2 16 1 17
REMARK H PARENT
REMARK Flexibility Score: inf
ROOT
ATOM      1  C   UNL     1     -54.169 119.931 -11.217  1.00  0.00     0.000 C 
ENDROOT
BRANCH   1   2
ATOM      2  C   UNL     1     -55.042 120.861 -12.078  1.00  0.00     0.000 C 
BRANCH   2   3
ATOM      3  C   UNL     1     -56.227 121.458 -11.303  1.00  0.00     0.000 C 
BRANCH   3   4
ATOM      4  C   UNL     1     -56.376 120.792  -9.930  1.00  0.00     0.000 C 
BRANCH   4   5
ATOM      5  C   UNL     1     -55.950 121.747  -8.805  1.00  0.00     0.006 C 
BRANCH   5   6
ATOM      6  C   UNL     1     -54.450 121.652  -8.500  1.00  0.00     0.053 C 
BRANCH   6   7
ATOM      7  C   UNL     1     -53.724 122.901  -8.893  1.00  0.00     0.041 C 
ATOM      8  O   UNL     1     -54.107 123.571  -9.889  1.00  0.00    -0.550 OA
ATOM      9  O   UNL     1     -52.605 123.310  -8.178  1.00  0.00    -0.550 OA
ENDBRANCH   6   7
ENDBRANCH   5   6
ENDBRANCH   4   5
ENDBRANCH   3   4
ENDBRANCH   2   3
ENDBRANCH   1   2
BRANCH   1  10
ATOM     10  C   UNL     1     -52.666 119.961 -11.549  1.00  0.00     0.000 C 
BRANCH  10  11
ATOM     11  C   UNL     1     -51.935 121.150 -10.902  1.00  0.00    -0.000 C 
BRANCH  11  12
ATOM     12  C   UNL     1     -51.254 122.062 -11.935  1.00  0.00    -0.000 C 
BRANCH  12  13
ATOM     13  C   UNL     1     -49.726 121.885 -11.961  1.00  0.00    -0.000 C 
BRANCH  13  14
ATOM     14  C   UNL     1     -49.174 121.265 -10.665  1.00  0.00    -0.000 C 
BRANCH  14  15
ATOM     15  C   UNL     1     -48.877 122.269  -9.530  1.00  0.00    -0.000 C 
BRANCH  15  16
ATOM     16  C   UNL     1     -49.072 123.748  -9.903  1.00  0.00    -0.003 C 
ATOM     17  C   UNL     1     -49.306 124.643  -8.687  1.00  0.00     0.004 C 
ENDBRANCH  15  16
ENDBRANCH  14  15
ENDBRANCH  13  14
ENDBRANCH  12  13
ENDBRANCH  11  12
ENDBRANCH  10  11
ENDBRANCH   1  10
TORSDOF 13
ENDMDL
MODEL 7
REMARK VINA RESULT:    -2.089      3.216      6.068
REMARK INTER + INTRA:          -5.334
REMARK INTER:                  -4.011
REMARK INTRA:                  -1.323
REMARK UNBOUND:                -1.658
REMARK SMILES CCCCCCCCCCCCCCC(=O)[O-]
REMARK SMILES IDX 9 1 10 2 11 3 12 4 13 5 14 6 15 7 16 8 17 9 8 10 7 11 6 12
REMARK SMILES IDX 5 13 4 14 3 15 2 16 1 17
REMARK H PARENT
REMARK Flexibility Score: inf
ROOT
ATOM      1  C   UNL     1     -54.241 123.040 -10.701  1.00  0.00     0.000 C 
ENDROOT
BRANCH   1   2
ATOM      2  C   UNL     1     -53.537 123.248 -12.055  1.00  0.00     0.000 C 
BRANCH   2   3
ATOM      3  C   UNL     1     -52.005 123.220 -11.944  1.00  0.00     0.000 C 
BRANCH   3   4
ATOM      4  C   UNL     1     -51.473 121.786 -12.048  1.00  0.00     0.000 C 
BRANCH   4   5
ATOM      5  C   UNL     1     -49.939 121.772 -12.125  1.00  0.00     0.006 C 
BRANCH   5   6
ATOM      6  C   UNL     1     -49.307 122.922 -11.330  1.00  0.00     0.053 C 
BRANCH   6   7
ATOM      7  C   UNL     1     -49.104 122.556  -9.892  1.00  0.00     0.041 C 
ATOM      8  O   UNL     1     -48.875 121.360  -9.568  1.00  0.00    -0.550 OA
ATOM      9  O   UNL     1     -49.200 123.529  -8.906  1.00  0.00    -0.550 OA
ENDBRANCH   6   7
ENDBRANCH   5   6
ENDBRANCH   4   5
ENDBRANCH   3   4
ENDBRANCH   2   3
ENDBRANCH   1   2
BRANCH   1  10
ATOM     10  C   UNL     1     -53.297 122.923  -9.491  1.00  0.00     0.000 C 
BRANCH  10  11
ATOM     11  C   UNL     1     -53.577 121.677  -8.633  1.00  0.00    -0.000 C 
BRANCH  11  12
ATOM     12  C   UNL     1     -52.889 120.415  -9.177  1.00  0.00    -0.000 C 
BRANCH  12  13
ATOM     13  C   UNL     1     -53.878 119.452  -9.856  1.00  0.00    -0.000 C 
BRANCH  13  14
ATOM     14  C   UNL     1     -53.931 119.629 -11.384  1.00  0.00    -0.000 C 
BRANCH  14  15
ATOM     15  C   UNL     1     -55.291 120.092 -11.946  1.00  0.00    -0.000 C 
BRANCH  15  16
ATOM     16  C   UNL     1     -56.489 119.884 -11.004  1.00  0.00    -0.003 C 
ATOM     17  C   UNL     1     -57.834 120.127 -11.687  1.00  0.00     0.004 C 
ENDBRANCH  15  16
ENDBRANCH  14  15
ENDBRANCH  13  14
ENDBRANCH  12  13
ENDBRANCH  11  12
ENDBRANCH  10  11
ENDBRANCH   1  10
TORSDOF 13
ENDMDL
MODEL 8
REMARK VINA RESULT:    -1.811      1.083      2.739
REMARK INTER + INTRA:          -4.846
REMARK INTER:                  -3.428
REMARK INTRA:                  -1.418
REMARK UNBOUND:                -1.658
REMARK SMILES CCCCCCCCCCCCCCC(=O)[O-]
REMARK SMILES IDX 9 1 10 2 11 3 12 4 13 5 14 6 15 7 16 8 17 9 8 10 7 11 6 12
REMARK SMILES IDX 5 13 4 14 3 15 2 16 1 17
REMARK H PARENT
REMARK Flexibility Score: inf
ROOT
ATOM      1  C   UNL     1     -53.409 121.258  -8.549  1.00  0.00     0.000 C 
ENDROOT
BRANCH   1   2
ATOM      2  C   UNL     1     -52.618 120.563  -9.672  1.00  0.00     0.000 C 
BRANCH   2   3
ATOM      3  C   UNL     1     -53.507 120.111 -10.841  1.00  0.00     0.000 C 
BRANCH   3   4
ATOM      4  C   UNL     1     -53.725 121.255 -11.838  1.00  0.00     0.000 C 
BRANCH   4   5
ATOM      5  C   UNL     1     -55.220 121.460 -12.122  1.00  0.00     0.006 C 
BRANCH   5   6
ATOM      6  C   UNL     1     -56.087 121.210 -10.881  1.00  0.00     0.053 C 
BRANCH   6   7
ATOM      7  C   UNL     1     -57.060 120.093 -11.101  1.00  0.00     0.041 C 
ATOM      8  O   UNL     1     -58.166 120.317 -11.660  1.00  0.00    -0.550 OA
ATOM      9  O   UNL     1     -56.759 118.811 -10.660  1.00  0.00    -0.550 OA
ENDBRANCH   6   7
ENDBRANCH   5   6
ENDBRANCH   4   5
ENDBRANCH   3   4
ENDBRANCH   2   3
ENDBRANCH   1   2
BRANCH   1  10
ATOM     10  C   UNL     1     -53.259 122.789  -8.502  1.00  0.00     0.000 C 
BRANCH  10  11
ATOM     11  C   UNL     1     -51.945 123.280  -9.132  1.00  0.00    -0.000 C 
BRANCH  11  12
ATOM     12  C   UNL     1     -51.018 123.965  -8.115  1.00  0.00    -0.000 C 
BRANCH  12  13
ATOM     13  C   UNL     1     -49.664 124.361  -8.726  1.00  0.00    -0.000 C 
BRANCH  13  14
ATOM     14  C   UNL     1     -49.304 123.534  -9.973  1.00  0.00    -0.000 C 
BRANCH  14  15
ATOM     15  C   UNL     1     -48.875 122.078  -9.695  1.00  0.00    -0.000 C 
BRANCH  15  16
ATOM     16  C   UNL     1     -48.877 121.154 -10.924  1.00  0.00    -0.003 C 
ATOM     17  C   UNL     1     -49.986 121.489 -11.921  1.00  0.00     0.004 C 
ENDBRANCH  15  16
ENDBRANCH  14  15
ENDBRANCH  13  14
ENDBRANCH  12  13
ENDBRANCH  11  12
ENDBRANCH  10  11
ENDBRANCH   1  10
TORSDOF 13
ENDMDL
