MODEL 1
REMARK VINA RESULT:    -3.655      0.000      0.000
REMARK INTER + INTRA:          -3.998
REMARK INTER:                  -3.869
REMARK INTRA:                  -0.129
REMARK UNBOUND:                -0.129
REMARK SMILES C=C(C)[C@@H]1CC=C(C)CC1
REMARK SMILES IDX 8 1 7 2 6 3 5 4 4 5 10 6 9 7 2 8 1 9 3 10
REMARK H PARENT
REMARK Flexibility Score: inf
ROOT
ATOM      1  C   UNL     1      -8.258 -15.861  -2.639  1.00  0.00     0.039 C 
ATOM      2  C   UNL     1      -8.638 -17.304  -2.452  1.00  0.00    -0.077 C 
ATOM      3  C   UNL     1      -9.344 -17.927  -3.420  1.00  0.00    -0.027 C 
ATOM      4  C   UNL     1      -9.726 -19.385  -3.350  1.00  0.00     0.035 C 
ATOM      5  C   UNL     1      -9.731 -19.917  -1.906  1.00  0.00     0.018 C 
ATOM      6  C   UNL     1      -8.435 -19.505  -1.193  1.00  0.00     0.013 C 
ATOM      7  C   UNL     1      -8.330 -17.977  -1.128  1.00  0.00     0.031 C 
ENDROOT
BRANCH   5   8
ATOM      8  C   UNL     1      -9.936 -21.425  -1.871  1.00  0.00    -0.077 C 
ATOM      9  C   UNL     1     -10.790 -22.009  -2.728  1.00  0.00     0.008 C 
ATOM     10  C   UNL     1      -9.187 -22.297  -0.894  1.00  0.00     0.039 C 
ENDBRANCH   5   8
TORSDOF 1
ENDMDL
MODEL 2
REMARK VINA RESULT:    -3.498     13.002     14.346
REMARK INTER + INTRA:          -3.831
REMARK INTER:                  -3.705
REMARK INTRA:                  -0.126
REMARK UNBOUND:                -0.129
REMARK SMILES C=C(C)[C@@H]1CC=C(C)CC1
REMARK SMILES IDX 8 1 7 2 6 3 5 4 4 5 10 6 9 7 2 8 1 9 3 10
REMARK H PARENT
REMARK Flexibility Score: inf
ROOT
ATOM      1  C   UNL     1      -8.021 -19.787   8.612  1.00  0.00     0.039 C 
ATOM      2  C   UNL     1      -8.470 -19.057   9.847  1.00  0.00    -0.077 C 
ATOM      3  C   UNL     1      -7.884 -19.345  11.029  1.00  0.00    -0.027 C 
ATOM      4  C   UNL     1      -8.228 -18.630  12.314  1.00  0.00     0.035 C 
ATOM      5  C   UNL     1      -9.623 -17.982  12.264  1.00  0.00     0.018 C 
ATOM      6  C   UNL     1      -9.781 -17.183  10.962  1.00  0.00     0.013 C 
ATOM      7  C   UNL     1      -9.656 -18.115   9.751  1.00  0.00     0.031 C 
ENDROOT
BRANCH   5   8
ATOM      8  C   UNL     1      -9.874 -17.114  13.489  1.00  0.00    -0.077 C 
ATOM      9  C   UNL     1     -11.121 -16.712  13.785  1.00  0.00     0.008 C 
ATOM     10  C   UNL     1      -8.747 -16.695  14.401  1.00  0.00     0.039 C 
ENDBRANCH   5   8
TORSDOF 1
ENDMDL
MODEL 3
REMARK VINA RESULT:    -3.389     13.086     14.350
REMARK INTER + INTRA:          -3.716
REMARK INTER:                  -3.584
REMARK INTRA:                  -0.132
REMARK UNBOUND:                -0.129
REMARK SMILES C=C(C)[C@@H]1CC=C(C)CC1
REMARK SMILES IDX 8 1 7 2 6 3 5 4 4 5 10 6 9 7 2 8 1 9 3 10
REMARK H PARENT
REMARK Flexibility Score: inf
ROOT
ATOM      1  C   UNL     1      -8.026 -19.786   8.628  1.00  0.00     0.039 C 
ATOM      2  C   UNL     1      -8.501 -19.145   9.903  1.00  0.00    -0.077 C 
ATOM      3  C   UNL     1      -9.338 -18.088   9.834  1.00  0.00    -0.027 C 
ATOM      4  C   UNL     1      -9.911 -17.411  11.055  1.00  0.00     0.035 C 
ATOM      5  C   UNL     1      -9.057 -17.658  12.311  1.00  0.00     0.018 C 
ATOM      6  C   UNL     1      -8.733 -19.154  12.436  1.00  0.00     0.013 C 
ATOM      7  C   UNL     1      -7.923 -19.622  11.222  1.00  0.00     0.031 C 
ENDROOT
BRANCH   5   8
ATOM      8  C   UNL     1      -9.745 -17.127  13.562  1.00  0.00    -0.077 C 
ATOM      9  C   UNL     1     -11.033 -16.750  13.513  1.00  0.00     0.008 C 
ATOM     10  C   UNL     1      -9.012 -17.021  14.876  1.00  0.00     0.039 C 
ENDBRANCH   5   8
TORSDOF 1
ENDMDL
MODEL 4
REMARK VINA RESULT:    -3.306      1.177      2.114
REMARK INTER + INTRA:          -3.628
REMARK INTER:                  -3.506
REMARK INTRA:                  -0.123
REMARK UNBOUND:                -0.129
REMARK SMILES C=C(C)[C@@H]1CC=C(C)CC1
REMARK SMILES IDX 8 1 7 2 6 3 5 4 4 5 10 6 9 7 2 8 1 9 3 10
REMARK H PARENT
REMARK Flexibility Score: inf
ROOT
ATOM      1  C   UNL     1      -9.065 -16.567  -2.778  1.00  0.00     0.039 C 
ATOM      2  C   UNL     1      -9.349 -18.043  -2.733  1.00  0.00    -0.077 C 
ATOM      3  C   UNL     1      -9.962 -18.560  -1.647  1.00  0.00    -0.027 C 
ATOM      4  C   UNL     1     -10.338 -20.018  -1.530  1.00  0.00     0.035 C 
ATOM      5  C   UNL     1      -9.499 -20.911  -2.460  1.00  0.00     0.018 C 
ATOM      6  C   UNL     1      -9.473 -20.313  -3.874  1.00  0.00     0.013 C 
ATOM      7  C   UNL     1      -8.823 -18.925  -3.849  1.00  0.00     0.031 C 
ENDROOT
BRANCH   5   8
ATOM      8  C   UNL     1     -10.015 -22.344  -2.466  1.00  0.00    -0.077 C 
ATOM      9  C   UNL     1      -9.848 -23.124  -1.385  1.00  0.00     0.008 C 
ATOM     10  C   UNL     1     -10.728 -22.917  -3.665  1.00  0.00     0.039 C 
ENDBRANCH   5   8
TORSDOF 1
ENDMDL
MODEL 5
REMARK VINA RESULT:    -3.255     23.307     24.106
REMARK INTER + INTRA:          -3.574
REMARK INTER:                  -3.445
REMARK INTRA:                  -0.130
REMARK UNBOUND:                -0.129
REMARK SMILES C=C(C)[C@@H]1CC=C(C)CC1
REMARK SMILES IDX 8 1 7 2 6 3 5 4 4 5 10 6 9 7 2 8 1 9 3 10
REMARK H PARENT
REMARK Flexibility Score: inf
ROOT
ATOM      1  C   UNL     1     -27.435 -20.442  16.103  1.00  0.00     0.039 C 
ATOM      2  C   UNL     1     -27.366 -19.458  14.969  1.00  0.00    -0.077 C 
ATOM      3  C   UNL     1     -28.087 -19.692  13.851  1.00  0.00    -0.027 C 
ATOM      4  C   UNL     1     -28.125 -18.739  12.681  1.00  0.00     0.035 C 
ATOM      5  C   UNL     1     -26.897 -17.812  12.646  1.00  0.00     0.018 C 
ATOM      6  C   UNL     1     -26.666 -17.197  14.035  1.00  0.00     0.013 C 
ATOM      7  C   UNL     1     -26.389 -18.301  15.062  1.00  0.00     0.031 C 
ENDROOT
BRANCH   5   8
ATOM      8  C   UNL     1     -27.042 -16.740  11.575  1.00  0.00    -0.077 C 
ATOM      9  C   UNL     1     -26.247 -15.658  11.592  1.00  0.00     0.008 C 
ATOM     10  C   UNL     1     -28.064 -16.865  10.472  1.00  0.00     0.039 C 
ENDBRANCH   5   8
TORSDOF 1
ENDMDL
MODEL 6
REMARK VINA RESULT:    -3.195     13.312     14.731
REMARK INTER + INTRA:          -3.511
REMARK INTER:                  -3.381
REMARK INTRA:                  -0.130
REMARK UNBOUND:                -0.129
REMARK SMILES C=C(C)[C@@H]1CC=C(C)CC1
REMARK SMILES IDX 8 1 7 2 6 3 5 4 4 5 10 6 9 7 2 8 1 9 3 10
REMARK H PARENT
REMARK Flexibility Score: inf
ROOT
ATOM      1  C   UNL     1     -10.106 -20.266  15.425  1.00  0.00     0.039 C 
ATOM      2  C   UNL     1      -9.865 -19.760  14.030  1.00  0.00    -0.077 C 
ATOM      3  C   UNL     1      -9.772 -18.429  13.821  1.00  0.00    -0.027 C 
ATOM      4  C   UNL     1      -9.479 -17.827  12.468  1.00  0.00     0.035 C 
ATOM      5  C   UNL     1      -9.841 -18.781  11.317  1.00  0.00     0.018 C 
ATOM      6  C   UNL     1      -9.264 -20.177  11.594  1.00  0.00     0.013 C 
ATOM      7  C   UNL     1      -9.865 -20.751  12.882  1.00  0.00     0.031 C 
ENDROOT
BRANCH   5   8
ATOM      8  C   UNL     1      -9.369 -18.235   9.976  1.00  0.00    -0.077 C 
ATOM      9  C   UNL     1      -8.758 -19.045   9.097  1.00  0.00     0.008 C 
ATOM     10  C   UNL     1      -9.581 -16.790   9.597  1.00  0.00     0.039 C 
ENDBRANCH   5   8
TORSDOF 1
ENDMDL
MODEL 7
REMARK VINA RESULT:    -3.171     13.739     15.030
REMARK INTER + INTRA:          -3.485
REMARK INTER:                  -3.355
REMARK INTRA:                  -0.129
REMARK UNBOUND:                -0.129
REMARK SMILES C=C(C)[C@@H]1CC=C(C)CC1
REMARK SMILES IDX 8 1 7 2 6 3 5 4 4 5 10 6 9 7 2 8 1 9 3 10
REMARK H PARENT
REMARK Flexibility Score: inf
ROOT
ATOM      1  C   UNL     1     -10.300 -19.010  15.934  1.00  0.00     0.039 C 
ATOM      2  C   UNL     1     -10.061 -18.756  14.471  1.00  0.00    -0.077 C 
ATOM      3  C   UNL     1      -9.763 -19.798  13.665  1.00  0.00    -0.027 C 
ATOM      4  C   UNL     1      -9.558 -19.653  12.177  1.00  0.00     0.035 C 
ATOM      5  C   UNL     1      -9.180 -18.216  11.778  1.00  0.00     0.018 C 
ATOM      6  C   UNL     1     -10.140 -17.220  12.446  1.00  0.00     0.013 C 
ATOM      7  C   UNL     1     -10.032 -17.325  13.972  1.00  0.00     0.031 C 
ENDROOT
BRANCH   5   8
ATOM      8  C   UNL     1      -9.160 -18.048  10.265  1.00  0.00    -0.077 C 
ATOM      9  C   UNL     1      -9.598 -16.906   9.709  1.00  0.00     0.008 C 
ATOM     10  C   UNL     1      -8.646 -19.139   9.359  1.00  0.00     0.039 C 
ENDBRANCH   5   8
TORSDOF 1
ENDMDL
MODEL 8
REMARK VINA RESULT:    -3.003      0.787      4.830
REMARK INTER + INTRA:          -3.307
REMARK INTER:                  -3.177
REMARK INTRA:                  -0.130
REMARK UNBOUND:                -0.129
REMARK SMILES C=C(C)[C@@H]1CC=C(C)CC1
REMARK SMILES IDX 8 1 7 2 6 3 5 4 4 5 10 6 9 7 2 8 1 9 3 10
REMARK H PARENT
REMARK Flexibility Score: inf
ROOT
ATOM      1  C   UNL     1      -9.946 -21.257  -2.077  1.00  0.00     0.039 C 
ATOM      2  C   UNL     1      -9.459 -19.851  -2.294  1.00  0.00    -0.077 C 
ATOM      3  C   UNL     1      -8.886 -19.189  -1.265  1.00  0.00    -0.027 C 
ATOM      4  C   UNL     1      -8.319 -17.797  -1.396  1.00  0.00     0.035 C 
ATOM      5  C   UNL     1      -8.929 -17.030  -2.583  1.00  0.00     0.018 C 
ATOM      6  C   UNL     1      -8.904 -17.910  -3.841  1.00  0.00     0.013 C 
ATOM      7  C   UNL     1      -9.745 -19.173  -3.620  1.00  0.00     0.031 C 
ENDROOT
BRANCH   5   8
ATOM      8  C   UNL     1      -8.216 -15.704  -2.811  1.00  0.00    -0.077 C 
ATOM      9  C   UNL     1      -7.884 -15.324  -4.056  1.00  0.00     0.008 C 
ATOM     10  C   UNL     1      -7.875 -14.787  -1.663  1.00  0.00     0.039 C 
ENDBRANCH   5   8
TORSDOF 1
ENDMDL
