MODEL 1
REMARK VINA RESULT:    -3.579      0.000      0.000
REMARK INTER + INTRA:          -3.809
REMARK INTER:                  -3.789
REMARK INTRA:                  -0.020
REMARK UNBOUND:                -0.020
REMARK SMILES O=C([O-])c1cccnc1
REMARK SMILES IDX 4 1 5 2 9 3 6 4 8 5 7 6 2 7 1 8 3 9
REMARK H PARENT
REMARK Flexibility Score: inf
ROOT
ATOM      1  C   UNL     1      30.061  10.617  28.864  1.00  0.00     0.016 A 
ATOM      2  C   UNL     1      29.566   9.308  28.987  1.00  0.00     0.013 A 
ATOM      3  C   UNL     1      30.461  11.063  27.593  1.00  0.00     0.120 A 
ATOM      4  C   UNL     1      29.480   8.483  27.865  1.00  0.00     0.021 A 
ATOM      5  N   UNL     1      30.368  10.238  26.516  1.00  0.00    -0.264 NA
ATOM      6  C   UNL     1      29.891   8.970  26.623  1.00  0.00     0.111 A 
ENDROOT
BRANCH   1   7
ATOM      7  C   UNL     1      30.159  11.508  30.041  1.00  0.00     0.073 C 
ATOM      8  O   UNL     1      29.875  12.730  29.943  1.00  0.00    -0.545 OA
ATOM      9  O   UNL     1      30.567  11.006  31.272  1.00  0.00    -0.545 OA
ENDBRANCH   1   7
TORSDOF 1
ENDMDL
MODEL 2
REMARK VINA RESULT:    -3.489      0.916      1.602
REMARK INTER + INTRA:          -3.713
REMARK INTER:                  -3.692
REMARK INTRA:                  -0.021
REMARK UNBOUND:                -0.020
REMARK SMILES O=C([O-])c1cccnc1
REMARK SMILES IDX 4 1 5 2 9 3 6 4 8 5 7 6 2 7 1 8 3 9
REMARK H PARENT
REMARK Flexibility Score: inf
ROOT
ATOM      1  C   UNL     1      30.049  10.645  28.856  1.00  0.00     0.016 A 
ATOM      2  C   UNL     1      30.456  11.081  27.583  1.00  0.00     0.013 A 
ATOM      3  C   UNL     1      29.604   9.320  28.997  1.00  0.00     0.120 A 
ATOM      4  C   UNL     1      30.414  10.206  26.497  1.00  0.00     0.021 A 
ATOM      5  N   UNL     1      29.571   8.488  27.921  1.00  0.00    -0.264 NA
ATOM      6  C   UNL     1      29.963   8.899  26.686  1.00  0.00     0.111 A 
ENDROOT
BRANCH   1   7
ATOM      7  C   UNL     1      30.087  11.556  30.021  1.00  0.00     0.073 C 
ATOM      8  O   UNL     1      29.786  12.771  29.892  1.00  0.00    -0.545 OA
ATOM      9  O   UNL     1      30.456  11.080  31.274  1.00  0.00    -0.545 OA
ENDBRANCH   1   7
TORSDOF 1
ENDMDL
MODEL 3
REMARK VINA RESULT:    -3.331     16.771     17.590
REMARK INTER + INTRA:          -3.546
REMARK INTER:                  -3.524
REMARK INTRA:                  -0.022
REMARK UNBOUND:                -0.020
REMARK SMILES O=C([O-])c1cccnc1
REMARK SMILES IDX 4 1 5 2 9 3 6 4 8 5 7 6 2 7 1 8 3 9
REMARK H PARENT
REMARK Flexibility Score: inf
ROOT
ATOM      1  C   UNL     1      19.322  14.043  15.753  1.00  0.00     0.016 A 
ATOM      2  C   UNL     1      17.964  14.343  15.945  1.00  0.00     0.013 A 
ATOM      3  C   UNL     1      20.028  14.744  14.760  1.00  0.00     0.120 A 
ATOM      4  C   UNL     1      17.344  15.318  15.161  1.00  0.00     0.021 A 
ATOM      5  N   UNL     1      19.400  15.688  14.009  1.00  0.00    -0.264 NA
ATOM      6  C   UNL     1      18.086  15.987  14.187  1.00  0.00     0.111 A 
ENDROOT
BRANCH   1   7
ATOM      7  C   UNL     1      19.999  13.014  16.573  1.00  0.00     0.073 C 
ATOM      8  O   UNL     1      21.237  13.083  16.792  1.00  0.00    -0.545 OA
ATOM      9  O   UNL     1      19.275  11.958  17.115  1.00  0.00    -0.545 OA
ENDBRANCH   1   7
TORSDOF 1
ENDMDL
MODEL 4
REMARK VINA RESULT:    -3.311     16.421     17.261
REMARK INTER + INTRA:          -3.525
REMARK INTER:                  -3.507
REMARK INTRA:                  -0.018
REMARK UNBOUND:                -0.020
REMARK SMILES O=C([O-])c1cccnc1
REMARK SMILES IDX 4 1 5 2 9 3 6 4 8 5 7 6 2 7 1 8 3 9
REMARK H PARENT
REMARK Flexibility Score: inf
ROOT
ATOM      1  C   UNL     1      18.529  14.637  16.468  1.00  0.00     0.016 A 
ATOM      2  C   UNL     1      18.883  13.305  16.199  1.00  0.00     0.013 A 
ATOM      3  C   UNL     1      19.169  15.297  17.531  1.00  0.00     0.120 A 
ATOM      4  C   UNL     1      19.849  12.665  16.978  1.00  0.00     0.021 A 
ATOM      5  N   UNL     1      20.106  14.651  18.276  1.00  0.00    -0.264 NA
ATOM      6  C   UNL     1      20.456  13.362  18.024  1.00  0.00     0.111 A 
ENDROOT
BRANCH   1   7
ATOM      7  C   UNL     1      17.509  15.334  15.654  1.00  0.00     0.073 C 
ATOM      8  O   UNL     1      16.476  15.810  16.194  1.00  0.00    -0.545 OA
ATOM      9  O   UNL     1      17.678  15.472  14.281  1.00  0.00    -0.545 OA
ENDBRANCH   1   7
TORSDOF 1
ENDMDL
MODEL 5
REMARK VINA RESULT:    -3.292     16.476     17.256
REMARK INTER + INTRA:          -3.505
REMARK INTER:                  -3.486
REMARK INTRA:                  -0.018
REMARK UNBOUND:                -0.020
REMARK SMILES O=C([O-])c1cccnc1
REMARK SMILES IDX 4 1 5 2 9 3 6 4 8 5 7 6 2 7 1 8 3 9
REMARK H PARENT
REMARK Flexibility Score: inf
ROOT
ATOM      1  C   UNL     1      19.002  14.447  16.656  1.00  0.00     0.016 A 
ATOM      2  C   UNL     1      17.827  14.456  15.886  1.00  0.00     0.013 A 
ATOM      3  C   UNL     1      19.333  15.604  17.382  1.00  0.00     0.120 A 
ATOM      4  C   UNL     1      17.018  15.593  15.854  1.00  0.00     0.021 A 
ATOM      5  N   UNL     1      18.529  16.700  17.333  1.00  0.00    -0.264 NA
ATOM      6  C   UNL     1      17.389  16.718  16.592  1.00  0.00     0.111 A 
ENDROOT
BRANCH   1   7
ATOM      7  C   UNL     1      19.872  13.252  16.705  1.00  0.00     0.073 C 
ATOM      8  O   UNL     1      21.103  13.347  16.457  1.00  0.00    -0.545 OA
ATOM      9  O   UNL     1      19.341  12.008  17.026  1.00  0.00    -0.545 OA
ENDBRANCH   1   7
TORSDOF 1
ENDMDL
MODEL 6
REMARK VINA RESULT:    -3.271     16.878     17.550
REMARK INTER + INTRA:          -3.483
REMARK INTER:                  -3.466
REMARK INTRA:                  -0.017
REMARK UNBOUND:                -0.020
REMARK SMILES O=C([O-])c1cccnc1
REMARK SMILES IDX 4 1 5 2 9 3 6 4 8 5 7 6 2 7 1 8 3 9
REMARK H PARENT
REMARK Flexibility Score: inf
ROOT
ATOM      1  C   UNL     1      17.980  16.353  17.404  1.00  0.00     0.016 A 
ATOM      2  C   UNL     1      17.139  15.997  16.337  1.00  0.00     0.013 A 
ATOM      3  C   UNL     1      19.092  15.540  17.679  1.00  0.00     0.120 A 
ATOM      4  C   UNL     1      17.415  14.859  15.577  1.00  0.00     0.021 A 
ATOM      5  N   UNL     1      19.338  14.436  16.924  1.00  0.00    -0.264 NA
ATOM      6  C   UNL     1      18.532  14.082  15.889  1.00  0.00     0.111 A 
ENDROOT
BRANCH   1   7
ATOM      7  C   UNL     1      17.705  17.555  18.221  1.00  0.00     0.073 C 
ATOM      8  O   UNL     1      17.851  18.707  17.734  1.00  0.00    -0.545 OA
ATOM      9  O   UNL     1      17.282  17.429  19.540  1.00  0.00    -0.545 OA
ENDBRANCH   1   7
TORSDOF 1
ENDMDL
MODEL 7
REMARK VINA RESULT:    -3.258     14.960     15.777
REMARK INTER + INTRA:          -3.469
REMARK INTER:                  -3.448
REMARK INTRA:                  -0.021
REMARK UNBOUND:                -0.020
REMARK SMILES O=C([O-])c1cccnc1
REMARK SMILES IDX 4 1 5 2 9 3 6 4 8 5 7 6 2 7 1 8 3 9
REMARK H PARENT
REMARK Flexibility Score: inf
ROOT
ATOM      1  C   UNL     1      19.967  13.380  17.537  1.00  0.00     0.016 A 
ATOM      2  C   UNL     1      19.222  13.173  16.364  1.00  0.00     0.013 A 
ATOM      3  C   UNL     1      19.884  14.634  18.168  1.00  0.00     0.120 A 
ATOM      4  C   UNL     1      18.424  14.196  15.850  1.00  0.00     0.021 A 
ATOM      5  N   UNL     1      19.099  15.615  17.645  1.00  0.00    -0.264 NA
ATOM      6  C   UNL     1      18.375  15.424  16.511  1.00  0.00     0.111 A 
ENDROOT
BRANCH   1   7
ATOM      7  C   UNL     1      20.818  12.309  18.099  1.00  0.00     0.073 C 
ATOM      8  O   UNL     1      20.443  11.108  18.060  1.00  0.00    -0.545 OA
ATOM      9  O   UNL     1      22.044  12.615  18.678  1.00  0.00    -0.545 OA
ENDBRANCH   1   7
TORSDOF 1
ENDMDL
MODEL 8
REMARK VINA RESULT:    -3.205     18.094     18.586
REMARK INTER + INTRA:          -3.413
REMARK INTER:                  -3.390
REMARK INTRA:                  -0.023
REMARK UNBOUND:                -0.020
REMARK SMILES O=C([O-])c1cccnc1
REMARK SMILES IDX 4 1 5 2 9 3 6 4 8 5 7 6 2 7 1 8 3 9
REMARK H PARENT
REMARK Flexibility Score: inf
ROOT
ATOM      1  C   UNL     1      17.825  17.192  16.577  1.00  0.00     0.016 A 
ATOM      2  C   UNL     1      17.144  15.967  16.482  1.00  0.00     0.013 A 
ATOM      3  C   UNL     1      18.554  17.639  15.461  1.00  0.00     0.120 A 
ATOM      4  C   UNL     1      17.198  15.225  15.302  1.00  0.00     0.021 A 
ATOM      5  N   UNL     1      18.592  16.896  14.323  1.00  0.00    -0.264 NA
ATOM      6  C   UNL     1      17.936  15.710  14.221  1.00  0.00     0.111 A 
ENDROOT
BRANCH   1   7
ATOM      7  C   UNL     1      17.780  17.995  17.818  1.00  0.00     0.073 C 
ATOM      8  O   UNL     1      17.445  17.466  18.910  1.00  0.00    -0.545 OA
ATOM      9  O   UNL     1      18.108  19.346  17.796  1.00  0.00    -0.545 OA
ENDBRANCH   1   7
TORSDOF 1
ENDMDL
MODEL 9
REMARK VINA RESULT:    -3.198      1.549      1.959
REMARK INTER + INTRA:          -3.405
REMARK INTER:                  -3.381
REMARK INTRA:                  -0.024
REMARK UNBOUND:                -0.020
REMARK SMILES O=C([O-])c1cccnc1
REMARK SMILES IDX 4 1 5 2 9 3 6 4 8 5 7 6 2 7 1 8 3 9
REMARK H PARENT
REMARK Flexibility Score: inf
ROOT
ATOM      1  C   UNL     1      29.057  11.045  28.892  1.00  0.00     0.016 A 
ATOM      2  C   UNL     1      29.761   9.863  29.175  1.00  0.00     0.013 A 
ATOM      3  C   UNL     1      28.015  10.993  27.951  1.00  0.00     0.120 A 
ATOM      4  C   UNL     1      29.421   8.673  28.529  1.00  0.00     0.021 A 
ATOM      5  N   UNL     1      27.704   9.821  27.335  1.00  0.00    -0.264 NA
ATOM      6  C   UNL     1      28.379   8.671  27.601  1.00  0.00     0.111 A 
ENDROOT
BRANCH   1   7
ATOM      7  C   UNL     1      29.401  12.316  29.566  1.00  0.00     0.073 C 
ATOM      8  O   UNL     1      30.461  12.418  30.237  1.00  0.00    -0.545 OA
ATOM      9  O   UNL     1      28.557  13.417  29.466  1.00  0.00    -0.545 OA
ENDBRANCH   1   7
TORSDOF 1
ENDMDL
