MODEL 1
REMARK VINA RESULT:    -5.841      0.000      0.000
REMARK INTER + INTRA:          -5.841
REMARK INTER:                  -5.841
REMARK INTRA:                   0.000
REMARK UNBOUND:                 0.000
REMARK SMILES c1ccc2nc3ccccc3cc2c1
REMARK SMILES IDX 1 1 2 2 3 3 4 4 13 5 14 6 12 7 11 8 10 9 9 10 8 11 7 12 6 13
REMARK SMILES IDX 5 14
REMARK H PARENT
REMARK Flexibility Score: inf
ROOT
ATOM      1  C   UNL     1      61.484  58.716 245.581  1.00  0.00     0.001 A 
ATOM      2  C   UNL     1      61.319  57.440 246.129  1.00  0.00     0.002 A 
ATOM      3  C   UNL     1      60.036  56.941 246.377  1.00  0.00     0.029 A 
ATOM      4  C   UNL     1      58.912  57.719 246.076  1.00  0.00     0.071 A 
ATOM      5  C   UNL     1      59.076  59.010 245.522  1.00  0.00     0.001 A 
ATOM      6  C   UNL     1      60.367  59.502 245.277  1.00  0.00     0.010 A 
ATOM      7  C   UNL     1      57.941  59.776 245.227  1.00  0.00     0.020 A 
ATOM      8  C   UNL     1      56.665  59.256 245.484  1.00  0.00     0.001 A 
ATOM      9  C   UNL     1      55.508  59.996 245.200  1.00  0.00     0.010 A 
ATOM     10  C   UNL     1      54.247  59.453 245.466  1.00  0.00     0.001 A 
ATOM     11  C   UNL     1      54.134  58.172 246.015  1.00  0.00     0.002 A 
ATOM     12  C   UNL     1      55.281  57.425 246.300  1.00  0.00     0.029 A 
ATOM     13  C   UNL     1      56.548  57.959 246.038  1.00  0.00     0.071 A 
ATOM     14  N   UNL     1      57.664  57.235 246.316  1.00  0.00    -0.248 NA
ENDROOT
TORSDOF 0
ENDMDL
MODEL 2
REMARK VINA RESULT:    -5.840      0.825      2.118
REMARK INTER + INTRA:          -5.840
REMARK INTER:                  -5.840
REMARK INTRA:                   0.000
REMARK UNBOUND:                 0.000
REMARK SMILES c1ccc2nc3ccccc3cc2c1
REMARK SMILES IDX 1 1 2 2 3 3 4 4 13 5 14 6 12 7 11 8 10 9 9 10 8 11 7 12 6 13
REMARK SMILES IDX 5 14
REMARK H PARENT
REMARK Flexibility Score: inf
ROOT
ATOM      1  C   UNL     1      61.370  57.545 246.100  1.00  0.00     0.001 A 
ATOM      2  C   UNL     1      61.480  58.818 245.531  1.00  0.00     0.002 A 
ATOM      3  C   UNL     1      60.331  59.557 245.234  1.00  0.00     0.029 A 
ATOM      4  C   UNL     1      59.065  59.024 245.506  1.00  0.00     0.071 A 
ATOM      5  C   UNL     1      58.951  57.737 246.081  1.00  0.00     0.001 A 
ATOM      6  C   UNL     1      60.110  57.002 246.375  1.00  0.00     0.010 A 
ATOM      7  C   UNL     1      57.677  57.218 246.345  1.00  0.00     0.020 A 
ATOM      8  C   UNL     1      56.540  57.977 246.039  1.00  0.00     0.001 A 
ATOM      9  C   UNL     1      55.250  57.486 246.292  1.00  0.00     0.010 A 
ATOM     10  C   UNL     1      54.131  58.265 245.977  1.00  0.00     0.001 A 
ATOM     11  C   UNL     1      54.293  59.532 245.409  1.00  0.00     0.002 A 
ATOM     12  C   UNL     1      55.574  60.030 245.153  1.00  0.00     0.029 A 
ATOM     13  C   UNL     1      56.700  59.260 245.465  1.00  0.00     0.071 A 
ATOM     14  N   UNL     1      57.947  59.743 245.217  1.00  0.00    -0.248 NA
ENDROOT
TORSDOF 0
ENDMDL
MODEL 3
REMARK VINA RESULT:    -5.836      0.832      5.275
REMARK INTER + INTRA:          -5.836
REMARK INTER:                  -5.836
REMARK INTRA:                   0.000
REMARK UNBOUND:                 0.000
REMARK SMILES c1ccc2nc3ccccc3cc2c1
REMARK SMILES IDX 1 1 2 2 3 3 4 4 13 5 14 6 12 7 11 8 10 9 9 10 8 11 7 12 6 13
REMARK SMILES IDX 5 14
REMARK H PARENT
REMARK Flexibility Score: inf
ROOT
ATOM      1  C   UNL     1      54.143  58.287 246.030  1.00  0.00     0.001 A 
ATOM      2  C   UNL     1      54.296  59.557 245.464  1.00  0.00     0.002 A 
ATOM      3  C   UNL     1      55.574  60.057 245.193  1.00  0.00     0.029 A 
ATOM      4  C   UNL     1      56.704  59.286 245.487  1.00  0.00     0.071 A 
ATOM      5  C   UNL     1      56.552  58.002 246.059  1.00  0.00     0.001 A 
ATOM      6  C   UNL     1      55.267  57.509 246.328  1.00  0.00     0.010 A 
ATOM      7  C   UNL     1      57.694  57.244 246.348  1.00  0.00     0.020 A 
ATOM      8  C   UNL     1      58.965  57.765 246.068  1.00  0.00     0.001 A 
ATOM      9  C   UNL     1      60.128  57.031 246.345  1.00  0.00     0.010 A 
ATOM     10  C   UNL     1      61.383  57.575 246.054  1.00  0.00     0.001 A 
ATOM     11  C   UNL     1      61.485  58.850 245.489  1.00  0.00     0.002 A 
ATOM     12  C   UNL     1      60.331  59.589 245.208  1.00  0.00     0.029 A 
ATOM     13  C   UNL     1      59.070  59.054 245.495  1.00  0.00     0.071 A 
ATOM     14  N   UNL     1      57.948  59.771 245.223  1.00  0.00    -0.248 NA
ENDROOT
TORSDOF 0
ENDMDL
MODEL 4
REMARK VINA RESULT:    -5.836      0.089      4.831
REMARK INTER + INTRA:          -5.836
REMARK INTER:                  -5.836
REMARK INTRA:                   0.000
REMARK UNBOUND:                 0.000
REMARK SMILES c1ccc2nc3ccccc3cc2c1
REMARK SMILES IDX 1 1 2 2 3 3 4 4 13 5 14 6 12 7 11 8 10 9 9 10 8 11 7 12 6 13
REMARK SMILES IDX 5 14
REMARK H PARENT
REMARK Flexibility Score: inf
ROOT
ATOM      1  C   UNL     1      54.300  59.500 245.509  1.00  0.00     0.001 A 
ATOM      2  C   UNL     1      54.157  58.217 246.048  1.00  0.00     0.002 A 
ATOM      3  C   UNL     1      55.287  57.439 246.321  1.00  0.00     0.029 A 
ATOM      4  C   UNL     1      56.565  57.943 246.056  1.00  0.00     0.071 A 
ATOM      5  C   UNL     1      56.712  59.240 245.511  1.00  0.00     0.001 A 
ATOM      6  C   UNL     1      55.573  60.013 245.240  1.00  0.00     0.010 A 
ATOM      7  C   UNL     1      57.999  59.730 245.251  1.00  0.00     0.020 A 
ATOM      8  C   UNL     1      59.116  58.933 245.532  1.00  0.00     0.001 A 
ATOM      9  C   UNL     1      60.418  59.394 245.284  1.00  0.00     0.010 A 
ATOM     10  C   UNL     1      61.516  58.577 245.575  1.00  0.00     0.001 A 
ATOM     11  C   UNL     1      61.322  57.301 246.112  1.00  0.00     0.002 A 
ATOM     12  C   UNL     1      60.028  56.833 246.364  1.00  0.00     0.029 A 
ATOM     13  C   UNL     1      58.923  57.642 246.077  1.00  0.00     0.071 A 
ATOM     14  N   UNL     1      57.665  57.188 246.321  1.00  0.00    -0.248 NA
ENDROOT
TORSDOF 0
ENDMDL
MODEL 5
REMARK VINA RESULT:    -5.670      1.505      2.355
REMARK INTER + INTRA:          -5.670
REMARK INTER:                  -5.670
REMARK INTRA:                   0.000
REMARK UNBOUND:                 0.000
REMARK SMILES c1ccc2nc3ccccc3cc2c1
REMARK SMILES IDX 1 1 2 2 3 3 4 4 13 5 14 6 12 7 11 8 10 9 9 10 8 11 7 12 6 13
REMARK SMILES IDX 5 14
REMARK H PARENT
REMARK Flexibility Score: inf
ROOT
ATOM      1  C   UNL     1      59.669  60.495 245.904  1.00  0.00     0.001 A 
ATOM      2  C   UNL     1      59.621  59.112 245.702  1.00  0.00     0.002 A 
ATOM      3  C   UNL     1      58.389  58.457 245.609  1.00  0.00     0.029 A 
ATOM      4  C   UNL     1      57.199  59.185 245.718  1.00  0.00     0.071 A 
ATOM      5  C   UNL     1      57.244  60.584 245.922  1.00  0.00     0.001 A 
ATOM      6  C   UNL     1      58.485  61.232 246.014  1.00  0.00     0.010 A 
ATOM      7  C   UNL     1      56.044  61.297 246.029  1.00  0.00     0.020 A 
ATOM      8  C   UNL     1      54.821  60.620 245.933  1.00  0.00     0.001 A 
ATOM      9  C   UNL     1      53.601  61.305 246.036  1.00  0.00     0.010 A 
ATOM     10  C   UNL     1      52.394  60.605 245.936  1.00  0.00     0.001 A 
ATOM     11  C   UNL     1      52.398  59.221 245.735  1.00  0.00     0.002 A 
ATOM     12  C   UNL     1      53.609  58.529 245.630  1.00  0.00     0.029 A 
ATOM     13  C   UNL     1      54.822  59.221 245.728  1.00  0.00     0.071 A 
ATOM     14  N   UNL     1      56.000  58.549 245.627  1.00  0.00    -0.248 NA
ENDROOT
TORSDOF 0
ENDMDL
MODEL 6
REMARK VINA RESULT:    -5.638      2.449      6.393
REMARK INTER + INTRA:          -5.638
REMARK INTER:                  -5.638
REMARK INTRA:                   0.000
REMARK UNBOUND:                 0.000
REMARK SMILES c1ccc2nc3ccccc3cc2c1
REMARK SMILES IDX 1 1 2 2 3 3 4 4 13 5 14 6 12 7 11 8 10 9 9 10 8 11 7 12 6 13
REMARK SMILES IDX 5 14
REMARK H PARENT
REMARK Flexibility Score: inf
ROOT
ATOM      1  C   UNL     1      50.225  60.495 245.630  1.00  0.00     0.001 A 
ATOM      2  C   UNL     1      50.015  59.337 246.386  1.00  0.00     0.002 A 
ATOM      3  C   UNL     1      51.092  58.510 246.719  1.00  0.00     0.029 A 
ATOM      4  C   UNL     1      52.385  58.839 246.297  1.00  0.00     0.071 A 
ATOM      5  C   UNL     1      52.600  60.009 245.532  1.00  0.00     0.001 A 
ATOM      6  C   UNL     1      51.513  60.833 245.201  1.00  0.00     0.010 A 
ATOM      7  C   UNL     1      53.900  60.324 245.116  1.00  0.00     0.020 A 
ATOM      8  C   UNL     1      54.965  59.481 245.462  1.00  0.00     0.001 A 
ATOM      9  C   UNL     1      56.278  59.768 245.062  1.00  0.00     0.010 A 
ATOM     10  C   UNL     1      57.322  58.909 245.422  1.00  0.00     0.001 A 
ATOM     11  C   UNL     1      57.062  57.762 246.179  1.00  0.00     0.002 A 
ATOM     12  C   UNL     1      55.756  57.468 246.583  1.00  0.00     0.029 A 
ATOM     13  C   UNL     1      54.704  58.321 246.229  1.00  0.00     0.071 A 
ATOM     14  N   UNL     1      53.434  58.035 246.621  1.00  0.00    -0.248 NA
ENDROOT
TORSDOF 0
ENDMDL
MODEL 7
REMARK VINA RESULT:    -5.636      1.507      5.382
REMARK INTER + INTRA:          -5.636
REMARK INTER:                  -5.636
REMARK INTRA:                   0.000
REMARK UNBOUND:                 0.000
REMARK SMILES c1ccc2nc3ccccc3cc2c1
REMARK SMILES IDX 1 1 2 2 3 3 4 4 13 5 14 6 12 7 11 8 10 9 9 10 8 11 7 12 6 13
REMARK SMILES IDX 5 14
REMARK H PARENT
REMARK Flexibility Score: inf
ROOT
ATOM      1  C   UNL     1      52.392  60.789 245.883  1.00  0.00     0.001 A 
ATOM      2  C   UNL     1      52.328  59.404 245.699  1.00  0.00     0.002 A 
ATOM      3  C   UNL     1      53.503  58.651 245.616  1.00  0.00     0.029 A 
ATOM      4  C   UNL     1      54.748  59.282 245.719  1.00  0.00     0.071 A 
ATOM      5  C   UNL     1      54.815  60.682 245.905  1.00  0.00     0.001 A 
ATOM      6  C   UNL     1      53.631  61.430 245.986  1.00  0.00     0.010 A 
ATOM      7  C   UNL     1      56.070  61.298 246.004  1.00  0.00     0.020 A 
ATOM      8  C   UNL     1      57.234  60.523 245.918  1.00  0.00     0.001 A 
ATOM      9  C   UNL     1      58.505  61.109 246.015  1.00  0.00     0.010 A 
ATOM     10  C   UNL     1      59.651  60.312 245.926  1.00  0.00     0.001 A 
ATOM     11  C   UNL     1      59.536  58.931 245.741  1.00  0.00     0.002 A 
ATOM     12  C   UNL     1      58.273  58.337 245.645  1.00  0.00     0.029 A 
ATOM     13  C   UNL     1      57.120  59.126 245.733  1.00  0.00     0.071 A 
ATOM     14  N   UNL     1      55.892  58.550 245.638  1.00  0.00    -0.248 NA
ENDROOT
TORSDOF 0
ENDMDL
MODEL 8
REMARK VINA RESULT:    -5.633      2.536      4.356
REMARK INTER + INTRA:          -5.633
REMARK INTER:                  -5.633
REMARK INTRA:                   0.000
REMARK UNBOUND:                 0.000
REMARK SMILES c1ccc2nc3ccccc3cc2c1
REMARK SMILES IDX 1 1 2 2 3 3 4 4 13 5 14 6 12 7 11 8 10 9 9 10 8 11 7 12 6 13
REMARK SMILES IDX 5 14
REMARK H PARENT
REMARK Flexibility Score: inf
ROOT
ATOM      1  C   UNL     1      57.172  58.899 245.468  1.00  0.00     0.001 A 
ATOM      2  C   UNL     1      56.917  57.761 246.240  1.00  0.00     0.002 A 
ATOM      3  C   UNL     1      55.613  57.466 246.648  1.00  0.00     0.029 A 
ATOM      4  C   UNL     1      54.557  58.309 246.284  1.00  0.00     0.071 A 
ATOM      5  C   UNL     1      54.812  59.461 245.503  1.00  0.00     0.001 A 
ATOM      6  C   UNL     1      56.125  59.750 245.099  1.00  0.00     0.010 A 
ATOM      7  C   UNL     1      53.745  60.296 245.149  1.00  0.00     0.020 A 
ATOM      8  C   UNL     1      52.446  59.981 245.569  1.00  0.00     0.001 A 
ATOM      9  C   UNL     1      51.355  60.795 245.230  1.00  0.00     0.010 A 
ATOM     10  C   UNL     1      50.068  60.456 245.662  1.00  0.00     0.001 A 
ATOM     11  C   UNL     1      49.864  59.308 246.432  1.00  0.00     0.002 A 
ATOM     12  C   UNL     1      50.945  58.489 246.775  1.00  0.00     0.029 A 
ATOM     13  C   UNL     1      52.236  58.818 246.347  1.00  0.00     0.071 A 
ATOM     14  N   UNL     1      53.287  58.023 246.680  1.00  0.00    -0.248 NA
ENDROOT
TORSDOF 0
ENDMDL
MODEL 9
REMARK VINA RESULT:    -5.626      1.863      5.811
REMARK INTER + INTRA:          -5.626
REMARK INTER:                  -5.626
REMARK INTRA:                   0.000
REMARK UNBOUND:                 0.000
REMARK SMILES c1ccc2nc3ccccc3cc2c1
REMARK SMILES IDX 1 1 2 2 3 3 4 4 13 5 14 6 12 7 11 8 10 9 9 10 8 11 7 12 6 13
REMARK SMILES IDX 5 14
REMARK H PARENT
REMARK Flexibility Score: inf
ROOT
ATOM      1  C   UNL     1      52.138  59.539 245.610  1.00  0.00     0.001 A 
ATOM      2  C   UNL     1      52.248  60.928 245.740  1.00  0.00     0.002 A 
ATOM      3  C   UNL     1      53.507  61.527 245.845  1.00  0.00     0.029 A 
ATOM      4  C   UNL     1      54.662  60.738 245.821  1.00  0.00     0.071 A 
ATOM      5  C   UNL     1      54.554  59.334 245.690  1.00  0.00     0.001 A 
ATOM      6  C   UNL     1      53.286  58.741 245.586  1.00  0.00     0.010 A 
ATOM      7  C   UNL     1      55.721  58.558 245.669  1.00  0.00     0.020 A 
ATOM      8  C   UNL     1      56.972  59.180 245.776  1.00  0.00     0.001 A 
ATOM      9  C   UNL     1      58.159  58.433 245.757  1.00  0.00     0.010 A 
ATOM     10  C   UNL     1      59.394  59.079 245.865  1.00  0.00     0.001 A 
ATOM     11  C   UNL     1      59.452  60.470 245.993  1.00  0.00     0.002 A 
ATOM     12  C   UNL     1      58.275  61.225 246.012  1.00  0.00     0.029 A 
ATOM     13  C   UNL     1      57.033  60.588 245.904  1.00  0.00     0.071 A 
ATOM     14  N   UNL     1      55.888  61.320 245.923  1.00  0.00    -0.248 NA
ENDROOT
TORSDOF 0
ENDMDL
