MODEL 1
REMARK VINA RESULT:    -4.104      0.000      0.000
REMARK INTER + INTRA:          -5.465
REMARK INTER:                  -5.304
REMARK INTRA:                  -0.162
REMARK UNBOUND:                -0.162
REMARK SMILES CCCCCCC(=O)[O-]
REMARK SMILES IDX 5 1 6 2 7 3 8 4 9 5 4 6 3 7 2 8 1 9
REMARK H PARENT
REMARK Flexibility Score: inf
ROOT
ATOM      1  C   UNL     1      -2.622  37.831  19.682  1.00  0.00     0.006 C 
ENDROOT
BRANCH   1   2
ATOM      2  C   UNL     1      -3.984  37.158  19.462  1.00  0.00     0.053 C 
BRANCH   2   3
ATOM      3  C   UNL     1      -4.404  36.356  20.655  1.00  0.00     0.041 C 
ATOM      4  O   UNL     1      -5.614  36.319  21.001  1.00  0.00    -0.550 OA
ATOM      5  O   UNL     1      -3.463  35.620  21.363  1.00  0.00    -0.550 OA
ENDBRANCH   2   3
ENDBRANCH   1   2
BRANCH   1   6
ATOM      6  C   UNL     1      -1.878  38.082  18.359  1.00  0.00     0.000 C 
BRANCH   6   7
ATOM      7  C   UNL     1      -2.732  37.742  17.127  1.00  0.00    -0.000 C 
BRANCH   7   8
ATOM      8  C   UNL     1      -1.930  37.017  16.036  1.00  0.00    -0.003 C 
ATOM      9  C   UNL     1      -2.712  36.958  14.727  1.00  0.00     0.004 C 
ENDBRANCH   7   8
ENDBRANCH   6   7
ENDBRANCH   1   6
TORSDOF 5
ENDMDL
MODEL 2
REMARK VINA RESULT:    -4.065      0.225      1.092
REMARK INTER + INTRA:          -5.415
REMARK INTER:                  -5.239
REMARK INTRA:                  -0.175
REMARK UNBOUND:                -0.162
REMARK SMILES CCCCCCC(=O)[O-]
REMARK SMILES IDX 5 1 6 2 7 3 8 4 9 5 4 6 3 7 2 8 1 9
REMARK H PARENT
REMARK Flexibility Score: inf
ROOT
ATOM      1  C   UNL     1      -2.715  37.935  19.557  1.00  0.00     0.006 C 
ENDROOT
BRANCH   1   2
ATOM      2  C   UNL     1      -4.078  37.264  19.338  1.00  0.00     0.053 C 
BRANCH   2   3
ATOM      3  C   UNL     1      -4.412  36.313  20.446  1.00  0.00     0.041 C 
ATOM      4  O   UNL     1      -3.495  35.788  21.131  1.00  0.00    -0.550 OA
ATOM      5  O   UNL     1      -5.740  36.035  20.745  1.00  0.00    -0.550 OA
ENDBRANCH   2   3
ENDBRANCH   1   2
BRANCH   1   6
ATOM      6  C   UNL     1      -1.839  37.896  18.292  1.00  0.00     0.000 C 
BRANCH   6   7
ATOM      7  C   UNL     1      -2.668  37.779  17.003  1.00  0.00    -0.000 C 
BRANCH   7   8
ATOM      8  C   UNL     1      -1.957  36.957  15.918  1.00  0.00    -0.003 C 
ATOM      9  C   UNL     1      -2.746  36.973  14.612  1.00  0.00     0.004 C 
ENDBRANCH   7   8
ENDBRANCH   6   7
ENDBRANCH   1   6
TORSDOF 5
ENDMDL
MODEL 3
REMARK VINA RESULT:    -3.850      2.847      5.493
REMARK INTER + INTRA:          -5.137
REMARK INTER:                  -5.019
REMARK INTRA:                  -0.117
REMARK UNBOUND:                -0.162
REMARK SMILES CCCCCCC(=O)[O-]
REMARK SMILES IDX 5 1 6 2 7 3 8 4 9 5 4 6 3 7 2 8 1 9
REMARK H PARENT
REMARK Flexibility Score: inf
ROOT
ATOM      1  C   UNL     1      -4.249  36.515  19.261  1.00  0.00     0.006 C 
ENDROOT
BRANCH   1   2
ATOM      2  C   UNL     1      -3.248  37.570  19.750  1.00  0.00     0.053 C 
BRANCH   2   3
ATOM      3  C   UNL     1      -2.333  38.017  18.652  1.00  0.00     0.041 C 
ATOM      4  O   UNL     1      -1.161  38.395  18.914  1.00  0.00    -0.550 OA
ATOM      5  O   UNL     1      -2.766  37.983  17.331  1.00  0.00    -0.550 OA
ENDBRANCH   2   3
ENDBRANCH   1   2
BRANCH   1   6
ATOM      6  C   UNL     1      -5.382  36.276  20.274  1.00  0.00     0.000 C 
BRANCH   6   7
ATOM      7  C   UNL     1      -4.860  36.046  21.701  1.00  0.00    -0.000 C 
BRANCH   7   8
ATOM      8  C   UNL     1      -5.969  36.147  22.759  1.00  0.00    -0.003 C 
ATOM      9  C   UNL     1      -6.004  34.902  23.639  1.00  0.00     0.004 C 
ENDBRANCH   7   8
ENDBRANCH   6   7
ENDBRANCH   1   6
TORSDOF 5
ENDMDL
MODEL 4
REMARK VINA RESULT:    -3.845      2.978      5.121
REMARK INTER + INTRA:          -5.130
REMARK INTER:                  -5.001
REMARK INTRA:                  -0.129
REMARK UNBOUND:                -0.162
REMARK SMILES CCCCCCC(=O)[O-]
REMARK SMILES IDX 5 1 6 2 7 3 8 4 9 5 4 6 3 7 2 8 1 9
REMARK H PARENT
REMARK Flexibility Score: inf
ROOT
ATOM      1  C   UNL     1      -3.586  37.918  18.703  1.00  0.00     0.006 C 
ENDROOT
BRANCH   1   2
ATOM      2  C   UNL     1      -2.219  37.851  18.009  1.00  0.00     0.053 C 
BRANCH   2   3
ATOM      3  C   UNL     1      -2.349  37.475  16.564  1.00  0.00     0.041 C 
ATOM      4  O   UNL     1      -3.074  38.157  15.793  1.00  0.00    -0.550 OA
ATOM      5  O   UNL     1      -1.639  36.391  16.062  1.00  0.00    -0.550 OA
ENDBRANCH   2   3
ENDBRANCH   1   2
BRANCH   1   6
ATOM      6  C   UNL     1      -4.063  36.537  19.182  1.00  0.00     0.000 C 
BRANCH   6   7
ATOM      7  C   UNL     1      -5.214  36.628  20.197  1.00  0.00    -0.000 C 
BRANCH   7   8
ATOM      8  C   UNL     1      -4.823  36.094  21.582  1.00  0.00    -0.003 C 
ATOM      9  C   UNL     1      -6.004  36.154  22.547  1.00  0.00     0.004 C 
ENDBRANCH   7   8
ENDBRANCH   6   7
ENDBRANCH   1   6
TORSDOF 5
ENDMDL
MODEL 5
REMARK VINA RESULT:    -3.834      0.969      1.749
REMARK INTER + INTRA:          -5.116
REMARK INTER:                  -4.944
REMARK INTRA:                  -0.172
REMARK UNBOUND:                -0.162
REMARK SMILES CCCCCCC(=O)[O-]
REMARK SMILES IDX 5 1 6 2 7 3 8 4 9 5 4 6 3 7 2 8 1 9
REMARK H PARENT
REMARK Flexibility Score: inf
ROOT
ATOM      1  C   UNL     1      -4.152  36.496  19.140  1.00  0.00     0.006 C 
ENDROOT
BRANCH   1   2
ATOM      2  C   UNL     1      -5.365  36.507  20.080  1.00  0.00     0.053 C 
BRANCH   2   3
ATOM      3  C   UNL     1      -4.975  36.185  21.490  1.00  0.00     0.041 C 
ATOM      4  O   UNL     1      -3.860  35.655  21.736  1.00  0.00    -0.550 OA
ATOM      5  O   UNL     1      -5.832  36.502  22.537  1.00  0.00    -0.550 OA
ENDBRANCH   2   3
ENDBRANCH   1   2
BRANCH   1   6
ATOM      6  C   UNL     1      -3.540  37.897  18.964  1.00  0.00     0.000 C 
BRANCH   6   7
ATOM      7  C   UNL     1      -2.339  37.901  18.006  1.00  0.00    -0.000 C 
BRANCH   7   8
ATOM      8  C   UNL     1      -2.758  37.771  16.534  1.00  0.00    -0.003 C 
ATOM      9  C   UNL     1      -1.864  36.781  15.794  1.00  0.00     0.004 C 
ENDBRANCH   7   8
ENDBRANCH   6   7
ENDBRANCH   1   6
TORSDOF 5
ENDMDL
MODEL 6
REMARK VINA RESULT:    -3.697      2.259      3.271
REMARK INTER + INTRA:          -4.940
REMARK INTER:                  -4.819
REMARK INTRA:                  -0.121
REMARK UNBOUND:                -0.162
REMARK SMILES CCCCCCC(=O)[O-]
REMARK SMILES IDX 5 1 6 2 7 3 8 4 9 5 4 6 3 7 2 8 1 9
REMARK H PARENT
REMARK Flexibility Score: inf
ROOT
ATOM      1  C   UNL     1      -4.347  36.206  21.266  1.00  0.00     0.006 C 
ENDROOT
BRANCH   1   2
ATOM      2  C   UNL     1      -5.728  36.134  21.930  1.00  0.00     0.053 C 
BRANCH   2   3
ATOM      3  C   UNL     1      -5.632  35.716  23.365  1.00  0.00     0.041 C 
ATOM      4  O   UNL     1      -5.689  34.497  23.678  1.00  0.00    -0.550 OA
ATOM      5  O   UNL     1      -5.445  36.672  24.356  1.00  0.00    -0.550 OA
ENDBRANCH   2   3
ENDBRANCH   1   2
BRANCH   1   6
ATOM      6  C   UNL     1      -4.444  36.370  19.740  1.00  0.00     0.000 C 
BRANCH   6   7
ATOM      7  C   UNL     1      -4.093  37.793  19.275  1.00  0.00    -0.000 C 
BRANCH   7   8
ATOM      8  C   UNL     1      -2.970  37.811  18.228  1.00  0.00    -0.003 C 
ATOM      9  C   UNL     1      -1.652  38.273  18.844  1.00  0.00     0.004 C 
ENDBRANCH   7   8
ENDBRANCH   6   7
ENDBRANCH   1   6
TORSDOF 5
ENDMDL
MODEL 7
REMARK VINA RESULT:    -3.685      2.776      5.413
REMARK INTER + INTRA:          -4.924
REMARK INTER:                  -4.841
REMARK INTRA:                  -0.083
REMARK UNBOUND:                -0.162
REMARK SMILES CCCCCCC(=O)[O-]
REMARK SMILES IDX 5 1 6 2 7 3 8 4 9 5 4 6 3 7 2 8 1 9
REMARK H PARENT
REMARK Flexibility Score: inf
ROOT
ATOM      1  C   UNL     1      -3.665  37.277  19.844  1.00  0.00     0.006 C 
ENDROOT
BRANCH   1   2
ATOM      2  C   UNL     1      -3.486  37.500  18.336  1.00  0.00     0.053 C 
BRANCH   2   3
ATOM      3  C   UNL     1      -2.071  37.849  17.991  1.00  0.00     0.041 C 
ATOM      4  O   UNL     1      -1.572  37.474  16.898  1.00  0.00    -0.550 OA
ATOM      5  O   UNL     1      -1.314  38.620  18.865  1.00  0.00    -0.550 OA
ENDBRANCH   2   3
ENDBRANCH   1   2
BRANCH   1   6
ATOM      6  C   UNL     1      -5.088  36.812  20.198  1.00  0.00     0.000 C 
BRANCH   6   7
ATOM      7  C   UNL     1      -5.381  36.899  21.704  1.00  0.00    -0.000 C 
BRANCH   7   8
ATOM      8  C   UNL     1      -6.125  35.664  22.233  1.00  0.00    -0.003 C 
ATOM      9  C   UNL     1      -5.577  35.232  23.590  1.00  0.00     0.004 C 
ENDBRANCH   7   8
ENDBRANCH   6   7
ENDBRANCH   1   6
TORSDOF 5
ENDMDL
MODEL 8
REMARK VINA RESULT:    -3.445      1.628      2.531
REMARK INTER + INTRA:          -4.614
REMARK INTER:                  -4.365
REMARK INTRA:                  -0.249
REMARK UNBOUND:                -0.162
REMARK SMILES CCCCCCC(=O)[O-]
REMARK SMILES IDX 5 1 6 2 7 3 8 4 9 5 4 6 3 7 2 8 1 9
REMARK H PARENT
REMARK Flexibility Score: inf
ROOT
ATOM      1  C   UNL     1      -4.877  35.918  18.927  1.00  0.00     0.006 C 
ENDROOT
BRANCH   1   2
ATOM      2  C   UNL     1      -4.895  36.825  20.165  1.00  0.00     0.053 C 
BRANCH   2   3
ATOM      3  C   UNL     1      -4.465  36.089  21.397  1.00  0.00     0.041 C 
ATOM      4  O   UNL     1      -3.321  35.568  21.459  1.00  0.00    -0.550 OA
ATOM      5  O   UNL     1      -5.318  36.010  22.491  1.00  0.00    -0.550 OA
ENDBRANCH   2   3
ENDBRANCH   1   2
BRANCH   1   6
ATOM      6  C   UNL     1      -3.785  36.328  17.923  1.00  0.00     0.000 C 
BRANCH   6   7
ATOM      7  C   UNL     1      -3.223  37.731  18.202  1.00  0.00    -0.000 C 
BRANCH   7   8
ATOM      8  C   UNL     1      -1.748  37.866  17.796  1.00  0.00    -0.003 C 
ATOM      9  C   UNL     1      -0.898  38.352  18.966  1.00  0.00     0.004 C 
ENDBRANCH   7   8
ENDBRANCH   6   7
ENDBRANCH   1   6
TORSDOF 5
ENDMDL
MODEL 9
REMARK VINA RESULT:    -3.213      2.482      4.624
REMARK INTER + INTRA:          -4.314
REMARK INTER:                  -4.121
REMARK INTRA:                  -0.193
REMARK UNBOUND:                -0.162
REMARK SMILES CCCCCCC(=O)[O-]
REMARK SMILES IDX 5 1 6 2 7 3 8 4 9 5 4 6 3 7 2 8 1 9
REMARK H PARENT
REMARK Flexibility Score: inf
ROOT
ATOM      1  C   UNL     1      -3.629  37.968  18.812  1.00  0.00     0.006 C 
ENDROOT
BRANCH   1   2
ATOM      2  C   UNL     1      -2.339  37.795  17.998  1.00  0.00     0.053 C 
BRANCH   2   3
ATOM      3  C   UNL     1      -1.122  38.088  18.821  1.00  0.00     0.041 C 
ATOM      4  O   UNL     1      -0.132  38.672  18.306  1.00  0.00    -0.550 OA
ATOM      5  O   UNL     1      -1.095  37.747  20.168  1.00  0.00    -0.550 OA
ENDBRANCH   2   3
ENDBRANCH   1   2
BRANCH   1   6
ATOM      6  C   UNL     1      -4.267  36.618  19.181  1.00  0.00     0.000 C 
BRANCH   6   7
ATOM      7  C   UNL     1      -5.257  36.733  20.352  1.00  0.00    -0.000 C 
BRANCH   7   8
ATOM      8  C   UNL     1      -4.748  36.041  21.625  1.00  0.00    -0.003 C 
ATOM      9  C   UNL     1      -3.335  35.498  21.428  1.00  0.00     0.004 C 
ENDBRANCH   7   8
ENDBRANCH   6   7
ENDBRANCH   1   6
TORSDOF 5
ENDMDL
