MODEL 1
REMARK VINA RESULT:    -5.161      0.000      0.000
REMARK INTER + INTRA:          -9.601
REMARK INTER:                  -8.782
REMARK INTRA:                  -0.819
REMARK UNBOUND:                -0.819
REMARK SMILES CCCCCCCCCCCCCC(=O)[O-]
REMARK SMILES IDX 8 1 9 2 10 3 11 4 12 5 13 6 14 7 15 8 16 9 7 10 6 11 5 12
REMARK SMILES IDX 4 13 3 14 2 15 1 16
REMARK H PARENT
REMARK Flexibility Score: inf
ROOT
ATOM      1  C   UNL     1      23.529  -0.796 -15.266  1.00  0.00     0.000 C 
ENDROOT
BRANCH   1   2
ATOM      2  C   UNL     1      22.239  -1.526 -14.850  1.00  0.00     0.000 C 
BRANCH   2   3
ATOM      3  C   UNL     1      20.976  -0.692 -15.149  1.00  0.00     0.000 C 
BRANCH   3   4
ATOM      4  C   UNL     1      21.245   0.820 -15.237  1.00  0.00     0.000 C 
BRANCH   4   5
ATOM      5  C   UNL     1      20.089   1.667 -14.679  1.00  0.00     0.006 C 
BRANCH   5   6
ATOM      6  C   UNL     1      19.203   2.242 -15.790  1.00  0.00     0.053 C 
BRANCH   6   7
ATOM      7  C   UNL     1      17.831   1.641 -15.772  1.00  0.00     0.041 C 
ATOM      8  O   UNL     1      17.533   0.767 -14.915  1.00  0.00    -0.550 OA
ATOM      9  O   UNL     1      16.871   2.072 -16.678  1.00  0.00    -0.550 OA
ENDBRANCH   6   7
ENDBRANCH   5   6
ENDBRANCH   4   5
ENDBRANCH   3   4
ENDBRANCH   2   3
ENDBRANCH   1   2
BRANCH   1  10
ATOM     10  C   UNL     1      24.576  -0.752 -14.141  1.00  0.00     0.000 C 
BRANCH  10  11
ATOM     11  C   UNL     1      24.972   0.681 -13.756  1.00  0.00    -0.000 C 
BRANCH  11  12
ATOM     12  C   UNL     1      26.113   0.677 -12.727  1.00  0.00    -0.000 C 
BRANCH  12  13
ATOM     13  C   UNL     1      26.433  -0.732 -12.203  1.00  0.00    -0.000 C 
BRANCH  13  14
ATOM     14  C   UNL     1      27.352  -0.712 -10.972  1.00  0.00    -0.000 C 
BRANCH  14  15
ATOM     15  C   UNL     1      26.534  -0.702  -9.676  1.00  0.00    -0.003 C 
ATOM     16  C   UNL     1      25.370  -1.687  -9.750  1.00  0.00     0.004 C 
ENDBRANCH  14  15
ENDBRANCH  13  14
ENDBRANCH  12  13
ENDBRANCH  11  12
ENDBRANCH  10  11
ENDBRANCH   1  10
TORSDOF 12
ENDMDL
MODEL 2
REMARK VINA RESULT:    -5.137     10.825     13.593
REMARK INTER + INTRA:          -9.560
REMARK INTER:                  -7.901
REMARK INTRA:                  -1.659
REMARK UNBOUND:                -0.819
REMARK SMILES CCCCCCCCCCCCCC(=O)[O-]
REMARK SMILES IDX 8 1 9 2 10 3 11 4 12 5 13 6 14 7 15 8 16 9 7 10 6 11 5 12
REMARK SMILES IDX 4 13 3 14 2 15 1 16
REMARK H PARENT
REMARK Flexibility Score: inf
ROOT
ATOM      1  C   UNL     1      17.154   1.540 -22.884  1.00  0.00     0.000 C 
ENDROOT
BRANCH   1   2
ATOM      2  C   UNL     1      18.673   1.486 -22.639  1.00  0.00     0.000 C 
BRANCH   2   3
ATOM      3  C   UNL     1      19.257   0.086 -22.916  1.00  0.00     0.000 C 
BRANCH   3   4
ATOM      4  C   UNL     1      20.218   0.047 -24.116  1.00  0.00     0.000 C 
BRANCH   4   5
ATOM      5  C   UNL     1      20.366  -1.360 -24.719  1.00  0.00     0.006 C 
BRANCH   5   6
ATOM      6  C   UNL     1      19.100  -2.205 -24.536  1.00  0.00     0.053 C 
BRANCH   6   7
ATOM      7  C   UNL     1      19.335  -3.640 -24.898  1.00  0.00     0.041 C 
ATOM      8  O   UNL     1      20.495  -4.041 -25.179  1.00  0.00    -0.550 OA
ATOM      9  O   UNL     1      18.278  -4.541 -24.889  1.00  0.00    -0.550 OA
ENDBRANCH   6   7
ENDBRANCH   5   6
ENDBRANCH   4   5
ENDBRANCH   3   4
ENDBRANCH   2   3
ENDBRANCH   1   2
BRANCH   1  10
ATOM     10  C   UNL     1      16.567   0.175 -23.278  1.00  0.00     0.000 C 
BRANCH  10  11
ATOM     11  C   UNL     1      15.999   0.164 -24.705  1.00  0.00    -0.000 C 
BRANCH  11  12
ATOM     12  C   UNL     1      16.023   1.574 -25.316  1.00  0.00    -0.000 C 
BRANCH  12  13
ATOM     13  C   UNL     1      16.816   1.637 -26.630  1.00  0.00    -0.000 C 
BRANCH  13  14
ATOM     14  C   UNL     1      18.048   0.719 -26.623  1.00  0.00    -0.000 C 
BRANCH  14  15
ATOM     15  C   UNL     1      17.877  -0.436 -27.617  1.00  0.00    -0.003 C 
ATOM     16  C   UNL     1      18.816  -0.282 -28.810  1.00  0.00     0.004 C 
ENDBRANCH  14  15
ENDBRANCH  13  14
ENDBRANCH  12  13
ENDBRANCH  11  12
ENDBRANCH  10  11
ENDBRANCH   1  10
TORSDOF 12
ENDMDL
MODEL 3
REMARK VINA RESULT:    -5.071      5.008      9.377
REMARK INTER + INTRA:          -9.447
REMARK INTER:                  -8.707
REMARK INTRA:                  -0.740
REMARK UNBOUND:                -0.819
REMARK SMILES CCCCCCCCCCCCCC(=O)[O-]
REMARK SMILES IDX 8 1 9 2 10 3 11 4 12 5 13 6 14 7 15 8 16 9 7 10 6 11 5 12
REMARK SMILES IDX 4 13 3 14 2 15 1 16
REMARK H PARENT
REMARK Flexibility Score: inf
ROOT
ATOM      1  C   UNL     1      20.089  -0.873 -19.116  1.00  0.00     0.000 C 
ENDROOT
BRANCH   1   2
ATOM      2  C   UNL     1      21.256  -1.476 -18.314  1.00  0.00     0.000 C 
BRANCH   2   3
ATOM      3  C   UNL     1      21.630  -0.613 -17.091  1.00  0.00     0.000 C 
BRANCH   3   4
ATOM      4  C   UNL     1      21.157  -1.207 -15.753  1.00  0.00     0.000 C 
BRANCH   4   5
ATOM      5  C   UNL     1      19.938  -0.473 -15.171  1.00  0.00     0.006 C 
BRANCH   5   6
ATOM      6  C   UNL     1      19.659   0.851 -15.892  1.00  0.00     0.053 C 
BRANCH   6   7
ATOM      7  C   UNL     1      18.201   1.193 -15.878  1.00  0.00     0.041 C 
ATOM      8  O   UNL     1      17.467   0.803 -14.932  1.00  0.00    -0.550 OA
ATOM      9  O   UNL     1      17.659   1.972 -16.893  1.00  0.00    -0.550 OA
ENDBRANCH   6   7
ENDBRANCH   5   6
ENDBRANCH   4   5
ENDBRANCH   3   4
ENDBRANCH   2   3
ENDBRANCH   1   2
BRANCH   1  10
ATOM     10  C   UNL     1      20.542   0.231 -20.085  1.00  0.00     0.000 C 
BRANCH  10  11
ATOM     11  C   UNL     1      19.374   0.841 -20.876  1.00  0.00    -0.000 C 
BRANCH  11  12
ATOM     12  C   UNL     1      19.147   0.081 -22.192  1.00  0.00    -0.000 C 
BRANCH  12  13
ATOM     13  C   UNL     1      17.666   0.029 -22.598  1.00  0.00    -0.000 C 
BRANCH  13  14
ATOM     14  C   UNL     1      17.117   1.402 -23.013  1.00  0.00    -0.000 C 
BRANCH  14  15
ATOM     15  C   UNL     1      16.607   1.374 -24.459  1.00  0.00    -0.003 C 
ATOM     16  C   UNL     1      16.117  -0.019 -24.846  1.00  0.00     0.004 C 
ENDBRANCH  14  15
ENDBRANCH  13  14
ENDBRANCH  12  13
ENDBRANCH  11  12
ENDBRANCH  10  11
ENDBRANCH   1  10
TORSDOF 12
ENDMDL
MODEL 4
REMARK VINA RESULT:    -5.056      5.935      8.169
REMARK INTER + INTRA:          -9.422
REMARK INTER:                  -8.609
REMARK INTRA:                  -0.813
REMARK UNBOUND:                -0.819
REMARK SMILES CCCCCCCCCCCCCC(=O)[O-]
REMARK SMILES IDX 8 1 9 2 10 3 11 4 12 5 13 6 14 7 15 8 16 9 7 10 6 11 5 12
REMARK SMILES IDX 4 13 3 14 2 15 1 16
REMARK H PARENT
REMARK Flexibility Score: inf
ROOT
ATOM      1  C   UNL     1      19.836   0.204 -19.672  1.00  0.00     0.000 C 
ENDROOT
BRANCH   1   2
ATOM      2  C   UNL     1      20.422   0.577 -21.045  1.00  0.00     0.000 C 
BRANCH   2   3
ATOM      3  C   UNL     1      19.464   0.225 -22.202  1.00  0.00     0.000 C 
BRANCH   3   4
ATOM      4  C   UNL     1      18.284   1.202 -22.341  1.00  0.00     0.000 C 
BRANCH   4   5
ATOM      5  C   UNL     1      16.944   0.490 -22.593  1.00  0.00     0.006 C 
BRANCH   5   6
ATOM      6  C   UNL     1      16.427   0.717 -24.019  1.00  0.00     0.053 C 
BRANCH   6   7
ATOM      7  C   UNL     1      16.522  -0.528 -24.847  1.00  0.00     0.041 C 
ATOM      8  O   UNL     1      16.735  -1.641 -24.298  1.00  0.00    -0.550 OA
ATOM      9  O   UNL     1      16.342  -0.463 -26.223  1.00  0.00    -0.550 OA
ENDBRANCH   6   7
ENDBRANCH   5   6
ENDBRANCH   4   5
ENDBRANCH   3   4
ENDBRANCH   2   3
ENDBRANCH   1   2
BRANCH   1  10
ATOM     10  C   UNL     1      20.701  -0.816 -18.914  1.00  0.00     0.000 C 
BRANCH  10  11
ATOM     11  C   UNL     1      19.991  -2.164 -18.715  1.00  0.00    -0.000 C 
BRANCH  11  12
ATOM     12  C   UNL     1      19.909  -2.526 -17.224  1.00  0.00    -0.000 C 
BRANCH  12  13
ATOM     13  C   UNL     1      20.669  -1.532 -16.330  1.00  0.00    -0.000 C 
BRANCH  13  14
ATOM     14  C   UNL     1      19.776  -0.905 -15.249  1.00  0.00    -0.000 C 
BRANCH  14  15
ATOM     15  C   UNL     1      19.402   0.536 -15.615  1.00  0.00    -0.003 C 
ATOM     16  C   UNL     1      19.768   1.503 -14.492  1.00  0.00     0.004 C 
ENDBRANCH  14  15
ENDBRANCH  13  14
ENDBRANCH  12  13
ENDBRANCH  11  12
ENDBRANCH  10  11
ENDBRANCH   1  10
TORSDOF 12
ENDMDL
MODEL 5
REMARK VINA RESULT:    -5.017      6.734     11.124
REMARK INTER + INTRA:          -9.356
REMARK INTER:                  -8.418
REMARK INTRA:                  -0.938
REMARK UNBOUND:                -0.819
REMARK SMILES CCCCCCCCCCCCCC(=O)[O-]
REMARK SMILES IDX 8 1 9 2 10 3 11 4 12 5 13 6 14 7 15 8 16 9 7 10 6 11 5 12
REMARK SMILES IDX 4 13 3 14 2 15 1 16
REMARK H PARENT
REMARK Flexibility Score: inf
ROOT
ATOM      1  C   UNL     1      19.154   0.899 -22.211  1.00  0.00     0.000 C 
ENDROOT
BRANCH   1   2
ATOM      2  C   UNL     1      20.267   0.456 -21.246  1.00  0.00     0.000 C 
BRANCH   2   3
ATOM      3  C   UNL     1      19.778   0.393 -19.784  1.00  0.00     0.000 C 
BRANCH   3   4
ATOM      4  C   UNL     1      20.317  -0.821 -19.008  1.00  0.00     0.000 C 
BRANCH   4   5
ATOM      5  C   UNL     1      19.683  -0.970 -17.615  1.00  0.00     0.006 C 
BRANCH   5   6
ATOM      6  C   UNL     1      19.099   0.352 -17.100  1.00  0.00     0.053 C 
BRANCH   6   7
ATOM      7  C   UNL     1      18.788   0.286 -15.636  1.00  0.00     0.041 C 
ATOM      8  O   UNL     1      19.608  -0.239 -14.836  1.00  0.00    -0.550 OA
ATOM      9  O   UNL     1      17.609   0.836 -15.150  1.00  0.00    -0.550 OA
ENDBRANCH   6   7
ENDBRANCH   5   6
ENDBRANCH   4   5
ENDBRANCH   3   4
ENDBRANCH   2   3
ENDBRANCH   1   2
BRANCH   1  10
ATOM     10  C   UNL     1      18.230  -0.258 -22.624  1.00  0.00     0.000 C 
BRANCH  10  11
ATOM     11  C   UNL     1      16.813   0.215 -22.982  1.00  0.00    -0.000 C 
BRANCH  11  12
ATOM     12  C   UNL     1      16.828   1.672 -23.471  1.00  0.00    -0.000 C 
BRANCH  12  13
ATOM     13  C   UNL     1      16.406   1.808 -24.942  1.00  0.00    -0.000 C 
BRANCH  13  14
ATOM     14  C   UNL     1      16.131   0.451 -25.607  1.00  0.00    -0.000 C 
BRANCH  14  15
ATOM     15  C   UNL     1      17.075   0.220 -26.793  1.00  0.00    -0.003 C 
ATOM     16  C   UNL     1      18.468  -0.186 -26.320  1.00  0.00     0.004 C 
ENDBRANCH  14  15
ENDBRANCH  13  14
ENDBRANCH  12  13
ENDBRANCH  11  12
ENDBRANCH  10  11
ENDBRANCH   1  10
TORSDOF 12
ENDMDL
MODEL 6
REMARK VINA RESULT:    -4.986      9.118     12.218
REMARK INTER + INTRA:          -9.303
REMARK INTER:                  -7.707
REMARK INTRA:                  -1.596
REMARK UNBOUND:                -0.819
REMARK SMILES CCCCCCCCCCCCCC(=O)[O-]
REMARK SMILES IDX 8 1 9 2 10 3 11 4 12 5 13 6 14 7 15 8 16 9 7 10 6 11 5 12
REMARK SMILES IDX 4 13 3 14 2 15 1 16
REMARK H PARENT
REMARK Flexibility Score: inf
ROOT
ATOM      1  C   UNL     1      16.054   1.598 -25.313  1.00  0.00     0.000 C 
ENDROOT
BRANCH   1   2
ATOM      2  C   UNL     1      17.003   1.614 -26.525  1.00  0.00     0.000 C 
BRANCH   2   3
ATOM      3  C   UNL     1      17.394   0.191 -26.976  1.00  0.00     0.000 C 
BRANCH   3   4
ATOM      4  C   UNL     1      18.913  -0.043 -27.022  1.00  0.00     0.000 C 
BRANCH   4   5
ATOM      5  C   UNL     1      19.575   0.054 -25.637  1.00  0.00     0.006 C 
BRANCH   5   6
ATOM      6  C   UNL     1      20.205  -1.274 -25.201  1.00  0.00     0.053 C 
BRANCH   6   7
ATOM      7  C   UNL     1      19.272  -2.426 -25.416  1.00  0.00     0.041 C 
ATOM      8  O   UNL     1      19.473  -3.239 -26.356  1.00  0.00    -0.550 OA
ATOM      9  O   UNL     1      18.201  -2.622 -24.554  1.00  0.00    -0.550 OA
ENDBRANCH   6   7
ENDBRANCH   5   6
ENDBRANCH   4   5
ENDBRANCH   3   4
ENDBRANCH   2   3
ENDBRANCH   1   2
BRANCH   1  10
ATOM     10  C   UNL     1      16.000   0.227 -24.619  1.00  0.00     0.000 C 
BRANCH  10  11
ATOM     11  C   UNL     1      16.721   0.220 -23.263  1.00  0.00    -0.000 C 
BRANCH  11  12
ATOM     12  C   UNL     1      17.173   1.637 -22.875  1.00  0.00    -0.000 C 
BRANCH  12  13
ATOM     13  C   UNL     1      18.650   1.695 -22.456  1.00  0.00    -0.000 C 
BRANCH  13  14
ATOM     14  C   UNL     1      19.162   0.354 -21.907  1.00  0.00    -0.000 C 
BRANCH  14  15
ATOM     15  C   UNL     1      20.310   0.572 -20.914  1.00  0.00    -0.003 C 
ATOM     16  C   UNL     1      20.187  -0.362 -19.713  1.00  0.00     0.004 C 
ENDBRANCH  14  15
ENDBRANCH  13  14
ENDBRANCH  12  13
ENDBRANCH  11  12
ENDBRANCH  10  11
ENDBRANCH   1  10
TORSDOF 12
ENDMDL
MODEL 7
REMARK VINA RESULT:    -4.974      8.140     12.024
REMARK INTER + INTRA:          -9.282
REMARK INTER:                  -7.666
REMARK INTRA:                  -1.616
REMARK UNBOUND:                -0.819
REMARK SMILES CCCCCCCCCCCCCC(=O)[O-]
REMARK SMILES IDX 8 1 9 2 10 3 11 4 12 5 13 6 14 7 15 8 16 9 7 10 6 11 5 12
REMARK SMILES IDX 4 13 3 14 2 15 1 16
REMARK H PARENT
REMARK Flexibility Score: inf
ROOT
ATOM      1  C   UNL     1      16.719   0.035 -23.173  1.00  0.00     0.000 C 
ENDROOT
BRANCH   1   2
ATOM      2  C   UNL     1      17.244   1.384 -22.649  1.00  0.00     0.000 C 
BRANCH   2   3
ATOM      3  C   UNL     1      18.778   1.390 -22.492  1.00  0.00     0.000 C 
BRANCH   3   4
ATOM      4  C   UNL     1      19.331   0.124 -21.816  1.00  0.00     0.000 C 
BRANCH   4   5
ATOM      5  C   UNL     1      20.450   0.427 -20.805  1.00  0.00     0.006 C 
BRANCH   5   6
ATOM      6  C   UNL     1      19.996   0.212 -19.356  1.00  0.00     0.053 C 
BRANCH   6   7
ATOM      7  C   UNL     1      20.572  -1.044 -18.776  1.00  0.00     0.041 C 
ATOM      8  O   UNL     1      19.894  -2.106 -18.765  1.00  0.00    -0.550 OA
ATOM      9  O   UNL     1      21.869  -1.051 -18.281  1.00  0.00    -0.550 OA
ENDBRANCH   6   7
ENDBRANCH   5   6
ENDBRANCH   4   5
ENDBRANCH   3   4
ENDBRANCH   2   3
ENDBRANCH   1   2
BRANCH   1  10
ATOM     10  C   UNL     1      16.068   0.150 -24.561  1.00  0.00     0.000 C 
BRANCH  10  11
ATOM     11  C   UNL     1      16.172   1.565 -25.149  1.00  0.00    -0.000 C 
BRANCH  11  12
ATOM     12  C   UNL     1      16.958   1.553 -26.470  1.00  0.00    -0.000 C 
BRANCH  12  13
ATOM     13  C   UNL     1      17.607   0.191 -26.761  1.00  0.00    -0.000 C 
BRANCH  13  14
ATOM     14  C   UNL     1      19.139   0.271 -26.847  1.00  0.00    -0.000 C 
BRANCH  14  15
ATOM     15  C   UNL     1      19.790  -0.331 -25.596  1.00  0.00    -0.003 C 
ATOM     16  C   UNL     1      19.210  -1.706 -25.278  1.00  0.00     0.004 C 
ENDBRANCH  14  15
ENDBRANCH  13  14
ENDBRANCH  12  13
ENDBRANCH  11  12
ENDBRANCH  10  11
ENDBRANCH   1  10
TORSDOF 12
ENDMDL
MODEL 8
REMARK VINA RESULT:    -4.963     10.421     13.123
REMARK INTER + INTRA:          -9.263
REMARK INTER:                  -7.504
REMARK INTRA:                  -1.759
REMARK UNBOUND:                -0.819
REMARK SMILES CCCCCCCCCCCCCC(=O)[O-]
REMARK SMILES IDX 8 1 9 2 10 3 11 4 12 5 13 6 14 7 15 8 16 9 7 10 6 11 5 12
REMARK SMILES IDX 4 13 3 14 2 15 1 16
REMARK H PARENT
REMARK Flexibility Score: inf
ROOT
ATOM      1  C   UNL     1      19.163  -0.022 -23.065  1.00  0.00     0.000 C 
ENDROOT
BRANCH   1   2
ATOM      2  C   UNL     1      20.625   0.455 -22.993  1.00  0.00     0.000 C 
BRANCH   2   3
ATOM      3  C   UNL     1      21.431   0.050 -24.244  1.00  0.00     0.000 C 
BRANCH   3   4
ATOM      4  C   UNL     1      20.661   0.246 -25.561  1.00  0.00     0.000 C 
BRANCH   4   5
ATOM      5  C   UNL     1      20.524  -1.053 -26.372  1.00  0.00     0.006 C 
BRANCH   5   6
ATOM      6  C   UNL     1      19.238  -1.816 -26.032  1.00  0.00     0.053 C 
BRANCH   6   7
ATOM      7  C   UNL     1      19.532  -3.149 -25.414  1.00  0.00     0.041 C 
ATOM      8  O   UNL     1      18.594  -3.863 -24.970  1.00  0.00    -0.550 OA
ATOM      9  O   UNL     1      20.838  -3.617 -25.361  1.00  0.00    -0.550 OA
ENDBRANCH   6   7
ENDBRANCH   5   6
ENDBRANCH   4   5
ENDBRANCH   3   4
ENDBRANCH   2   3
ENDBRANCH   1   2
BRANCH   1  10
ATOM     10  C   UNL     1      18.201   0.890 -22.288  1.00  0.00     0.000 C 
BRANCH  10  11
ATOM     11  C   UNL     1      16.755   0.797 -22.797  1.00  0.00    -0.000 C 
BRANCH  11  12
ATOM     12  C   UNL     1      16.638  -0.236 -23.929  1.00  0.00    -0.000 C 
BRANCH  12  13
ATOM     13  C   UNL     1      15.987   0.344 -25.195  1.00  0.00    -0.000 C 
BRANCH  13  14
ATOM     14  C   UNL     1      15.994   1.880 -25.214  1.00  0.00    -0.000 C 
BRANCH  14  15
ATOM     15  C   UNL     1      17.090   2.411 -26.147  1.00  0.00    -0.003 C 
ATOM     16  C   UNL     1      18.227   3.050 -25.356  1.00  0.00     0.004 C 
ENDBRANCH  14  15
ENDBRANCH  13  14
ENDBRANCH  12  13
ENDBRANCH  11  12
ENDBRANCH  10  11
ENDBRANCH   1  10
TORSDOF 12
ENDMDL
MODEL 9
REMARK VINA RESULT:    -4.945      7.292     11.569
REMARK INTER + INTRA:          -9.233
REMARK INTER:                  -8.094
REMARK INTRA:                  -1.139
REMARK UNBOUND:                -0.819
REMARK SMILES CCCCCCCCCCCCCC(=O)[O-]
REMARK SMILES IDX 8 1 9 2 10 3 11 4 12 5 13 6 14 7 15 8 16 9 7 10 6 11 5 12
REMARK SMILES IDX 4 13 3 14 2 15 1 16
REMARK H PARENT
REMARK Flexibility Score: inf
ROOT
ATOM      1  C   UNL     1      19.270   0.724 -23.122  1.00  0.00     0.000 C 
ENDROOT
BRANCH   1   2
ATOM      2  C   UNL     1      20.341   0.653 -22.019  1.00  0.00     0.000 C 
BRANCH   2   3
ATOM      3  C   UNL     1      19.779   0.085 -20.699  1.00  0.00     0.000 C 
BRANCH   3   4
ATOM      4  C   UNL     1      20.384   0.735 -19.444  1.00  0.00     0.000 C 
BRANCH   4   5
ATOM      5  C   UNL     1      20.958  -0.294 -18.455  1.00  0.00     0.006 C 
BRANCH   5   6
ATOM      6  C   UNL     1      20.515  -1.725 -18.785  1.00  0.00     0.053 C 
BRANCH   6   7
ATOM      7  C   UNL     1      19.836  -2.377 -17.619  1.00  0.00     0.041 C 
ATOM      8  O   UNL     1      19.363  -3.539 -17.729  1.00  0.00    -0.550 OA
ATOM      9  O   UNL     1      19.758  -1.715 -16.401  1.00  0.00    -0.550 OA
ENDBRANCH   6   7
ENDBRANCH   5   6
ENDBRANCH   4   5
ENDBRANCH   3   4
ENDBRANCH   2   3
ENDBRANCH   1   2
BRANCH   1  10
ATOM     10  C   UNL     1      18.115  -0.263 -22.894  1.00  0.00     0.000 C 
BRANCH  10  11
ATOM     11  C   UNL     1      16.736   0.377 -23.115  1.00  0.00    -0.000 C 
BRANCH  11  12
ATOM     12  C   UNL     1      16.868   1.727 -23.838  1.00  0.00    -0.000 C 
BRANCH  12  13
ATOM     13  C   UNL     1      16.063   1.779 -25.146  1.00  0.00    -0.000 C 
BRANCH  13  14
ATOM     14  C   UNL     1      16.959   1.767 -26.393  1.00  0.00    -0.000 C 
BRANCH  14  15
ATOM     15  C   UNL     1      17.393   0.338 -26.742  1.00  0.00    -0.003 C 
ATOM     16  C   UNL     1      18.913   0.202 -26.722  1.00  0.00     0.004 C 
ENDBRANCH  14  15
ENDBRANCH  13  14
ENDBRANCH  12  13
ENDBRANCH  11  12
ENDBRANCH  10  11
ENDBRANCH   1  10
TORSDOF 12
ENDMDL
