MODEL 1
REMARK VINA RESULT:    -4.912      0.000      0.000
REMARK INTER + INTRA:         -11.390
REMARK INTER:                  -9.506
REMARK INTRA:                  -1.884
REMARK UNBOUND:                -1.884
REMARK SMILES CCCCCCCCCCCCCCCCCC(=O)[O-]
REMARK SMILES IDX 10 1 11 2 12 3 13 4 14 5 15 6 16 7 17 8 18 9 19 10 20 11
REMARK SMILES IDX 9 12 8 13 7 14 6 15 5 16 4 17 3 18 2 19 1 20
REMARK H PARENT
REMARK Flexibility Score: inf
ROOT
ATOM      1  C   UNL     1       2.951  42.880  10.261  1.00  0.00     0.000 C 
ENDROOT
BRANCH   1   2
ATOM      2  C   UNL     1       2.308  43.502  11.514  1.00  0.00     0.000 C 
BRANCH   2   3
ATOM      3  C   UNL     1       3.323  44.236  12.403  1.00  0.00     0.000 C 
BRANCH   3   4
ATOM      4  C   UNL     1       4.402  44.921  11.554  1.00  0.00     0.000 C 
BRANCH   4   5
ATOM      5  C   UNL     1       3.877  46.226  10.943  1.00  0.00     0.000 C 
BRANCH   5   6
ATOM      6  C   UNL     1       4.219  46.309   9.448  1.00  0.00     0.000 C 
BRANCH   6   7
ATOM      7  C   UNL     1       5.097  47.523   9.107  1.00  0.00     0.006 C 
BRANCH   7   8
ATOM      8  C   UNL     1       6.460  47.481   9.810  1.00  0.00     0.053 C 
BRANCH   8   9
ATOM      9  C   UNL     1       7.292  48.656   9.404  1.00  0.00     0.041 C 
ATOM     10  O   UNL     1       8.436  48.824   9.900  1.00  0.00    -0.550 OA
ATOM     11  O   UNL     1       6.824  49.539   8.438  1.00  0.00    -0.550 OA
ENDBRANCH   8   9
ENDBRANCH   7   8
ENDBRANCH   6   7
ENDBRANCH   5   6
ENDBRANCH   4   5
ENDBRANCH   3   4
ENDBRANCH   2   3
ENDBRANCH   1   2
BRANCH   1  12
ATOM     12  C   UNL     1       2.266  43.244   8.929  1.00  0.00     0.000 C 
BRANCH  12  13
ATOM     13  C   UNL     1       1.209  44.362   9.021  1.00  0.00    -0.000 C 
BRANCH  13  14
ATOM     14  C   UNL     1       0.489  44.687   7.698  1.00  0.00    -0.000 C 
BRANCH  14  15
ATOM     15  C   UNL     1       0.045  46.155   7.543  1.00  0.00    -0.000 C 
BRANCH  15  16
ATOM     16  C   UNL     1       0.640  47.127   8.580  1.00  0.00    -0.000 C 
BRANCH  16  17
ATOM     17  C   UNL     1       1.563  48.216   7.997  1.00  0.00    -0.000 C 
BRANCH  17  18
ATOM     18  C   UNL     1       0.917  49.609   7.852  1.00  0.00    -0.000 C 
BRANCH  18  19
ATOM     19  C   UNL     1       1.897  50.744   7.506  1.00  0.00    -0.003 C 
ATOM     20  C   UNL     1       3.359  50.299   7.540  1.00  0.00     0.004 C 
ENDBRANCH  18  19
ENDBRANCH  17  18
ENDBRANCH  16  17
ENDBRANCH  15  16
ENDBRANCH  14  15
ENDBRANCH  13  14
ENDBRANCH  12  13
ENDBRANCH   1  12
TORSDOF 16
ENDMDL
MODEL 2
REMARK VINA RESULT:    -4.904      1.638      4.609
REMARK INTER + INTRA:         -11.374
REMARK INTER:                  -9.481
REMARK INTRA:                  -1.892
REMARK UNBOUND:                -1.884
REMARK SMILES CCCCCCCCCCCCCCCCCC(=O)[O-]
REMARK SMILES IDX 10 1 11 2 12 3 13 4 14 5 15 6 16 7 17 8 18 9 19 10 20 11
REMARK SMILES IDX 9 12 8 13 7 14 6 15 5 16 4 17 3 18 2 19 1 20
REMARK H PARENT
REMARK Flexibility Score: inf
ROOT
ATOM      1  C   UNL     1       3.297  43.365   8.938  1.00  0.00     0.000 C 
ENDROOT
BRANCH   1   2
ATOM      2  C   UNL     1       1.760  43.310   8.900  1.00  0.00     0.000 C 
BRANCH   2   3
ATOM      3  C   UNL     1       1.110  44.699   8.983  1.00  0.00     0.000 C 
BRANCH   3   4
ATOM      4  C   UNL     1       0.403  45.054   7.669  1.00  0.00     0.000 C 
BRANCH   4   5
ATOM      5  C   UNL     1      -0.612  46.184   7.876  1.00  0.00     0.000 C 
BRANCH   5   6
ATOM      6  C   UNL     1       0.037  47.384   8.580  1.00  0.00     0.000 C 
BRANCH   6   7
ATOM      7  C   UNL     1       1.053  48.116   7.689  1.00  0.00     0.006 C 
BRANCH   7   8
ATOM      8  C   UNL     1       1.727  49.293   8.407  1.00  0.00     0.053 C 
BRANCH   8   9
ATOM      9  C   UNL     1       2.944  49.733   7.656  1.00  0.00     0.041 C 
ATOM     10  O   UNL     1       3.291  50.943   7.665  1.00  0.00    -0.550 OA
ATOM     11  O   UNL     1       3.725  48.797   6.988  1.00  0.00    -0.550 OA
ENDBRANCH   8   9
ENDBRANCH   7   8
ENDBRANCH   6   7
ENDBRANCH   5   6
ENDBRANCH   4   5
ENDBRANCH   3   4
ENDBRANCH   2   3
ENDBRANCH   1   2
BRANCH   1  12
ATOM     12  C   UNL     1       3.932  42.929  10.274  1.00  0.00     0.000 C 
BRANCH  12  13
ATOM     13  C   UNL     1       3.014  43.053  11.505  1.00  0.00    -0.000 C 
BRANCH  13  14
ATOM     14  C   UNL     1       3.360  44.211  12.461  1.00  0.00    -0.000 C 
BRANCH  14  15
ATOM     15  C   UNL     1       4.209  45.337  11.838  1.00  0.00    -0.000 C 
BRANCH  15  16
ATOM     16  C   UNL     1       3.421  46.349  10.984  1.00  0.00    -0.000 C 
BRANCH  16  17
ATOM     17  C   UNL     1       4.181  46.901   9.762  1.00  0.00    -0.000 C 
BRANCH  17  18
ATOM     18  C   UNL     1       5.713  46.973   9.923  1.00  0.00    -0.000 C 
BRANCH  18  19
ATOM     19  C   UNL     1       6.405  48.046   9.066  1.00  0.00    -0.003 C 
ATOM     20  C   UNL     1       7.797  48.413   9.581  1.00  0.00     0.004 C 
ENDBRANCH  18  19
ENDBRANCH  17  18
ENDBRANCH  16  17
ENDBRANCH  15  16
ENDBRANCH  14  15
ENDBRANCH  13  14
ENDBRANCH  12  13
ENDBRANCH   1  12
TORSDOF 16
ENDMDL
MODEL 3
REMARK VINA RESULT:    -4.762      2.541      5.075
REMARK INTER + INTRA:         -11.100
REMARK INTER:                  -8.801
REMARK INTRA:                  -2.299
REMARK UNBOUND:                -1.884
REMARK SMILES CCCCCCCCCCCCCCCCCC(=O)[O-]
REMARK SMILES IDX 10 1 11 2 12 3 13 4 14 5 15 6 16 7 17 8 18 9 19 10 20 11
REMARK SMILES IDX 9 12 8 13 7 14 6 15 5 16 4 17 3 18 2 19 1 20
REMARK H PARENT
REMARK Flexibility Score: inf
ROOT
ATOM      1  C   UNL     1       5.167  47.620   9.064  1.00  0.00     0.000 C 
ENDROOT
BRANCH   1   2
ATOM      2  C   UNL     1       3.940  46.697   9.176  1.00  0.00     0.000 C 
BRANCH   2   3
ATOM      3  C   UNL     1       3.496  46.467  10.628  1.00  0.00     0.000 C 
BRANCH   3   4
ATOM      4  C   UNL     1       4.586  45.739  11.426  1.00  0.00     0.000 C 
BRANCH   4   5
ATOM      5  C   UNL     1       3.985  44.623  12.290  1.00  0.00     0.000 C 
BRANCH   5   6
ATOM      6  C   UNL     1       2.461  44.548  12.108  1.00  0.00     0.000 C 
BRANCH   6   7
ATOM      7  C   UNL     1       1.991  43.174  11.608  1.00  0.00     0.006 C 
BRANCH   7   8
ATOM      8  C   UNL     1       3.046  42.465  10.749  1.00  0.00     0.053 C 
BRANCH   8   9
ATOM      9  C   UNL     1       3.014  42.989   9.348  1.00  0.00     0.041 C 
ATOM     10  O   UNL     1       1.917  43.126   8.748  1.00  0.00    -0.550 OA
ATOM     11  O   UNL     1       4.194  43.375   8.724  1.00  0.00    -0.550 OA
ENDBRANCH   8   9
ENDBRANCH   7   8
ENDBRANCH   6   7
ENDBRANCH   5   6
ENDBRANCH   4   5
ENDBRANCH   3   4
ENDBRANCH   2   3
ENDBRANCH   1   2
BRANCH   1  12
ATOM     12  C   UNL     1       5.014  48.791   8.073  1.00  0.00     0.000 C 
BRANCH  12  13
ATOM     13  C   UNL     1       3.673  48.833   7.315  1.00  0.00    -0.000 C 
BRANCH  13  14
ATOM     14  C   UNL     1       2.733  49.986   7.719  1.00  0.00    -0.000 C 
BRANCH  14  15
ATOM     15  C   UNL     1       1.539  49.572   8.601  1.00  0.00    -0.000 C 
BRANCH  15  16
ATOM     16  C   UNL     1       0.171  49.587   7.891  1.00  0.00    -0.000 C 
BRANCH  16  17
ATOM     17  C   UNL     1      -0.571  48.236   7.877  1.00  0.00    -0.000 C 
BRANCH  17  18
ATOM     18  C   UNL     1       0.263  47.039   7.376  1.00  0.00    -0.000 C 
BRANCH  18  19
ATOM     19  C   UNL     1       0.132  45.760   8.222  1.00  0.00    -0.003 C 
ATOM     20  C   UNL     1       0.011  46.046   9.719  1.00  0.00     0.004 C 
ENDBRANCH  18  19
ENDBRANCH  17  18
ENDBRANCH  16  17
ENDBRANCH  15  16
ENDBRANCH  14  15
ENDBRANCH  13  14
ENDBRANCH  12  13
ENDBRANCH   1  12
TORSDOF 16
ENDMDL
MODEL 4
REMARK VINA RESULT:    -4.735      2.701      5.667
REMARK INTER + INTRA:         -11.048
REMARK INTER:                  -9.268
REMARK INTRA:                  -1.780
REMARK UNBOUND:                -1.884
REMARK SMILES CCCCCCCCCCCCCCCCCC(=O)[O-]
REMARK SMILES IDX 10 1 11 2 12 3 13 4 14 5 15 6 16 7 17 8 18 9 19 10 20 11
REMARK SMILES IDX 9 12 8 13 7 14 6 15 5 16 4 17 3 18 2 19 1 20
REMARK H PARENT
REMARK Flexibility Score: inf
ROOT
ATOM      1  C   UNL     1      -0.805  48.511   8.089  1.00  0.00     0.000 C 
ENDROOT
BRANCH   1   2
ATOM      2  C   UNL     1      -0.848  47.230   7.237  1.00  0.00     0.000 C 
BRANCH   2   3
ATOM      3  C   UNL     1      -0.083  46.062   7.876  1.00  0.00     0.000 C 
BRANCH   3   4
ATOM      4  C   UNL     1       0.010  46.234   9.397  1.00  0.00     0.000 C 
BRANCH   4   5
ATOM      5  C   UNL     1       1.222  45.485   9.964  1.00  0.00     0.000 C 
BRANCH   5   6
ATOM      6  C   UNL     1       1.551  44.249   9.114  1.00  0.00     0.000 C 
BRANCH   6   7
ATOM      7  C   UNL     1       2.595  43.335   9.775  1.00  0.00     0.006 C 
BRANCH   7   8
ATOM      8  C   UNL     1       3.636  44.118  10.587  1.00  0.00     0.053 C 
BRANCH   8   9
ATOM      9  C   UNL     1       3.416  43.912  12.052  1.00  0.00     0.041 C 
ATOM     10  O   UNL     1       4.251  44.351  12.885  1.00  0.00    -0.550 OA
ATOM     11  O   UNL     1       2.261  43.282  12.500  1.00  0.00    -0.550 OA
ENDBRANCH   8   9
ENDBRANCH   7   8
ENDBRANCH   6   7
ENDBRANCH   5   6
ENDBRANCH   4   5
ENDBRANCH   3   4
ENDBRANCH   2   3
ENDBRANCH   1   2
BRANCH   1  12
ATOM     12  C   UNL     1       0.244  49.551   7.650  1.00  0.00     0.000 C 
BRANCH  12  13
ATOM     13  C   UNL     1       1.513  49.607   8.522  1.00  0.00    -0.000 C 
BRANCH  13  14
ATOM     14  C   UNL     1       2.798  50.018   7.776  1.00  0.00    -0.000 C 
BRANCH  14  15
ATOM     15  C   UNL     1       3.760  48.858   7.451  1.00  0.00    -0.000 C 
BRANCH  15  16
ATOM     16  C   UNL     1       3.656  47.644   8.394  1.00  0.00    -0.000 C 
BRANCH  16  17
ATOM     17  C   UNL     1       4.955  47.290   9.146  1.00  0.00    -0.000 C 
BRANCH  17  18
ATOM     18  C   UNL     1       6.167  48.183   8.811  1.00  0.00    -0.000 C 
BRANCH  18  19
ATOM     19  C   UNL     1       7.453  47.846   9.584  1.00  0.00    -0.003 C 
ATOM     20  C   UNL     1       8.332  49.071   9.839  1.00  0.00     0.004 C 
ENDBRANCH  18  19
ENDBRANCH  17  18
ENDBRANCH  16  17
ENDBRANCH  15  16
ENDBRANCH  14  15
ENDBRANCH  13  14
ENDBRANCH  12  13
ENDBRANCH   1  12
TORSDOF 16
ENDMDL
MODEL 5
REMARK VINA RESULT:    -4.733      1.721      4.766
REMARK INTER + INTRA:         -11.044
REMARK INTER:                  -8.785
REMARK INTRA:                  -2.259
REMARK UNBOUND:                -1.884
REMARK SMILES CCCCCCCCCCCCCCCCCC(=O)[O-]
REMARK SMILES IDX 10 1 11 2 12 3 13 4 14 5 15 6 16 7 17 8 18 9 19 10 20 11
REMARK SMILES IDX 9 12 8 13 7 14 6 15 5 16 4 17 3 18 2 19 1 20
REMARK H PARENT
REMARK Flexibility Score: inf
ROOT
ATOM      1  C   UNL     1       1.507  43.829   8.945  1.00  0.00     0.000 C 
ENDROOT
BRANCH   1   2
ATOM      2  C   UNL     1       1.443  45.363   8.828  1.00  0.00     0.000 C 
BRANCH   2   3
ATOM      3  C   UNL     1       0.419  45.992   9.783  1.00  0.00     0.000 C 
BRANCH   3   4
ATOM      4  C   UNL     1      -0.844  46.423   9.027  1.00  0.00     0.000 C 
BRANCH   4   5
ATOM      5  C   UNL     1      -0.490  47.281   7.806  1.00  0.00     0.000 C 
BRANCH   5   6
ATOM      6  C   UNL     1      -0.779  48.765   8.074  1.00  0.00     0.000 C 
BRANCH   6   7
ATOM      7  C   UNL     1       0.417  49.672   7.742  1.00  0.00     0.006 C 
BRANCH   7   8
ATOM      8  C   UNL     1       1.635  49.392   8.632  1.00  0.00     0.053 C 
BRANCH   8   9
ATOM      9  C   UNL     1       2.882  49.338   7.807  1.00  0.00     0.041 C 
ATOM     10  O   UNL     1       3.613  50.357   7.699  1.00  0.00    -0.550 OA
ATOM     11  O   UNL     1       3.263  48.148   7.200  1.00  0.00    -0.550 OA
ENDBRANCH   8   9
ENDBRANCH   7   8
ENDBRANCH   6   7
ENDBRANCH   5   6
ENDBRANCH   4   5
ENDBRANCH   3   4
ENDBRANCH   2   3
ENDBRANCH   1   2
BRANCH   1  12
ATOM     12  C   UNL     1       2.930  43.237   8.983  1.00  0.00     0.000 C 
BRANCH  12  13
ATOM     13  C   UNL     1       3.440  42.848  10.384  1.00  0.00    -0.000 C 
BRANCH  13  14
ATOM     14  C   UNL     1       2.571  43.350  11.554  1.00  0.00    -0.000 C 
BRANCH  14  15
ATOM     15  C   UNL     1       3.154  44.546  12.331  1.00  0.00    -0.000 C 
BRANCH  15  16
ATOM     16  C   UNL     1       4.406  45.184  11.698  1.00  0.00    -0.000 C 
BRANCH  16  17
ATOM     17  C   UNL     1       4.137  46.438  10.842  1.00  0.00    -0.000 C 
BRANCH  17  18
ATOM     18  C   UNL     1       5.053  46.599   9.613  1.00  0.00    -0.000 C 
BRANCH  18  19
ATOM     19  C   UNL     1       5.838  47.922   9.559  1.00  0.00    -0.003 C 
ATOM     20  C   UNL     1       7.352  47.715   9.533  1.00  0.00     0.004 C 
ENDBRANCH  18  19
ENDBRANCH  17  18
ENDBRANCH  16  17
ENDBRANCH  15  16
ENDBRANCH  14  15
ENDBRANCH  13  14
ENDBRANCH  12  13
ENDBRANCH   1  12
TORSDOF 16
ENDMDL
MODEL 6
REMARK VINA RESULT:    -4.704      2.747      5.145
REMARK INTER + INTRA:         -10.987
REMARK INTER:                  -8.730
REMARK INTRA:                  -2.258
REMARK UNBOUND:                -1.884
REMARK SMILES CCCCCCCCCCCCCCCCCC(=O)[O-]
REMARK SMILES IDX 10 1 11 2 12 3 13 4 14 5 15 6 16 7 17 8 18 9 19 10 20 11
REMARK SMILES IDX 9 12 8 13 7 14 6 15 5 16 4 17 3 18 2 19 1 20
REMARK H PARENT
REMARK Flexibility Score: inf
ROOT
ATOM      1  C   UNL     1      -0.872  46.705   8.043  1.00  0.00     0.000 C 
ENDROOT
BRANCH   1   2
ATOM      2  C   UNL     1      -0.133  45.426   7.610  1.00  0.00     0.000 C 
BRANCH   2   3
ATOM      3  C   UNL     1       0.834  44.903   8.682  1.00  0.00     0.000 C 
BRANCH   3   4
ATOM      4  C   UNL     1       0.597  45.607  10.025  1.00  0.00     0.000 C 
BRANCH   4   5
ATOM      5  C   UNL     1       1.063  44.732  11.195  1.00  0.00     0.000 C 
BRANCH   5   6
ATOM      6  C   UNL     1       2.501  45.082  11.605  1.00  0.00     0.000 C 
BRANCH   6   7
ATOM      7  C   UNL     1       3.269  43.874  12.164  1.00  0.00     0.006 C 
BRANCH   7   8
ATOM      8  C   UNL     1       4.352  43.367  11.203  1.00  0.00     0.053 C 
BRANCH   8   9
ATOM      9  C   UNL     1       3.738  42.920   9.915  1.00  0.00     0.041 C 
ATOM     10  O   UNL     1       4.159  43.376   8.820  1.00  0.00    -0.550 OA
ATOM     11  O   UNL     1       2.734  41.958   9.920  1.00  0.00    -0.550 OA
ENDBRANCH   8   9
ENDBRANCH   7   8
ENDBRANCH   6   7
ENDBRANCH   5   6
ENDBRANCH   4   5
ENDBRANCH   3   4
ENDBRANCH   2   3
ENDBRANCH   1   2
BRANCH   1  12
ATOM     12  C   UNL     1      -0.746  47.893   7.069  1.00  0.00     0.000 C 
BRANCH  12  13
ATOM     13  C   UNL     1      -0.281  49.216   7.708  1.00  0.00    -0.000 C 
BRANCH  13  14
ATOM     14  C   UNL     1       1.054  49.134   8.474  1.00  0.00    -0.000 C 
BRANCH  14  15
ATOM     15  C   UNL     1       2.298  49.537   7.659  1.00  0.00    -0.000 C 
BRANCH  15  16
ATOM     16  C   UNL     1       3.464  48.530   7.711  1.00  0.00    -0.000 C 
BRANCH  16  17
ATOM     17  C   UNL     1       3.401  47.520   8.874  1.00  0.00    -0.000 C 
BRANCH  17  18
ATOM     18  C   UNL     1       4.664  46.654   9.056  1.00  0.00    -0.000 C 
BRANCH  18  19
ATOM     19  C   UNL     1       5.721  47.243  10.006  1.00  0.00    -0.003 C 
ATOM     20  C   UNL     1       6.874  47.922   9.266  1.00  0.00     0.004 C 
ENDBRANCH  18  19
ENDBRANCH  17  18
ENDBRANCH  16  17
ENDBRANCH  15  16
ENDBRANCH  14  15
ENDBRANCH  13  14
ENDBRANCH  12  13
ENDBRANCH   1  12
TORSDOF 16
ENDMDL
MODEL 7
REMARK VINA RESULT:    -4.613      1.556      5.154
REMARK INTER + INTRA:         -10.811
REMARK INTER:                  -8.744
REMARK INTRA:                  -2.067
REMARK UNBOUND:                -1.884
REMARK SMILES CCCCCCCCCCCCCCCCCC(=O)[O-]
REMARK SMILES IDX 10 1 11 2 12 3 13 4 14 5 15 6 16 7 17 8 18 9 19 10 20 11
REMARK SMILES IDX 9 12 8 13 7 14 6 15 5 16 4 17 3 18 2 19 1 20
REMARK H PARENT
REMARK Flexibility Score: inf
ROOT
ATOM      1  C   UNL     1       0.060  47.674   7.188  1.00  0.00     0.000 C 
ENDROOT
BRANCH   1   2
ATOM      2  C   UNL     1      -0.242  48.928   8.028  1.00  0.00     0.000 C 
BRANCH   2   3
ATOM      3  C   UNL     1       0.572  50.154   7.585  1.00  0.00     0.000 C 
BRANCH   3   4
ATOM      4  C   UNL     1       1.861  50.283   8.408  1.00  0.00     0.000 C 
BRANCH   4   5
ATOM      5  C   UNL     1       3.099  50.209   7.506  1.00  0.00     0.000 C 
BRANCH   5   6
ATOM      6  C   UNL     1       3.599  48.763   7.376  1.00  0.00     0.000 C 
BRANCH   6   7
ATOM      7  C   UNL     1       3.253  47.903   8.601  1.00  0.00     0.006 C 
BRANCH   7   8
ATOM      8  C   UNL     1       4.196  46.704   8.767  1.00  0.00     0.053 C 
BRANCH   8   9
ATOM      9  C   UNL     1       5.261  47.014   9.770  1.00  0.00     0.041 C 
ATOM     10  O   UNL     1       5.153  46.605  10.956  1.00  0.00    -0.550 OA
ATOM     11  O   UNL     1       6.399  47.711   9.383  1.00  0.00    -0.550 OA
ENDBRANCH   8   9
ENDBRANCH   7   8
ENDBRANCH   6   7
ENDBRANCH   5   6
ENDBRANCH   4   5
ENDBRANCH   3   4
ENDBRANCH   2   3
ENDBRANCH   1   2
BRANCH   1  12
ATOM     12  C   UNL     1      -0.841  46.459   7.484  1.00  0.00     0.000 C 
BRANCH  12  13
ATOM     13  C   UNL     1      -0.161  45.086   7.316  1.00  0.00    -0.000 C 
BRANCH  13  14
ATOM     14  C   UNL     1       0.766  44.674   8.476  1.00  0.00    -0.000 C 
BRANCH  14  15
ATOM     15  C   UNL     1       0.647  45.541   9.744  1.00  0.00    -0.000 C 
BRANCH  15  16
ATOM     16  C   UNL     1       0.879  44.790  11.070  1.00  0.00    -0.000 C 
BRANCH  16  17
ATOM     17  C   UNL     1       2.335  44.798  11.577  1.00  0.00    -0.000 C 
BRANCH  17  18
ATOM     18  C   UNL     1       3.018  43.416  11.620  1.00  0.00    -0.000 C 
BRANCH  18  19
ATOM     19  C   UNL     1       4.205  43.249  10.656  1.00  0.00    -0.003 C 
ATOM     20  C   UNL     1       3.770  43.090   9.199  1.00  0.00     0.004 C 
ENDBRANCH  18  19
ENDBRANCH  17  18
ENDBRANCH  16  17
ENDBRANCH  15  16
ENDBRANCH  14  15
ENDBRANCH  13  14
ENDBRANCH  12  13
ENDBRANCH   1  12
TORSDOF 16
ENDMDL
MODEL 8
REMARK VINA RESULT:    -4.501      4.383      6.546
REMARK INTER + INTRA:         -10.594
REMARK INTER:                  -8.848
REMARK INTRA:                  -1.746
REMARK UNBOUND:                -1.884
REMARK SMILES CCCCCCCCCCCCCCCCCC(=O)[O-]
REMARK SMILES IDX 10 1 11 2 12 3 13 4 14 5 15 6 16 7 17 8 18 9 19 10 20 11
REMARK SMILES IDX 9 12 8 13 7 14 6 15 5 16 4 17 3 18 2 19 1 20
REMARK H PARENT
REMARK Flexibility Score: inf
ROOT
ATOM      1  C   UNL     1       4.429  46.201   9.628  1.00  0.00     0.000 C 
ENDROOT
BRANCH   1   2
ATOM      2  C   UNL     1       3.984  46.219  11.101  1.00  0.00     0.000 C 
BRANCH   2   3
ATOM      3  C   UNL     1       3.857  44.813  11.705  1.00  0.00     0.000 C 
BRANCH   3   4
ATOM      4  C   UNL     1       3.810  43.746  10.603  1.00  0.00     0.000 C 
BRANCH   4   5
ATOM      5  C   UNL     1       2.485  42.974  10.638  1.00  0.00     0.000 C 
BRANCH   5   6
ATOM      6  C   UNL     1       1.681  43.319  11.901  1.00  0.00     0.000 C 
BRANCH   6   7
ATOM      7  C   UNL     1       1.522  42.120  12.848  1.00  0.00     0.006 C 
BRANCH   7   8
ATOM      8  C   UNL     1       0.151  42.089  13.536  1.00  0.00     0.053 C 
BRANCH   8   9
ATOM      9  C   UNL     1       0.090  40.970  14.527  1.00  0.00     0.041 C 
ATOM     10  O   UNL     1      -0.039  41.218  15.754  1.00  0.00    -0.550 OA
ATOM     11  O   UNL     1       0.123  39.651  14.090  1.00  0.00    -0.550 OA
ENDBRANCH   8   9
ENDBRANCH   7   8
ENDBRANCH   6   7
ENDBRANCH   5   6
ENDBRANCH   4   5
ENDBRANCH   3   4
ENDBRANCH   2   3
ENDBRANCH   1   2
BRANCH   1  12
ATOM     12  C   UNL     1       5.406  47.324   9.228  1.00  0.00     0.000 C 
BRANCH  12  13
ATOM     13  C   UNL     1       4.804  48.427   8.336  1.00  0.00    -0.000 C 
BRANCH  13  14
ATOM     14  C   UNL     1       3.444  48.078   7.700  1.00  0.00    -0.000 C 
BRANCH  14  15
ATOM     15  C   UNL     1       2.445  49.249   7.620  1.00  0.00    -0.000 C 
BRANCH  15  16
ATOM     16  C   UNL     1       1.164  49.070   8.460  1.00  0.00    -0.000 C 
BRANCH  16  17
ATOM     17  C   UNL     1       0.396  47.758   8.203  1.00  0.00    -0.000 C 
BRANCH  17  18
ATOM     18  C   UNL     1       0.685  46.625   9.208  1.00  0.00    -0.000 C 
BRANCH  18  19
ATOM     19  C   UNL     1       0.727  45.213   8.598  1.00  0.00    -0.003 C 
ATOM     20  C   UNL     1      -0.094  45.094   7.314  1.00  0.00     0.004 C 
ENDBRANCH  18  19
ENDBRANCH  17  18
ENDBRANCH  16  17
ENDBRANCH  15  16
ENDBRANCH  14  15
ENDBRANCH  13  14
ENDBRANCH  12  13
ENDBRANCH   1  12
TORSDOF 16
ENDMDL
MODEL 9
REMARK VINA RESULT:    -4.470      3.008      6.713
REMARK INTER + INTRA:         -10.535
REMARK INTER:                  -8.533
REMARK INTRA:                  -2.001
REMARK UNBOUND:                -1.884
REMARK SMILES CCCCCCCCCCCCCCCCCC(=O)[O-]
REMARK SMILES IDX 10 1 11 2 12 3 13 4 14 5 15 6 16 7 17 8 18 9 19 10 20 11
REMARK SMILES IDX 9 12 8 13 7 14 6 15 5 16 4 17 3 18 2 19 1 20
REMARK H PARENT
REMARK Flexibility Score: inf
ROOT
ATOM      1  C   UNL     1       4.288  47.803   8.478  1.00  0.00     0.000 C 
ENDROOT
BRANCH   1   2
ATOM      2  C   UNL     1       3.789  48.676   7.312  1.00  0.00     0.000 C 
BRANCH   2   3
ATOM      3  C   UNL     1       3.466  50.115   7.740  1.00  0.00     0.000 C 
BRANCH   3   4
ATOM      4  C   UNL     1       2.010  50.472   7.410  1.00  0.00     0.000 C 
BRANCH   4   5
ATOM      5  C   UNL     1       1.038  49.748   8.350  1.00  0.00     0.000 C 
BRANCH   5   6
ATOM      6  C   UNL     1      -0.333  49.562   7.685  1.00  0.00     0.000 C 
BRANCH   6   7
ATOM      7  C   UNL     1      -0.874  48.131   7.832  1.00  0.00     0.006 C 
BRANCH   7   8
ATOM      8  C   UNL     1       0.080  47.077   7.257  1.00  0.00     0.053 C 
BRANCH   8   9
ATOM      9  C   UNL     1      -0.004  45.810   8.048  1.00  0.00     0.041 C 
ATOM     10  O   UNL     1       0.081  44.695   7.470  1.00  0.00    -0.550 OA
ATOM     11  O   UNL     1      -0.126  45.861   9.431  1.00  0.00    -0.550 OA
ENDBRANCH   8   9
ENDBRANCH   7   8
ENDBRANCH   6   7
ENDBRANCH   5   6
ENDBRANCH   4   5
ENDBRANCH   3   4
ENDBRANCH   2   3
ENDBRANCH   1   2
BRANCH   1  12
ATOM     12  C   UNL     1       3.216  46.903   9.124  1.00  0.00     0.000 C 
BRANCH  12  13
ATOM     13  C   UNL     1       3.386  46.669  10.638  1.00  0.00    -0.000 C 
BRANCH  13  14
ATOM     14  C   UNL     1       4.582  45.779  11.028  1.00  0.00    -0.000 C 
BRANCH  14  15
ATOM     15  C   UNL     1       4.454  45.081  12.396  1.00  0.00    -0.000 C 
BRANCH  15  16
ATOM     16  C   UNL     1       3.838  43.669  12.351  1.00  0.00    -0.000 C 
BRANCH  16  17
ATOM     17  C   UNL     1       2.327  43.627  12.049  1.00  0.00    -0.000 C 
BRANCH  17  18
ATOM     18  C   UNL     1       1.961  43.288  10.590  1.00  0.00    -0.000 C 
BRANCH  18  19
ATOM     19  C   UNL     1       3.012  42.453   9.837  1.00  0.00    -0.003 C 
ATOM     20  C   UNL     1       3.720  43.241   8.735  1.00  0.00     0.004 C 
ENDBRANCH  18  19
ENDBRANCH  17  18
ENDBRANCH  16  17
ENDBRANCH  15  16
ENDBRANCH  14  15
ENDBRANCH  13  14
ENDBRANCH  12  13
ENDBRANCH   1  12
TORSDOF 16
ENDMDL
