MODEL 1
REMARK VINA RESULT:    -3.558      0.000      0.000
REMARK INTER + INTRA:          -4.863
REMARK INTER:                  -4.598
REMARK INTRA:                  -0.265
REMARK UNBOUND:                -0.265
REMARK SMILES CCCCCCC(=O)[O-]
REMARK SMILES IDX 5 1 6 2 7 3 8 4 9 5 4 6 3 7 2 8 1 9
REMARK H PARENT
REMARK Flexibility Score: inf
ROOT
ATOM      1  C   UNL     1     -46.121  27.655 -17.427  1.00  0.00     0.006 C 
ENDROOT
BRANCH   1   2
ATOM      2  C   UNL     1     -47.407  27.098 -18.051  1.00  0.00     0.053 C 
BRANCH   2   3
ATOM      3  C   UNL     1     -48.024  26.032 -17.198  1.00  0.00     0.041 C 
ATOM      4  O   UNL     1     -47.991  24.829 -17.568  1.00  0.00    -0.550 OA
ATOM      5  O   UNL     1     -48.605  26.363 -15.981  1.00  0.00    -0.550 OA
ENDBRANCH   2   3
ENDBRANCH   1   2
BRANCH   1   6
ATOM      6  C   UNL     1     -44.996  26.610 -17.383  1.00  0.00     0.000 C 
BRANCH   6   7
ATOM      7  C   UNL     1     -44.565  26.207 -18.799  1.00  0.00    -0.000 C 
BRANCH   7   8
ATOM      8  C   UNL     1     -43.372  27.045 -19.270  1.00  0.00    -0.003 C 
ATOM      9  C   UNL     1     -43.456  27.331 -20.767  1.00  0.00     0.004 C 
ENDBRANCH   7   8
ENDBRANCH   6   7
ENDBRANCH   1   6
TORSDOF 5
ENDMDL
MODEL 2
REMARK VINA RESULT:    -3.549      3.712      6.255
REMARK INTER + INTRA:          -4.851
REMARK INTER:                  -4.526
REMARK INTRA:                  -0.325
REMARK UNBOUND:                -0.265
REMARK SMILES CCCCCCC(=O)[O-]
REMARK SMILES IDX 5 1 6 2 7 3 8 4 9 5 4 6 3 7 2 8 1 9
REMARK H PARENT
REMARK Flexibility Score: inf
ROOT
ATOM      1  C   UNL     1     -49.675  24.587 -14.809  1.00  0.00     0.006 C 
ENDROOT
BRANCH   1   2
ATOM      2  C   UNL     1     -48.704  24.212 -15.936  1.00  0.00     0.053 C 
BRANCH   2   3
ATOM      3  C   UNL     1     -48.255  25.416 -16.708  1.00  0.00     0.041 C 
ATOM      4  O   UNL     1     -47.794  25.285 -17.872  1.00  0.00    -0.550 OA
ATOM      5  O   UNL     1     -48.379  26.683 -16.154  1.00  0.00    -0.550 OA
ENDBRANCH   2   3
ENDBRANCH   1   2
BRANCH   1   6
ATOM      6  C   UNL     1     -51.019  23.853 -14.931  1.00  0.00     0.000 C 
BRANCH   6   7
ATOM      7  C   UNL     1     -52.192  24.837 -14.845  1.00  0.00    -0.000 C 
BRANCH   7   8
ATOM      8  C   UNL     1     -51.699  26.287 -14.920  1.00  0.00    -0.003 C 
ATOM      9  C   UNL     1     -51.993  26.900 -16.287  1.00  0.00     0.004 C 
ENDBRANCH   7   8
ENDBRANCH   6   7
ENDBRANCH   1   6
TORSDOF 5
ENDMDL
MODEL 3
REMARK VINA RESULT:    -3.476      3.656      5.627
REMARK INTER + INTRA:          -4.757
REMARK INTER:                  -4.514
REMARK INTRA:                  -0.243
REMARK UNBOUND:                -0.265
REMARK SMILES CCCCCCC(=O)[O-]
REMARK SMILES IDX 5 1 6 2 7 3 8 4 9 5 4 6 3 7 2 8 1 9
REMARK H PARENT
REMARK Flexibility Score: inf
ROOT
ATOM      1  C   UNL     1     -51.331  26.406 -15.147  1.00  0.00     0.006 C 
ENDROOT
BRANCH   1   2
ATOM      2  C   UNL     1     -51.906  25.044 -14.736  1.00  0.00     0.053 C 
BRANCH   2   3
ATOM      3  C   UNL     1     -50.940  23.929 -14.998  1.00  0.00     0.041 C 
ATOM      4  O   UNL     1     -51.356  22.748 -15.122  1.00  0.00    -0.550 OA
ATOM      5  O   UNL     1     -49.585  24.201 -15.139  1.00  0.00    -0.550 OA
ENDBRANCH   2   3
ENDBRANCH   1   2
BRANCH   1   6
ATOM      6  C   UNL     1     -51.955  26.932 -16.449  1.00  0.00     0.000 C 
BRANCH   6   7
ATOM      7  C   UNL     1     -50.918  27.685 -17.291  1.00  0.00    -0.000 C 
BRANCH   7   8
ATOM      8  C   UNL     1     -49.517  27.096 -17.092  1.00  0.00    -0.003 C 
ATOM      9  C   UNL     1     -48.507  27.747 -18.033  1.00  0.00     0.004 C 
ENDBRANCH   7   8
ENDBRANCH   6   7
ENDBRANCH   1   6
TORSDOF 5
ENDMDL
MODEL 4
REMARK VINA RESULT:    -3.473      1.599      2.666
REMARK INTER + INTRA:          -4.753
REMARK INTER:                  -4.332
REMARK INTRA:                  -0.422
REMARK UNBOUND:                -0.265
REMARK SMILES CCCCCCC(=O)[O-]
REMARK SMILES IDX 5 1 6 2 7 3 8 4 9 5 4 6 3 7 2 8 1 9
REMARK H PARENT
REMARK Flexibility Score: inf
ROOT
ATOM      1  C   UNL     1     -47.155  27.233 -18.051  1.00  0.00     0.006 C 
ENDROOT
BRANCH   1   2
ATOM      2  C   UNL     1     -48.496  26.554 -17.747  1.00  0.00     0.053 C 
BRANCH   2   3
ATOM      3  C   UNL     1     -48.441  25.753 -16.482  1.00  0.00     0.041 C 
ATOM      4  O   UNL     1     -48.429  26.334 -15.365  1.00  0.00    -0.550 OA
ATOM      5  O   UNL     1     -48.436  24.365 -16.536  1.00  0.00    -0.550 OA
ENDBRANCH   2   3
ENDBRANCH   1   2
BRANCH   1   6
ATOM      6  C   UNL     1     -46.068  26.223 -18.449  1.00  0.00     0.000 C 
BRANCH   6   7
ATOM      7  C   UNL     1     -44.777  26.464 -17.658  1.00  0.00    -0.000 C 
BRANCH   7   8
ATOM      8  C   UNL     1     -45.015  27.444 -16.503  1.00  0.00    -0.003 C 
ATOM      9  C   UNL     1     -44.909  26.741 -15.152  1.00  0.00     0.004 C 
ENDBRANCH   7   8
ENDBRANCH   6   7
ENDBRANCH   1   6
TORSDOF 5
ENDMDL
MODEL 5
REMARK VINA RESULT:    -3.471      2.848      4.466
REMARK INTER + INTRA:          -4.750
REMARK INTER:                  -4.568
REMARK INTRA:                  -0.182
REMARK UNBOUND:                -0.265
REMARK SMILES CCCCCCC(=O)[O-]
REMARK SMILES IDX 5 1 6 2 7 3 8 4 9 5 4 6 3 7 2 8 1 9
REMARK H PARENT
REMARK Flexibility Score: inf
ROOT
ATOM      1  C   UNL     1     -44.475  28.033 -17.355  1.00  0.00     0.006 C 
ENDROOT
BRANCH   1   2
ATOM      2  C   UNL     1     -45.539  27.128 -17.990  1.00  0.00     0.053 C 
BRANCH   2   3
ATOM      3  C   UNL     1     -44.935  26.139 -18.940  1.00  0.00     0.041 C 
ATOM      4  O   UNL     1     -45.364  24.956 -18.979  1.00  0.00    -0.550 OA
ATOM      5  O   UNL     1     -43.922  26.533 -19.805  1.00  0.00    -0.550 OA
ENDBRANCH   2   3
ENDBRANCH   1   2
BRANCH   1   6
ATOM      6  C   UNL     1     -44.592  28.084 -15.824  1.00  0.00     0.000 C 
BRANCH   6   7
ATOM      7  C   UNL     1     -44.985  26.714 -15.257  1.00  0.00    -0.000 C 
BRANCH   7   8
ATOM      8  C   UNL     1     -45.758  26.866 -13.942  1.00  0.00    -0.003 C 
ATOM      9  C   UNL     1     -46.644  25.651 -13.680  1.00  0.00     0.004 C 
ENDBRANCH   7   8
ENDBRANCH   6   7
ENDBRANCH   1   6
TORSDOF 5
ENDMDL
MODEL 6
REMARK VINA RESULT:    -3.462      4.098      7.203
REMARK INTER + INTRA:          -4.739
REMARK INTER:                  -4.544
REMARK INTRA:                  -0.195
REMARK UNBOUND:                -0.265
REMARK SMILES CCCCCCC(=O)[O-]
REMARK SMILES IDX 5 1 6 2 7 3 8 4 9 5 4 6 3 7 2 8 1 9
REMARK H PARENT
REMARK Flexibility Score: inf
ROOT
ATOM      1  C   UNL     1     -50.316  26.277 -15.058  1.00  0.00     0.006 C 
ENDROOT
BRANCH   1   2
ATOM      2  C   UNL     1     -49.403  25.104 -15.439  1.00  0.00     0.053 C 
BRANCH   2   3
ATOM      3  C   UNL     1     -48.465  25.467 -16.549  1.00  0.00     0.041 C 
ATOM      4  O   UNL     1     -48.033  24.578 -17.329  1.00  0.00    -0.550 OA
ATOM      5  O   UNL     1     -48.095  26.792 -16.743  1.00  0.00    -0.550 OA
ENDBRANCH   2   3
ENDBRANCH   1   2
BRANCH   1   6
ATOM      6  C   UNL     1     -51.795  25.865 -14.990  1.00  0.00     0.000 C 
BRANCH   6   7
ATOM      7  C   UNL     1     -51.935  24.354 -14.766  1.00  0.00    -0.000 C 
BRANCH   7   8
ATOM      8  C   UNL     1     -53.038  24.050 -13.746  1.00  0.00    -0.003 C 
ATOM      9  C   UNL     1     -52.497  23.227 -12.580  1.00  0.00     0.004 C 
ENDBRANCH   7   8
ENDBRANCH   6   7
ENDBRANCH   1   6
TORSDOF 5
ENDMDL
MODEL 7
REMARK VINA RESULT:    -3.449      1.345      1.670
REMARK INTER + INTRA:          -4.723
REMARK INTER:                  -4.438
REMARK INTRA:                  -0.285
REMARK UNBOUND:                -0.265
REMARK SMILES CCCCCCC(=O)[O-]
REMARK SMILES IDX 5 1 6 2 7 3 8 4 9 5 4 6 3 7 2 8 1 9
REMARK H PARENT
REMARK Flexibility Score: inf
ROOT
ATOM      1  C   UNL     1     -45.752  26.075 -18.542  1.00  0.00     0.006 C 
ENDROOT
BRANCH   1   2
ATOM      2  C   UNL     1     -46.623  27.125 -17.842  1.00  0.00     0.053 C 
BRANCH   2   3
ATOM      3  C   UNL     1     -46.964  26.721 -16.439  1.00  0.00     0.041 C 
ATOM      4  O   UNL     1     -48.052  26.137 -16.196  1.00  0.00    -0.550 OA
ATOM      5  O   UNL     1     -46.064  26.958 -15.409  1.00  0.00    -0.550 OA
ENDBRANCH   2   3
ENDBRANCH   1   2
BRANCH   1   6
ATOM      6  C   UNL     1     -44.267  26.468 -18.557  1.00  0.00     0.000 C 
BRANCH   6   7
ATOM      7  C   UNL     1     -44.101  27.992 -18.571  1.00  0.00    -0.000 C 
BRANCH   7   8
ATOM      8  C   UNL     1     -43.050  28.421 -19.601  1.00  0.00    -0.003 C 
ATOM      9  C   UNL     1     -43.119  27.551 -20.854  1.00  0.00     0.004 C 
ENDBRANCH   7   8
ENDBRANCH   6   7
ENDBRANCH   1   6
TORSDOF 5
ENDMDL
MODEL 8
REMARK VINA RESULT:    -3.423      1.923      3.595
REMARK INTER + INTRA:          -4.688
REMARK INTER:                  -4.268
REMARK INTRA:                  -0.421
REMARK UNBOUND:                -0.265
REMARK SMILES CCCCCCC(=O)[O-]
REMARK SMILES IDX 5 1 6 2 7 3 8 4 9 5 4 6 3 7 2 8 1 9
REMARK H PARENT
REMARK Flexibility Score: inf
ROOT
ATOM      1  C   UNL     1     -45.611  26.538 -17.553  1.00  0.00     0.006 C 
ENDROOT
BRANCH   1   2
ATOM      2  C   UNL     1     -47.048  26.863 -17.979  1.00  0.00     0.053 C 
BRANCH   2   3
ATOM      3  C   UNL     1     -48.045  25.974 -17.299  1.00  0.00     0.041 C 
ATOM      4  O   UNL     1     -47.983  24.726 -17.446  1.00  0.00    -0.550 OA
ATOM      5  O   UNL     1     -49.019  26.523 -16.476  1.00  0.00    -0.550 OA
ENDBRANCH   2   3
ENDBRANCH   1   2
BRANCH   1   6
ATOM      6  C   UNL     1     -45.140  27.410 -16.380  1.00  0.00     0.000 C 
BRANCH   6   7
ATOM      7  C   UNL     1     -44.995  26.578 -15.100  1.00  0.00    -0.000 C 
BRANCH   7   8
ATOM      8  C   UNL     1     -46.165  26.833 -14.143  1.00  0.00    -0.003 C 
ATOM      9  C   UNL     1     -46.822  25.523 -13.714  1.00  0.00     0.004 C 
ENDBRANCH   7   8
ENDBRANCH   6   7
ENDBRANCH   1   6
TORSDOF 5
ENDMDL
MODEL 9
REMARK VINA RESULT:    -3.415      2.288      4.161
REMARK INTER + INTRA:          -4.678
REMARK INTER:                  -4.266
REMARK INTRA:                  -0.412
REMARK UNBOUND:                -0.265
REMARK SMILES CCCCCCC(=O)[O-]
REMARK SMILES IDX 5 1 6 2 7 3 8 4 9 5 4 6 3 7 2 8 1 9
REMARK H PARENT
REMARK Flexibility Score: inf
ROOT
ATOM      1  C   UNL     1     -44.989  26.864 -16.644  1.00  0.00     0.006 C 
ENDROOT
BRANCH   1   2
ATOM      2  C   UNL     1     -44.545  27.503 -17.966  1.00  0.00     0.053 C 
BRANCH   2   3
ATOM      3  C   UNL     1     -44.406  26.486 -19.057  1.00  0.00     0.041 C 
ATOM      4  O   UNL     1     -45.016  25.387 -18.980  1.00  0.00    -0.550 OA
ATOM      5  O   UNL     1     -43.630  26.765 -20.175  1.00  0.00    -0.550 OA
ENDBRANCH   2   3
ENDBRANCH   1   2
BRANCH   1   6
ATOM      6  C   UNL     1     -46.393  27.320 -16.219  1.00  0.00     0.000 C 
BRANCH   6   7
ATOM      7  C   UNL     1     -47.403  26.173 -16.337  1.00  0.00    -0.000 C 
BRANCH   7   8
ATOM      8  C   UNL     1     -48.141  26.226 -17.679  1.00  0.00    -0.003 C 
ATOM      9  C   UNL     1     -48.327  27.667 -18.149  1.00  0.00     0.004 C 
ENDBRANCH   7   8
ENDBRANCH   6   7
ENDBRANCH   1   6
TORSDOF 5
ENDMDL
