MODEL 1
REMARK VINA RESULT:    -2.931      0.000      0.000
REMARK INTER + INTRA:          -3.284
REMARK INTER:                  -3.189
REMARK INTRA:                  -0.095
REMARK UNBOUND:                -0.095
REMARK SMILES C=C(C)[C@@H]1CC=C(C)[C@@H](O)C1
REMARK SMILES IDX 8 1 7 2 6 3 5 4 4 5 11 6 9 7 10 8 2 10 1 11 3 12
REMARK H PARENT 10 9
REMARK Flexibility Score: inf
ROOT
ATOM      1  C   UNL     1      39.043 -37.068  -8.569  1.00  0.00     0.042 C 
ATOM      2  C   UNL     1      37.982 -36.386  -9.390  1.00  0.00    -0.049 C 
ATOM      3  C   UNL     1      36.818 -37.032  -9.617  1.00  0.00    -0.025 C 
ATOM      4  C   UNL     1      35.655 -36.406 -10.347  1.00  0.00     0.035 C 
ATOM      5  C   UNL     1      36.090 -35.235 -11.244  1.00  0.00     0.021 C 
ATOM      6  C   UNL     1      37.023 -34.294 -10.464  1.00  0.00     0.044 C 
ATOM      7  C   UNL     1      38.294 -35.040 -10.028  1.00  0.00     0.140 C 
ENDROOT
BRANCH   7   8
ATOM      8  O   UNL     1      39.124 -35.232 -11.144  1.00  0.00    -0.389 OA
ATOM      9  H   UNL     1      39.190 -36.211 -11.293  1.00  0.00     0.211 HD
ENDBRANCH   7   8
BRANCH   5  10
ATOM     10  C   UNL     1      34.885 -34.488 -11.804  1.00  0.00    -0.077 C 
ATOM     11  C   UNL     1      34.988 -33.188 -12.125  1.00  0.00     0.008 C 
ATOM     12  C   UNL     1      33.562 -35.181 -12.021  1.00  0.00     0.039 C 
ENDBRANCH   5  10
TORSDOF 2
ENDMDL
MODEL 2
REMARK VINA RESULT:    -2.776      1.730      4.260
REMARK INTER + INTRA:          -3.115
REMARK INTER:                  -3.020
REMARK INTRA:                  -0.095
REMARK UNBOUND:                -0.095
REMARK SMILES C=C(C)[C@@H]1CC=C(C)[C@@H](O)C1
REMARK SMILES IDX 8 1 7 2 6 3 5 4 4 5 11 6 9 7 10 8 2 10 1 11 3 12
REMARK H PARENT 10 9
REMARK Flexibility Score: inf
ROOT
ATOM      1  C   UNL     1      32.627 -35.911 -11.937  1.00  0.00     0.042 C 
ATOM      2  C   UNL     1      34.080 -35.908 -11.543  1.00  0.00    -0.049 C 
ATOM      3  C   UNL     1      34.552 -36.921 -10.785  1.00  0.00    -0.025 C 
ATOM      4  C   UNL     1      36.007 -37.064 -10.411  1.00  0.00     0.035 C 
ATOM      5  C   UNL     1      36.767 -35.730 -10.499  1.00  0.00     0.021 C 
ATOM      6  C   UNL     1      36.445 -35.029 -11.829  1.00  0.00     0.044 C 
ATOM      7  C   UNL     1      34.943 -34.713 -11.919  1.00  0.00     0.140 C 
ENDROOT
BRANCH   7   8
ATOM      8  O   UNL     1      34.646 -33.635 -11.070  1.00  0.00    -0.389 OA
ATOM      9  H   UNL     1      35.341 -33.623 -10.361  1.00  0.00     0.211 HD
ENDBRANCH   7   8
BRANCH   5  10
ATOM     10  C   UNL     1      38.267 -35.935 -10.324  1.00  0.00    -0.077 C 
ATOM     11  C   UNL     1      39.122 -35.475 -11.252  1.00  0.00     0.008 C 
ATOM     12  C   UNL     1      38.829 -36.641  -9.114  1.00  0.00     0.039 C 
ENDBRANCH   5  10
TORSDOF 2
ENDMDL
MODEL 3
REMARK VINA RESULT:    -2.666      1.826      4.477
REMARK INTER + INTRA:          -2.995
REMARK INTER:                  -2.899
REMARK INTRA:                  -0.096
REMARK UNBOUND:                -0.095
REMARK SMILES C=C(C)[C@@H]1CC=C(C)[C@@H](O)C1
REMARK SMILES IDX 8 1 7 2 6 3 5 4 4 5 11 6 9 7 10 8 2 10 1 11 3 12
REMARK H PARENT 10 9
REMARK Flexibility Score: inf
ROOT
ATOM      1  C   UNL     1      32.580 -35.261 -12.124  1.00  0.00     0.042 C 
ATOM      2  C   UNL     1      34.026 -35.036 -11.776  1.00  0.00    -0.049 C 
ATOM      3  C   UNL     1      34.606 -33.867 -12.122  1.00  0.00    -0.025 C 
ATOM      4  C   UNL     1      36.021 -33.502 -11.741  1.00  0.00     0.035 C 
ATOM      5  C   UNL     1      36.878 -34.739 -11.422  1.00  0.00     0.021 C 
ATOM      6  C   UNL     1      36.112 -35.679 -10.477  1.00  0.00     0.044 C 
ATOM      7  C   UNL     1      34.818 -36.172 -11.143  1.00  0.00     0.140 C 
ENDROOT
BRANCH   7   8
ATOM      8  O   UNL     1      35.137 -37.124 -12.125  1.00  0.00    -0.389 OA
ATOM      9  H   UNL     1      35.327 -37.976 -11.652  1.00  0.00     0.211 HD
ENDBRANCH   7   8
BRANCH   5  10
ATOM     10  C   UNL     1      38.229 -34.342 -10.842  1.00  0.00    -0.077 C 
ATOM     11  C   UNL     1      38.931 -35.221 -10.108  1.00  0.00     0.008 C 
ATOM     12  C   UNL     1      38.816 -32.971 -11.079  1.00  0.00     0.039 C 
ENDBRANCH   5  10
TORSDOF 2
ENDMDL
MODEL 4
REMARK VINA RESULT:    -2.523      1.686      4.313
REMARK INTER + INTRA:          -2.840
REMARK INTER:                  -2.744
REMARK INTRA:                  -0.095
REMARK UNBOUND:                -0.095
REMARK SMILES C=C(C)[C@@H]1CC=C(C)[C@@H](O)C1
REMARK SMILES IDX 8 1 7 2 6 3 5 4 4 5 11 6 9 7 10 8 2 10 1 11 3 12
REMARK H PARENT 10 9
REMARK Flexibility Score: inf
ROOT
ATOM      1  C   UNL     1      35.223 -32.047 -12.093  1.00  0.00     0.042 C 
ATOM      2  C   UNL     1      36.080 -33.160 -11.553  1.00  0.00    -0.049 C 
ATOM      3  C   UNL     1      35.623 -33.888 -10.511  1.00  0.00    -0.025 C 
ATOM      4  C   UNL     1      36.358 -35.081  -9.952  1.00  0.00     0.035 C 
ATOM      5  C   UNL     1      37.857 -35.058 -10.295  1.00  0.00     0.021 C 
ATOM      6  C   UNL     1      38.049 -34.746 -11.788  1.00  0.00     0.044 C 
ATOM      7  C   UNL     1      37.476 -33.361 -12.125  1.00  0.00     0.140 C 
ENDROOT
BRANCH   7   8
ATOM      8  O   UNL     1      38.335 -32.370 -11.622  1.00  0.00    -0.389 OA
ATOM      9  H   UNL     1      38.607 -31.804 -12.391  1.00  0.00     0.211 HD
ENDBRANCH   7   8
BRANCH   5  10
ATOM     10  C   UNL     1      38.535 -36.366  -9.905  1.00  0.00    -0.077 C 
ATOM     11  C   UNL     1      39.124 -37.125 -10.844  1.00  0.00     0.008 C 
ATOM     12  C   UNL     1      38.573 -36.836  -8.472  1.00  0.00     0.039 C 
ENDBRANCH   5  10
TORSDOF 2
ENDMDL
MODEL 5
REMARK VINA RESULT:    -2.335      1.961      4.607
REMARK INTER + INTRA:          -2.635
REMARK INTER:                  -2.548
REMARK INTRA:                  -0.087
REMARK UNBOUND:                -0.095
REMARK SMILES C=C(C)[C@@H]1CC=C(C)[C@@H](O)C1
REMARK SMILES IDX 8 1 7 2 6 3 5 4 4 5 11 6 9 7 10 8 2 10 1 11 3 12
REMARK H PARENT 10 9
REMARK Flexibility Score: inf
ROOT
ATOM      1  C   UNL     1      34.986 -31.858 -12.125  1.00  0.00     0.042 C 
ATOM      2  C   UNL     1      35.823 -33.015 -11.649  1.00  0.00    -0.049 C 
ATOM      3  C   UNL     1      37.094 -33.125 -12.090  1.00  0.00    -0.025 C 
ATOM      4  C   UNL     1      38.047 -34.190 -11.606  1.00  0.00     0.035 C 
ATOM      5  C   UNL     1      37.314 -35.407 -11.017  1.00  0.00     0.021 C 
ATOM      6  C   UNL     1      36.222 -34.939 -10.040  1.00  0.00     0.044 C 
ATOM      7  C   UNL     1      35.179 -34.079 -10.773  1.00  0.00     0.140 C 
ENDROOT
BRANCH   7   8
ATOM      8  O   UNL     1      34.369 -34.910 -11.564  1.00  0.00    -0.389 OA
ATOM      9  H   UNL     1      34.418 -35.821 -11.173  1.00  0.00     0.211 HD
ENDBRANCH   7   8
BRANCH   5  10
ATOM     10  C   UNL     1      38.286 -36.370 -10.348  1.00  0.00    -0.077 C 
ATOM     11  C   UNL     1      39.114 -37.118 -11.096  1.00  0.00     0.008 C 
ATOM     12  C   UNL     1      38.355 -36.503  -8.846  1.00  0.00     0.039 C 
ENDBRANCH   5  10
TORSDOF 2
ENDMDL
