MODEL 1
REMARK VINA RESULT:    -3.426      0.000      0.000
REMARK INTER + INTRA:          -6.006
REMARK INTER:                  -5.229
REMARK INTRA:                  -0.777
REMARK UNBOUND:                -0.777
REMARK SMILES CCCCCCCCCCC(=O)[O-]
REMARK SMILES IDX 7 1 8 2 9 3 10 4 11 5 12 6 13 7 6 8 5 9 4 10 3 11 2 12 1 13
REMARK H PARENT
REMARK Flexibility Score: inf
ROOT
ATOM      1  C   UNL     1      17.748 -13.026 186.477  1.00  0.00     0.000 C 
ENDROOT
BRANCH   1   2
ATOM      2  C   UNL     1      18.079 -11.581 186.867  1.00  0.00     0.000 C 
BRANCH   2   3
ATOM      3  C   UNL     1      19.444 -11.500 187.567  1.00  0.00     0.006 C 
BRANCH   3   4
ATOM      4  C   UNL     1      20.125 -10.141 187.357  1.00  0.00     0.053 C 
BRANCH   4   5
ATOM      5  C   UNL     1      19.602  -9.105 188.304  1.00  0.00     0.041 C 
ATOM      6  O   UNL     1      19.415  -9.391 189.517  1.00  0.00    -0.550 OA
ATOM      7  O   UNL     1      19.353  -7.814 187.856  1.00  0.00    -0.550 OA
ENDBRANCH   4   5
ENDBRANCH   3   4
ENDBRANCH   2   3
ENDBRANCH   1   2
BRANCH   1   8
ATOM      8  C   UNL     1      18.698 -14.015 187.165  1.00  0.00     0.000 C 
BRANCH   8   9
ATOM      9  C   UNL     1      18.330 -15.463 186.822  1.00  0.00    -0.000 C 
BRANCH   9  10
ATOM     10  C   UNL     1      16.810 -15.674 186.888  1.00  0.00    -0.000 C 
BRANCH  10  11
ATOM     11  C   UNL     1      16.313 -16.026 188.301  1.00  0.00    -0.000 C 
BRANCH  11  12
ATOM     12  C   UNL     1      15.286 -15.044 188.890  1.00  0.00    -0.003 C 
ATOM     13  C   UNL     1      14.503 -14.285 187.819  1.00  0.00     0.004 C 
ENDBRANCH  11  12
ENDBRANCH  10  11
ENDBRANCH   9  10
ENDBRANCH   8   9
ENDBRANCH   1   8
TORSDOF 9
ENDMDL
MODEL 2
REMARK VINA RESULT:    -3.388      1.746      2.222
REMARK INTER + INTRA:          -5.947
REMARK INTER:                  -5.386
REMARK INTRA:                  -0.561
REMARK UNBOUND:                -0.777
REMARK SMILES CCCCCCCCCCC(=O)[O-]
REMARK SMILES IDX 7 1 8 2 9 3 10 4 11 5 12 6 13 7 6 8 5 9 4 10 3 11 2 12 1 13
REMARK H PARENT
REMARK Flexibility Score: inf
ROOT
ATOM      1  C   UNL     1      18.027 -13.086 186.683  1.00  0.00     0.000 C 
ENDROOT
BRANCH   1   2
ATOM      2  C   UNL     1      19.167 -12.275 187.309  1.00  0.00     0.000 C 
BRANCH   2   3
ATOM      3  C   UNL     1      19.153 -10.825 186.802  1.00  0.00     0.006 C 
BRANCH   3   4
ATOM      4  C   UNL     1      19.972  -9.888 187.701  1.00  0.00     0.053 C 
BRANCH   4   5
ATOM      5  C   UNL     1      19.133  -9.286 188.786  1.00  0.00     0.041 C 
ATOM      6  O   UNL     1      19.671  -8.875 189.849  1.00  0.00    -0.550 OA
ATOM      7  O   UNL     1      17.762  -9.148 188.611  1.00  0.00    -0.550 OA
ENDBRANCH   4   5
ENDBRANCH   3   4
ENDBRANCH   2   3
ENDBRANCH   1   2
BRANCH   1   8
ATOM      8  C   UNL     1      18.263 -14.592 186.856  1.00  0.00     0.000 C 
BRANCH   8   9
ATOM      9  C   UNL     1      16.942 -15.332 187.101  1.00  0.00    -0.000 C 
BRANCH   9  10
ATOM     10  C   UNL     1      16.289 -15.747 185.775  1.00  0.00    -0.000 C 
BRANCH  10  11
ATOM     11  C   UNL     1      15.000 -14.963 185.470  1.00  0.00    -0.000 C 
BRANCH  11  12
ATOM     12  C   UNL     1      14.964 -14.288 184.087  1.00  0.00    -0.003 C 
ATOM     13  C   UNL     1      15.269 -12.792 184.145  1.00  0.00     0.004 C 
ENDBRANCH  11  12
ENDBRANCH  10  11
ENDBRANCH   9  10
ENDBRANCH   8   9
ENDBRANCH   1   8
TORSDOF 9
ENDMDL
MODEL 3
REMARK VINA RESULT:    -3.360      3.305      6.024
REMARK INTER + INTRA:          -5.905
REMARK INTER:                  -4.947
REMARK INTRA:                  -0.958
REMARK UNBOUND:                -0.777
REMARK SMILES CCCCCCCCCCC(=O)[O-]
REMARK SMILES IDX 7 1 8 2 9 3 10 4 11 5 12 6 13 7 6 8 5 9 4 10 3 11 2 12 1 13
REMARK H PARENT
REMARK Flexibility Score: inf
ROOT
ATOM      1  C   UNL     1      18.976 -10.656 188.293  1.00  0.00     0.000 C 
ENDROOT
BRANCH   1   2
ATOM      2  C   UNL     1      19.388 -11.749 187.300  1.00  0.00     0.000 C 
BRANCH   2   3
ATOM      3  C   UNL     1      18.170 -12.568 186.847  1.00  0.00     0.006 C 
BRANCH   3   4
ATOM      4  C   UNL     1      18.440 -14.078 186.881  1.00  0.00     0.053 C 
BRANCH   4   5
ATOM      5  C   UNL     1      17.168 -14.869 186.934  1.00  0.00     0.041 C 
ATOM      6  O   UNL     1      16.296 -14.609 187.804  1.00  0.00    -0.550 OA
ATOM      7  O   UNL     1      16.933 -15.871 186.002  1.00  0.00    -0.550 OA
ENDBRANCH   4   5
ENDBRANCH   3   4
ENDBRANCH   2   3
ENDBRANCH   1   2
BRANCH   1   8
ATOM      8  C   UNL     1      19.789  -9.375 188.070  1.00  0.00     0.000 C 
BRANCH   8   9
ATOM      9  C   UNL     1      19.754  -8.949 186.598  1.00  0.00    -0.000 C 
BRANCH   9  10
ATOM     10  C   UNL     1      18.759  -7.799 186.381  1.00  0.00    -0.000 C 
BRANCH  10  11
ATOM     11  C   UNL     1      17.755  -8.079 185.249  1.00  0.00    -0.000 C 
BRANCH  11  12
ATOM     12  C   UNL     1      17.138  -9.489 185.266  1.00  0.00    -0.003 C 
ATOM     13  C   UNL     1      15.993  -9.629 186.268  1.00  0.00     0.004 C 
ENDBRANCH  11  12
ENDBRANCH  10  11
ENDBRANCH   9  10
ENDBRANCH   8   9
ENDBRANCH   1   8
TORSDOF 9
ENDMDL
MODEL 4
REMARK VINA RESULT:    -3.316      3.491      6.386
REMARK INTER + INTRA:          -5.838
REMARK INTER:                  -5.167
REMARK INTRA:                  -0.671
REMARK UNBOUND:                -0.777
REMARK SMILES CCCCCCCCCCC(=O)[O-]
REMARK SMILES IDX 7 1 8 2 9 3 10 4 11 5 12 6 13 7 6 8 5 9 4 10 3 11 2 12 1 13
REMARK H PARENT
REMARK Flexibility Score: inf
ROOT
ATOM      1  C   UNL     1      18.049 -11.679 186.810  1.00  0.00     0.000 C 
ENDROOT
BRANCH   1   2
ATOM      2  C   UNL     1      17.718 -13.106 186.357  1.00  0.00     0.000 C 
BRANCH   2   3
ATOM      3  C   UNL     1      18.456 -14.141 187.218  1.00  0.00     0.006 C 
BRANCH   3   4
ATOM      4  C   UNL     1      18.216 -15.578 186.733  1.00  0.00     0.053 C 
BRANCH   4   5
ATOM      5  C   UNL     1      16.755 -15.878 186.585  1.00  0.00     0.041 C 
ATOM      6  O   UNL     1      16.003 -15.880 187.595  1.00  0.00    -0.550 OA
ATOM      7  O   UNL     1      16.219 -16.122 185.327  1.00  0.00    -0.550 OA
ENDBRANCH   4   5
ENDBRANCH   3   4
ENDBRANCH   2   3
ENDBRANCH   1   2
BRANCH   1   8
ATOM      8  C   UNL     1      19.490 -11.587 187.330  1.00  0.00     0.000 C 
BRANCH   8   9
ATOM      9  C   UNL     1      19.836 -10.152 187.743  1.00  0.00    -0.000 C 
BRANCH   9  10
ATOM     10  C   UNL     1      20.055  -9.262 186.510  1.00  0.00    -0.000 C 
BRANCH  10  11
ATOM     11  C   UNL     1      19.376  -7.886 186.635  1.00  0.00    -0.000 C 
BRANCH  11  12
ATOM     12  C   UNL     1      17.909  -7.844 186.172  1.00  0.00    -0.003 C 
ATOM     13  C   UNL     1      17.657  -8.668 184.910  1.00  0.00     0.004 C 
ENDBRANCH  11  12
ENDBRANCH  10  11
ENDBRANCH   9  10
ENDBRANCH   8   9
ENDBRANCH   1   8
TORSDOF 9
ENDMDL
MODEL 5
REMARK VINA RESULT:    -3.307      3.506      6.341
REMARK INTER + INTRA:          -5.824
REMARK INTER:                  -5.147
REMARK INTRA:                  -0.677
REMARK UNBOUND:                -0.777
REMARK SMILES CCCCCCCCCCC(=O)[O-]
REMARK SMILES IDX 7 1 8 2 9 3 10 4 11 5 12 6 13 7 6 8 5 9 4 10 3 11 2 12 1 13
REMARK H PARENT
REMARK Flexibility Score: inf
ROOT
ATOM      1  C   UNL     1      18.180 -12.471 186.837  1.00  0.00     0.000 C 
ENDROOT
BRANCH   1   2
ATOM      2  C   UNL     1      18.408 -13.986 186.866  1.00  0.00     0.000 C 
BRANCH   2   3
ATOM      3  C   UNL     1      17.130 -14.727 187.286  1.00  0.00     0.006 C 
BRANCH   3   4
ATOM      4  C   UNL     1      16.457 -15.441 186.106  1.00  0.00     0.053 C 
BRANCH   4   5
ATOM      5  C   UNL     1      15.295 -14.661 185.573  1.00  0.00     0.041 C 
ATOM      6  O   UNL     1      15.485 -13.700 184.781  1.00  0.00    -0.550 OA
ATOM      7  O   UNL     1      13.999 -15.015 185.925  1.00  0.00    -0.550 OA
ENDBRANCH   4   5
ENDBRANCH   3   4
ENDBRANCH   2   3
ENDBRANCH   1   2
BRANCH   1   8
ATOM      8  C   UNL     1      19.428 -11.716 187.314  1.00  0.00     0.000 C 
BRANCH   8   9
ATOM      9  C   UNL     1      19.049 -10.552 188.237  1.00  0.00    -0.000 C 
BRANCH   9  10
ATOM     10  C   UNL     1      19.869  -9.297 187.904  1.00  0.00    -0.000 C 
BRANCH  10  11
ATOM     11  C   UNL     1      19.757  -8.882 186.426  1.00  0.00    -0.000 C 
BRANCH  11  12
ATOM     12  C   UNL     1      18.442  -8.177 186.049  1.00  0.00    -0.003 C 
ATOM     13  C   UNL     1      17.564  -9.011 185.117  1.00  0.00     0.004 C 
ENDBRANCH  11  12
ENDBRANCH  10  11
ENDBRANCH   9  10
ENDBRANCH   8   9
ENDBRANCH   1   8
TORSDOF 9
ENDMDL
MODEL 6
REMARK VINA RESULT:    -3.298      1.904      3.167
REMARK INTER + INTRA:          -5.810
REMARK INTER:                  -4.989
REMARK INTRA:                  -0.820
REMARK UNBOUND:                -0.777
REMARK SMILES CCCCCCCCCCC(=O)[O-]
REMARK SMILES IDX 7 1 8 2 9 3 10 4 11 5 12 6 13 7 6 8 5 9 4 10 3 11 2 12 1 13
REMARK H PARENT
REMARK Flexibility Score: inf
ROOT
ATOM      1  C   UNL     1      19.394 -11.621 187.547  1.00  0.00     0.000 C 
ENDROOT
BRANCH   1   2
ATOM      2  C   UNL     1      20.076 -10.250 187.623  1.00  0.00     0.000 C 
BRANCH   2   3
ATOM      3  C   UNL     1      19.807  -9.430 186.353  1.00  0.00     0.006 C 
BRANCH   3   4
ATOM      4  C   UNL     1      19.470  -7.966 186.666  1.00  0.00     0.053 C 
BRANCH   4   5
ATOM      5  C   UNL     1      18.045  -7.641 186.338  1.00  0.00     0.041 C 
ATOM      6  O   UNL     1      17.461  -6.689 186.920  1.00  0.00    -0.550 OA
ATOM      7  O   UNL     1      17.371  -8.368 185.365  1.00  0.00    -0.550 OA
ENDBRANCH   4   5
ENDBRANCH   3   4
ENDBRANCH   2   3
ENDBRANCH   1   2
BRANCH   1   8
ATOM      8  C   UNL     1      18.286 -11.626 186.486  1.00  0.00     0.000 C 
BRANCH   8   9
ATOM      9  C   UNL     1      16.901 -11.533 187.135  1.00  0.00    -0.000 C 
BRANCH   9  10
ATOM     10  C   UNL     1      16.276 -12.926 187.301  1.00  0.00    -0.000 C 
BRANCH  10  11
ATOM     11  C   UNL     1      16.918 -13.985 186.386  1.00  0.00    -0.000 C 
BRANCH  11  12
ATOM     12  C   UNL     1      17.465 -15.225 187.116  1.00  0.00    -0.003 C 
ATOM     13  C   UNL     1      18.981 -15.370 186.995  1.00  0.00     0.004 C 
ENDBRANCH  11  12
ENDBRANCH  10  11
ENDBRANCH   9  10
ENDBRANCH   8   9
ENDBRANCH   1   8
TORSDOF 9
ENDMDL
MODEL 7
REMARK VINA RESULT:    -3.290      2.174      3.006
REMARK INTER + INTRA:          -5.798
REMARK INTER:                  -4.853
REMARK INTRA:                  -0.945
REMARK UNBOUND:                -0.777
REMARK SMILES CCCCCCCCCCC(=O)[O-]
REMARK SMILES IDX 7 1 8 2 9 3 10 4 11 5 12 6 13 7 6 8 5 9 4 10 3 11 2 12 1 13
REMARK H PARENT
REMARK Flexibility Score: inf
ROOT
ATOM      1  C   UNL     1      18.351 -12.568 186.608  1.00  0.00     0.000 C 
ENDROOT
BRANCH   1   2
ATOM      2  C   UNL     1      19.445 -11.956 187.490  1.00  0.00     0.000 C 
BRANCH   2   3
ATOM      3  C   UNL     1      19.088 -10.517 187.890  1.00  0.00     0.006 C 
BRANCH   3   4
ATOM      4  C   UNL     1      18.019  -9.908 186.973  1.00  0.00     0.053 C 
BRANCH   4   5
ATOM      5  C   UNL     1      18.610  -8.934 185.999  1.00  0.00     0.041 C 
ATOM      6  O   UNL     1      19.857  -8.760 185.956  1.00  0.00    -0.550 OA
ATOM      7  O   UNL     1      17.788  -8.245 185.117  1.00  0.00    -0.550 OA
ENDBRANCH   4   5
ENDBRANCH   3   4
ENDBRANCH   2   3
ENDBRANCH   1   2
BRANCH   1   8
ATOM      8  C   UNL     1      18.236 -14.080 186.843  1.00  0.00     0.000 C 
BRANCH   8   9
ATOM      9  C   UNL     1      16.780 -14.546 186.724  1.00  0.00    -0.000 C 
BRANCH   9  10
ATOM     10  C   UNL     1      15.825 -13.348 186.620  1.00  0.00    -0.000 C 
BRANCH  10  11
ATOM     11  C   UNL     1      14.954 -13.383 185.351  1.00  0.00    -0.000 C 
BRANCH  11  12
ATOM     12  C   UNL     1      15.502 -12.565 184.168  1.00  0.00    -0.003 C 
ATOM     13  C   UNL     1      15.480 -11.058 184.422  1.00  0.00     0.004 C 
ENDBRANCH  11  12
ENDBRANCH  10  11
ENDBRANCH   9  10
ENDBRANCH   8   9
ENDBRANCH   1   8
TORSDOF 9
ENDMDL
MODEL 8
REMARK VINA RESULT:    -3.282      2.630      4.147
REMARK INTER + INTRA:          -5.785
REMARK INTER:                  -4.755
REMARK INTRA:                  -1.030
REMARK UNBOUND:                -0.777
REMARK SMILES CCCCCCCCCCC(=O)[O-]
REMARK SMILES IDX 7 1 8 2 9 3 10 4 11 5 12 6 13 7 6 8 5 9 4 10 3 11 2 12 1 13
REMARK H PARENT
REMARK Flexibility Score: inf
ROOT
ATOM      1  C   UNL     1      19.442 -11.706 187.621  1.00  0.00     0.000 C 
ENDROOT
BRANCH   1   2
ATOM      2  C   UNL     1      19.903 -10.429 186.909  1.00  0.00     0.000 C 
BRANCH   2   3
ATOM      3  C   UNL     1      19.815  -9.215 187.846  1.00  0.00     0.006 C 
BRANCH   3   4
ATOM      4  C   UNL     1      19.214  -9.577 189.211  1.00  0.00     0.053 C 
BRANCH   4   5
ATOM      5  C   UNL     1      19.452  -8.501 190.226  1.00  0.00     0.041 C 
ATOM      6  O   UNL     1      19.878  -8.795 191.374  1.00  0.00    -0.550 OA
ATOM      7  O   UNL     1      19.235  -7.170 189.892  1.00  0.00    -0.550 OA
ENDBRANCH   4   5
ENDBRANCH   3   4
ENDBRANCH   2   3
ENDBRANCH   1   2
BRANCH   1   8
ATOM      8  C   UNL     1      18.379 -12.443 186.796  1.00  0.00     0.000 C 
BRANCH   8   9
ATOM      9  C   UNL     1      17.091 -11.618 186.696  1.00  0.00    -0.000 C 
BRANCH   9  10
ATOM     10  C   UNL     1      16.585 -11.562 185.247  1.00  0.00    -0.000 C 
BRANCH  10  11
ATOM     11  C   UNL     1      16.155 -10.149 184.815  1.00  0.00    -0.000 C 
BRANCH  11  12
ATOM     12  C   UNL     1      17.259  -9.080 184.905  1.00  0.00    -0.003 C 
ATOM     13  C   UNL     1      16.933  -7.967 185.899  1.00  0.00     0.004 C 
ENDBRANCH  11  12
ENDBRANCH  10  11
ENDBRANCH   9  10
ENDBRANCH   8   9
ENDBRANCH   1   8
TORSDOF 9
ENDMDL
