MODEL 1
REMARK VINA RESULT:    -5.961      0.000      0.000
REMARK INTER + INTRA:          -7.330
REMARK INTER:                  -7.006
REMARK INTRA:                  -0.324
REMARK UNBOUND:                -0.324
REMARK SMILES O=c1c(O)c(-c2ccc(O)c(O)c2)oc2cc(O)ccc12
REMARK SMILES IDX 5 1 3 2 2 3 1 4 21 5 15 6 14 7 16 8 17 9 19 10 20 11 6 12
REMARK SMILES IDX 7 13 8 14 9 15 13 16 11 17 10 18 12 20 4 22 18 24
REMARK H PARENT 10 19 12 21 4 23 18 25
REMARK Flexibility Score: inf
ROOT
ATOM      1  C   UNL     1    -105.933  44.679  54.316  1.00  0.00     0.180 A 
ATOM      2  C   UNL     1    -107.022  43.846  54.649  1.00  0.00     0.208 A 
ATOM      3  C   UNL     1    -106.859  42.893  55.665  1.00  0.00     0.235 A 
ATOM      4  O   UNL     1    -107.821  42.144  55.989  1.00  0.00    -0.285 OA
ATOM      5  C   UNL     1    -105.617  42.776  56.309  1.00  0.00     0.069 A 
ATOM      6  C   UNL     1    -104.570  43.630  55.902  1.00  0.00     0.142 A 
ATOM      7  O   UNL     1    -104.768  44.526  54.941  1.00  0.00    -0.452 OA
ATOM      8  C   UNL     1    -103.313  43.538  56.512  1.00  0.00     0.094 A 
ATOM      9  C   UNL     1    -103.090  42.603  57.528  1.00  0.00     0.119 A 
ATOM     10  C   UNL     1    -104.128  41.755  57.936  1.00  0.00     0.047 A 
ATOM     11  C   UNL     1    -105.385  41.837  57.332  1.00  0.00     0.020 A 
ENDROOT
BRANCH   1  12
ATOM     12  C   UNL     1    -106.032  45.721  53.269  1.00  0.00     0.025 A 
ATOM     13  C   UNL     1    -105.659  45.414  51.952  1.00  0.00     0.016 A 
ATOM     14  C   UNL     1    -105.724  46.386  50.951  1.00  0.00     0.051 A 
ATOM     15  C   UNL     1    -106.148  47.685  51.254  1.00  0.00     0.157 A 
ATOM     16  C   UNL     1    -106.438  47.032  53.576  1.00  0.00     0.062 A 
ATOM     17  C   UNL     1    -106.503  48.011  52.574  1.00  0.00     0.158 A 
BRANCH  15  18
ATOM     18  O   UNL     1    -106.206  48.634  50.236  1.00  0.00    -0.504 OA
ATOM     19  H   UNL     1    -107.055  48.809  49.711  1.00  0.00     0.293 HD
ENDBRANCH  15  18
BRANCH  17  20
ATOM     20  O   UNL     1    -106.912  49.307  52.885  1.00  0.00    -0.504 OA
ATOM     21  H   UNL     1    -107.241  49.552  53.813  1.00  0.00     0.293 HD
ENDBRANCH  17  20
ENDBRANCH   1  12
BRANCH   2  22
ATOM     22  O   UNL     1    -108.232  43.952  53.957  1.00  0.00    -0.502 OA
ATOM     23  H   UNL     1    -108.764  44.813  53.926  1.00  0.00     0.293 HD
ENDBRANCH   2  22
BRANCH   9  24
ATOM     24  O   UNL     1    -101.834  42.525  58.125  1.00  0.00    -0.508 OA
ATOM     25  H   UNL     1    -101.146  43.259  58.007  1.00  0.00     0.293 HD
ENDBRANCH   9  24
TORSDOF 5
ENDMDL
MODEL 2
REMARK VINA RESULT:    -5.368      1.426      1.701
REMARK INTER + INTRA:          -6.633
REMARK INTER:                  -6.754
REMARK INTRA:                   0.121
REMARK UNBOUND:                -0.324
REMARK SMILES O=c1c(O)c(-c2ccc(O)c(O)c2)oc2cc(O)ccc12
REMARK SMILES IDX 5 1 3 2 2 3 1 4 21 5 15 6 14 7 16 8 17 9 19 10 20 11 6 12
REMARK SMILES IDX 7 13 8 14 9 15 13 16 11 17 10 18 12 20 4 22 18 24
REMARK H PARENT 10 19 12 21 4 23 18 25
REMARK Flexibility Score: inf
ROOT
ATOM      1  C   UNL     1    -106.259  44.708  53.937  1.00  0.00     0.180 A 
ATOM      2  C   UNL     1    -106.714  43.375  54.023  1.00  0.00     0.208 A 
ATOM      3  C   UNL     1    -106.122  42.518  54.963  1.00  0.00     0.235 A 
ATOM      4  O   UNL     1    -106.519  41.325  55.067  1.00  0.00    -0.285 OA
ATOM      5  C   UNL     1    -105.083  42.997  55.777  1.00  0.00     0.069 A 
ATOM      6  C   UNL     1    -104.669  44.336  55.612  1.00  0.00     0.142 A 
ATOM      7  O   UNL     1    -105.261  45.118  54.717  1.00  0.00    -0.452 OA
ATOM      8  C   UNL     1    -103.630  44.849  56.398  1.00  0.00     0.094 A 
ATOM      9  C   UNL     1    -102.999  44.040  57.348  1.00  0.00     0.119 A 
ATOM     10  C   UNL     1    -103.408  42.711  57.515  1.00  0.00     0.047 A 
ATOM     11  C   UNL     1    -104.444  42.188  56.734  1.00  0.00     0.020 A 
ENDROOT
BRANCH   1  12
ATOM     12  C   UNL     1    -106.845  45.678  52.985  1.00  0.00     0.025 A 
ATOM     13  C   UNL     1    -108.238  45.729  52.820  1.00  0.00     0.016 A 
ATOM     14  C   UNL     1    -108.813  46.622  51.914  1.00  0.00     0.051 A 
ATOM     15  C   UNL     1    -108.005  47.468  51.146  1.00  0.00     0.157 A 
ATOM     16  C   UNL     1    -106.034  46.515  52.199  1.00  0.00     0.062 A 
ATOM     17  C   UNL     1    -106.608  47.412  51.286  1.00  0.00     0.158 A 
BRANCH  15  18
ATOM     18  O   UNL     1    -108.606  48.351  50.251  1.00  0.00    -0.504 OA
ATOM     19  H   UNL     1    -109.522  48.176  49.856  1.00  0.00     0.293 HD
ENDBRANCH  15  18
BRANCH  17  20
ATOM     20  O   UNL     1    -105.796  48.242  50.513  1.00  0.00    -0.504 OA
ATOM     21  H   UNL     1    -104.805  48.340  50.702  1.00  0.00     0.293 HD
ENDBRANCH  17  20
ENDBRANCH   1  12
BRANCH   2  22
ATOM     22  O   UNL     1    -107.716  42.913  53.166  1.00  0.00    -0.502 OA
ATOM     23  H   UNL     1    -108.597  42.551  53.510  1.00  0.00     0.293 HD
ENDBRANCH   2  22
BRANCH   9  24
ATOM     24  O   UNL     1    -101.967  44.566  58.121  1.00  0.00    -0.508 OA
ATOM     25  H   UNL     1    -101.277  45.195  57.725  1.00  0.00     0.293 HD
ENDBRANCH   9  24
TORSDOF 5
ENDMDL
MODEL 3
REMARK VINA RESULT:    -5.135      1.844      3.527
REMARK INTER + INTRA:          -6.359
REMARK INTER:                  -6.071
REMARK INTRA:                  -0.288
REMARK UNBOUND:                -0.324
REMARK SMILES O=c1c(O)c(-c2ccc(O)c(O)c2)oc2cc(O)ccc12
REMARK SMILES IDX 5 1 3 2 2 3 1 4 21 5 15 6 14 7 16 8 17 9 19 10 20 11 6 12
REMARK SMILES IDX 7 13 8 14 9 15 13 16 11 17 10 18 12 20 4 22 18 24
REMARK H PARENT 10 19 12 21 4 23 18 25
REMARK Flexibility Score: inf
ROOT
ATOM      1  C   UNL     1    -106.342  44.091  53.748  1.00  0.00     0.180 A 
ATOM      2  C   UNL     1    -105.445  43.876  54.815  1.00  0.00     0.208 A 
ATOM      3  C   UNL     1    -105.553  42.692  55.561  1.00  0.00     0.235 A 
ATOM      4  O   UNL     1    -104.756  42.471  56.514  1.00  0.00    -0.285 OA
ATOM      5  C   UNL     1    -106.559  41.766  55.245  1.00  0.00     0.069 A 
ATOM      6  C   UNL     1    -107.432  42.066  54.178  1.00  0.00     0.142 A 
ATOM      7  O   UNL     1    -107.291  43.193  53.490  1.00  0.00    -0.452 OA
ATOM      8  C   UNL     1    -108.455  41.173  53.836  1.00  0.00     0.094 A 
ATOM      9  C   UNL     1    -108.614  39.979  54.548  1.00  0.00     0.119 A 
ATOM     10  C   UNL     1    -107.748  39.677  55.606  1.00  0.00     0.047 A 
ATOM     11  C   UNL     1    -106.725  40.564  55.956  1.00  0.00     0.020 A 
ENDROOT
BRANCH   1  12
ATOM     12  C   UNL     1    -106.280  45.304  52.902  1.00  0.00     0.025 A 
ATOM     13  C   UNL     1    -105.612  45.253  51.669  1.00  0.00     0.016 A 
ATOM     14  C   UNL     1    -105.524  46.390  50.863  1.00  0.00     0.051 A 
ATOM     15  C   UNL     1    -106.087  47.600  51.282  1.00  0.00     0.157 A 
ATOM     16  C   UNL     1    -106.828  46.526  53.332  1.00  0.00     0.062 A 
ATOM     17  C   UNL     1    -106.739  47.670  52.525  1.00  0.00     0.158 A 
BRANCH  15  18
ATOM     18  O   UNL     1    -105.985  48.717  50.456  1.00  0.00    -0.504 OA
ATOM     19  H   UNL     1    -106.391  48.739  49.528  1.00  0.00     0.293 HD
ENDBRANCH  15  18
BRANCH  17  20
ATOM     20  O   UNL     1    -107.289  48.876  52.956  1.00  0.00    -0.504 OA
ATOM     21  H   UNL     1    -107.029  49.761  52.532  1.00  0.00     0.293 HD
ENDBRANCH  17  20
ENDBRANCH   1  12
BRANCH   2  22
ATOM     22  O   UNL     1    -104.485  44.838  55.139  1.00  0.00    -0.502 OA
ATOM     23  H   UNL     1    -104.688  45.622  55.747  1.00  0.00     0.293 HD
ENDBRANCH   2  22
BRANCH   9  24
ATOM     24  O   UNL     1    -109.636  39.101  54.195  1.00  0.00    -0.508 OA
ATOM     25  H   UNL     1    -109.715  38.732  53.254  1.00  0.00     0.293 HD
ENDBRANCH   9  24
TORSDOF 5
ENDMDL
MODEL 4
REMARK VINA RESULT:    -5.072      1.973      3.806
REMARK INTER + INTRA:          -6.286
REMARK INTER:                  -5.972
REMARK INTRA:                  -0.314
REMARK UNBOUND:                -0.324
REMARK SMILES O=c1c(O)c(-c2ccc(O)c(O)c2)oc2cc(O)ccc12
REMARK SMILES IDX 5 1 3 2 2 3 1 4 21 5 15 6 14 7 16 8 17 9 19 10 20 11 6 12
REMARK SMILES IDX 7 13 8 14 9 15 13 16 11 17 10 18 12 20 4 22 18 24
REMARK H PARENT 10 19 12 21 4 23 18 25
REMARK Flexibility Score: inf
ROOT
ATOM      1  C   UNL     1    -106.180  43.932  53.883  1.00  0.00     0.180 A 
ATOM      2  C   UNL     1    -105.308  43.729  54.973  1.00  0.00     0.208 A 
ATOM      3  C   UNL     1    -105.453  42.568  55.748  1.00  0.00     0.235 A 
ATOM      4  O   UNL     1    -104.679  42.359  56.722  1.00  0.00    -0.285 OA
ATOM      5  C   UNL     1    -106.469  41.652  55.435  1.00  0.00     0.069 A 
ATOM      6  C   UNL     1    -107.316  41.939  54.343  1.00  0.00     0.142 A 
ATOM      7  O   UNL     1    -107.139  43.044  53.628  1.00  0.00    -0.452 OA
ATOM      8  C   UNL     1    -108.347  41.055  54.005  1.00  0.00     0.094 A 
ATOM      9  C   UNL     1    -108.542  39.884  54.744  1.00  0.00     0.119 A 
ATOM     10  C   UNL     1    -107.704  39.595  55.828  1.00  0.00     0.047 A 
ATOM     11  C   UNL     1    -106.672  40.472  56.175  1.00  0.00     0.020 A 
ENDROOT
BRANCH   1  12
ATOM     12  C   UNL     1    -106.078  45.120  53.006  1.00  0.00     0.025 A 
ATOM     13  C   UNL     1    -106.759  46.296  53.356  1.00  0.00     0.016 A 
ATOM     14  C   UNL     1    -106.695  47.424  52.535  1.00  0.00     0.051 A 
ATOM     15  C   UNL     1    -105.963  47.390  51.343  1.00  0.00     0.157 A 
ATOM     16  C   UNL     1    -105.359  45.081  51.798  1.00  0.00     0.062 A 
ATOM     17  C   UNL     1    -105.295  46.212  50.970  1.00  0.00     0.158 A 
BRANCH  15  18
ATOM     18  O   UNL     1    -105.914  48.531  50.544  1.00  0.00    -0.504 OA
ATOM     19  H   UNL     1    -106.629  48.737  49.856  1.00  0.00     0.293 HD
ENDBRANCH  15  18
BRANCH  17  20
ATOM     20  O   UNL     1    -104.575  46.166  49.777  1.00  0.00    -0.504 OA
ATOM     21  H   UNL     1    -103.685  45.686  49.711  1.00  0.00     0.293 HD
ENDBRANCH  17  20
ENDBRANCH   1  12
BRANCH   2  22
ATOM     22  O   UNL     1    -104.338  44.682  55.291  1.00  0.00    -0.502 OA
ATOM     23  H   UNL     1    -104.416  45.650  55.004  1.00  0.00     0.293 HD
ENDBRANCH   2  22
BRANCH   9  24
ATOM     24  O   UNL     1    -109.573  39.015  54.394  1.00  0.00    -0.508 OA
ATOM     25  H   UNL     1    -109.715  38.722  53.434  1.00  0.00     0.293 HD
ENDBRANCH   9  24
TORSDOF 5
ENDMDL
MODEL 5
REMARK VINA RESULT:    -4.987      1.731      2.596
REMARK INTER + INTRA:          -6.185
REMARK INTER:                  -6.099
REMARK INTRA:                  -0.087
REMARK UNBOUND:                -0.324
REMARK SMILES O=c1c(O)c(-c2ccc(O)c(O)c2)oc2cc(O)ccc12
REMARK SMILES IDX 5 1 3 2 2 3 1 4 21 5 15 6 14 7 16 8 17 9 19 10 20 11 6 12
REMARK SMILES IDX 7 13 8 14 9 15 13 16 11 17 10 18 12 20 4 22 18 24
REMARK H PARENT 10 19 12 21 4 23 18 25
REMARK Flexibility Score: inf
ROOT
ATOM      1  C   UNL     1    -106.918  44.452  53.970  1.00  0.00     0.180 A 
ATOM      2  C   UNL     1    -107.815  43.646  53.238  1.00  0.00     0.208 A 
ATOM      3  C   UNL     1    -108.006  42.314  53.634  1.00  0.00     0.235 A 
ATOM      4  O   UNL     1    -108.811  41.576  53.001  1.00  0.00    -0.285 OA
ATOM      5  C   UNL     1    -107.289  41.810  54.731  1.00  0.00     0.069 A 
ATOM      6  C   UNL     1    -106.393  42.673  55.397  1.00  0.00     0.142 A 
ATOM      7  O   UNL     1    -106.248  43.931  54.996  1.00  0.00    -0.452 OA
ATOM      8  C   UNL     1    -105.652  42.206  56.489  1.00  0.00     0.094 A 
ATOM      9  C   UNL     1    -105.798  40.886  56.926  1.00  0.00     0.119 A 
ATOM     10  C   UNL     1    -106.688  40.027  56.269  1.00  0.00     0.047 A 
ATOM     11  C   UNL     1    -107.430  40.483  55.176  1.00  0.00     0.020 A 
ENDROOT
BRANCH   1  12
ATOM     12  C   UNL     1    -106.677  45.871  53.627  1.00  0.00     0.025 A 
ATOM     13  C   UNL     1    -106.979  46.870  54.566  1.00  0.00     0.016 A 
ATOM     14  C   UNL     1    -106.779  48.217  54.258  1.00  0.00     0.051 A 
ATOM     15  C   UNL     1    -106.288  48.590  53.002  1.00  0.00     0.157 A 
ATOM     16  C   UNL     1    -106.202  46.248  52.358  1.00  0.00     0.062 A 
ATOM     17  C   UNL     1    -106.002  47.601  52.045  1.00  0.00     0.158 A 
BRANCH  15  18
ATOM     18  O   UNL     1    -106.095  49.941  52.723  1.00  0.00    -0.504 OA
ATOM     19  H   UNL     1    -105.690  50.578  53.399  1.00  0.00     0.293 HD
ENDBRANCH  15  18
BRANCH  17  20
ATOM     20  O   UNL     1    -105.526  47.966  50.787  1.00  0.00    -0.504 OA
ATOM     21  H   UNL     1    -104.887  47.374  50.268  1.00  0.00     0.293 HD
ENDBRANCH  17  20
ENDBRANCH   1  12
BRANCH   2  22
ATOM     22  O   UNL     1    -108.477  44.160  52.120  1.00  0.00    -0.502 OA
ATOM     23  H   UNL     1    -109.092  44.962  52.177  1.00  0.00     0.293 HD
ENDBRANCH   2  22
BRANCH   9  24
ATOM     24  O   UNL     1    -105.053  40.438  58.015  1.00  0.00    -0.508 OA
ATOM     25  H   UNL     1    -105.412  40.496  58.962  1.00  0.00     0.293 HD
ENDBRANCH   9  24
TORSDOF 5
ENDMDL
MODEL 6
REMARK VINA RESULT:    -4.912      3.854      6.040
REMARK INTER + INTRA:          -6.097
REMARK INTER:                  -5.789
REMARK INTRA:                  -0.308
REMARK UNBOUND:                -0.324
REMARK SMILES O=c1c(O)c(-c2ccc(O)c(O)c2)oc2cc(O)ccc12
REMARK SMILES IDX 5 1 3 2 2 3 1 4 21 5 15 6 14 7 16 8 17 9 19 10 20 11 6 12
REMARK SMILES IDX 7 13 8 14 9 15 13 16 11 17 10 18 12 20 4 22 18 24
REMARK H PARENT 10 19 12 21 4 23 18 25
REMARK Flexibility Score: inf
ROOT
ATOM      1  C   UNL     1    -107.046  48.074  53.945  1.00  0.00     0.180 A 
ATOM      2  C   UNL     1    -108.424  47.985  54.237  1.00  0.00     0.208 A 
ATOM      3  C   UNL     1    -108.957  48.809  55.239  1.00  0.00     0.235 A 
ATOM      4  O   UNL     1    -110.188  48.756  55.512  1.00  0.00    -0.285 OA
ATOM      5  C   UNL     1    -108.110  49.683  55.939  1.00  0.00     0.069 A 
ATOM      6  C   UNL     1    -106.739  49.696  55.604  1.00  0.00     0.142 A 
ATOM      7  O   UNL     1    -106.275  48.907  54.642  1.00  0.00    -0.452 OA
ATOM      8  C   UNL     1    -105.859  50.546  56.284  1.00  0.00     0.094 A 
ATOM      9  C   UNL     1    -106.334  51.387  57.296  1.00  0.00     0.119 A 
ATOM     10  C   UNL     1    -107.694  51.378  57.631  1.00  0.00     0.047 A 
ATOM     11  C   UNL     1    -108.580  50.531  56.958  1.00  0.00     0.020 A 
ENDROOT
BRANCH   1  12
ATOM     12  C   UNL     1    -106.412  47.253  52.889  1.00  0.00     0.025 A 
ATOM     13  C   UNL     1    -106.290  47.772  51.591  1.00  0.00     0.016 A 
ATOM     14  C   UNL     1    -105.713  47.008  50.574  1.00  0.00     0.051 A 
ATOM     15  C   UNL     1    -105.263  45.709  50.833  1.00  0.00     0.157 A 
ATOM     16  C   UNL     1    -105.977  45.940  53.144  1.00  0.00     0.062 A 
ATOM     17  C   UNL     1    -105.399  45.170  52.123  1.00  0.00     0.158 A 
BRANCH  15  18
ATOM     18  O   UNL     1    -104.689  44.971  49.800  1.00  0.00    -0.504 OA
ATOM     19  H   UNL     1    -103.872  45.295  49.297  1.00  0.00     0.293 HD
ENDBRANCH  15  18
BRANCH  17  20
ATOM     20  O   UNL     1    -104.967  43.871  52.385  1.00  0.00    -0.504 OA
ATOM     21  H   UNL     1    -105.063  43.454  53.305  1.00  0.00     0.293 HD
ENDBRANCH  17  20
ENDBRANCH   1  12
BRANCH   2  22
ATOM     22  O   UNL     1    -109.233  47.071  53.559  1.00  0.00    -0.502 OA
ATOM     23  H   UNL     1    -109.931  47.362  52.885  1.00  0.00     0.293 HD
ENDBRANCH   2  22
BRANCH   9  24
ATOM     24  O   UNL     1    -105.445  52.227  57.963  1.00  0.00    -0.508 OA
ATOM     25  H   UNL     1    -104.447  52.050  57.962  1.00  0.00     0.293 HD
ENDBRANCH   9  24
TORSDOF 5
ENDMDL
MODEL 7
REMARK VINA RESULT:    -4.890      2.592      4.538
REMARK INTER + INTRA:          -6.071
REMARK INTER:                  -5.775
REMARK INTRA:                  -0.296
REMARK UNBOUND:                -0.324
REMARK SMILES O=c1c(O)c(-c2ccc(O)c(O)c2)oc2cc(O)ccc12
REMARK SMILES IDX 5 1 3 2 2 3 1 4 21 5 15 6 14 7 16 8 17 9 19 10 20 11 6 12
REMARK SMILES IDX 7 13 8 14 9 15 13 16 11 17 10 18 12 20 4 22 18 24
REMARK H PARENT 10 19 12 21 4 23 18 25
REMARK Flexibility Score: inf
ROOT
ATOM      1  C   UNL     1    -106.409  47.692  53.744  1.00  0.00     0.180 A 
ATOM      2  C   UNL     1    -106.131  47.294  52.419  1.00  0.00     0.208 A 
ATOM      3  C   UNL     1    -105.901  45.935  52.155  1.00  0.00     0.235 A 
ATOM      4  O   UNL     1    -105.661  45.553  50.977  1.00  0.00    -0.285 OA
ATOM      5  C   UNL     1    -105.930  45.012  53.212  1.00  0.00     0.069 A 
ATOM      6  C   UNL     1    -106.191  45.493  54.513  1.00  0.00     0.142 A 
ATOM      7  O   UNL     1    -106.414  46.786  54.720  1.00  0.00    -0.452 OA
ATOM      8  C   UNL     1    -106.220  44.606  55.596  1.00  0.00     0.094 A 
ATOM      9  C   UNL     1    -105.993  43.241  55.394  1.00  0.00     0.119 A 
ATOM     10  C   UNL     1    -105.735  42.759  54.104  1.00  0.00     0.047 A 
ATOM     11  C   UNL     1    -105.702  43.637  53.017  1.00  0.00     0.020 A 
ENDROOT
BRANCH   1  12
ATOM     12  C   UNL     1    -106.682  49.103  54.100  1.00  0.00     0.025 A 
ATOM     13  C   UNL     1    -107.962  49.635  53.880  1.00  0.00     0.016 A 
ATOM     14  C   UNL     1    -108.238  50.969  54.189  1.00  0.00     0.051 A 
ATOM     15  C   UNL     1    -107.236  51.796  54.708  1.00  0.00     0.157 A 
ATOM     16  C   UNL     1    -105.671  49.941  54.603  1.00  0.00     0.062 A 
ATOM     17  C   UNL     1    -105.945  51.281  54.913  1.00  0.00     0.158 A 
BRANCH  15  18
ATOM     18  O   UNL     1    -107.540  53.122  55.010  1.00  0.00    -0.504 OA
ATOM     19  H   UNL     1    -108.473  53.500  54.891  1.00  0.00     0.293 HD
ENDBRANCH  15  18
BRANCH  17  20
ATOM     20  O   UNL     1    -104.938  52.104  55.416  1.00  0.00    -0.504 OA
ATOM     21  H   UNL     1    -104.636  52.937  54.923  1.00  0.00     0.293 HD
ENDBRANCH  17  20
ENDBRANCH   1  12
BRANCH   2  22
ATOM     22  O   UNL     1    -106.059  48.242  51.396  1.00  0.00    -0.502 OA
ATOM     23  H   UNL     1    -106.843  48.443  50.788  1.00  0.00     0.293 HD
ENDBRANCH   2  22
BRANCH   9  24
ATOM     24  O   UNL     1    -106.025  42.372  56.482  1.00  0.00    -0.508 OA
ATOM     25  H   UNL     1    -106.442  42.644  57.365  1.00  0.00     0.293 HD
ENDBRANCH   9  24
TORSDOF 5
ENDMDL
MODEL 8
REMARK VINA RESULT:    -4.887      2.898      4.430
REMARK INTER + INTRA:          -6.068
REMARK INTER:                  -5.750
REMARK INTRA:                  -0.318
REMARK UNBOUND:                -0.324
REMARK SMILES O=c1c(O)c(-c2ccc(O)c(O)c2)oc2cc(O)ccc12
REMARK SMILES IDX 5 1 3 2 2 3 1 4 21 5 15 6 14 7 16 8 17 9 19 10 20 11 6 12
REMARK SMILES IDX 7 13 8 14 9 15 13 16 11 17 10 18 12 20 4 22 18 24
REMARK H PARENT 10 19 12 21 4 23 18 25
REMARK Flexibility Score: inf
ROOT
ATOM      1  C   UNL     1    -106.204  47.693  55.457  1.00  0.00     0.180 A 
ATOM      2  C   UNL     1    -105.626  47.416  56.713  1.00  0.00     0.208 A 
ATOM      3  C   UNL     1    -105.255  46.096  57.011  1.00  0.00     0.235 A 
ATOM      4  O   UNL     1    -104.726  45.824  58.123  1.00  0.00    -0.285 OA
ATOM      5  C   UNL     1    -105.486  45.084  56.065  1.00  0.00     0.069 A 
ATOM      6  C   UNL     1    -106.092  45.439  54.841  1.00  0.00     0.142 A 
ATOM      7  O   UNL     1    -106.419  46.702  54.594  1.00  0.00    -0.452 OA
ATOM      8  C   UNL     1    -106.348  44.458  53.876  1.00  0.00     0.094 A 
ATOM      9  C   UNL     1    -106.005  43.124  54.119  1.00  0.00     0.119 A 
ATOM     10  C   UNL     1    -105.402  42.768  55.332  1.00  0.00     0.047 A 
ATOM     11  C   UNL     1    -105.144  43.740  56.303  1.00  0.00     0.020 A 
ENDROOT
BRANCH   1  12
ATOM     12  C   UNL     1    -106.604  49.062  55.061  1.00  0.00     0.025 A 
ATOM     13  C   UNL     1    -107.895  49.520  55.366  1.00  0.00     0.016 A 
ATOM     14  C   UNL     1    -108.301  50.801  54.984  1.00  0.00     0.051 A 
ATOM     15  C   UNL     1    -107.430  51.638  54.279  1.00  0.00     0.157 A 
ATOM     16  C   UNL     1    -105.737  49.898  54.334  1.00  0.00     0.062 A 
ATOM     17  C   UNL     1    -106.143  51.184  53.948  1.00  0.00     0.158 A 
BRANCH  15  18
ATOM     18  O   UNL     1    -107.862  52.912  53.913  1.00  0.00    -0.504 OA
ATOM     19  H   UNL     1    -107.869  53.686  54.567  1.00  0.00     0.293 HD
ENDBRANCH  15  18
BRANCH  17  20
ATOM     20  O   UNL     1    -105.276  52.007  53.232  1.00  0.00    -0.504 OA
ATOM     21  H   UNL     1    -105.608  52.611  52.488  1.00  0.00     0.293 HD
ENDBRANCH  17  20
ENDBRANCH   1  12
BRANCH   2  22
ATOM     22  O   UNL     1    -105.453  48.435  57.653  1.00  0.00    -0.502 OA
ATOM     23  H   UNL     1    -104.645  48.478  58.262  1.00  0.00     0.293 HD
ENDBRANCH   2  22
BRANCH   9  24
ATOM     24  O   UNL     1    -106.266  42.160  53.147  1.00  0.00    -0.508 OA
ATOM     25  H   UNL     1    -106.014  42.305  52.177  1.00  0.00     0.293 HD
ENDBRANCH   9  24
TORSDOF 5
ENDMDL
MODEL 9
REMARK VINA RESULT:    -4.775      2.666      5.022
REMARK INTER + INTRA:          -5.936
REMARK INTER:                  -5.678
REMARK INTRA:                  -0.258
REMARK UNBOUND:                -0.324
REMARK SMILES O=c1c(O)c(-c2ccc(O)c(O)c2)oc2cc(O)ccc12
REMARK SMILES IDX 5 1 3 2 2 3 1 4 21 5 15 6 14 7 16 8 17 9 19 10 20 11 6 12
REMARK SMILES IDX 7 13 8 14 9 15 13 16 11 17 10 18 12 20 4 22 18 24
REMARK H PARENT 10 19 12 21 4 23 18 25
REMARK Flexibility Score: inf
ROOT
ATOM      1  C   UNL     1    -107.444  44.517  53.301  1.00  0.00     0.180 A 
ATOM      2  C   UNL     1    -106.609  43.548  53.895  1.00  0.00     0.208 A 
ATOM      3  C   UNL     1    -107.055  42.219  53.959  1.00  0.00     0.235 A 
ATOM      4  O   UNL     1    -106.322  41.331  54.475  1.00  0.00    -0.285 OA
ATOM      5  C   UNL     1    -108.323  41.891  53.452  1.00  0.00     0.069 A 
ATOM      6  C   UNL     1    -109.108  42.923  52.896  1.00  0.00     0.142 A 
ATOM      7  O   UNL     1    -108.645  44.167  52.845  1.00  0.00    -0.452 OA
ATOM      8  C   UNL     1    -110.381  42.639  52.389  1.00  0.00     0.094 A 
ATOM      9  C   UNL     1    -110.880  41.333  52.430  1.00  0.00     0.119 A 
ATOM     10  C   UNL     1    -110.104  40.306  52.980  1.00  0.00     0.047 A 
ATOM     11  C   UNL     1    -108.831  40.580  53.491  1.00  0.00     0.020 A 
ENDROOT
BRANCH   1  12
ATOM     12  C   UNL     1    -107.037  45.936  53.178  1.00  0.00     0.025 A 
ATOM     13  C   UNL     1    -107.090  46.769  54.306  1.00  0.00     0.016 A 
ATOM     14  C   UNL     1    -106.731  48.115  54.210  1.00  0.00     0.051 A 
ATOM     15  C   UNL     1    -106.327  48.654  52.983  1.00  0.00     0.157 A 
ATOM     16  C   UNL     1    -106.651  46.483  51.942  1.00  0.00     0.062 A 
ATOM     17  C   UNL     1    -106.291  47.835  51.842  1.00  0.00     0.158 A 
BRANCH  15  18
ATOM     18  O   UNL     1    -105.972  50.000  52.917  1.00  0.00    -0.504 OA
ATOM     19  H   UNL     1    -105.011  50.307  53.002  1.00  0.00     0.293 HD
ENDBRANCH  15  18
BRANCH  17  20
ATOM     20  O   UNL     1    -105.905  48.369  50.613  1.00  0.00    -0.504 OA
ATOM     21  H   UNL     1    -106.493  48.290  49.791  1.00  0.00     0.293 HD
ENDBRANCH  17  20
ENDBRANCH   1  12
BRANCH   2  22
ATOM     22  O   UNL     1    -105.373  43.912  54.435  1.00  0.00    -0.502 OA
ATOM     23  H   UNL     1    -104.505  43.797  53.926  1.00  0.00     0.293 HD
ENDBRANCH   2  22
BRANCH   9  24
ATOM     24  O   UNL     1    -112.150  41.068  51.921  1.00  0.00    -0.508 OA
ATOM     25  H   UNL     1    -112.496  40.120  51.830  1.00  0.00     0.293 HD
ENDBRANCH   9  24
TORSDOF 5
ENDMDL
