MODEL 1
REMARK VINA RESULT:    -6.954      0.000      0.000
REMARK INTER + INTRA:         -10.529
REMARK INTER:                 -10.409
REMARK INTRA:                  -0.120
REMARK UNBOUND:                -0.120
REMARK SMILES C=C(CC[C@@H](C(=O)[O-])[C@H]1[C@H](O)C[C@@]2(C)C3=C(CC[C@]12C)[C@]1(C)CC[C@@H](OC(C)=O)C(C)(C)[C@@H]1CC3)C(C)C
REMARK SMILES IDX 4 1 5 2 6 3 7 4 8 5 9 6 10 7 19 8 12 9 13 10 18 11 20 12
REMARK SMILES IDX 14 13 15 14 17 15 16 16 35 17 21 18 34 19 33 20 23 21 22 22
REMARK SMILES IDX 30 23 24 24 25 25 31 26 32 27 11 28 26 30 27 31 29 32 28 33
REMARK SMILES IDX 3 34 2 35 1 36 36 37 37 38 38 39
REMARK H PARENT 11 29
REMARK Flexibility Score: inf
ROOT
ATOM      1  C   UNL     1     -10.908 -26.523 -12.112  1.00  0.00     0.014 C 
ENDROOT
BRANCH   1   2
ATOM      2  C   UNL     1     -12.440 -26.335 -12.204  1.00  0.00     0.042 C 
BRANCH   2   3
ATOM      3  C   UNL     1     -12.801 -25.716 -13.540  1.00  0.00     0.045 C 
ATOM      4  O   UNL     1     -12.281 -26.157 -14.601  1.00  0.00    -0.550 OA
ATOM      5  O   UNL     1     -13.758 -24.711 -13.631  1.00  0.00    -0.550 OA
ENDBRANCH   2   3
BRANCH   2   6
ATOM      6  C   UNL     1     -13.307 -27.587 -11.781  1.00  0.00     0.033 C 
ATOM      7  C   UNL     1     -14.630 -27.730 -12.595  1.00  0.00     0.119 C 
ATOM      8  C   UNL     1     -12.714 -29.034 -11.767  1.00  0.00    -0.017 C 
ATOM      9  C   UNL     1     -14.918 -29.240 -12.722  1.00  0.00     0.043 C 
ATOM     10  C   UNL     1     -14.002 -29.916 -11.690  1.00  0.00    -0.003 C 
ATOM     11  C   UNL     1     -11.840 -29.421 -10.555  1.00  0.00     0.012 C 
ATOM     12  C   UNL     1     -11.897 -29.283 -13.081  1.00  0.00     0.013 C 
ATOM     13  C   UNL     1     -14.754 -29.889 -10.316  1.00  0.00     0.017 C 
ATOM     14  C   UNL     1     -13.631 -31.376 -11.910  1.00  0.00    -0.064 C 
ATOM     15  C   UNL     1     -11.548 -30.948 -10.526  1.00  0.00     0.032 C 
ATOM     16  C   UNL     1     -12.497 -31.879 -11.329  1.00  0.00    -0.064 C 
ATOM     17  C   UNL     1     -14.568 -32.301 -12.637  1.00  0.00     0.032 C 
ATOM     18  C   UNL     1     -12.204 -33.408 -11.375  1.00  0.00    -0.008 C 
ATOM     19  C   UNL     1     -13.742 -33.214 -13.521  1.00  0.00     0.009 C 
ATOM     20  C   UNL     1     -12.849 -34.134 -12.653  1.00  0.00     0.009 C 
ATOM     21  C   UNL     1     -10.663 -33.653 -11.295  1.00  0.00     0.015 C 
ATOM     22  C   UNL     1     -12.832 -33.999 -10.084  1.00  0.00     0.016 C 
ATOM     23  C   UNL     1     -11.854 -34.983 -13.531  1.00  0.00     0.005 C 
ATOM     24  C   UNL     1     -10.211 -35.103 -11.516  1.00  0.00     0.047 C 
ATOM     25  C   UNL     1     -11.004 -35.885 -12.584  1.00  0.00     0.182 C 
ATOM     26  C   UNL     1     -12.638 -35.929 -14.484  1.00  0.00     0.015 C 
ATOM     27  C   UNL     1     -10.940 -34.090 -14.428  1.00  0.00     0.015 C 
BRANCH   7  28
ATOM     28  O   UNL     1     -15.691 -27.095 -11.927  1.00  0.00    -0.393 OA
ATOM     29  H   UNL     1     -16.275 -26.707 -12.626  1.00  0.00     0.210 HD
ENDBRANCH   7  28
BRANCH  25  30
ATOM     30  O   UNL     1     -11.858 -36.837 -11.938  1.00  0.00    -0.462 OA
BRANCH  30  31
ATOM     31  C   UNL     1     -11.884 -37.043 -10.554  1.00  0.00     0.302 C 
ATOM     32  O   UNL     1     -10.813 -37.125  -9.892  1.00  0.00    -0.253 OA
ATOM     33  C   UNL     1     -13.195 -37.124  -9.851  1.00  0.00     0.139 C 
ENDBRANCH  30  31
ENDBRANCH  25  30
ENDBRANCH   2   6
ENDBRANCH   1   2
BRANCH   1  34
ATOM     34  C   UNL     1     -10.276 -26.085 -10.773  1.00  0.00     0.031 C 
BRANCH  34  35
ATOM     35  C   UNL     1      -9.336 -27.129 -10.180  1.00  0.00    -0.075 C 
ATOM     36  C   UNL     1      -8.979 -28.175 -10.951  1.00  0.00     0.008 C 
BRANCH  35  37
ATOM     37  C   UNL     1      -8.875 -27.126  -8.719  1.00  0.00     0.008 C 
ATOM     38  C   UNL     1      -9.604 -28.130  -7.814  1.00  0.00     0.012 C 
ATOM     39  C   UNL     1      -8.957 -25.713  -8.125  1.00  0.00     0.012 C 
ENDBRANCH  35  37
ENDBRANCH  34  35
ENDBRANCH   1  34
TORSDOF 9
ENDMDL
MODEL 2
REMARK VINA RESULT:    -6.449      1.719      8.768
REMARK INTER + INTRA:          -9.773
REMARK INTER:                  -8.703
REMARK INTRA:                  -1.070
REMARK UNBOUND:                -0.120
REMARK SMILES C=C(CC[C@@H](C(=O)[O-])[C@H]1[C@H](O)C[C@@]2(C)C3=C(CC[C@]12C)[C@]1(C)CC[C@@H](OC(C)=O)C(C)(C)[C@@H]1CC3)C(C)C
REMARK SMILES IDX 4 1 5 2 6 3 7 4 8 5 9 6 10 7 19 8 12 9 13 10 18 11 20 12
REMARK SMILES IDX 14 13 15 14 17 15 16 16 35 17 21 18 34 19 33 20 23 21 22 22
REMARK SMILES IDX 30 23 24 24 25 25 31 26 32 27 11 28 26 30 27 31 29 32 28 33
REMARK SMILES IDX 3 34 2 35 1 36 36 37 37 38 38 39
REMARK H PARENT 11 29
REMARK Flexibility Score: inf
ROOT
ATOM      1  C   UNL     1     -11.552 -36.301 -14.113  1.00  0.00     0.014 C 
ENDROOT
BRANCH   1   2
ATOM      2  C   UNL     1     -11.107 -36.162 -12.638  1.00  0.00     0.042 C 
BRANCH   2   3
ATOM      3  C   UNL     1      -9.608 -35.940 -12.574  1.00  0.00     0.045 C 
ATOM      4  O   UNL     1      -8.986 -35.540 -13.595  1.00  0.00    -0.550 OA
ATOM      5  O   UNL     1      -8.909 -36.098 -11.382  1.00  0.00    -0.550 OA
ENDBRANCH   2   3
BRANCH   2   6
ATOM      6  C   UNL     1     -11.975 -35.182 -11.753  1.00  0.00     0.033 C 
ATOM      7  C   UNL     1     -11.584 -35.196 -10.243  1.00  0.00     0.119 C 
ATOM      8  C   UNL     1     -12.108 -33.662 -12.094  1.00  0.00    -0.017 C 
ATOM      9  C   UNL     1     -11.829 -33.772  -9.703  1.00  0.00     0.043 C 
ATOM     10  C   UNL     1     -12.691 -33.077 -10.768  1.00  0.00    -0.003 C 
ATOM     11  C   UNL     1     -13.097 -33.280 -13.218  1.00  0.00     0.012 C 
ATOM     12  C   UNL     1     -10.698 -33.072 -12.439  1.00  0.00     0.013 C 
ATOM     13  C   UNL     1     -14.183 -33.446 -10.468  1.00  0.00     0.017 C 
ATOM     14  C   UNL     1     -12.664 -31.556 -10.828  1.00  0.00    -0.064 C 
ATOM     15  C   UNL     1     -13.338 -31.744 -13.266  1.00  0.00     0.032 C 
ATOM     16  C   UNL     1     -13.008 -30.921 -11.992  1.00  0.00    -0.064 C 
ATOM     17  C   UNL     1     -12.401 -30.747  -9.588  1.00  0.00     0.032 C 
ATOM     18  C   UNL     1     -13.180 -29.373 -12.020  1.00  0.00    -0.008 C 
ATOM     19  C   UNL     1     -11.522 -29.572  -9.966  1.00  0.00     0.009 C 
ATOM     20  C   UNL     1     -12.281 -28.621 -10.923  1.00  0.00     0.009 C 
ATOM     21  C   UNL     1     -12.895 -28.836 -13.459  1.00  0.00     0.015 C 
ATOM     22  C   UNL     1     -14.679 -29.107 -11.718  1.00  0.00     0.016 C 
ATOM     23  C   UNL     1     -11.351 -27.474 -11.472  1.00  0.00     0.005 C 
ATOM     24  C   UNL     1     -12.843 -27.309 -13.598  1.00  0.00     0.047 C 
ATOM     25  C   UNL     1     -12.193 -26.561 -12.414  1.00  0.00     0.182 C 
ATOM     26  C   UNL     1     -10.838 -26.582 -10.305  1.00  0.00     0.015 C 
ATOM     27  C   UNL     1     -10.091 -28.031 -12.206  1.00  0.00     0.015 C 
BRANCH   7  28
ATOM     28  O   UNL     1     -12.374 -36.119  -9.538  1.00  0.00    -0.393 OA
ATOM     29  H   UNL     1     -11.778 -36.564  -8.885  1.00  0.00     0.210 HD
ENDBRANCH   7  28
BRANCH  25  30
ATOM     30  O   UNL     1     -13.212 -25.900 -11.654  1.00  0.00    -0.462 OA
BRANCH  30  31
ATOM     31  C   UNL     1     -14.449 -25.515 -12.183  1.00  0.00     0.302 C 
ATOM     32  O   UNL     1     -15.526 -25.849 -11.620  1.00  0.00    -0.253 OA
ATOM     33  C   UNL     1     -14.488 -24.664 -13.405  1.00  0.00     0.139 C 
ENDBRANCH  30  31
ENDBRANCH  25  30
ENDBRANCH   2   6
ENDBRANCH   1   2
BRANCH   1  34
ATOM     34  C   UNL     1     -12.840 -37.125 -14.330  1.00  0.00     0.031 C 
BRANCH  34  35
ATOM     35  C   UNL     1     -14.031 -36.277 -14.765  1.00  0.00    -0.075 C 
ATOM     36  C   UNL     1     -13.939 -35.597 -15.924  1.00  0.00     0.008 C 
BRANCH  35  37
ATOM     37  C   UNL     1     -15.276 -36.054 -13.901  1.00  0.00     0.008 C 
ATOM     38  C   UNL     1     -15.113 -36.453 -12.426  1.00  0.00     0.012 C 
ATOM     39  C   UNL     1     -16.497 -36.754 -14.512  1.00  0.00     0.012 C 
ENDBRANCH  35  37
ENDBRANCH  34  35
ENDBRANCH   1  34
TORSDOF 9
ENDMDL
MODEL 3
REMARK VINA RESULT:    -5.902      3.492      8.740
REMARK INTER + INTRA:          -8.954
REMARK INTER:                  -8.898
REMARK INTRA:                  -0.056
REMARK UNBOUND:                -0.120
REMARK SMILES C=C(CC[C@@H](C(=O)[O-])[C@H]1[C@H](O)C[C@@]2(C)C3=C(CC[C@]12C)[C@]1(C)CC[C@@H](OC(C)=O)C(C)(C)[C@@H]1CC3)C(C)C
REMARK SMILES IDX 4 1 5 2 6 3 7 4 8 5 9 6 10 7 19 8 12 9 13 10 18 11 20 12
REMARK SMILES IDX 14 13 15 14 17 15 16 16 35 17 21 18 34 19 33 20 23 21 22 22
REMARK SMILES IDX 30 23 24 24 25 25 31 26 32 27 11 28 26 30 27 31 29 32 28 33
REMARK SMILES IDX 3 34 2 35 1 36 36 37 37 38 38 39
REMARK H PARENT 11 29
REMARK Flexibility Score: inf
ROOT
ATOM      1  C   UNL     1     -16.137 -35.601 -12.701  1.00  0.00     0.014 C 
ENDROOT
BRANCH   1   2
ATOM      2  C   UNL     1     -15.047 -36.283 -13.560  1.00  0.00     0.042 C 
BRANCH   2   3
ATOM      3  C   UNL     1     -15.357 -36.085 -15.031  1.00  0.00     0.045 C 
ATOM      4  O   UNL     1     -14.955 -35.048 -15.626  1.00  0.00    -0.550 OA
ATOM      5  O   UNL     1     -16.016 -37.065 -15.765  1.00  0.00    -0.550 OA
ENDBRANCH   2   3
BRANCH   2   6
ATOM      6  C   UNL     1     -13.555 -35.981 -13.135  1.00  0.00     0.033 C 
ATOM      7  C   UNL     1     -12.582 -35.832 -14.344  1.00  0.00     0.119 C 
ATOM      8  C   UNL     1     -13.190 -34.776 -12.207  1.00  0.00    -0.017 C 
ATOM      9  C   UNL     1     -11.509 -34.802 -13.933  1.00  0.00     0.043 C 
ATOM     10  C   UNL     1     -11.645 -34.660 -12.409  1.00  0.00    -0.003 C 
ATOM     11  C   UNL     1     -13.425 -34.963 -10.692  1.00  0.00     0.012 C 
ATOM     12  C   UNL     1     -13.954 -33.492 -12.681  1.00  0.00     0.013 C 
ATOM     13  C   UNL     1     -10.795 -35.804 -11.761  1.00  0.00     0.017 C 
ATOM     14  C   UNL     1     -11.143 -33.377 -11.763  1.00  0.00    -0.064 C 
ATOM     15  C   UNL     1     -12.772 -33.816  -9.868  1.00  0.00     0.032 C 
ATOM     16  C   UNL     1     -11.640 -32.996 -10.545  1.00  0.00    -0.064 C 
ATOM     17  C   UNL     1     -10.009 -32.604 -12.379  1.00  0.00     0.032 C 
ATOM     18  C   UNL     1     -11.002 -31.801  -9.775  1.00  0.00    -0.008 C 
ATOM     19  C   UNL     1     -10.313 -31.126 -12.241  1.00  0.00     0.009 C 
ATOM     20  C   UNL     1     -10.322 -30.719 -10.747  1.00  0.00     0.009 C 
ATOM     21  C   UNL     1     -12.069 -31.143  -8.843  1.00  0.00     0.015 C 
ATOM     22  C   UNL     1      -9.910 -32.420  -8.862  1.00  0.00     0.016 C 
ATOM     23  C   UNL     1     -10.796 -29.230 -10.547  1.00  0.00     0.005 C 
ATOM     24  C   UNL     1     -11.636 -29.838  -8.161  1.00  0.00     0.047 C 
ATOM     25  C   UNL     1     -10.766 -28.900  -9.024  1.00  0.00     0.182 C 
ATOM     26  C   UNL     1      -9.815 -28.247 -11.249  1.00  0.00     0.015 C 
ATOM     27  C   UNL     1     -12.211 -28.969 -11.152  1.00  0.00     0.015 C 
BRANCH   7  28
ATOM     28  O   UNL     1     -11.975 -37.063 -14.642  1.00  0.00    -0.393 OA
ATOM     29  H   UNL     1     -12.525 -37.489 -15.347  1.00  0.00     0.210 HD
ENDBRANCH   7  28
BRANCH  25  30
ATOM     30  O   UNL     1      -9.413 -28.942  -8.552  1.00  0.00    -0.462 OA
BRANCH  30  31
ATOM     31  C   UNL     1      -9.065 -29.002  -7.198  1.00  0.00     0.302 C 
ATOM     32  O   UNL     1      -8.876 -30.111  -6.628  1.00  0.00    -0.253 OA
ATOM     33  C   UNL     1      -8.876 -27.737  -6.435  1.00  0.00     0.139 C 
ENDBRANCH  30  31
ENDBRANCH  25  30
ENDBRANCH   2   6
ENDBRANCH   1   2
BRANCH   1  34
ATOM     34  C   UNL     1     -17.529 -35.513 -13.363  1.00  0.00     0.031 C 
BRANCH  34  35
ATOM     35  C   UNL     1     -18.673 -35.841 -12.407  1.00  0.00    -0.075 C 
ATOM     36  C   UNL     1     -18.616 -36.998 -11.721  1.00  0.00     0.008 C 
BRANCH  35  37
ATOM     37  C   UNL     1     -19.941 -34.992 -12.276  1.00  0.00     0.008 C 
ATOM     38  C   UNL     1     -21.251 -35.794 -12.258  1.00  0.00     0.012 C 
ATOM     39  C   UNL     1     -19.990 -33.913 -13.367  1.00  0.00     0.012 C 
ENDBRANCH  35  37
ENDBRANCH  34  35
ENDBRANCH   1  34
TORSDOF 9
ENDMDL
MODEL 4
REMARK VINA RESULT:    -5.479      2.623      3.649
REMARK INTER + INTRA:          -8.321
REMARK INTER:                  -9.953
REMARK INTRA:                   1.632
REMARK UNBOUND:                -0.120
REMARK SMILES C=C(CC[C@@H](C(=O)[O-])[C@H]1[C@H](O)C[C@@]2(C)C3=C(CC[C@]12C)[C@]1(C)CC[C@@H](OC(C)=O)C(C)(C)[C@@H]1CC3)C(C)C
REMARK SMILES IDX 4 1 5 2 6 3 7 4 8 5 9 6 10 7 19 8 12 9 13 10 18 11 20 12
REMARK SMILES IDX 14 13 15 14 17 15 16 16 35 17 21 18 34 19 33 20 23 21 22 22
REMARK SMILES IDX 30 23 24 24 25 25 31 26 32 27 11 28 26 30 27 31 29 32 28 33
REMARK SMILES IDX 3 34 2 35 1 36 36 37 37 38 38 39
REMARK H PARENT 11 29
REMARK Flexibility Score: inf
ROOT
ATOM      1  C   UNL     1      -9.615 -26.401  -8.998  1.00  0.00     0.014 C 
ENDROOT
BRANCH   1   2
ATOM      2  C   UNL     1      -9.757 -27.904  -9.339  1.00  0.00     0.042 C 
BRANCH   2   3
ATOM      3  C   UNL     1      -9.427 -28.738  -8.117  1.00  0.00     0.045 C 
ATOM      4  O   UNL     1      -8.913 -29.882  -8.254  1.00  0.00    -0.550 OA
ATOM      5  O   UNL     1      -9.611 -28.236  -6.833  1.00  0.00    -0.550 OA
ENDBRANCH   2   3
BRANCH   2   6
ATOM      6  C   UNL     1     -11.081 -28.309 -10.099  1.00  0.00     0.033 C 
ATOM      7  C   UNL     1     -11.286 -27.542 -11.442  1.00  0.00     0.119 C 
ATOM      8  C   UNL     1     -11.402 -29.796 -10.461  1.00  0.00    -0.017 C 
ATOM      9  C   UNL     1     -12.015 -28.505 -12.402  1.00  0.00     0.043 C 
ATOM     10  C   UNL     1     -12.548 -29.639 -11.512  1.00  0.00    -0.003 C 
ATOM     11  C   UNL     1     -11.960 -30.688  -9.330  1.00  0.00     0.012 C 
ATOM     12  C   UNL     1     -10.128 -30.481 -11.064  1.00  0.00     0.013 C 
ATOM     13  C   UNL     1     -13.927 -29.167 -10.939  1.00  0.00     0.017 C 
ATOM     14  C   UNL     1     -12.828 -30.986 -12.163  1.00  0.00    -0.064 C 
ATOM     15  C   UNL     1     -12.491 -32.042  -9.881  1.00  0.00     0.032 C 
ATOM     16  C   UNL     1     -12.844 -32.117 -11.391  1.00  0.00    -0.064 C 
ATOM     17  C   UNL     1     -13.227 -31.066 -13.611  1.00  0.00     0.032 C 
ATOM     18  C   UNL     1     -13.323 -33.472 -11.994  1.00  0.00    -0.008 C 
ATOM     19  C   UNL     1     -12.546 -32.274 -14.224  1.00  0.00     0.009 C 
ATOM     20  C   UNL     1     -13.081 -33.575 -13.578  1.00  0.00     0.009 C 
ATOM     21  C   UNL     1     -12.646 -34.657 -11.233  1.00  0.00     0.015 C 
ATOM     22  C   UNL     1     -14.846 -33.550 -11.706  1.00  0.00     0.016 C 
ATOM     23  C   UNL     1     -12.284 -34.844 -14.065  1.00  0.00     0.005 C 
ATOM     24  C   UNL     1     -12.877 -36.049 -11.836  1.00  0.00     0.047 C 
ATOM     25  C   UNL     1     -12.891 -36.105 -13.379  1.00  0.00     0.182 C 
ATOM     26  C   UNL     1     -12.447 -35.033 -15.601  1.00  0.00     0.015 C 
ATOM     27  C   UNL     1     -10.753 -34.730 -13.781  1.00  0.00     0.015 C 
BRANCH   7  28
ATOM     28  O   UNL     1     -12.063 -26.389 -11.237  1.00  0.00    -0.393 OA
ATOM     29  H   UNL     1     -11.998 -25.852 -12.067  1.00  0.00     0.210 HD
ENDBRANCH   7  28
BRANCH  25  30
ATOM     30  O   UNL     1     -14.237 -36.296 -13.834  1.00  0.00    -0.462 OA
BRANCH  30  31
ATOM     31  C   UNL     1     -15.282 -36.723 -13.007  1.00  0.00     0.302 C 
ATOM     32  O   UNL     1     -15.056 -37.125 -11.834  1.00  0.00    -0.253 OA
ATOM     33  C   UNL     1     -16.683 -36.661 -13.510  1.00  0.00     0.139 C 
ENDBRANCH  30  31
ENDBRANCH  25  30
ENDBRANCH   2   6
ENDBRANCH   1   2
BRANCH   1  34
ATOM     34  C   UNL     1      -8.878 -26.099  -7.676  1.00  0.00     0.031 C 
BRANCH  34  35
ATOM     35  C   UNL     1      -9.032 -24.652  -7.218  1.00  0.00    -0.075 C 
ATOM     36  C   UNL     1      -9.207 -23.702  -8.157  1.00  0.00     0.008 C 
BRANCH  35  37
ATOM     37  C   UNL     1      -8.875 -24.200  -5.763  1.00  0.00     0.008 C 
ATOM     38  C   UNL     1      -9.646 -25.048  -4.740  1.00  0.00     0.012 C 
ATOM     39  C   UNL     1      -9.241 -22.717  -5.610  1.00  0.00     0.012 C 
ENDBRANCH  35  37
ENDBRANCH  34  35
ENDBRANCH   1  34
TORSDOF 9
ENDMDL
MODEL 5
REMARK VINA RESULT:    -5.123      1.923      8.576
REMARK INTER + INTRA:          -7.788
REMARK INTER:                  -8.079
REMARK INTRA:                   0.291
REMARK UNBOUND:                -0.120
REMARK SMILES C=C(CC[C@@H](C(=O)[O-])[C@H]1[C@H](O)C[C@@]2(C)C3=C(CC[C@]12C)[C@]1(C)CC[C@@H](OC(C)=O)C(C)(C)[C@@H]1CC3)C(C)C
REMARK SMILES IDX 4 1 5 2 6 3 7 4 8 5 9 6 10 7 19 8 12 9 13 10 18 11 20 12
REMARK SMILES IDX 14 13 15 14 17 15 16 16 35 17 21 18 34 19 33 20 23 21 22 22
REMARK SMILES IDX 30 23 24 24 25 25 31 26 32 27 11 28 26 30 27 31 29 32 28 33
REMARK SMILES IDX 3 34 2 35 1 36 36 37 37 38 38 39
REMARK H PARENT 11 29
REMARK Flexibility Score: inf
ROOT
ATOM      1  C   UNL     1     -12.443 -35.386 -10.139  1.00  0.00     0.014 C 
ENDROOT
BRANCH   1   2
ATOM      2  C   UNL     1     -11.068 -34.855  -9.670  1.00  0.00     0.042 C 
BRANCH   2   3
ATOM      3  C   UNL     1      -9.987 -35.318 -10.627  1.00  0.00     0.045 C 
ATOM      4  O   UNL     1      -9.248 -36.292 -10.320  1.00  0.00    -0.550 OA
ATOM      5  O   UNL     1      -9.840 -34.734 -11.881  1.00  0.00    -0.550 OA
ENDBRANCH   2   3
BRANCH   2   6
ATOM      6  C   UNL     1     -11.024 -33.323  -9.286  1.00  0.00     0.033 C 
ATOM      7  C   UNL     1      -9.586 -32.718  -9.309  1.00  0.00     0.119 C 
ATOM      8  C   UNL     1     -11.893 -32.259 -10.035  1.00  0.00    -0.017 C 
ATOM      9  C   UNL     1      -9.727 -31.244  -9.743  1.00  0.00     0.043 C 
ATOM     10  C   UNL     1     -11.222 -30.918  -9.597  1.00  0.00    -0.003 C 
ATOM     11  C   UNL     1     -13.381 -32.161  -9.633  1.00  0.00     0.012 C 
ATOM     12  C   UNL     1     -11.802 -32.496 -11.582  1.00  0.00     0.013 C 
ATOM     13  C   UNL     1     -11.461 -30.502  -8.106  1.00  0.00     0.017 C 
ATOM     14  C   UNL     1     -11.788 -29.773 -10.424  1.00  0.00    -0.064 C 
ATOM     15  C   UNL     1     -14.054 -30.899 -10.242  1.00  0.00     0.032 C 
ATOM     16  C   UNL     1     -13.130 -29.736 -10.696  1.00  0.00    -0.064 C 
ATOM     17  C   UNL     1     -10.915 -28.614 -10.822  1.00  0.00     0.032 C 
ATOM     18  C   UNL     1     -13.761 -28.479 -11.366  1.00  0.00    -0.008 C 
ATOM     19  C   UNL     1     -11.275 -28.214 -12.239  1.00  0.00     0.009 C 
ATOM     20  C   UNL     1     -12.726 -27.673 -12.291  1.00  0.00     0.009 C 
ATOM     21  C   UNL     1     -15.039 -28.892 -12.164  1.00  0.00     0.015 C 
ATOM     22  C   UNL     1     -14.221 -27.564 -10.200  1.00  0.00     0.016 C 
ATOM     23  C   UNL     1     -13.199 -27.401 -13.768  1.00  0.00     0.005 C 
ATOM     24  C   UNL     1     -15.663 -27.790 -13.030  1.00  0.00     0.047 C 
ATOM     25  C   UNL     1     -14.657 -26.852 -13.729  1.00  0.00     0.182 C 
ATOM     26  C   UNL     1     -12.313 -26.307 -14.432  1.00  0.00     0.015 C 
ATOM     27  C   UNL     1     -13.100 -28.673 -14.669  1.00  0.00     0.015 C 
BRANCH   7  28
ATOM     28  O   UNL     1      -9.002 -32.789  -8.034  1.00  0.00    -0.393 OA
ATOM     29  H   UNL     1      -9.593 -32.283  -7.421  1.00  0.00     0.210 HD
ENDBRANCH   7  28
BRANCH  25  30
ATOM     30  O   UNL     1     -14.669 -25.574 -13.079  1.00  0.00    -0.462 OA
BRANCH  30  31
ATOM     31  C   UNL     1     -14.358 -24.372 -13.724  1.00  0.00     0.302 C 
ATOM     32  O   UNL     1     -13.177 -23.930 -13.734  1.00  0.00    -0.253 OA
ATOM     33  C   UNL     1     -15.431 -23.629 -14.442  1.00  0.00     0.139 C 
ENDBRANCH  30  31
ENDBRANCH  25  30
ENDBRANCH   2   6
ENDBRANCH   1   2
BRANCH   1  34
ATOM     34  C   UNL     1     -12.402 -36.282 -11.396  1.00  0.00     0.031 C 
BRANCH  34  35
ATOM     35  C   UNL     1     -13.327 -35.801 -12.510  1.00  0.00    -0.075 C 
ATOM     36  C   UNL     1     -12.901 -35.913 -13.783  1.00  0.00     0.008 C 
BRANCH  35  37
ATOM     37  C   UNL     1     -14.658 -35.085 -12.260  1.00  0.00     0.008 C 
ATOM     38  C   UNL     1     -15.897 -35.990 -12.334  1.00  0.00     0.012 C 
ATOM     39  C   UNL     1     -14.816 -33.885 -13.203  1.00  0.00     0.012 C 
ENDBRANCH  35  37
ENDBRANCH  34  35
ENDBRANCH   1  34
TORSDOF 9
ENDMDL
MODEL 6
REMARK VINA RESULT:    -4.831      2.251      8.093
REMARK INTER + INTRA:          -7.351
REMARK INTER:                  -7.347
REMARK INTRA:                  -0.004
REMARK UNBOUND:                -0.120
REMARK SMILES C=C(CC[C@@H](C(=O)[O-])[C@H]1[C@H](O)C[C@@]2(C)C3=C(CC[C@]12C)[C@]1(C)CC[C@@H](OC(C)=O)C(C)(C)[C@@H]1CC3)C(C)C
REMARK SMILES IDX 4 1 5 2 6 3 7 4 8 5 9 6 10 7 19 8 12 9 13 10 18 11 20 12
REMARK SMILES IDX 14 13 15 14 17 15 16 16 35 17 21 18 34 19 33 20 23 21 22 22
REMARK SMILES IDX 30 23 24 24 25 25 31 26 32 27 11 28 26 30 27 31 29 32 28 33
REMARK SMILES IDX 3 34 2 35 1 36 36 37 37 38 38 39
REMARK H PARENT 11 29
REMARK Flexibility Score: inf
ROOT
ATOM      1  C   UNL     1     -11.238 -36.732 -11.012  1.00  0.00     0.014 C 
ENDROOT
BRANCH   1   2
ATOM      2  C   UNL     1     -12.676 -36.954 -11.536  1.00  0.00     0.042 C 
BRANCH   2   3
ATOM      3  C   UNL     1     -13.636 -37.064 -10.367  1.00  0.00     0.045 C 
ATOM      4  O   UNL     1     -13.194 -37.056  -9.186  1.00  0.00    -0.550 OA
ATOM      5  O   UNL     1     -15.012 -37.097 -10.567  1.00  0.00    -0.550 OA
ENDBRANCH   2   3
BRANCH   2   6
ATOM      6  C   UNL     1     -13.134 -35.990 -12.700  1.00  0.00     0.033 C 
ATOM      7  C   UNL     1     -14.625 -36.182 -13.117  1.00  0.00     0.119 C 
ATOM      8  C   UNL     1     -12.967 -34.438 -12.600  1.00  0.00    -0.017 C 
ATOM      9  C   UNL     1     -15.149 -34.799 -13.556  1.00  0.00     0.043 C 
ATOM     10  C   UNL     1     -13.896 -33.932 -13.750  1.00  0.00    -0.003 C 
ATOM     11  C   UNL     1     -11.561 -33.865 -12.883  1.00  0.00     0.012 C 
ATOM     12  C   UNL     1     -13.439 -33.945 -11.189  1.00  0.00     0.013 C 
ATOM     13  C   UNL     1     -13.372 -34.195 -15.203  1.00  0.00     0.017 C 
ATOM     14  C   UNL     1     -14.049 -32.421 -13.651  1.00  0.00    -0.064 C 
ATOM     15  C   UNL     1     -11.593 -32.317 -13.023  1.00  0.00     0.032 C 
ATOM     16  C   UNL     1     -12.957 -31.650 -13.349  1.00  0.00    -0.064 C 
ATOM     17  C   UNL     1     -15.349 -31.759 -14.020  1.00  0.00     0.032 C 
ATOM     18  C   UNL     1     -13.044 -30.097 -13.438  1.00  0.00    -0.008 C 
ATOM     19  C   UNL     1     -15.605 -30.636 -13.034  1.00  0.00     0.009 C 
ATOM     20  C   UNL     1     -14.526 -29.535 -13.186  1.00  0.00     0.009 C 
ATOM     21  C   UNL     1     -12.013 -29.454 -12.456  1.00  0.00     0.015 C 
ATOM     22  C   UNL     1     -12.599 -29.729 -14.879  1.00  0.00     0.016 C 
ATOM     23  C   UNL     1     -14.656 -28.429 -12.072  1.00  0.00     0.005 C 
ATOM     24  C   UNL     1     -12.112 -27.931 -12.297  1.00  0.00     0.047 C 
ATOM     25  C   UNL     1     -13.546 -27.360 -12.303  1.00  0.00     0.182 C 
ATOM     26  C   UNL     1     -16.026 -27.700 -12.185  1.00  0.00     0.015 C 
ATOM     27  C   UNL     1     -14.575 -29.023 -10.630  1.00  0.00     0.015 C 
BRANCH   7  28
ATOM     28  O   UNL     1     -14.726 -37.093 -14.181  1.00  0.00    -0.393 OA
ATOM     29  H   UNL     1     -13.941 -37.693 -14.117  1.00  0.00     0.210 HD
ENDBRANCH   7  28
BRANCH  25  30
ATOM     30  O   UNL     1     -13.782 -26.686 -13.546  1.00  0.00    -0.462 OA
BRANCH  30  31
ATOM     31  C   UNL     1     -13.612 -25.308 -13.726  1.00  0.00     0.302 C 
ATOM     32  O   UNL     1     -12.463 -24.813 -13.882  1.00  0.00    -0.253 OA
ATOM     33  C   UNL     1     -14.811 -24.424 -13.777  1.00  0.00     0.139 C 
ENDBRANCH  30  31
ENDBRANCH  25  30
ENDBRANCH   2   6
ENDBRANCH   1   2
BRANCH   1  34
ATOM     34  C   UNL     1     -11.097 -35.631  -9.939  1.00  0.00     0.031 C 
BRANCH  34  35
ATOM     35  C   UNL     1      -9.802 -34.834 -10.060  1.00  0.00    -0.075 C 
ATOM     36  C   UNL     1      -8.875 -35.256 -10.941  1.00  0.00     0.008 C 
BRANCH  35  37
ATOM     37  C   UNL     1      -9.442 -33.654  -9.152  1.00  0.00     0.008 C 
ATOM     38  C   UNL     1     -10.567 -33.204  -8.208  1.00  0.00     0.012 C 
ATOM     39  C   UNL     1      -8.929 -32.466  -9.978  1.00  0.00     0.012 C 
ENDBRANCH  35  37
ENDBRANCH  34  35
ENDBRANCH   1  34
TORSDOF 9
ENDMDL
MODEL 7
REMARK VINA RESULT:    -4.561      1.999      8.703
REMARK INTER + INTRA:          -6.948
REMARK INTER:                  -6.454
REMARK INTRA:                  -0.493
REMARK UNBOUND:                -0.120
REMARK SMILES C=C(CC[C@@H](C(=O)[O-])[C@H]1[C@H](O)C[C@@]2(C)C3=C(CC[C@]12C)[C@]1(C)CC[C@@H](OC(C)=O)C(C)(C)[C@@H]1CC3)C(C)C
REMARK SMILES IDX 4 1 5 2 6 3 7 4 8 5 9 6 10 7 19 8 12 9 13 10 18 11 20 12
REMARK SMILES IDX 14 13 15 14 17 15 16 16 35 17 21 18 34 19 33 20 23 21 22 22
REMARK SMILES IDX 30 23 24 24 25 25 31 26 32 27 11 28 26 30 27 31 29 32 28 33
REMARK SMILES IDX 3 34 2 35 1 36 36 37 37 38 38 39
REMARK H PARENT 11 29
REMARK Flexibility Score: inf
ROOT
ATOM      1  C   UNL     1     -11.981 -35.750 -13.634  1.00  0.00     0.014 C 
ENDROOT
BRANCH   1   2
ATOM      2  C   UNL     1     -10.824 -35.705 -12.608  1.00  0.00     0.042 C 
BRANCH   2   3
ATOM      3  C   UNL     1      -9.498 -35.863 -13.325  1.00  0.00     0.045 C 
ATOM      4  O   UNL     1      -8.878 -36.960 -13.271  1.00  0.00    -0.550 OA
ATOM      5  O   UNL     1      -8.980 -34.839 -14.111  1.00  0.00    -0.550 OA
ENDBRANCH   2   3
BRANCH   2   6
ATOM      6  C   UNL     1     -10.891 -34.527 -11.557  1.00  0.00     0.033 C 
ATOM      7  C   UNL     1      -9.488 -34.041 -11.078  1.00  0.00     0.119 C 
ATOM      8  C   UNL     1     -11.669 -33.203 -11.851  1.00  0.00    -0.017 C 
ATOM      9  C   UNL     1      -9.610 -32.529 -10.796  1.00  0.00     0.043 C 
ATOM     10  C   UNL     1     -11.119 -32.245 -10.746  1.00  0.00    -0.003 C 
ATOM     11  C   UNL     1     -13.204 -33.239 -11.681  1.00  0.00     0.012 C 
ATOM     12  C   UNL     1     -11.333 -32.702 -13.298  1.00  0.00     0.013 C 
ATOM     13  C   UNL     1     -11.599 -32.556  -9.288  1.00  0.00     0.017 C 
ATOM     14  C   UNL     1     -11.589 -30.825 -11.024  1.00  0.00    -0.064 C 
ATOM     15  C   UNL     1     -13.817 -31.811 -11.731  1.00  0.00     0.032 C 
ATOM     16  C   UNL     1     -12.873 -30.610 -11.449  1.00  0.00    -0.064 C 
ATOM     17  C   UNL     1     -10.705 -29.651 -10.702  1.00  0.00     0.032 C 
ATOM     18  C   UNL     1     -13.436 -29.161 -11.548  1.00  0.00    -0.008 C 
ATOM     19  C   UNL     1     -10.855 -28.627 -11.809  1.00  0.00     0.009 C 
ATOM     20  C   UNL     1     -12.298 -28.063 -11.825  1.00  0.00     0.009 C 
ATOM     21  C   UNL     1     -14.561 -29.104 -12.631  1.00  0.00     0.015 C 
ATOM     22  C   UNL     1     -14.101 -28.869 -10.176  1.00  0.00     0.016 C 
ATOM     23  C   UNL     1     -12.546 -27.119 -13.061  1.00  0.00     0.005 C 
ATOM     24  C   UNL     1     -15.080 -27.701 -12.972  1.00  0.00     0.047 C 
ATOM     25  C   UNL     1     -14.010 -26.589 -12.994  1.00  0.00     0.182 C 
ATOM     26  C   UNL     1     -11.606 -25.881 -12.999  1.00  0.00     0.015 C 
ATOM     27  C   UNL     1     -12.267 -27.833 -14.421  1.00  0.00     0.015 C 
BRANCH   7  28
ATOM     28  O   UNL     1      -9.105 -34.718  -9.908  1.00  0.00    -0.393 OA
ATOM     29  H   UNL     1      -8.856 -35.637 -10.180  1.00  0.00     0.210 HD
ENDBRANCH   7  28
BRANCH  25  30
ATOM     30  O   UNL     1     -14.165 -25.758 -11.837  1.00  0.00    -0.462 OA
BRANCH  30  31
ATOM     31  C   UNL     1     -15.337 -25.703 -11.072  1.00  0.00     0.302 C 
ATOM     32  O   UNL     1     -16.431 -26.124 -11.535  1.00  0.00    -0.253 OA
ATOM     33  C   UNL     1     -15.276 -25.178  -9.680  1.00  0.00     0.139 C 
ENDBRANCH  30  31
ENDBRANCH  25  30
ENDBRANCH   2   6
ENDBRANCH   1   2
BRANCH   1  34
ATOM     34  C   UNL     1     -12.950 -36.942 -13.473  1.00  0.00     0.031 C 
BRANCH  34  35
ATOM     35  C   UNL     1     -14.286 -36.552 -12.848  1.00  0.00    -0.075 C 
ATOM     36  C   UNL     1     -14.449 -36.744 -11.525  1.00  0.00     0.008 C 
BRANCH  35  37
ATOM     37  C   UNL     1     -15.495 -36.073 -13.657  1.00  0.00     0.008 C 
ATOM     38  C   UNL     1     -15.709 -34.552 -13.650  1.00  0.00     0.012 C 
ATOM     39  C   UNL     1     -16.773 -36.794 -13.207  1.00  0.00     0.012 C 
ENDBRANCH  35  37
ENDBRANCH  34  35
ENDBRANCH   1  34
TORSDOF 9
ENDMDL
