MODEL 1
REMARK VINA RESULT:    -4.545      0.000      0.000
REMARK INTER + INTRA:         -10.131
REMARK INTER:                  -8.797
REMARK INTRA:                  -1.334
REMARK UNBOUND:                -1.334
REMARK SMILES CCCCCCCCCCCCCCCCCC(=O)[O-]
REMARK SMILES IDX 10 1 11 2 12 3 13 4 14 5 15 6 16 7 17 8 18 9 19 10 20 11
REMARK SMILES IDX 9 12 8 13 7 14 6 15 5 16 4 17 3 18 2 19 1 20
REMARK H PARENT
REMARK Flexibility Score: inf
ROOT
ATOM      1  C   UNL     1      14.329  11.760  16.182  1.00  0.00     0.000 C 
ENDROOT
BRANCH   1   2
ATOM      2  C   UNL     1      15.724  12.042  16.768  1.00  0.00     0.000 C 
BRANCH   2   3
ATOM      3  C   UNL     1      15.704  12.244  18.295  1.00  0.00     0.000 C 
BRANCH   3   4
ATOM      4  C   UNL     1      17.042  11.976  19.008  1.00  0.00     0.000 C 
BRANCH   4   5
ATOM      5  C   UNL     1      18.250  12.561  18.259  1.00  0.00     0.000 C 
BRANCH   5   6
ATOM      6  C   UNL     1      19.288  11.491  17.877  1.00  0.00     0.000 C 
BRANCH   6   7
ATOM      7  C   UNL     1      19.648  11.484  16.375  1.00  0.00     0.006 C 
BRANCH   7   8
ATOM      8  C   UNL     1      19.122  12.729  15.648  1.00  0.00     0.053 C 
BRANCH   8   9
ATOM      9  C   UNL     1      18.678  12.379  14.264  1.00  0.00     0.041 C 
ATOM     10  O   UNL     1      18.978  13.124  13.294  1.00  0.00    -0.550 OA
ATOM     11  O   UNL     1      17.889  11.255  14.050  1.00  0.00    -0.550 OA
ENDBRANCH   8   9
ENDBRANCH   7   8
ENDBRANCH   6   7
ENDBRANCH   5   6
ENDBRANCH   4   5
ENDBRANCH   3   4
ENDBRANCH   2   3
ENDBRANCH   1   2
BRANCH   1  12
ATOM     12  C   UNL     1      14.348  11.591  14.655  1.00  0.00     0.000 C 
BRANCH  12  13
ATOM     13  C   UNL     1      12.955  11.287  14.078  1.00  0.00    -0.000 C 
BRANCH  13  14
ATOM     14  C   UNL     1      12.844  11.610  12.577  1.00  0.00    -0.000 C 
BRANCH  14  15
ATOM     15  C   UNL     1      13.400  12.984  12.160  1.00  0.00    -0.000 C 
BRANCH  15  16
ATOM     16  C   UNL     1      13.352  13.217  10.642  1.00  0.00    -0.000 C 
BRANCH  16  17
ATOM     17  C   UNL     1      12.552  14.480  10.303  1.00  0.00    -0.000 C 
BRANCH  17  18
ATOM     18  C   UNL     1      11.049  14.246  10.491  1.00  0.00    -0.000 C 
BRANCH  18  19
ATOM     19  C   UNL     1      10.508  15.066  11.668  1.00  0.00    -0.003 C 
ATOM     20  C   UNL     1       9.665  14.200  12.601  1.00  0.00     0.004 C 
ENDBRANCH  18  19
ENDBRANCH  17  18
ENDBRANCH  16  17
ENDBRANCH  15  16
ENDBRANCH  14  15
ENDBRANCH  13  14
ENDBRANCH  12  13
ENDBRANCH   1  12
TORSDOF 16
ENDMDL
MODEL 2
REMARK VINA RESULT:    -4.529      2.263      3.446
REMARK INTER + INTRA:         -10.100
REMARK INTER:                  -8.639
REMARK INTRA:                  -1.461
REMARK UNBOUND:                -1.334
REMARK SMILES CCCCCCCCCCCCCCCCCC(=O)[O-]
REMARK SMILES IDX 10 1 11 2 12 3 13 4 14 5 15 6 16 7 17 8 18 9 19 10 20 11
REMARK SMILES IDX 9 12 8 13 7 14 6 15 5 16 4 17 3 18 2 19 1 20
REMARK H PARENT
REMARK Flexibility Score: inf
ROOT
ATOM      1  C   UNL     1      13.583  11.634  14.024  1.00  0.00     0.000 C 
ENDROOT
BRANCH   1   2
ATOM      2  C   UNL     1      14.772  11.038  14.798  1.00  0.00     0.000 C 
BRANCH   2   3
ATOM      3  C   UNL     1      15.924  12.042  14.994  1.00  0.00     0.000 C 
BRANCH   3   4
ATOM      4  C   UNL     1      17.265  11.630  14.358  1.00  0.00     0.000 C 
BRANCH   4   5
ATOM      5  C   UNL     1      18.430  12.547  14.765  1.00  0.00     0.000 C 
BRANCH   5   6
ATOM      6  C   UNL     1      19.152  12.065  16.035  1.00  0.00     0.000 C 
BRANCH   6   7
ATOM      7  C   UNL     1      18.663  12.755  17.327  1.00  0.00     0.006 C 
BRANCH   7   8
ATOM      8  C   UNL     1      18.456  11.757  18.474  1.00  0.00     0.053 C 
BRANCH   8   9
ATOM      9  C   UNL     1      17.113  11.951  19.101  1.00  0.00     0.041 C 
ATOM     10  O   UNL     1      16.088  12.083  18.380  1.00  0.00    -0.550 OA
ATOM     11  O   UNL     1      16.997  12.038  20.483  1.00  0.00    -0.550 OA
ENDBRANCH   8   9
ENDBRANCH   7   8
ENDBRANCH   6   7
ENDBRANCH   5   6
ENDBRANCH   4   5
ENDBRANCH   3   4
ENDBRANCH   2   3
ENDBRANCH   1   2
BRANCH   1  12
ATOM     12  C   UNL     1      12.787  10.574  13.247  1.00  0.00     0.000 C 
BRANCH  12  13
ATOM     13  C   UNL     1      11.310  10.962  13.063  1.00  0.00    -0.000 C 
BRANCH  13  14
ATOM     14  C   UNL     1      10.771  10.626  11.661  1.00  0.00    -0.000 C 
BRANCH  14  15
ATOM     15  C   UNL     1      11.845  10.458  10.570  1.00  0.00    -0.000 C 
BRANCH  15  16
ATOM     16  C   UNL     1      11.761  11.532   9.474  1.00  0.00    -0.000 C 
BRANCH  16  17
ATOM     17  C   UNL     1      13.031  12.391   9.446  1.00  0.00    -0.000 C 
BRANCH  17  18
ATOM     18  C   UNL     1      13.136  13.259  10.705  1.00  0.00    -0.000 C 
BRANCH  18  19
ATOM     19  C   UNL     1      11.877  14.113  10.890  1.00  0.00    -0.003 C 
ATOM     20  C   UNL     1      11.918  15.355  10.004  1.00  0.00     0.004 C 
ENDBRANCH  18  19
ENDBRANCH  17  18
ENDBRANCH  16  17
ENDBRANCH  15  16
ENDBRANCH  14  15
ENDBRANCH  13  14
ENDBRANCH  12  13
ENDBRANCH   1  12
TORSDOF 16
ENDMDL
MODEL 3
REMARK VINA RESULT:    -4.505      2.907      8.183
REMARK INTER + INTRA:         -10.052
REMARK INTER:                  -8.673
REMARK INTRA:                  -1.380
REMARK UNBOUND:                -1.334
REMARK SMILES CCCCCCCCCCCCCCCCCC(=O)[O-]
REMARK SMILES IDX 10 1 11 2 12 3 13 4 14 5 15 6 16 7 17 8 18 9 19 10 20 11
REMARK SMILES IDX 9 12 8 13 7 14 6 15 5 16 4 17 3 18 2 19 1 20
REMARK H PARENT
REMARK Flexibility Score: inf
ROOT
ATOM      1  C   UNL     1      14.487  12.000  16.175  1.00  0.00     0.000 C 
ENDROOT
BRANCH   1   2
ATOM      2  C   UNL     1      14.592  11.481  14.729  1.00  0.00     0.000 C 
BRANCH   2   3
ATOM      3  C   UNL     1      13.222  11.335  14.042  1.00  0.00     0.000 C 
BRANCH   3   4
ATOM      4  C   UNL     1      13.031  12.189  12.775  1.00  0.00     0.000 C 
BRANCH   4   5
ATOM      5  C   UNL     1      12.191  11.486  11.697  1.00  0.00     0.000 C 
BRANCH   5   6
ATOM      6  C   UNL     1      10.766  12.057  11.586  1.00  0.00     0.000 C 
BRANCH   6   7
ATOM      7  C   UNL     1      10.637  13.507  12.101  1.00  0.00     0.006 C 
BRANCH   7   8
ATOM      8  C   UNL     1       9.957  14.426  11.077  1.00  0.00     0.053 C 
BRANCH   8   9
ATOM      9  C   UNL     1      10.926  14.832  10.013  1.00  0.00     0.041 C 
ATOM     10  O   UNL     1      12.059  15.285  10.325  1.00  0.00    -0.550 OA
ATOM     11  O   UNL     1      10.559  14.758   8.675  1.00  0.00    -0.550 OA
ENDBRANCH   8   9
ENDBRANCH   7   8
ENDBRANCH   6   7
ENDBRANCH   5   6
ENDBRANCH   4   5
ENDBRANCH   3   4
ENDBRANCH   2   3
ENDBRANCH   1   2
BRANCH   1  12
ATOM     12  C   UNL     1      15.850  12.080  16.879  1.00  0.00     0.000 C 
BRANCH  12  13
ATOM     13  C   UNL     1      15.725  12.051  18.411  1.00  0.00    -0.000 C 
BRANCH  13  14
ATOM     14  C   UNL     1      17.067  12.289  19.128  1.00  0.00    -0.000 C 
BRANCH  14  15
ATOM     15  C   UNL     1      18.255  12.609  18.202  1.00  0.00    -0.000 C 
BRANCH  15  16
ATOM     16  C   UNL     1      19.261  11.453  18.095  1.00  0.00    -0.000 C 
BRANCH  16  17
ATOM     17  C   UNL     1      19.865  11.378  16.688  1.00  0.00    -0.000 C 
BRANCH  17  18
ATOM     18  C   UNL     1      19.226  12.415  15.758  1.00  0.00    -0.000 C 
BRANCH  18  19
ATOM     19  C   UNL     1      18.586  11.741  14.539  1.00  0.00    -0.003 C 
ATOM     20  C   UNL     1      17.992  12.774  13.586  1.00  0.00     0.004 C 
ENDBRANCH  18  19
ENDBRANCH  17  18
ENDBRANCH  16  17
ENDBRANCH  15  16
ENDBRANCH  14  15
ENDBRANCH  13  14
ENDBRANCH  12  13
ENDBRANCH   1  12
TORSDOF 16
ENDMDL
MODEL 4
REMARK VINA RESULT:    -4.406      2.932      8.064
REMARK INTER + INTRA:          -9.862
REMARK INTER:                  -8.411
REMARK INTRA:                  -1.451
REMARK UNBOUND:                -1.334
REMARK SMILES CCCCCCCCCCCCCCCCCC(=O)[O-]
REMARK SMILES IDX 10 1 11 2 12 3 13 4 14 5 15 6 16 7 17 8 18 9 19 10 20 11
REMARK SMILES IDX 9 12 8 13 7 14 6 15 5 16 4 17 3 18 2 19 1 20
REMARK H PARENT
REMARK Flexibility Score: inf
ROOT
ATOM      1  C   UNL     1      16.001  11.813  15.682  1.00  0.00     0.000 C 
ENDROOT
BRANCH   1   2
ATOM      2  C   UNL     1      14.478  11.754  15.466  1.00  0.00     0.000 C 
BRANCH   2   3
ATOM      3  C   UNL     1      14.091  11.237  14.067  1.00  0.00     0.000 C 
BRANCH   3   4
ATOM      4  C   UNL     1      12.579  11.219  13.772  1.00  0.00     0.000 C 
BRANCH   4   5
ATOM      5  C   UNL     1      12.230  11.786  12.387  1.00  0.00     0.000 C 
BRANCH   5   6
ATOM      6  C   UNL     1      12.969  13.100  12.078  1.00  0.00     0.000 C 
BRANCH   6   7
ATOM      7  C   UNL     1      13.370  13.253  10.595  1.00  0.00     0.006 C 
BRANCH   7   8
ATOM      8  C   UNL     1      12.153  13.228   9.661  1.00  0.00     0.053 C 
BRANCH   8   9
ATOM      9  C   UNL     1      11.272  14.409   9.916  1.00  0.00     0.041 C 
ATOM     10  O   UNL     1      10.046  14.246  10.158  1.00  0.00    -0.550 OA
ATOM     11  O   UNL     1      11.793  15.695   9.837  1.00  0.00    -0.550 OA
ENDBRANCH   8   9
ENDBRANCH   7   8
ENDBRANCH   6   7
ENDBRANCH   5   6
ENDBRANCH   4   5
ENDBRANCH   3   4
ENDBRANCH   2   3
ENDBRANCH   1   2
BRANCH   1  12
ATOM     12  C   UNL     1      16.781  12.008  14.372  1.00  0.00     0.000 C 
BRANCH  12  13
ATOM     13  C   UNL     1      18.263  11.621  14.506  1.00  0.00    -0.000 C 
BRANCH  13  14
ATOM     14  C   UNL     1      19.164  12.814  14.874  1.00  0.00    -0.000 C 
BRANCH  14  15
ATOM     15  C   UNL     1      19.531  12.921  16.366  1.00  0.00    -0.000 C 
BRANCH  15  16
ATOM     16  C   UNL     1      19.660  11.553  17.053  1.00  0.00    -0.000 C 
BRANCH  16  17
ATOM     17  C   UNL     1      18.834  11.506  18.344  1.00  0.00    -0.000 C 
BRANCH  17  18
ATOM     18  C   UNL     1      17.857  12.684  18.416  1.00  0.00    -0.000 C 
BRANCH  18  19
ATOM     19  C   UNL     1      17.092  12.683  19.744  1.00  0.00    -0.003 C 
ATOM     20  C   UNL     1      16.661  11.272  20.131  1.00  0.00     0.004 C 
ENDBRANCH  18  19
ENDBRANCH  17  18
ENDBRANCH  16  17
ENDBRANCH  15  16
ENDBRANCH  14  15
ENDBRANCH  13  14
ENDBRANCH  12  13
ENDBRANCH   1  12
TORSDOF 16
ENDMDL
MODEL 5
REMARK VINA RESULT:    -4.372      3.962      6.233
REMARK INTER + INTRA:          -9.796
REMARK INTER:                  -8.484
REMARK INTRA:                  -1.312
REMARK UNBOUND:                -1.334
REMARK SMILES CCCCCCCCCCCCCCCCCC(=O)[O-]
REMARK SMILES IDX 10 1 11 2 12 3 13 4 14 5 15 6 16 7 17 8 18 9 19 10 20 11
REMARK SMILES IDX 9 12 8 13 7 14 6 15 5 16 4 17 3 18 2 19 1 20
REMARK H PARENT
REMARK Flexibility Score: inf
ROOT
ATOM      1  C   UNL     1      13.721  12.353  17.202  1.00  0.00     0.000 C 
ENDROOT
BRANCH   1   2
ATOM      2  C   UNL     1      15.237  12.116  17.318  1.00  0.00     0.000 C 
BRANCH   2   3
ATOM      3  C   UNL     1      15.723  12.039  18.777  1.00  0.00     0.000 C 
BRANCH   3   4
ATOM      4  C   UNL     1      17.093  12.689  19.046  1.00  0.00     0.000 C 
BRANCH   4   5
ATOM      5  C   UNL     1      18.246  11.672  19.075  1.00  0.00     0.000 C 
BRANCH   5   6
ATOM      6  C   UNL     1      19.032  11.626  17.754  1.00  0.00     0.000 C 
BRANCH   6   7
ATOM      7  C   UNL     1      18.808  12.860  16.853  1.00  0.00     0.006 C 
BRANCH   7   8
ATOM      8  C   UNL     1      19.388  12.664  15.446  1.00  0.00     0.053 C 
BRANCH   8   9
ATOM      9  C   UNL     1      18.290  12.523  14.442  1.00  0.00     0.041 C 
ATOM     10  O   UNL     1      17.212  11.952  14.755  1.00  0.00    -0.550 OA
ATOM     11  O   UNL     1      18.474  12.978  13.142  1.00  0.00    -0.550 OA
ENDBRANCH   8   9
ENDBRANCH   7   8
ENDBRANCH   6   7
ENDBRANCH   5   6
ENDBRANCH   4   5
ENDBRANCH   3   4
ENDBRANCH   2   3
ENDBRANCH   1   2
BRANCH   1  12
ATOM     12  C   UNL     1      12.959  11.962  18.478  1.00  0.00     0.000 C 
BRANCH  12  13
ATOM     13  C   UNL     1      11.474  12.360  18.423  1.00  0.00    -0.000 C 
BRANCH  13  14
ATOM     14  C   UNL     1      10.736  12.107  19.750  1.00  0.00    -0.000 C 
BRANCH  14  15
ATOM     15  C   UNL     1      11.347  11.009  20.640  1.00  0.00    -0.000 C 
BRANCH  15  16
ATOM     16  C   UNL     1      10.338  10.408  21.631  1.00  0.00    -0.000 C 
BRANCH  16  17
ATOM     17  C   UNL     1      10.258   8.884  21.479  1.00  0.00    -0.000 C 
BRANCH  17  18
ATOM     18  C   UNL     1      10.335   8.474  20.005  1.00  0.00    -0.000 C 
BRANCH  18  19
ATOM     19  C   UNL     1       8.945   8.472  19.360  1.00  0.00    -0.003 C 
ATOM     20  C   UNL     1       8.952   9.222  18.031  1.00  0.00     0.004 C 
ENDBRANCH  18  19
ENDBRANCH  17  18
ENDBRANCH  16  17
ENDBRANCH  15  16
ENDBRANCH  14  15
ENDBRANCH  13  14
ENDBRANCH  12  13
ENDBRANCH   1  12
TORSDOF 16
ENDMDL
MODEL 6
REMARK VINA RESULT:    -4.338      2.137      3.613
REMARK INTER + INTRA:          -9.730
REMARK INTER:                  -8.226
REMARK INTRA:                  -1.504
REMARK UNBOUND:                -1.334
REMARK SMILES CCCCCCCCCCCCCCCCCC(=O)[O-]
REMARK SMILES IDX 10 1 11 2 12 3 13 4 14 5 15 6 16 7 17 8 18 9 19 10 20 11
REMARK SMILES IDX 9 12 8 13 7 14 6 15 5 16 4 17 3 18 2 19 1 20
REMARK H PARENT
REMARK Flexibility Score: inf
ROOT
ATOM      1  C   UNL     1      12.954  11.604  13.727  1.00  0.00     0.000 C 
ENDROOT
BRANCH   1   2
ATOM      2  C   UNL     1      14.212  10.984  14.362  1.00  0.00     0.000 C 
BRANCH   2   3
ATOM      3  C   UNL     1      15.267  12.035  14.755  1.00  0.00     0.000 C 
BRANCH   3   4
ATOM      4  C   UNL     1      16.662  11.472  15.082  1.00  0.00     0.000 C 
BRANCH   4   5
ATOM      5  C   UNL     1      17.804  12.407  14.653  1.00  0.00     0.000 C 
BRANCH   5   6
ATOM      6  C   UNL     1      18.988  12.389  15.635  1.00  0.00     0.000 C 
BRANCH   6   7
ATOM      7  C   UNL     1      18.639  12.929  17.039  1.00  0.00     0.006 C 
BRANCH   7   8
ATOM      8  C   UNL     1      18.623  11.818  18.098  1.00  0.00     0.053 C 
BRANCH   8   9
ATOM      9  C   UNL     1      17.404  11.931  18.957  1.00  0.00     0.041 C 
ATOM     10  O   UNL     1      16.272  12.106  18.432  1.00  0.00    -0.550 OA
ATOM     11  O   UNL     1      17.523  11.893  20.341  1.00  0.00    -0.550 OA
ENDBRANCH   8   9
ENDBRANCH   7   8
ENDBRANCH   6   7
ENDBRANCH   5   6
ENDBRANCH   4   5
ENDBRANCH   3   4
ENDBRANCH   2   3
ENDBRANCH   1   2
BRANCH   1  12
ATOM     12  C   UNL     1      12.280  10.671  12.709  1.00  0.00     0.000 C 
BRANCH  12  13
ATOM     13  C   UNL     1      10.748  10.809  12.708  1.00  0.00    -0.000 C 
BRANCH  13  14
ATOM     14  C   UNL     1      10.230  11.759  13.804  1.00  0.00    -0.000 C 
BRANCH  14  15
ATOM     15  C   UNL     1       9.357  12.923  13.303  1.00  0.00    -0.000 C 
BRANCH  15  16
ATOM     16  C   UNL     1       9.789  13.450  11.926  1.00  0.00    -0.000 C 
BRANCH  16  17
ATOM     17  C   UNL     1      10.556  14.771  12.058  1.00  0.00    -0.000 C 
BRANCH  17  18
ATOM     18  C   UNL     1      11.264  15.130  10.747  1.00  0.00    -0.000 C 
BRANCH  18  19
ATOM     19  C   UNL     1      12.045  13.931  10.198  1.00  0.00    -0.003 C 
ATOM     20  C   UNL     1      13.372  13.755  10.931  1.00  0.00     0.004 C 
ENDBRANCH  18  19
ENDBRANCH  17  18
ENDBRANCH  16  17
ENDBRANCH  15  16
ENDBRANCH  14  15
ENDBRANCH  13  14
ENDBRANCH  12  13
ENDBRANCH   1  12
TORSDOF 16
ENDMDL
MODEL 7
REMARK VINA RESULT:    -4.305      2.112      3.572
REMARK INTER + INTRA:          -9.665
REMARK INTER:                  -8.214
REMARK INTRA:                  -1.451
REMARK UNBOUND:                -1.334
REMARK SMILES CCCCCCCCCCCCCCCCCC(=O)[O-]
REMARK SMILES IDX 10 1 11 2 12 3 13 4 14 5 15 6 16 7 17 8 18 9 19 10 20 11
REMARK SMILES IDX 9 12 8 13 7 14 6 15 5 16 4 17 3 18 2 19 1 20
REMARK H PARENT
REMARK Flexibility Score: inf
ROOT
ATOM      1  C   UNL     1      12.306  11.969  12.488  1.00  0.00     0.000 C 
ENDROOT
BRANCH   1   2
ATOM      2  C   UNL     1      12.936  11.048  13.549  1.00  0.00     0.000 C 
BRANCH   2   3
ATOM      3  C   UNL     1      13.893  11.793  14.498  1.00  0.00     0.000 C 
BRANCH   3   4
ATOM      4  C   UNL     1      15.204  11.051  14.819  1.00  0.00     0.000 C 
BRANCH   4   5
ATOM      5  C   UNL     1      16.313  11.984  15.333  1.00  0.00     0.000 C 
BRANCH   5   6
ATOM      6  C   UNL     1      17.578  11.942  14.459  1.00  0.00     0.000 C 
BRANCH   6   7
ATOM      7  C   UNL     1      18.878  12.253  15.232  1.00  0.00     0.006 C 
BRANCH   7   8
ATOM      8  C   UNL     1      18.598  12.858  16.614  1.00  0.00     0.053 C 
BRANCH   8   9
ATOM      9  C   UNL     1      18.965  11.890  17.694  1.00  0.00     0.041 C 
ATOM     10  O   UNL     1      18.308  11.860  18.768  1.00  0.00    -0.550 OA
ATOM     11  O   UNL     1      20.065  11.056  17.535  1.00  0.00    -0.550 OA
ENDBRANCH   8   9
ENDBRANCH   7   8
ENDBRANCH   6   7
ENDBRANCH   5   6
ENDBRANCH   4   5
ENDBRANCH   3   4
ENDBRANCH   2   3
ENDBRANCH   1   2
BRANCH   1  12
ATOM     12  C   UNL     1      11.019  11.387  11.884  1.00  0.00     0.000 C 
BRANCH  12  13
ATOM     13  C   UNL     1      11.279  10.601  10.588  1.00  0.00    -0.000 C 
BRANCH  13  14
ATOM     14  C   UNL     1      12.527  11.092   9.830  1.00  0.00    -0.000 C 
BRANCH  14  15
ATOM     15  C   UNL     1      12.241  11.846   8.518  1.00  0.00    -0.000 C 
BRANCH  15  16
ATOM     16  C   UNL     1      10.758  12.206   8.342  1.00  0.00    -0.000 C 
BRANCH  16  17
ATOM     17  C   UNL     1      10.563  13.726   8.289  1.00  0.00    -0.000 C 
BRANCH  17  18
ATOM     18  C   UNL     1      10.050  14.262   9.630  1.00  0.00    -0.000 C 
BRANCH  18  19
ATOM     19  C   UNL     1      11.136  15.064  10.354  1.00  0.00    -0.003 C 
ATOM     20  C   UNL     1      10.845  15.163  11.849  1.00  0.00     0.004 C 
ENDBRANCH  18  19
ENDBRANCH  17  18
ENDBRANCH  16  17
ENDBRANCH  15  16
ENDBRANCH  14  15
ENDBRANCH  13  14
ENDBRANCH  12  13
ENDBRANCH   1  12
TORSDOF 16
ENDMDL
MODEL 8
REMARK VINA RESULT:    -4.301      2.914      8.483
REMARK INTER + INTRA:          -9.658
REMARK INTER:                  -8.410
REMARK INTRA:                  -1.248
REMARK UNBOUND:                -1.334
REMARK SMILES CCCCCCCCCCCCCCCCCC(=O)[O-]
REMARK SMILES IDX 10 1 11 2 12 3 13 4 14 5 15 6 16 7 17 8 18 9 19 10 20 11
REMARK SMILES IDX 9 12 8 13 7 14 6 15 5 16 4 17 3 18 2 19 1 20
REMARK H PARENT
REMARK Flexibility Score: inf
ROOT
ATOM      1  C   UNL     1      13.868  11.899  14.037  1.00  0.00     0.000 C 
ENDROOT
BRANCH   1   2
ATOM      2  C   UNL     1      13.013  10.856  13.295  1.00  0.00     0.000 C 
BRANCH   2   3
ATOM      3  C   UNL     1      12.242  11.451  12.103  1.00  0.00     0.000 C 
BRANCH   3   4
ATOM      4  C   UNL     1      11.924  10.459  10.968  1.00  0.00     0.000 C 
BRANCH   4   5
ATOM      5  C   UNL     1      12.479  10.906   9.606  1.00  0.00     0.000 C 
BRANCH   5   6
ATOM      6  C   UNL     1      11.411  11.567   8.717  1.00  0.00     0.000 C 
BRANCH   6   7
ATOM      7  C   UNL     1      11.486  13.109   8.698  1.00  0.00     0.006 C 
BRANCH   7   8
ATOM      8  C   UNL     1      10.494  13.749   9.679  1.00  0.00     0.053 C 
BRANCH   8   9
ATOM      9  C   UNL     1      11.169  14.808  10.491  1.00  0.00     0.041 C 
ATOM     10  O   UNL     1      12.089  15.505   9.987  1.00  0.00    -0.550 OA
ATOM     11  O   UNL     1      10.816  14.993  11.822  1.00  0.00    -0.550 OA
ENDBRANCH   8   9
ENDBRANCH   7   8
ENDBRANCH   6   7
ENDBRANCH   5   6
ENDBRANCH   4   5
ENDBRANCH   3   4
ENDBRANCH   2   3
ENDBRANCH   1   2
BRANCH   1  12
ATOM     12  C   UNL     1      14.699  11.286  15.175  1.00  0.00     0.000 C 
BRANCH  12  13
ATOM     13  C   UNL     1      16.026  12.030  15.403  1.00  0.00    -0.000 C 
BRANCH  13  14
ATOM     14  C   UNL     1      17.078  11.725  14.321  1.00  0.00    -0.000 C 
BRANCH  14  15
ATOM     15  C   UNL     1      18.427  12.446  14.498  1.00  0.00    -0.000 C 
BRANCH  15  16
ATOM     16  C   UNL     1      18.738  12.788  15.963  1.00  0.00    -0.000 C 
BRANCH  16  17
ATOM     17  C   UNL     1      19.541  11.665  16.632  1.00  0.00    -0.000 C 
BRANCH  17  18
ATOM     18  C   UNL     1      19.171  11.531  18.113  1.00  0.00    -0.000 C 
BRANCH  18  19
ATOM     19  C   UNL     1      17.981  12.430  18.466  1.00  0.00    -0.003 C 
ATOM     20  C   UNL     1      16.962  11.684  19.323  1.00  0.00     0.004 C 
ENDBRANCH  18  19
ENDBRANCH  17  18
ENDBRANCH  16  17
ENDBRANCH  15  16
ENDBRANCH  14  15
ENDBRANCH  13  14
ENDBRANCH  12  13
ENDBRANCH   1  12
TORSDOF 16
ENDMDL
MODEL 9
REMARK VINA RESULT:    -4.257      2.027      3.868
REMARK INTER + INTRA:          -9.573
REMARK INTER:                  -7.823
REMARK INTRA:                  -1.750
REMARK UNBOUND:                -1.334
REMARK SMILES CCCCCCCCCCCCCCCCCC(=O)[O-]
REMARK SMILES IDX 10 1 11 2 12 3 13 4 14 5 15 6 16 7 17 8 18 9 19 10 20 11
REMARK SMILES IDX 9 12 8 13 7 14 6 15 5 16 4 17 3 18 2 19 1 20
REMARK H PARENT
REMARK Flexibility Score: inf
ROOT
ATOM      1  C   UNL     1      12.607  11.278  12.031  1.00  0.00     0.000 C 
ENDROOT
BRANCH   1   2
ATOM      2  C   UNL     1      12.717  11.334  13.565  1.00  0.00     0.000 C 
BRANCH   2   3
ATOM      3  C   UNL     1      13.989  12.052  14.050  1.00  0.00     0.000 C 
BRANCH   3   4
ATOM      4  C   UNL     1      14.866  11.244  15.025  1.00  0.00     0.000 C 
BRANCH   4   5
ATOM      5  C   UNL     1      16.164  11.971  15.411  1.00  0.00     0.000 C 
BRANCH   5   6
ATOM      6  C   UNL     1      17.224  11.929  14.297  1.00  0.00     0.000 C 
BRANCH   6   7
ATOM      7  C   UNL     1      18.599  12.484  14.726  1.00  0.00     0.006 C 
BRANCH   7   8
ATOM      8  C   UNL     1      19.131  11.799  15.992  1.00  0.00     0.053 C 
BRANCH   8   9
ATOM      9  C   UNL     1      19.203  12.772  17.124  1.00  0.00     0.041 C 
ATOM     10  O   UNL     1      18.374  12.708  18.070  1.00  0.00    -0.550 OA
ATOM     11  O   UNL     1      20.156  13.783  17.112  1.00  0.00    -0.550 OA
ENDBRANCH   8   9
ENDBRANCH   7   8
ENDBRANCH   6   7
ENDBRANCH   5   6
ENDBRANCH   4   5
ENDBRANCH   3   4
ENDBRANCH   2   3
ENDBRANCH   1   2
BRANCH   1  12
ATOM     12  C   UNL     1      11.461  10.374  11.549  1.00  0.00     0.000 C 
BRANCH  12  13
ATOM     13  C   UNL     1      10.996  10.722  10.124  1.00  0.00    -0.000 C 
BRANCH  13  14
ATOM     14  C   UNL     1       9.527  11.180  10.068  1.00  0.00    -0.000 C 
BRANCH  14  15
ATOM     15  C   UNL     1       8.983  11.795  11.370  1.00  0.00    -0.000 C 
BRANCH  15  16
ATOM     16  C   UNL     1       8.998  13.331  11.362  1.00  0.00    -0.000 C 
BRANCH  16  17
ATOM     17  C   UNL     1       9.872  13.879  12.496  1.00  0.00    -0.000 C 
BRANCH  17  18
ATOM     18  C   UNL     1      10.755  15.030  12.002  1.00  0.00    -0.000 C 
BRANCH  18  19
ATOM     19  C   UNL     1      10.975  14.944  10.488  1.00  0.00    -0.003 C 
ATOM     20  C   UNL     1      12.383  14.452  10.163  1.00  0.00     0.004 C 
ENDBRANCH  18  19
ENDBRANCH  17  18
ENDBRANCH  16  17
ENDBRANCH  15  16
ENDBRANCH  14  15
ENDBRANCH  13  14
ENDBRANCH  12  13
ENDBRANCH   1  12
TORSDOF 16
ENDMDL
