MODEL 1
REMARK VINA RESULT:    -3.127      0.000      0.000
REMARK INTER + INTRA:          -3.769
REMARK INTER:                  -3.766
REMARK INTRA:                  -0.002
REMARK UNBOUND:                -0.002
REMARK SMILES OCC(O)CO
REMARK SMILES IDX 3 1 5 2 6 3 2 5 1 6 4 8
REMARK H PARENT 6 4 1 7 4 9
REMARK Flexibility Score: inf
ROOT
ATOM      1  C   UNL     1       5.893  10.847  39.713  1.00  0.00     0.165 C 
ENDROOT
BRANCH   1   2
ATOM      2  C   UNL     1       4.486  11.293  39.283  1.00  0.00     0.190 C 
BRANCH   2   3
ATOM      3  O   UNL     1       4.042  10.565  38.167  1.00  0.00    -0.394 OA
ATOM      4  H   UNL     1       4.849  10.337  37.636  1.00  0.00     0.210 HD
ENDBRANCH   2   3
ENDBRANCH   1   2
BRANCH   1   5
ATOM      5  C   UNL     1       6.746  12.045  40.152  1.00  0.00     0.190 C 
BRANCH   5   6
ATOM      6  O   UNL     1       8.042  11.942  39.627  1.00  0.00    -0.394 OA
ATOM      7  H   UNL     1       8.603  12.593  40.126  1.00  0.00     0.210 HD
ENDBRANCH   5   6
ENDBRANCH   1   5
BRANCH   1   8
ATOM      8  O   UNL     1       6.536  10.180  38.658  1.00  0.00    -0.388 OA
ATOM      9  H   UNL     1       7.504  10.390  38.734  1.00  0.00     0.211 HD
ENDBRANCH   1   8
TORSDOF 5
ENDMDL
MODEL 2
REMARK VINA RESULT:    -3.004      1.736      2.903
REMARK INTER + INTRA:          -3.621
REMARK INTER:                  -3.398
REMARK INTRA:                  -0.223
REMARK UNBOUND:                -0.002
REMARK SMILES OCC(O)CO
REMARK SMILES IDX 3 1 5 2 6 3 2 5 1 6 4 8
REMARK H PARENT 6 4 1 7 4 9
REMARK Flexibility Score: inf
ROOT
ATOM      1  C   UNL     1       5.744   9.765  39.193  1.00  0.00     0.165 C 
ENDROOT
BRANCH   1   2
ATOM      2  C   UNL     1       5.245  10.619  40.371  1.00  0.00     0.190 C 
BRANCH   2   3
ATOM      3  O   UNL     1       5.658  11.954  40.241  1.00  0.00    -0.394 OA
ATOM      4  H   UNL     1       4.835  12.509  40.254  1.00  0.00     0.210 HD
ENDBRANCH   2   3
ENDBRANCH   1   2
BRANCH   1   5
ATOM      5  C   UNL     1       4.799   9.874  37.988  1.00  0.00     0.190 C 
BRANCH   5   6
ATOM      6  O   UNL     1       3.885  10.920  38.176  1.00  0.00    -0.394 OA
ATOM      7  H   UNL     1       4.235  11.698  37.667  1.00  0.00     0.210 HD
ENDBRANCH   5   6
ENDBRANCH   1   5
BRANCH   1   8
ATOM      8  O   UNL     1       5.853   8.419  39.579  1.00  0.00    -0.388 OA
ATOM      9  H   UNL     1       6.798   8.275  39.849  1.00  0.00     0.211 HD
ENDBRANCH   1   8
TORSDOF 5
ENDMDL
MODEL 3
REMARK VINA RESULT:    -2.893      9.029      9.475
REMARK INTER + INTRA:          -3.487
REMARK INTER:                  -3.274
REMARK INTRA:                  -0.213
REMARK UNBOUND:                -0.002
REMARK SMILES OCC(O)CO
REMARK SMILES IDX 3 1 5 2 6 3 2 5 1 6 4 8
REMARK H PARENT 6 4 1 7 4 9
REMARK Flexibility Score: inf
ROOT
ATOM      1  C   UNL     1       6.082   2.629  44.218  1.00  0.00     0.165 C 
ENDROOT
BRANCH   1   2
ATOM      2  C   UNL     1       5.077   2.398  45.358  1.00  0.00     0.190 C 
BRANCH   2   3
ATOM      3  O   UNL     1       4.439   3.595  45.722  1.00  0.00    -0.394 OA
ATOM      4  H   UNL     1       4.478   3.649  46.712  1.00  0.00     0.210 HD
ENDBRANCH   2   3
ENDBRANCH   1   2
BRANCH   1   5
ATOM      5  C   UNL     1       6.860   3.937  44.418  1.00  0.00     0.190 C 
BRANCH   5   6
ATOM      6  O   UNL     1       6.256   4.981  43.705  1.00  0.00    -0.394 OA
ATOM      7  H   UNL     1       6.720   5.032  42.828  1.00  0.00     0.210 HD
ENDBRANCH   5   6
ENDBRANCH   1   5
BRANCH   1   8
ATOM      8  O   UNL     1       5.415   2.669  42.982  1.00  0.00    -0.388 OA
ATOM      9  H   UNL     1       4.479   2.942  43.171  1.00  0.00     0.211 HD
ENDBRANCH   1   8
TORSDOF 5
ENDMDL
MODEL 4
REMARK VINA RESULT:    -2.891     16.996     17.204
REMARK INTER + INTRA:          -3.485
REMARK INTER:                  -3.289
REMARK INTRA:                  -0.196
REMARK UNBOUND:                -0.002
REMARK SMILES OCC(O)CO
REMARK SMILES IDX 3 1 5 2 6 3 2 5 1 6 4 8
REMARK H PARENT 6 4 1 7 4 9
REMARK Flexibility Score: inf
ROOT
ATOM      1  C   UNL     1      18.917   3.259  45.555  1.00  0.00     0.165 C 
ENDROOT
BRANCH   1   2
ATOM      2  C   UNL     1      18.134   3.237  46.879  1.00  0.00     0.190 C 
BRANCH   2   3
ATOM      3  O   UNL     1      18.415   2.076  47.615  1.00  0.00    -0.394 OA
ATOM      4  H   UNL     1      17.945   1.329  47.161  1.00  0.00     0.210 HD
ENDBRANCH   2   3
ENDBRANCH   1   2
BRANCH   1   5
ATOM      5  C   UNL     1      18.737   1.946  44.781  1.00  0.00     0.190 C 
BRANCH   5   6
ATOM      6  O   UNL     1      19.495   0.923  45.369  1.00  0.00    -0.394 OA
ATOM      7  H   UNL     1      19.398   0.126  44.784  1.00  0.00     0.210 HD
ENDBRANCH   5   6
ENDBRANCH   1   5
BRANCH   1   8
ATOM      8  O   UNL     1      20.284   3.471  45.802  1.00  0.00    -0.388 OA
ATOM      9  H   UNL     1      20.342   4.166  46.509  1.00  0.00     0.211 HD
ENDBRANCH   1   8
TORSDOF 5
ENDMDL
MODEL 5
REMARK VINA RESULT:    -2.885      9.288      9.975
REMARK INTER + INTRA:          -3.478
REMARK INTER:                  -3.476
REMARK INTRA:                  -0.003
REMARK UNBOUND:                -0.002
REMARK SMILES OCC(O)CO
REMARK SMILES IDX 3 1 5 2 6 3 2 5 1 6 4 8
REMARK H PARENT 6 4 1 7 4 9
REMARK Flexibility Score: inf
ROOT
ATOM      1  C   UNL     1       5.916   2.775  44.267  1.00  0.00     0.165 C 
ENDROOT
BRANCH   1   2
ATOM      2  C   UNL     1       6.730   4.074  44.397  1.00  0.00     0.190 C 
BRANCH   2   3
ATOM      3  O   UNL     1       6.370   5.000  43.406  1.00  0.00    -0.394 OA
ATOM      4  H   UNL     1       5.394   5.155  43.502  1.00  0.00     0.210 HD
ENDBRANCH   2   3
ENDBRANCH   1   2
BRANCH   1   5
ATOM      5  C   UNL     1       6.776   1.545  44.586  1.00  0.00     0.190 C 
BRANCH   5   6
ATOM      6  O   UNL     1       6.148   0.377  44.131  1.00  0.00    -0.394 OA
ATOM      7  H   UNL     1       5.227   0.635  43.865  1.00  0.00     0.210 HD
ENDBRANCH   5   6
ENDBRANCH   1   5
BRANCH   1   8
ATOM      8  O   UNL     1       5.396   2.656  42.968  1.00  0.00    -0.388 OA
ATOM      9  H   UNL     1       6.161   2.441  42.372  1.00  0.00     0.211 HD
ENDBRANCH   1   8
TORSDOF 5
ENDMDL
MODEL 6
REMARK VINA RESULT:    -2.864     16.876     17.063
REMARK INTER + INTRA:          -3.453
REMARK INTER:                  -3.247
REMARK INTRA:                  -0.205
REMARK UNBOUND:                -0.002
REMARK SMILES OCC(O)CO
REMARK SMILES IDX 3 1 5 2 6 3 2 5 1 6 4 8
REMARK H PARENT 6 4 1 7 4 9
REMARK Flexibility Score: inf
ROOT
ATOM      1  C   UNL     1      18.704   2.352  45.423  1.00  0.00     0.165 C 
ENDROOT
BRANCH   1   2
ATOM      2  C   UNL     1      19.006   2.325  43.916  1.00  0.00     0.190 C 
BRANCH   2   3
ATOM      3  O   UNL     1      20.357   2.611  43.664  1.00  0.00    -0.394 OA
ATOM      4  H   UNL     1      20.374   3.404  43.068  1.00  0.00     0.210 HD
ENDBRANCH   2   3
ENDBRANCH   1   2
BRANCH   1   5
ATOM      5  C   UNL     1      18.929   3.751  46.012  1.00  0.00     0.190 C 
BRANCH   5   6
ATOM      6  O   UNL     1      20.298   4.055  46.040  1.00  0.00    -0.394 OA
ATOM      7  H   UNL     1      20.418   4.758  46.732  1.00  0.00     0.210 HD
ENDBRANCH   5   6
ENDBRANCH   1   5
BRANCH   1   8
ATOM      8  O   UNL     1      19.516   1.426  46.098  1.00  0.00    -0.388 OA
ATOM      9  H   UNL     1      19.068   0.543  46.020  1.00  0.00     0.211 HD
ENDBRANCH   1   8
TORSDOF 5
ENDMDL
MODEL 7
REMARK VINA RESULT:    -2.862      8.755      9.284
REMARK INTER + INTRA:          -3.450
REMARK INTER:                  -3.261
REMARK INTRA:                  -0.189
REMARK UNBOUND:                -0.002
REMARK SMILES OCC(O)CO
REMARK SMILES IDX 3 1 5 2 6 3 2 5 1 6 4 8
REMARK H PARENT 6 4 1 7 4 9
REMARK Flexibility Score: inf
ROOT
ATOM      1  C   UNL     1       6.655   3.943  44.465  1.00  0.00     0.165 C 
ENDROOT
BRANCH   1   2
ATOM      2  C   UNL     1       6.194   2.533  44.060  1.00  0.00     0.190 C 
BRANCH   2   3
ATOM      3  O   UNL     1       5.244   2.587  43.028  1.00  0.00    -0.394 OA
ATOM      4  H   UNL     1       5.678   2.206  42.221  1.00  0.00     0.210 HD
ENDBRANCH   2   3
ENDBRANCH   1   2
BRANCH   1   5
ATOM      5  C   UNL     1       5.964   4.405  45.756  1.00  0.00     0.190 C 
BRANCH   5   6
ATOM      6  O   UNL     1       4.640   3.945  45.794  1.00  0.00    -0.394 OA
ATOM      7  H   UNL     1       4.445   3.565  44.898  1.00  0.00     0.210 HD
ENDBRANCH   5   6
ENDBRANCH   1   5
BRANCH   1   8
ATOM      8  O   UNL     1       6.380   4.859  43.437  1.00  0.00    -0.388 OA
ATOM      9  H   UNL     1       6.587   5.762  43.795  1.00  0.00     0.211 HD
ENDBRANCH   1   8
TORSDOF 5
ENDMDL
MODEL 8
REMARK VINA RESULT:    -2.808     12.968     13.753
REMARK INTER + INTRA:          -3.385
REMARK INTER:                  -3.364
REMARK INTRA:                  -0.021
REMARK UNBOUND:                -0.002
REMARK SMILES OCC(O)CO
REMARK SMILES IDX 3 1 5 2 6 3 2 5 1 6 4 8
REMARK H PARENT 6 4 1 7 4 9
REMARK Flexibility Score: inf
ROOT
ATOM      1  C   UNL     1      14.927   1.200  37.171  1.00  0.00     0.165 C 
ENDROOT
BRANCH   1   2
ATOM      2  C   UNL     1      14.938   0.430  35.840  1.00  0.00     0.190 C 
BRANCH   2   3
ATOM      3  O   UNL     1      15.218  -0.930  36.044  1.00  0.00    -0.394 OA
ATOM      4  H   UNL     1      16.168  -0.987  36.326  1.00  0.00     0.210 HD
ENDBRANCH   2   3
ENDBRANCH   1   2
BRANCH   1   5
ATOM      5  C   UNL     1      13.878   0.631  38.135  1.00  0.00     0.190 C 
BRANCH   5   6
ATOM      6  O   UNL     1      12.605   1.134  37.828  1.00  0.00    -0.394 OA
ATOM      7  H   UNL     1      12.593   1.294  36.848  1.00  0.00     0.210 HD
ENDBRANCH   5   6
ENDBRANCH   1   5
BRANCH   1   8
ATOM      8  O   UNL     1      14.660   2.561  36.944  1.00  0.00    -0.388 OA
ATOM      9  H   UNL     1      15.531   3.035  36.998  1.00  0.00     0.211 HD
ENDBRANCH   1   8
TORSDOF 5
ENDMDL
MODEL 9
REMARK VINA RESULT:    -2.744     12.380     12.894
REMARK INTER + INTRA:          -3.308
REMARK INTER:                  -3.097
REMARK INTRA:                  -0.211
REMARK UNBOUND:                -0.002
REMARK SMILES OCC(O)CO
REMARK SMILES IDX 3 1 5 2 6 3 2 5 1 6 4 8
REMARK H PARENT 6 4 1 7 4 9
REMARK Flexibility Score: inf
ROOT
ATOM      1  C   UNL     1      14.896   1.012  37.186  1.00  0.00     0.165 C 
ENDROOT
BRANCH   1   2
ATOM      2  C   UNL     1      13.846   0.737  38.275  1.00  0.00     0.190 C 
BRANCH   2   3
ATOM      3  O   UNL     1      12.558   1.085  37.837  1.00  0.00    -0.394 OA
ATOM      4  H   UNL     1      12.650   1.928  37.321  1.00  0.00     0.210 HD
ENDBRANCH   2   3
ENDBRANCH   1   2
BRANCH   1   5
ATOM      5  C   UNL     1      15.318   2.487  37.179  1.00  0.00     0.190 C 
BRANCH   5   6
ATOM      6  O   UNL     1      14.204   3.316  37.374  1.00  0.00    -0.394 OA
ATOM      7  H   UNL     1      14.116   3.448  38.355  1.00  0.00     0.210 HD
ENDBRANCH   5   6
ENDBRANCH   1   5
BRANCH   1   8
ATOM      8  O   UNL     1      14.389   0.667  35.922  1.00  0.00    -0.388 OA
ATOM      9  H   UNL     1      13.400   0.644  36.008  1.00  0.00     0.211 HD
ENDBRANCH   1   8
TORSDOF 5
ENDMDL
