MODEL 1
REMARK VINA RESULT:    -6.504      0.000      0.000
REMARK INTER + INTRA:          -8.572
REMARK INTER:                  -8.215
REMARK INTRA:                  -0.357
REMARK UNBOUND:                -0.357
REMARK SMILES Oc1ccc(CCc2cc(O)cc(O)c2)cc1
REMARK SMILES IDX 6 1 5 2 4 3 3 4 2 5 16 6 17 7 1 8 7 10 8 11 15 12 9 13 13 14
REMARK SMILES IDX 10 15 12 16 14 17 11 19
REMARK H PARENT 1 9 14 18 11 20
REMARK Flexibility Score: inf
ROOT
ATOM      1  C   UNL     1       5.229  10.506   7.351  1.00  0.00     0.040 C 
ENDROOT
BRANCH   1   2
ATOM      2  C   UNL     1       6.285  10.974   6.387  1.00  0.00    -0.047 A 
ATOM      3  C   UNL     1       7.620  10.571   6.548  1.00  0.00     0.007 A 
ATOM      4  C   UNL     1       8.596  10.979   5.633  1.00  0.00     0.046 A 
ATOM      5  C   UNL     1       8.244  11.785   4.542  1.00  0.00     0.115 A 
ATOM      6  C   UNL     1       5.935  11.770   5.284  1.00  0.00     0.007 A 
ATOM      7  C   UNL     1       6.912  12.178   4.371  1.00  0.00     0.046 A 
BRANCH   5   8
ATOM      8  O   UNL     1       9.206  12.198   3.624  1.00  0.00    -0.508 OA
ATOM      9  H   UNL     1       9.502  11.600   2.861  1.00  0.00     0.293 HD
ENDBRANCH   5   8
ENDBRANCH   1   2
BRANCH   1  10
ATOM     10  C   UNL     1       5.045  11.522   8.483  1.00  0.00     0.040 C 
BRANCH  10  11
ATOM     11  C   UNL     1       3.714  11.329   9.157  1.00  0.00    -0.040 A 
ATOM     12  C   UNL     1       3.431  10.135   9.839  1.00  0.00     0.050 A 
ATOM     13  C   UNL     1       2.722  12.319   9.059  1.00  0.00     0.050 A 
ATOM     14  C   UNL     1       2.178   9.942  10.438  1.00  0.00     0.119 A 
ATOM     15  C   UNL     1       1.472  12.128   9.656  1.00  0.00     0.119 A 
ATOM     16  C   UNL     1       1.203  10.940  10.348  1.00  0.00     0.092 A 
BRANCH  14  17
ATOM     17  O   UNL     1       1.894   8.763  11.123  1.00  0.00    -0.508 OA
ATOM     18  H   UNL     1       1.194   8.730  11.855  1.00  0.00     0.293 HD
ENDBRANCH  14  17
BRANCH  15  19
ATOM     19  O   UNL     1       0.502  13.125   9.554  1.00  0.00    -0.508 OA
ATOM     20  H   UNL     1      -0.342  13.101  10.113  1.00  0.00     0.293 HD
ENDBRANCH  15  19
ENDBRANCH  10  11
ENDBRANCH   1  10
TORSDOF 6
ENDMDL
MODEL 2
REMARK VINA RESULT:    -6.489      1.484      1.965
REMARK INTER + INTRA:          -8.554
REMARK INTER:                  -7.989
REMARK INTRA:                  -0.565
REMARK UNBOUND:                -0.357
REMARK SMILES Oc1ccc(CCc2cc(O)cc(O)c2)cc1
REMARK SMILES IDX 6 1 5 2 4 3 3 4 2 5 16 6 17 7 1 8 7 10 8 11 15 12 9 13 13 14
REMARK SMILES IDX 10 15 12 16 14 17 11 19
REMARK H PARENT 1 9 14 18 11 20
REMARK Flexibility Score: inf
ROOT
ATOM      1  C   UNL     1       7.713  10.889   7.699  1.00  0.00     0.040 C 
ENDROOT
BRANCH   1   2
ATOM      2  C   UNL     1       8.076  11.430   6.343  1.00  0.00    -0.047 A 
ATOM      3  C   UNL     1       9.422  11.646   6.004  1.00  0.00     0.007 A 
ATOM      4  C   UNL     1       9.762  12.118   4.732  1.00  0.00     0.046 A 
ATOM      5  C   UNL     1       8.760  12.368   3.783  1.00  0.00     0.115 A 
ATOM      6  C   UNL     1       7.079  11.669   5.384  1.00  0.00     0.007 A 
ATOM      7  C   UNL     1       7.420  12.141   4.113  1.00  0.00     0.046 A 
BRANCH   5   8
ATOM      8  O   UNL     1       9.086  12.838   2.514  1.00  0.00    -0.508 OA
ATOM      9  H   UNL     1       8.932  12.276   1.685  1.00  0.00     0.293 HD
ENDBRANCH   5   8
ENDBRANCH   1   2
BRANCH   1  10
ATOM     10  C   UNL     1       6.922  11.928   8.499  1.00  0.00     0.040 C 
BRANCH  10  11
ATOM     11  C   UNL     1       5.490  11.496   8.658  1.00  0.00    -0.040 A 
ATOM     12  C   UNL     1       5.115  10.171   8.386  1.00  0.00     0.050 A 
ATOM     13  C   UNL     1       4.507  12.430   9.025  1.00  0.00     0.050 A 
ATOM     14  C   UNL     1       3.775   9.776   8.501  1.00  0.00     0.119 A 
ATOM     15  C   UNL     1       3.168  12.038   9.141  1.00  0.00     0.119 A 
ATOM     16  C   UNL     1       2.805  10.709   8.882  1.00  0.00     0.092 A 
BRANCH  14  17
ATOM     17  O   UNL     1       3.397   8.462   8.240  1.00  0.00    -0.508 OA
ATOM     18  H   UNL     1       2.423   8.183   8.219  1.00  0.00     0.293 HD
ENDBRANCH  14  17
BRANCH  15  19
ATOM     19  O   UNL     1       2.208  12.977   9.512  1.00  0.00    -0.508 OA
ATOM     20  H   UNL     1       2.246  13.448  10.408  1.00  0.00     0.293 HD
ENDBRANCH  15  19
ENDBRANCH  10  11
ENDBRANCH   1  10
TORSDOF 6
ENDMDL
MODEL 3
REMARK VINA RESULT:    -6.488      1.495      2.717
REMARK INTER + INTRA:          -8.553
REMARK INTER:                  -8.003
REMARK INTRA:                  -0.550
REMARK UNBOUND:                -0.357
REMARK SMILES Oc1ccc(CCc2cc(O)cc(O)c2)cc1
REMARK SMILES IDX 6 1 5 2 4 3 3 4 2 5 16 6 17 7 1 8 7 10 8 11 15 12 9 13 13 14
REMARK SMILES IDX 10 15 12 16 14 17 11 19
REMARK H PARENT 1 9 14 18 11 20
REMARK Flexibility Score: inf
ROOT
ATOM      1  C   UNL     1       7.737  10.883   7.711  1.00  0.00     0.040 C 
ENDROOT
BRANCH   1   2
ATOM      2  C   UNL     1       8.133  11.450   6.374  1.00  0.00    -0.047 A 
ATOM      3  C   UNL     1       9.489  11.624   6.052  1.00  0.00     0.007 A 
ATOM      4  C   UNL     1       9.858  12.121   4.798  1.00  0.00     0.046 A 
ATOM      5  C   UNL     1       8.875  12.439   3.850  1.00  0.00     0.115 A 
ATOM      6  C   UNL     1       7.153  11.757   5.416  1.00  0.00     0.007 A 
ATOM      7  C   UNL     1       7.524  12.254   4.163  1.00  0.00     0.046 A 
BRANCH   5   8
ATOM      8  O   UNL     1       9.230  12.935   2.598  1.00  0.00    -0.508 OA
ATOM      9  H   UNL     1       9.536  13.893   2.475  1.00  0.00     0.293 HD
ENDBRANCH   5   8
ENDBRANCH   1   2
BRANCH   1  10
ATOM     10  C   UNL     1       6.927  11.906   8.512  1.00  0.00     0.040 C 
BRANCH  10  11
ATOM     11  C   UNL     1       5.486  11.483   8.607  1.00  0.00    -0.040 A 
ATOM     12  C   UNL     1       4.500  12.409   8.987  1.00  0.00     0.050 A 
ATOM     13  C   UNL     1       5.124  10.147   8.373  1.00  0.00     0.050 A 
ATOM     14  C   UNL     1       3.162  12.007   9.109  1.00  0.00     0.119 A 
ATOM     15  C   UNL     1       3.789   9.744   8.494  1.00  0.00     0.119 A 
ATOM     16  C   UNL     1       2.809  10.677   8.858  1.00  0.00     0.092 A 
BRANCH  14  17
ATOM     17  O   UNL     1       2.178  12.921   9.477  1.00  0.00    -0.508 OA
ATOM     18  H   UNL     1       2.349  13.920   9.462  1.00  0.00     0.293 HD
ENDBRANCH  14  17
BRANCH  15  19
ATOM     19  O   UNL     1       3.448   8.415   8.251  1.00  0.00    -0.508 OA
ATOM     20  H   UNL     1       2.780   7.925   8.834  1.00  0.00     0.293 HD
ENDBRANCH  15  19
ENDBRANCH  10  11
ENDBRANCH   1  10
TORSDOF 6
ENDMDL
MODEL 4
REMARK VINA RESULT:    -6.323      0.325      2.363
REMARK INTER + INTRA:          -8.343
REMARK INTER:                  -7.994
REMARK INTRA:                  -0.349
REMARK UNBOUND:                -0.357
REMARK SMILES Oc1ccc(CCc2cc(O)cc(O)c2)cc1
REMARK SMILES IDX 6 1 5 2 4 3 3 4 2 5 16 6 17 7 1 8 7 10 8 11 15 12 9 13 13 14
REMARK SMILES IDX 10 15 12 16 14 17 11 19
REMARK H PARENT 1 9 14 18 11 20
REMARK Flexibility Score: inf
ROOT
ATOM      1  C   UNL     1       4.950  10.711   6.835  1.00  0.00     0.040 C 
ENDROOT
BRANCH   1   2
ATOM      2  C   UNL     1       6.163  11.113   6.041  1.00  0.00    -0.047 A 
ATOM      3  C   UNL     1       6.083  12.157   5.104  1.00  0.00     0.007 A 
ATOM      4  C   UNL     1       7.218  12.552   4.390  1.00  0.00     0.046 A 
ATOM      5  C   UNL     1       8.447  11.916   4.612  1.00  0.00     0.115 A 
ATOM      6  C   UNL     1       7.400  10.488   6.270  1.00  0.00     0.007 A 
ATOM      7  C   UNL     1       8.534  10.885   5.554  1.00  0.00     0.046 A 
BRANCH   5   8
ATOM      8  O   UNL     1       9.584  12.300   3.907  1.00  0.00    -0.508 OA
ATOM      9  H   UNL     1       9.756  11.978   2.962  1.00  0.00     0.293 HD
ENDBRANCH   5   8
ENDBRANCH   1   2
BRANCH   1  10
ATOM     10  C   UNL     1       5.052  11.226   8.273  1.00  0.00     0.040 C 
BRANCH  10  11
ATOM     11  C   UNL     1       3.726  11.108   8.974  1.00  0.00    -0.040 A 
ATOM     12  C   UNL     1       2.809  12.171   8.938  1.00  0.00     0.050 A 
ATOM     13  C   UNL     1       3.419   9.957   9.717  1.00  0.00     0.050 A 
ATOM     14  C   UNL     1       1.587  12.075   9.618  1.00  0.00     0.119 A 
ATOM     15  C   UNL     1       2.200   9.859  10.397  1.00  0.00     0.119 A 
ATOM     16  C   UNL     1       1.284  10.918  10.343  1.00  0.00     0.092 A 
BRANCH  14  17
ATOM     17  O   UNL     1       0.670  13.122   9.580  1.00  0.00    -0.508 OA
ATOM     18  H   UNL     1      -0.241  13.014   9.149  1.00  0.00     0.293 HD
ENDBRANCH  14  17
BRANCH  15  19
ATOM     19  O   UNL     1       1.910   8.706  11.125  1.00  0.00    -0.508 OA
ATOM     20  H   UNL     1       1.453   7.911  10.696  1.00  0.00     0.293 HD
ENDBRANCH  15  19
ENDBRANCH  10  11
ENDBRANCH   1  10
TORSDOF 6
ENDMDL
MODEL 5
REMARK VINA RESULT:    -6.317      1.477      2.076
REMARK INTER + INTRA:          -8.336
REMARK INTER:                  -7.778
REMARK INTRA:                  -0.558
REMARK UNBOUND:                -0.357
REMARK SMILES Oc1ccc(CCc2cc(O)cc(O)c2)cc1
REMARK SMILES IDX 6 1 5 2 4 3 3 4 2 5 16 6 17 7 1 8 7 10 8 11 15 12 9 13 13 14
REMARK SMILES IDX 10 15 12 16 14 17 11 19
REMARK H PARENT 1 9 14 18 11 20
REMARK Flexibility Score: inf
ROOT
ATOM      1  C   UNL     1       4.595  10.879   5.275  1.00  0.00     0.040 C 
ENDROOT
BRANCH   1   2
ATOM      2  C   UNL     1       6.049  11.252   5.175  1.00  0.00    -0.047 A 
ATOM      3  C   UNL     1       6.445  12.359   4.407  1.00  0.00     0.007 A 
ATOM      4  C   UNL     1       7.793  12.725   4.340  1.00  0.00     0.046 A 
ATOM      5  C   UNL     1       8.757  11.995   5.050  1.00  0.00     0.115 A 
ATOM      6  C   UNL     1       7.016  10.533   5.895  1.00  0.00     0.007 A 
ATOM      7  C   UNL     1       8.364  10.900   5.827  1.00  0.00     0.046 A 
BRANCH   5   8
ATOM      8  O   UNL     1      10.102  12.350   4.991  1.00  0.00    -0.508 OA
ATOM      9  H   UNL     1      10.637  12.259   4.135  1.00  0.00     0.293 HD
ENDBRANCH   5   8
ENDBRANCH   1   2
BRANCH   1  10
ATOM     10  C   UNL     1       4.410   9.676   6.204  1.00  0.00     0.040 C 
BRANCH  10  11
ATOM     11  C   UNL     1       3.668  10.077   7.450  1.00  0.00    -0.040 A 
ATOM     12  C   UNL     1       4.274   9.944   8.710  1.00  0.00     0.050 A 
ATOM     13  C   UNL     1       2.342  10.534   7.367  1.00  0.00     0.050 A 
ATOM     14  C   UNL     1       3.570  10.286   9.873  1.00  0.00     0.119 A 
ATOM     15  C   UNL     1       1.639  10.877   8.527  1.00  0.00     0.119 A 
ATOM     16  C   UNL     1       2.256  10.755   9.779  1.00  0.00     0.092 A 
BRANCH  14  17
ATOM     17  O   UNL     1       4.168  10.164  11.125  1.00  0.00    -0.508 OA
ATOM     18  H   UNL     1       4.000  10.840  11.862  1.00  0.00     0.293 HD
ENDBRANCH  14  17
BRANCH  15  19
ATOM     19  O   UNL     1       0.326  11.335   8.424  1.00  0.00    -0.508 OA
ATOM     20  H   UNL     1      -0.451  10.694   8.315  1.00  0.00     0.293 HD
ENDBRANCH  15  19
ENDBRANCH  10  11
ENDBRANCH   1  10
TORSDOF 6
ENDMDL
MODEL 6
REMARK VINA RESULT:    -6.196      1.540      7.323
REMARK INTER + INTRA:          -8.184
REMARK INTER:                  -7.650
REMARK INTRA:                  -0.534
REMARK UNBOUND:                -0.357
REMARK SMILES Oc1ccc(CCc2cc(O)cc(O)c2)cc1
REMARK SMILES IDX 6 1 5 2 4 3 3 4 2 5 16 6 17 7 1 8 7 10 8 11 15 12 9 13 13 14
REMARK SMILES IDX 10 15 12 16 14 17 11 19
REMARK H PARENT 1 9 14 18 11 20
REMARK Flexibility Score: inf
ROOT
ATOM      1  C   UNL     1       5.499  10.329   6.628  1.00  0.00     0.040 C 
ENDROOT
BRANCH   1   2
ATOM      2  C   UNL     1       4.479  10.883   7.586  1.00  0.00    -0.047 A 
ATOM      3  C   UNL     1       4.791  11.993   8.388  1.00  0.00     0.007 A 
ATOM      4  C   UNL     1       3.832  12.528   9.254  1.00  0.00     0.046 A 
ATOM      5  C   UNL     1       2.550  11.965   9.320  1.00  0.00     0.115 A 
ATOM      6  C   UNL     1       3.190  10.331   7.645  1.00  0.00     0.007 A 
ATOM      7  C   UNL     1       2.232  10.867   8.512  1.00  0.00     0.046 A 
BRANCH   5   8
ATOM      8  O   UNL     1       1.587  12.488  10.178  1.00  0.00    -0.508 OA
ATOM      9  H   UNL     1       0.622  12.181  10.142  1.00  0.00     0.293 HD
ENDBRANCH   5   8
ENDBRANCH   1   2
BRANCH   1  10
ATOM     10  C   UNL     1       5.639  11.238   5.404  1.00  0.00     0.040 C 
BRANCH  10  11
ATOM     11  C   UNL     1       7.059  11.710   5.253  1.00  0.00    -0.040 A 
ATOM     12  C   UNL     1       7.536  12.135   4.003  1.00  0.00     0.050 A 
ATOM     13  C   UNL     1       7.936  11.675   6.350  1.00  0.00     0.050 A 
ATOM     14  C   UNL     1       8.869  12.543   3.855  1.00  0.00     0.119 A 
ATOM     15  C   UNL     1       9.266  12.082   6.205  1.00  0.00     0.119 A 
ATOM     16  C   UNL     1       9.730  12.519   4.957  1.00  0.00     0.092 A 
BRANCH  14  17
ATOM     17  O   UNL     1       9.346  12.973   2.620  1.00  0.00    -0.508 OA
ATOM     18  H   UNL     1       8.720  13.304   1.894  1.00  0.00     0.293 HD
ENDBRANCH  14  17
BRANCH  15  19
ATOM     19  O   UNL     1      10.120  12.046   7.306  1.00  0.00    -0.508 OA
ATOM     20  H   UNL     1      10.881  12.707   7.408  1.00  0.00     0.293 HD
ENDBRANCH  15  19
ENDBRANCH  10  11
ENDBRANCH   1  10
TORSDOF 6
ENDMDL
MODEL 7
REMARK VINA RESULT:    -6.187      1.543      7.171
REMARK INTER + INTRA:          -8.172
REMARK INTER:                  -7.642
REMARK INTRA:                  -0.530
REMARK UNBOUND:                -0.357
REMARK SMILES Oc1ccc(CCc2cc(O)cc(O)c2)cc1
REMARK SMILES IDX 6 1 5 2 4 3 3 4 2 5 16 6 17 7 1 8 7 10 8 11 15 12 9 13 13 14
REMARK SMILES IDX 10 15 12 16 14 17 11 19
REMARK H PARENT 1 9 14 18 11 20
REMARK Flexibility Score: inf
ROOT
ATOM      1  C   UNL     1       5.434  10.300   6.676  1.00  0.00     0.040 C 
ENDROOT
BRANCH   1   2
ATOM      2  C   UNL     1       4.418  10.881   7.622  1.00  0.00    -0.047 A 
ATOM      3  C   UNL     1       4.739  12.002   8.405  1.00  0.00     0.007 A 
ATOM      4  C   UNL     1       3.785  12.561   9.261  1.00  0.00     0.046 A 
ATOM      5  C   UNL     1       2.497  12.012   9.334  1.00  0.00     0.115 A 
ATOM      6  C   UNL     1       3.123  10.343   7.689  1.00  0.00     0.007 A 
ATOM      7  C   UNL     1       2.170  10.904   8.546  1.00  0.00     0.046 A 
BRANCH   5   8
ATOM      8  O   UNL     1       1.539  12.560  10.182  1.00  0.00    -0.508 OA
ATOM      9  H   UNL     1       0.806  13.167   9.832  1.00  0.00     0.293 HD
ENDBRANCH   5   8
ENDBRANCH   1   2
BRANCH   1  10
ATOM     10  C   UNL     1       5.589  11.190   5.439  1.00  0.00     0.040 C 
BRANCH  10  11
ATOM     11  C   UNL     1       7.026  11.594   5.254  1.00  0.00    -0.040 A 
ATOM     12  C   UNL     1       7.907  11.599   6.347  1.00  0.00     0.050 A 
ATOM     13  C   UNL     1       7.482  12.027   3.998  1.00  0.00     0.050 A 
ATOM     14  C   UNL     1       9.238  12.008   6.182  1.00  0.00     0.119 A 
ATOM     15  C   UNL     1       8.810  12.435   3.831  1.00  0.00     0.119 A 
ATOM     16  C   UNL     1       9.687  12.422   4.924  1.00  0.00     0.092 A 
BRANCH  14  17
ATOM     17  O   UNL     1      10.119  12.007   7.260  1.00  0.00    -0.508 OA
ATOM     18  H   UNL     1      10.844  11.305   7.353  1.00  0.00     0.293 HD
ENDBRANCH  14  17
BRANCH  15  19
ATOM     19  O   UNL     1       9.247  12.855   2.576  1.00  0.00    -0.508 OA
ATOM     20  H   UNL     1      10.211  12.743   2.287  1.00  0.00     0.293 HD
ENDBRANCH  15  19
ENDBRANCH  10  11
ENDBRANCH   1  10
TORSDOF 6
ENDMDL
MODEL 8
REMARK VINA RESULT:    -5.682      1.863      6.882
REMARK INTER + INTRA:          -7.534
REMARK INTER:                  -7.018
REMARK INTRA:                  -0.517
REMARK UNBOUND:                -0.357
REMARK SMILES Oc1ccc(CCc2cc(O)cc(O)c2)cc1
REMARK SMILES IDX 6 1 5 2 4 3 3 4 2 5 16 6 17 7 1 8 7 10 8 11 15 12 9 13 13 14
REMARK SMILES IDX 10 15 12 16 14 17 11 19
REMARK H PARENT 1 9 14 18 11 20
REMARK Flexibility Score: inf
ROOT
ATOM      1  C   UNL     1       4.751  11.496   9.282  1.00  0.00     0.040 C 
ENDROOT
BRANCH   1   2
ATOM      2  C   UNL     1       3.273  11.744   9.145  1.00  0.00    -0.047 A 
ATOM      3  C   UNL     1       2.447  10.783   8.539  1.00  0.00     0.007 A 
ATOM      4  C   UNL     1       1.068  10.999   8.440  1.00  0.00     0.046 A 
ATOM      5  C   UNL     1       0.501  12.172   8.957  1.00  0.00     0.115 A 
ATOM      6  C   UNL     1       2.698  12.911   9.673  1.00  0.00     0.007 A 
ATOM      7  C   UNL     1       1.319  13.125   9.574  1.00  0.00     0.046 A 
BRANCH   5   8
ATOM      8  O   UNL     1      -0.869  12.399   8.865  1.00  0.00    -0.508 OA
ATOM      9  H   UNL     1      -1.512  11.661   8.601  1.00  0.00     0.293 HD
ENDBRANCH   5   8
ENDBRANCH   1   2
BRANCH   1  10
ATOM     10  C   UNL     1       5.548  12.700   8.773  1.00  0.00     0.040 C 
BRANCH  10  11
ATOM     11  C   UNL     1       6.261  12.361   7.492  1.00  0.00    -0.040 A 
ATOM     12  C   UNL     1       5.613  11.608   6.499  1.00  0.00     0.050 A 
ATOM     13  C   UNL     1       7.599  12.744   7.304  1.00  0.00     0.050 A 
ATOM     14  C   UNL     1       6.288  11.263   5.320  1.00  0.00     0.119 A 
ATOM     15  C   UNL     1       8.274  12.402   6.128  1.00  0.00     0.119 A 
ATOM     16  C   UNL     1       7.615  11.663   5.135  1.00  0.00     0.092 A 
BRANCH  14  17
ATOM     17  O   UNL     1       5.649  10.524   4.328  1.00  0.00    -0.508 OA
ATOM     18  H   UNL     1       5.945   9.584   4.092  1.00  0.00     0.293 HD
ENDBRANCH  14  17
BRANCH  15  19
ATOM     19  O   UNL     1       9.599  12.797   5.956  1.00  0.00    -0.508 OA
ATOM     20  H   UNL     1       9.844  13.762   5.772  1.00  0.00     0.293 HD
ENDBRANCH  15  19
ENDBRANCH  10  11
ENDBRANCH   1  10
TORSDOF 6
ENDMDL
MODEL 9
REMARK VINA RESULT:    -5.635      1.998      6.796
REMARK INTER + INTRA:          -7.475
REMARK INTER:                  -6.957
REMARK INTRA:                  -0.517
REMARK UNBOUND:                -0.357
REMARK SMILES Oc1ccc(CCc2cc(O)cc(O)c2)cc1
REMARK SMILES IDX 6 1 5 2 4 3 3 4 2 5 16 6 17 7 1 8 7 10 8 11 15 12 9 13 13 14
REMARK SMILES IDX 10 15 12 16 14 17 11 19
REMARK H PARENT 1 9 14 18 11 20
REMARK Flexibility Score: inf
ROOT
ATOM      1  C   UNL     1       4.198  10.929   9.556  1.00  0.00     0.040 C 
ENDROOT
BRANCH   1   2
ATOM      2  C   UNL     1       2.812  11.465   9.325  1.00  0.00    -0.047 A 
ATOM      3  C   UNL     1       1.905  10.759   8.517  1.00  0.00     0.007 A 
ATOM      4  C   UNL     1       0.605  11.241   8.328  1.00  0.00     0.046 A 
ATOM      5  C   UNL     1       0.197  12.427   8.954  1.00  0.00     0.115 A 
ATOM      6  C   UNL     1       2.393  12.645   9.960  1.00  0.00     0.007 A 
ATOM      7  C   UNL     1       1.093  13.125   9.770  1.00  0.00     0.046 A 
BRANCH   5   8
ATOM      8  O   UNL     1      -1.094  12.917   8.774  1.00  0.00    -0.508 OA
ATOM      9  H   UNL     1      -1.909  12.365   9.017  1.00  0.00     0.293 HD
ENDBRANCH   5   8
ENDBRANCH   1   2
BRANCH   1  10
ATOM     10  C   UNL     1       5.249  11.994   9.231  1.00  0.00     0.040 C 
BRANCH  10  11
ATOM     11  C   UNL     1       6.011  11.624   7.987  1.00  0.00    -0.040 A 
ATOM     12  C   UNL     1       7.407  11.773   7.941  1.00  0.00     0.050 A 
ATOM     13  C   UNL     1       5.326  11.184   6.843  1.00  0.00     0.050 A 
ATOM     14  C   UNL     1       8.113  11.460   6.771  1.00  0.00     0.119 A 
ATOM     15  C   UNL     1       6.029  10.871   5.675  1.00  0.00     0.119 A 
ATOM     16  C   UNL     1       7.424  11.007   5.642  1.00  0.00     0.092 A 
BRANCH  14  17
ATOM     17  O   UNL     1       9.498  11.597   6.721  1.00  0.00    -0.508 OA
ATOM     18  H   UNL     1      10.056  11.098   6.038  1.00  0.00     0.293 HD
ENDBRANCH  14  17
BRANCH  15  19
ATOM     19  O   UNL     1       5.333  10.428   4.551  1.00  0.00    -0.508 OA
ATOM     20  H   UNL     1       5.417  10.897   3.658  1.00  0.00     0.293 HD
ENDBRANCH  15  19
ENDBRANCH  10  11
ENDBRANCH   1  10
TORSDOF 6
ENDMDL
