MODEL 1
REMARK VINA RESULT:    -3.714      0.000      0.000
REMARK INTER + INTRA:          -5.161
REMARK INTER:                  -4.799
REMARK INTRA:                  -0.362
REMARK UNBOUND:                -0.362
REMARK SMILES C=CC(=O)CCCCC
REMARK SMILES IDX 6 1 7 2 8 3 9 4 5 5 3 6 4 7 2 8 1 9
REMARK H PARENT
REMARK Flexibility Score: inf
ROOT
ATOM      1  C   UNL     1     -12.308   4.717 -17.317  1.00  0.00     0.008 C 
ENDROOT
BRANCH   1   2
ATOM      2  C   UNL     1     -12.294   3.263 -16.819  1.00  0.00     0.000 C 
BRANCH   2   3
ATOM      3  C   UNL     1     -12.695   3.141 -15.342  1.00  0.00    -0.003 C 
ATOM      4  C   UNL     1     -13.904   2.226 -15.174  1.00  0.00     0.004 C 
ENDBRANCH   2   3
ENDBRANCH   1   2
BRANCH   1   5
ATOM      5  C   UNL     1     -11.876   5.717 -16.236  1.00  0.00     0.080 C 
BRANCH   5   6
ATOM      6  C   UNL     1     -12.907   6.796 -16.078  1.00  0.00     0.155 C 
ATOM      7  O   UNL     1     -12.563   7.917 -15.614  1.00  0.00    -0.295 OA
BRANCH   6   8
ATOM      8  C   UNL     1     -14.299   6.555 -16.503  1.00  0.00     0.039 C 
ATOM      9  C   UNL     1     -14.931   7.349 -17.366  1.00  0.00     0.012 C 
ENDBRANCH   6   8
ENDBRANCH   5   6
ENDBRANCH   1   5
TORSDOF 5
ENDMDL
MODEL 2
REMARK VINA RESULT:    -3.712      1.698      4.216
REMARK INTER + INTRA:          -5.159
REMARK INTER:                  -4.915
REMARK INTRA:                  -0.244
REMARK UNBOUND:                -0.362
REMARK SMILES C=CC(=O)CCCCC
REMARK SMILES IDX 6 1 7 2 8 3 9 4 5 5 3 6 4 7 2 8 1 9
REMARK H PARENT
REMARK Flexibility Score: inf
ROOT
ATOM      1  C   UNL     1     -12.611   5.768 -16.908  1.00  0.00     0.008 C 
ENDROOT
BRANCH   1   2
ATOM      2  C   UNL     1     -14.060   6.158 -16.575  1.00  0.00     0.000 C 
BRANCH   2   3
ATOM      3  C   UNL     1     -14.182   7.601 -16.066  1.00  0.00    -0.003 C 
ATOM      4  C   UNL     1     -12.893   8.055 -15.388  1.00  0.00     0.004 C 
ENDBRANCH   2   3
ENDBRANCH   1   2
BRANCH   1   5
ATOM      5  C   UNL     1     -12.435   4.256 -17.106  1.00  0.00     0.080 C 
BRANCH   5   6
ATOM      6  C   UNL     1     -11.882   3.625 -15.862  1.00  0.00     0.155 C 
ATOM      7  O   UNL     1     -10.827   4.087 -15.350  1.00  0.00    -0.295 OA
BRANCH   6   8
ATOM      8  C   UNL     1     -12.596   2.502 -15.224  1.00  0.00     0.039 C 
ATOM      9  C   UNL     1     -13.419   1.701 -15.899  1.00  0.00     0.012 C 
ENDBRANCH   6   8
ENDBRANCH   5   6
ENDBRANCH   1   5
TORSDOF 5
ENDMDL
MODEL 3
REMARK VINA RESULT:    -3.704      2.397      4.562
REMARK INTER + INTRA:          -5.149
REMARK INTER:                  -4.851
REMARK INTRA:                  -0.298
REMARK UNBOUND:                -0.362
REMARK SMILES C=CC(=O)CCCCC
REMARK SMILES IDX 6 1 7 2 8 3 9 4 5 5 3 6 4 7 2 8 1 9
REMARK H PARENT
REMARK Flexibility Score: inf
ROOT
ATOM      1  C   UNL     1     -13.350   4.817 -16.579  1.00  0.00     0.008 C 
ENDROOT
BRANCH   1   2
ATOM      2  C   UNL     1     -12.599   6.100 -16.192  1.00  0.00     0.000 C 
BRANCH   2   3
ATOM      3  C   UNL     1     -13.526   7.319 -16.083  1.00  0.00    -0.003 C 
ATOM      4  C   UNL     1     -14.954   6.960 -16.482  1.00  0.00     0.004 C 
ENDBRANCH   2   3
ENDBRANCH   1   2
BRANCH   1   5
ATOM      5  C   UNL     1     -12.406   3.648 -16.885  1.00  0.00     0.080 C 
BRANCH   5   6
ATOM      6  C   UNL     1     -12.514   2.594 -15.823  1.00  0.00     0.155 C 
ATOM      7  O   UNL     1     -13.323   1.640 -15.978  1.00  0.00    -0.295 OA
BRANCH   6   8
ATOM      8  C   UNL     1     -11.646   2.656 -14.630  1.00  0.00     0.039 C 
ATOM      9  C   UNL     1     -10.442   3.224 -14.651  1.00  0.00     0.012 C 
ENDBRANCH   6   8
ENDBRANCH   5   6
ENDBRANCH   1   5
TORSDOF 5
ENDMDL
MODEL 4
REMARK VINA RESULT:    -3.611      1.872      4.058
REMARK INTER + INTRA:          -5.029
REMARK INTER:                  -4.683
REMARK INTRA:                  -0.346
REMARK UNBOUND:                -0.362
REMARK SMILES C=CC(=O)CCCCC
REMARK SMILES IDX 6 1 7 2 8 3 9 4 5 5 3 6 4 7 2 8 1 9
REMARK H PARENT
REMARK Flexibility Score: inf
ROOT
ATOM      1  C   UNL     1     -11.838   6.215 -15.218  1.00  0.00     0.008 C 
ENDROOT
BRANCH   1   2
ATOM      2  C   UNL     1     -12.811   7.291 -15.725  1.00  0.00     0.000 C 
BRANCH   2   3
ATOM      3  C   UNL     1     -13.708   6.787 -16.865  1.00  0.00    -0.003 C 
ATOM      4  C   UNL     1     -15.180   6.836 -16.469  1.00  0.00     0.004 C 
ENDBRANCH   2   3
ENDBRANCH   1   2
BRANCH   1   5
ATOM      5  C   UNL     1     -11.427   5.224 -16.316  1.00  0.00     0.080 C 
BRANCH   5   6
ATOM      6  C   UNL     1     -11.683   3.814 -15.872  1.00  0.00     0.155 C 
ATOM      7  O   UNL     1     -10.862   3.250 -15.099  1.00  0.00    -0.295 OA
BRANCH   6   8
ATOM      8  C   UNL     1     -12.908   3.115 -16.305  1.00  0.00     0.039 C 
ATOM      9  C   UNL     1     -13.434   2.102 -15.619  1.00  0.00     0.012 C 
ENDBRANCH   6   8
ENDBRANCH   5   6
ENDBRANCH   1   5
TORSDOF 5
ENDMDL
MODEL 5
REMARK VINA RESULT:    -3.590     11.057     12.986
REMARK INTER + INTRA:          -5.002
REMARK INTER:                  -4.861
REMARK INTRA:                  -0.141
REMARK UNBOUND:                -0.362
REMARK SMILES C=CC(=O)CCCCC
REMARK SMILES IDX 6 1 7 2 8 3 9 4 5 5 3 6 4 7 2 8 1 9
REMARK H PARENT
REMARK Flexibility Score: inf
ROOT
ATOM      1  C   UNL     1     -23.176   8.040 -22.553  1.00  0.00     0.008 C 
ENDROOT
BRANCH   1   2
ATOM      2  C   UNL     1     -21.663   8.181 -22.326  1.00  0.00     0.000 C 
BRANCH   2   3
ATOM      3  C   UNL     1     -21.326   8.912 -21.019  1.00  0.00    -0.003 C 
ATOM      4  C   UNL     1     -21.773  10.370 -21.074  1.00  0.00     0.004 C 
ENDBRANCH   2   3
ENDBRANCH   1   2
BRANCH   1   5
ATOM      5  C   UNL     1     -23.844   7.113 -21.528  1.00  0.00     0.080 C 
BRANCH   5   6
ATOM      6  C   UNL     1     -25.326   7.059 -21.757  1.00  0.00     0.155 C 
ATOM      7  O   UNL     1     -25.781   7.271 -22.913  1.00  0.00    -0.295 OA
BRANCH   6   8
ATOM      8  C   UNL     1     -26.232   6.716 -20.644  1.00  0.00     0.039 C 
ATOM      9  C   UNL     1     -27.353   6.019 -20.822  1.00  0.00     0.012 C 
ENDBRANCH   6   8
ENDBRANCH   5   6
ENDBRANCH   1   5
TORSDOF 5
ENDMDL
MODEL 6
REMARK VINA RESULT:    -3.565      2.795      3.970
REMARK INTER + INTRA:          -4.969
REMARK INTER:                  -4.581
REMARK INTRA:                  -0.389
REMARK UNBOUND:                -0.362
REMARK SMILES C=CC(=O)CCCCC
REMARK SMILES IDX 6 1 7 2 8 3 9 4 5 5 3 6 4 7 2 8 1 9
REMARK H PARENT
REMARK Flexibility Score: inf
ROOT
ATOM      1  C   UNL     1     -11.203   4.513 -14.380  1.00  0.00     0.008 C 
ENDROOT
BRANCH   1   2
ATOM      2  C   UNL     1      -9.718   4.173 -14.179  1.00  0.00     0.000 C 
BRANCH   2   3
ATOM      3  C   UNL     1      -9.362   2.763 -14.669  1.00  0.00    -0.003 C 
ATOM      4  C   UNL     1      -9.277   1.781 -13.505  1.00  0.00     0.004 C 
ENDBRANCH   2   3
ENDBRANCH   1   2
BRANCH   1   5
ATOM      5  C   UNL     1     -11.517   4.968 -15.812  1.00  0.00     0.080 C 
BRANCH   5   6
ATOM      6  C   UNL     1     -12.309   3.919 -16.535  1.00  0.00     0.155 C 
ATOM      7  O   UNL     1     -12.107   3.729 -17.765  1.00  0.00    -0.295 OA
BRANCH   6   8
ATOM      8  C   UNL     1     -13.282   3.090 -15.797  1.00  0.00     0.039 C 
ATOM      9  C   UNL     1     -13.329   1.764 -15.917  1.00  0.00     0.012 C 
ENDBRANCH   6   8
ENDBRANCH   5   6
ENDBRANCH   1   5
TORSDOF 5
ENDMDL
MODEL 7
REMARK VINA RESULT:    -3.546      1.516      2.044
REMARK INTER + INTRA:          -4.945
REMARK INTER:                  -4.643
REMARK INTRA:                  -0.303
REMARK UNBOUND:                -0.362
REMARK SMILES C=CC(=O)CCCCC
REMARK SMILES IDX 6 1 7 2 8 3 9 4 5 5 3 6 4 7 2 8 1 9
REMARK H PARENT
REMARK Flexibility Score: inf
ROOT
ATOM      1  C   UNL     1     -12.389   3.285 -16.466  1.00  0.00     0.008 C 
ENDROOT
BRANCH   1   2
ATOM      2  C   UNL     1     -12.533   2.448 -15.185  1.00  0.00     0.000 C 
BRANCH   2   3
ATOM      3  C   UNL     1     -11.546   2.872 -14.088  1.00  0.00    -0.003 C 
ATOM      4  C   UNL     1     -10.115   2.894 -14.615  1.00  0.00     0.004 C 
ENDBRANCH   2   3
ENDBRANCH   1   2
BRANCH   1   5
ATOM      5  C   UNL     1     -13.396   4.440 -16.533  1.00  0.00     0.080 C 
BRANCH   5   6
ATOM      6  C   UNL     1     -12.694   5.758 -16.388  1.00  0.00     0.155 C 
ATOM      7  O   UNL     1     -11.435   5.783 -16.316  1.00  0.00    -0.295 OA
BRANCH   6   8
ATOM      8  C   UNL     1     -13.472   7.012 -16.375  1.00  0.00     0.039 C 
ATOM      9  C   UNL     1     -14.797   7.033 -16.501  1.00  0.00     0.012 C 
ENDBRANCH   6   8
ENDBRANCH   5   6
ENDBRANCH   1   5
TORSDOF 5
ENDMDL
MODEL 8
REMARK VINA RESULT:    -3.498      2.516      4.707
REMARK INTER + INTRA:          -4.883
REMARK INTER:                  -4.727
REMARK INTRA:                  -0.156
REMARK UNBOUND:                -0.362
REMARK SMILES C=CC(=O)CCCCC
REMARK SMILES IDX 6 1 7 2 8 3 9 4 5 5 3 6 4 7 2 8 1 9
REMARK H PARENT
REMARK Flexibility Score: inf
ROOT
ATOM      1  C   UNL     1     -12.064   3.782 -16.375  1.00  0.00     0.008 C 
ENDROOT
BRANCH   1   2
ATOM      2  C   UNL     1     -13.384   4.542 -16.578  1.00  0.00     0.000 C 
BRANCH   2   3
ATOM      3  C   UNL     1     -13.167   6.027 -16.901  1.00  0.00    -0.003 C 
ATOM      4  C   UNL     1     -14.438   6.835 -16.656  1.00  0.00     0.004 C 
ENDBRANCH   2   3
ENDBRANCH   1   2
BRANCH   1   5
ATOM      5  C   UNL     1     -11.777   3.479 -14.899  1.00  0.00     0.080 C 
BRANCH   5   6
ATOM      6  C   UNL     1     -10.365   3.847 -14.553  1.00  0.00     0.155 C 
ATOM      7  O   UNL     1     -10.108   5.018 -14.162  1.00  0.00    -0.295 OA
BRANCH   6   8
ATOM      8  C   UNL     1      -9.297   2.831 -14.628  1.00  0.00     0.039 C 
ATOM      9  C   UNL     1      -9.145   1.883 -13.705  1.00  0.00     0.012 C 
ENDBRANCH   6   8
ENDBRANCH   5   6
ENDBRANCH   1   5
TORSDOF 5
ENDMDL
MODEL 9
REMARK VINA RESULT:    -3.492      2.449      3.909
REMARK INTER + INTRA:          -4.874
REMARK INTER:                  -4.298
REMARK INTRA:                  -0.576
REMARK UNBOUND:                -0.362
REMARK SMILES C=CC(=O)CCCCC
REMARK SMILES IDX 6 1 7 2 8 3 9 4 5 5 3 6 4 7 2 8 1 9
REMARK H PARENT
REMARK Flexibility Score: inf
ROOT
ATOM      1  C   UNL     1     -11.526   4.986 -16.336  1.00  0.00     0.008 C 
ENDROOT
BRANCH   1   2
ATOM      2  C   UNL     1     -12.662   4.078 -16.834  1.00  0.00     0.000 C 
BRANCH   2   3
ATOM      3  C   UNL     1     -13.333   3.295 -15.697  1.00  0.00    -0.003 C 
ATOM      4  C   UNL     1     -13.299   1.794 -15.969  1.00  0.00     0.004 C 
ENDBRANCH   2   3
ENDBRANCH   1   2
BRANCH   1   5
ATOM      5  C   UNL     1     -11.511   5.132 -14.809  1.00  0.00     0.080 C 
BRANCH   5   6
ATOM      6  C   UNL     1     -10.187   4.698 -14.253  1.00  0.00     0.155 C 
ATOM      7  O   UNL     1      -9.580   5.451 -13.444  1.00  0.00    -0.295 OA
BRANCH   6   8
ATOM      8  C   UNL     1      -9.628   3.383 -14.619  1.00  0.00     0.039 C 
ATOM      9  C   UNL     1     -10.059   2.246 -14.075  1.00  0.00     0.012 C 
ENDBRANCH   6   8
ENDBRANCH   5   6
ENDBRANCH   1   5
TORSDOF 5
ENDMDL
