MODEL 1
REMARK VINA RESULT:    -3.964      0.000      0.000
REMARK INTER + INTRA:         -10.519
REMARK INTER:                  -7.671
REMARK INTRA:                  -2.848
REMARK UNBOUND:                -2.848
REMARK SMILES CCCCCCCCCCCCCCCCCC(=O)[O-]
REMARK SMILES IDX 10 1 11 2 12 3 13 4 14 5 15 6 16 7 17 8 18 9 19 10 20 11
REMARK SMILES IDX 9 12 8 13 7 14 6 15 5 16 4 17 3 18 2 19 1 20
REMARK H PARENT
REMARK Flexibility Score: inf
ROOT
ATOM      1  C   UNL     1      -2.481  25.113  56.794  1.00  0.00     0.000 C 
ENDROOT
BRANCH   1   2
ATOM      2  C   UNL     1      -3.851  24.445  56.577  1.00  0.00     0.000 C 
BRANCH   2   3
ATOM      3  C   UNL     1      -4.891  24.868  57.626  1.00  0.00     0.000 C 
BRANCH   3   4
ATOM      4  C   UNL     1      -6.184  24.041  57.541  1.00  0.00     0.000 C 
BRANCH   4   5
ATOM      5  C   UNL     1      -7.454  24.912  57.552  1.00  0.00     0.000 C 
BRANCH   5   6
ATOM      6  C   UNL     1      -7.327  26.252  58.307  1.00  0.00     0.000 C 
BRANCH   6   7
ATOM      7  C   UNL     1      -8.044  26.305  59.668  1.00  0.00     0.006 C 
BRANCH   7   8
ATOM      8  C   UNL     1      -7.233  25.652  60.794  1.00  0.00     0.053 C 
BRANCH   8   9
ATOM      9  C   UNL     1      -7.892  25.887  62.116  1.00  0.00     0.041 C 
ATOM     10  O   UNL     1      -7.239  26.391  63.068  1.00  0.00    -0.550 OA
ATOM     11  O   UNL     1      -9.240  25.596  62.284  1.00  0.00    -0.550 OA
ENDBRANCH   8   9
ENDBRANCH   7   8
ENDBRANCH   6   7
ENDBRANCH   5   6
ENDBRANCH   4   5
ENDBRANCH   3   4
ENDBRANCH   2   3
ENDBRANCH   1   2
BRANCH   1  12
ATOM     12  C   UNL     1      -2.506  26.148  57.929  1.00  0.00     0.000 C 
BRANCH  12  13
ATOM     13  C   UNL     1      -1.753  27.439  57.565  1.00  0.00    -0.000 C 
BRANCH  13  14
ATOM     14  C   UNL     1      -2.680  28.531  57.003  1.00  0.00    -0.000 C 
BRANCH  14  15
ATOM     15  C   UNL     1      -4.109  28.535  57.584  1.00  0.00    -0.000 C 
BRANCH  15  16
ATOM     16  C   UNL     1      -5.236  28.686  56.546  1.00  0.00    -0.000 C 
BRANCH  16  17
ATOM     17  C   UNL     1      -4.851  28.140  55.163  1.00  0.00    -0.000 C 
BRANCH  17  18
ATOM     18  C   UNL     1      -5.822  27.042  54.718  1.00  0.00    -0.000 C 
BRANCH  18  19
ATOM     19  C   UNL     1      -5.235  26.224  53.561  1.00  0.00    -0.003 C 
ATOM     20  C   UNL     1      -3.738  26.478  53.410  1.00  0.00     0.004 C 
ENDBRANCH  18  19
ENDBRANCH  17  18
ENDBRANCH  16  17
ENDBRANCH  15  16
ENDBRANCH  14  15
ENDBRANCH  13  14
ENDBRANCH  12  13
ENDBRANCH   1  12
TORSDOF 16
ENDMDL
MODEL 2
REMARK VINA RESULT:    -3.907      3.583      6.528
REMARK INTER + INTRA:         -10.410
REMARK INTER:                  -8.850
REMARK INTRA:                  -1.560
REMARK UNBOUND:                -2.848
REMARK SMILES CCCCCCCCCCCCCCCCCC(=O)[O-]
REMARK SMILES IDX 10 1 11 2 12 3 13 4 14 5 15 6 16 7 17 8 18 9 19 10 20 11
REMARK SMILES IDX 9 12 8 13 7 14 6 15 5 16 4 17 3 18 2 19 1 20
REMARK H PARENT
REMARK Flexibility Score: inf
ROOT
ATOM      1  C   UNL     1      -3.251  26.807  59.253  1.00  0.00     0.000 C 
ENDROOT
BRANCH   1   2
ATOM      2  C   UNL     1      -2.698  28.228  59.468  1.00  0.00     0.000 C 
BRANCH   2   3
ATOM      3  C   UNL     1      -1.599  28.595  58.459  1.00  0.00     0.000 C 
BRANCH   3   4
ATOM      4  C   UNL     1      -1.982  29.798  57.581  1.00  0.00     0.000 C 
BRANCH   4   5
ATOM      5  C   UNL     1      -3.299  29.583  56.813  1.00  0.00     0.000 C 
BRANCH   5   6
ATOM      6  C   UNL     1      -4.328  30.727  56.937  1.00  0.00     0.000 C 
BRANCH   6   7
ATOM      7  C   UNL     1      -4.830  31.301  55.601  1.00  0.00     0.006 C 
BRANCH   7   8
ATOM      8  C   UNL     1      -6.082  30.585  55.079  1.00  0.00     0.053 C 
BRANCH   8   9
ATOM      9  C   UNL     1      -7.228  31.542  54.980  1.00  0.00     0.041 C 
ATOM     10  O   UNL     1      -8.057  31.636  55.924  1.00  0.00    -0.550 OA
ATOM     11  O   UNL     1      -7.354  32.365  53.869  1.00  0.00    -0.550 OA
ENDBRANCH   8   9
ENDBRANCH   7   8
ENDBRANCH   6   7
ENDBRANCH   5   6
ENDBRANCH   4   5
ENDBRANCH   3   4
ENDBRANCH   2   3
ENDBRANCH   1   2
BRANCH   1  12
ATOM     12  C   UNL     1      -2.556  26.075  58.094  1.00  0.00     0.000 C 
BRANCH  12  13
ATOM     13  C   UNL     1      -3.498  25.833  56.902  1.00  0.00    -0.000 C 
BRANCH  13  14
ATOM     14  C   UNL     1      -4.942  25.526  57.337  1.00  0.00    -0.000 C 
BRANCH  14  15
ATOM     15  C   UNL     1      -5.891  26.741  57.349  1.00  0.00    -0.000 C 
BRANCH  15  16
ATOM     16  C   UNL     1      -7.174  26.559  58.181  1.00  0.00    -0.000 C 
BRANCH  16  17
ATOM     17  C   UNL     1      -7.028  25.497  59.280  1.00  0.00    -0.000 C 
BRANCH  17  18
ATOM     18  C   UNL     1      -7.729  25.941  60.569  1.00  0.00    -0.000 C 
BRANCH  18  19
ATOM     19  C   UNL     1      -6.708  26.281  61.661  1.00  0.00    -0.003 C 
ATOM     20  C   UNL     1      -7.344  26.226  63.047  1.00  0.00     0.004 C 
ENDBRANCH  18  19
ENDBRANCH  17  18
ENDBRANCH  16  17
ENDBRANCH  15  16
ENDBRANCH  14  15
ENDBRANCH  13  14
ENDBRANCH  12  13
ENDBRANCH   1  12
TORSDOF 16
ENDMDL
MODEL 3
REMARK VINA RESULT:    -3.897      3.739      6.276
REMARK INTER + INTRA:         -10.391
REMARK INTER:                  -8.519
REMARK INTRA:                  -1.872
REMARK UNBOUND:                -2.848
REMARK SMILES CCCCCCCCCCCCCCCCCC(=O)[O-]
REMARK SMILES IDX 10 1 11 2 12 3 13 4 14 5 15 6 16 7 17 8 18 9 19 10 20 11
REMARK SMILES IDX 9 12 8 13 7 14 6 15 5 16 4 17 3 18 2 19 1 20
REMARK H PARENT
REMARK Flexibility Score: inf
ROOT
ATOM      1  C   UNL     1      -1.686  27.421  55.651  1.00  0.00     0.000 C 
ENDROOT
BRANCH   1   2
ATOM      2  C   UNL     1      -2.621  28.573  56.064  1.00  0.00     0.000 C 
BRANCH   2   3
ATOM      3  C   UNL     1      -2.055  29.410  57.222  1.00  0.00     0.000 C 
BRANCH   3   4
ATOM      4  C   UNL     1      -3.136  30.244  57.930  1.00  0.00     0.000 C 
BRANCH   4   5
ATOM      5  C   UNL     1      -4.278  30.667  56.988  1.00  0.00     0.000 C 
BRANCH   5   6
ATOM      6  C   UNL     1      -3.963  31.863  56.066  1.00  0.00     0.000 C 
BRANCH   6   7
ATOM      7  C   UNL     1      -4.791  31.925  54.770  1.00  0.00     0.006 C 
BRANCH   7   8
ATOM      8  C   UNL     1      -5.984  30.961  54.780  1.00  0.00     0.053 C 
BRANCH   8   9
ATOM      9  C   UNL     1      -7.271  31.723  54.772  1.00  0.00     0.041 C 
ATOM     10  O   UNL     1      -7.540  32.502  53.819  1.00  0.00    -0.550 OA
ATOM     11  O   UNL     1      -8.196  31.538  55.792  1.00  0.00    -0.550 OA
ENDBRANCH   8   9
ENDBRANCH   7   8
ENDBRANCH   6   7
ENDBRANCH   5   6
ENDBRANCH   4   5
ENDBRANCH   3   4
ENDBRANCH   2   3
ENDBRANCH   1   2
BRANCH   1  12
ATOM     12  C   UNL     1      -1.312  26.515  56.835  1.00  0.00     0.000 C 
BRANCH  12  13
ATOM     13  C   UNL     1      -2.523  25.751  57.397  1.00  0.00    -0.000 C 
BRANCH  13  14
ATOM     14  C   UNL     1      -2.868  26.162  58.840  1.00  0.00    -0.000 C 
BRANCH  14  15
ATOM     15  C   UNL     1      -4.312  26.666  59.046  1.00  0.00    -0.000 C 
BRANCH  15  16
ATOM     16  C   UNL     1      -5.271  26.397  57.872  1.00  0.00    -0.000 C 
BRANCH  16  17
ATOM     17  C   UNL     1      -6.111  25.125  58.067  1.00  0.00    -0.000 C 
BRANCH  17  18
ATOM     18  C   UNL     1      -7.604  25.462  58.148  1.00  0.00    -0.000 C 
BRANCH  18  19
ATOM     19  C   UNL     1      -7.875  26.497  59.246  1.00  0.00    -0.003 C 
ATOM     20  C   UNL     1      -7.642  25.905  60.633  1.00  0.00     0.004 C 
ENDBRANCH  18  19
ENDBRANCH  17  18
ENDBRANCH  16  17
ENDBRANCH  15  16
ENDBRANCH  14  15
ENDBRANCH  13  14
ENDBRANCH  12  13
ENDBRANCH   1  12
TORSDOF 16
ENDMDL
MODEL 4
REMARK VINA RESULT:    -3.846      2.346      4.861
REMARK INTER + INTRA:         -10.292
REMARK INTER:                  -7.437
REMARK INTRA:                  -2.855
REMARK UNBOUND:                -2.848
REMARK SMILES CCCCCCCCCCCCCCCCCC(=O)[O-]
REMARK SMILES IDX 10 1 11 2 12 3 13 4 14 5 15 6 16 7 17 8 18 9 19 10 20 11
REMARK SMILES IDX 9 12 8 13 7 14 6 15 5 16 4 17 3 18 2 19 1 20
REMARK H PARENT
REMARK Flexibility Score: inf
ROOT
ATOM      1  C   UNL     1      -3.754  30.435  56.897  1.00  0.00     0.000 C 
ENDROOT
BRANCH   1   2
ATOM      2  C   UNL     1      -3.049  30.430  58.267  1.00  0.00     0.000 C 
BRANCH   2   3
ATOM      3  C   UNL     1      -1.603  29.917  58.188  1.00  0.00     0.000 C 
BRANCH   3   4
ATOM      4  C   UNL     1      -1.348  28.727  59.128  1.00  0.00     0.000 C 
BRANCH   4   5
ATOM      5  C   UNL     1      -2.643  28.017  59.561  1.00  0.00     0.000 C 
BRANCH   5   6
ATOM      6  C   UNL     1      -2.909  26.658  58.879  1.00  0.00     0.000 C 
BRANCH   6   7
ATOM      7  C   UNL     1      -4.217  25.963  59.295  1.00  0.00     0.006 C 
BRANCH   7   8
ATOM      8  C   UNL     1      -5.133  25.655  58.103  1.00  0.00     0.053 C 
BRANCH   8   9
ATOM      9  C   UNL     1      -6.298  24.826  58.541  1.00  0.00     0.041 C 
ATOM     10  O   UNL     1      -7.285  25.369  59.106  1.00  0.00    -0.550 OA
ATOM     11  O   UNL     1      -6.318  23.462  58.283  1.00  0.00    -0.550 OA
ENDBRANCH   8   9
ENDBRANCH   7   8
ENDBRANCH   6   7
ENDBRANCH   5   6
ENDBRANCH   4   5
ENDBRANCH   3   4
ENDBRANCH   2   3
ENDBRANCH   1   2
BRANCH   1  12
ATOM     12  C   UNL     1      -4.782  29.300  56.762  1.00  0.00     0.000 C 
BRANCH  12  13
ATOM     13  C   UNL     1      -4.758  28.647  55.370  1.00  0.00    -0.000 C 
BRANCH  13  14
ATOM     14  C   UNL     1      -3.730  27.507  55.265  1.00  0.00    -0.000 C 
BRANCH  14  15
ATOM     15  C   UNL     1      -2.573  27.761  54.276  1.00  0.00    -0.000 C 
BRANCH  15  16
ATOM     16  C   UNL     1      -1.218  28.091  54.927  1.00  0.00    -0.000 C 
BRANCH  16  17
ATOM     17  C   UNL     1      -0.722  26.982  55.868  1.00  0.00    -0.000 C 
BRANCH  17  18
ATOM     18  C   UNL     1       0.091  25.935  55.099  1.00  0.00    -0.000 C 
BRANCH  18  19
ATOM     19  C   UNL     1      -0.276  24.515  55.549  1.00  0.00    -0.003 C 
ATOM     20  C   UNL     1      -1.622  24.495  56.268  1.00  0.00     0.004 C 
ENDBRANCH  18  19
ENDBRANCH  17  18
ENDBRANCH  16  17
ENDBRANCH  15  16
ENDBRANCH  14  15
ENDBRANCH  13  14
ENDBRANCH  12  13
ENDBRANCH   1  12
TORSDOF 16
ENDMDL
MODEL 5
REMARK VINA RESULT:    -3.810      3.778      5.711
REMARK INTER + INTRA:         -10.221
REMARK INTER:                  -7.655
REMARK INTRA:                  -2.566
REMARK UNBOUND:                -2.848
REMARK SMILES CCCCCCCCCCCCCCCCCC(=O)[O-]
REMARK SMILES IDX 10 1 11 2 12 3 13 4 14 5 15 6 16 7 17 8 18 9 19 10 20 11
REMARK SMILES IDX 9 12 8 13 7 14 6 15 5 16 4 17 3 18 2 19 1 20
REMARK H PARENT
REMARK Flexibility Score: inf
ROOT
ATOM      1  C   UNL     1      -5.604  26.366  58.788  1.00  0.00     0.000 C 
ENDROOT
BRANCH   1   2
ATOM      2  C   UNL     1      -6.493  26.591  57.551  1.00  0.00     0.000 C 
BRANCH   2   3
ATOM      3  C   UNL     1      -5.861  26.048  56.260  1.00  0.00     0.000 C 
BRANCH   3   4
ATOM      4  C   UNL     1      -5.541  27.160  55.247  1.00  0.00     0.000 C 
BRANCH   4   5
ATOM      5  C   UNL     1      -5.259  28.517  55.916  1.00  0.00     0.000 C 
BRANCH   5   6
ATOM      6  C   UNL     1      -4.148  29.359  55.255  1.00  0.00     0.000 C 
BRANCH   6   7
ATOM      7  C   UNL     1      -4.561  30.788  54.857  1.00  0.00     0.006 C 
BRANCH   7   8
ATOM      8  C   UNL     1      -5.867  31.237  55.525  1.00  0.00     0.053 C 
BRANCH   8   9
ATOM      9  C   UNL     1      -6.899  31.557  54.490  1.00  0.00     0.041 C 
ATOM     10  O   UNL     1      -6.548  31.977  53.356  1.00  0.00    -0.550 OA
ATOM     11  O   UNL     1      -8.245  31.346  54.760  1.00  0.00    -0.550 OA
ENDBRANCH   8   9
ENDBRANCH   7   8
ENDBRANCH   6   7
ENDBRANCH   5   6
ENDBRANCH   4   5
ENDBRANCH   3   4
ENDBRANCH   2   3
ENDBRANCH   1   2
BRANCH   1  12
ATOM     12  C   UNL     1      -4.438  25.405  58.506  1.00  0.00     0.000 C 
BRANCH  12  13
ATOM     13  C   UNL     1      -3.082  25.980  58.948  1.00  0.00    -0.000 C 
BRANCH  13  14
ATOM     14  C   UNL     1      -2.436  26.873  57.874  1.00  0.00    -0.000 C 
BRANCH  14  15
ATOM     15  C   UNL     1      -1.514  26.136  56.881  1.00  0.00    -0.000 C 
BRANCH  15  16
ATOM     16  C   UNL     1      -1.922  26.253  55.401  1.00  0.00    -0.000 C 
BRANCH  16  17
ATOM     17  C   UNL     1      -2.563  24.968  54.855  1.00  0.00    -0.000 C 
BRANCH  17  18
ATOM     18  C   UNL     1      -2.482  23.835  55.885  1.00  0.00    -0.000 C 
BRANCH  18  19
ATOM     19  C   UNL     1      -3.738  22.957  55.835  1.00  0.00    -0.003 C 
ATOM     20  C   UNL     1      -3.378  21.493  55.595  1.00  0.00     0.004 C 
ENDBRANCH  18  19
ENDBRANCH  17  18
ENDBRANCH  16  17
ENDBRANCH  15  16
ENDBRANCH  14  15
ENDBRANCH  13  14
ENDBRANCH  12  13
ENDBRANCH   1  12
TORSDOF 16
ENDMDL
MODEL 6
REMARK VINA RESULT:    -3.805      3.442      5.650
REMARK INTER + INTRA:         -10.212
REMARK INTER:                  -7.599
REMARK INTRA:                  -2.613
REMARK UNBOUND:                -2.848
REMARK SMILES CCCCCCCCCCCCCCCCCC(=O)[O-]
REMARK SMILES IDX 10 1 11 2 12 3 13 4 14 5 15 6 16 7 17 8 18 9 19 10 20 11
REMARK SMILES IDX 9 12 8 13 7 14 6 15 5 16 4 17 3 18 2 19 1 20
REMARK H PARENT
REMARK Flexibility Score: inf
ROOT
ATOM      1  C   UNL     1      -4.702  24.496  56.956  1.00  0.00     0.000 C 
ENDROOT
BRANCH   1   2
ATOM      2  C   UNL     1      -5.266  25.213  55.716  1.00  0.00     0.000 C 
BRANCH   2   3
ATOM      3  C   UNL     1      -4.457  26.462  55.334  1.00  0.00     0.000 C 
BRANCH   3   4
ATOM      4  C   UNL     1      -5.321  27.733  55.289  1.00  0.00     0.000 C 
BRANCH   4   5
ATOM      5  C   UNL     1      -5.335  28.495  56.626  1.00  0.00     0.000 C 
BRANCH   5   6
ATOM      6  C   UNL     1      -4.757  29.925  56.576  1.00  0.00     0.000 C 
BRANCH   6   7
ATOM      7  C   UNL     1      -4.918  30.648  55.226  1.00  0.00     0.006 C 
BRANCH   7   8
ATOM      8  C   UNL     1      -5.748  31.933  55.336  1.00  0.00     0.053 C 
BRANCH   8   9
ATOM      9  C   UNL     1      -7.198  31.605  55.501  1.00  0.00     0.041 C 
ATOM     10  O   UNL     1      -7.893  31.283  54.501  1.00  0.00    -0.550 OA
ATOM     11  O   UNL     1      -7.772  31.606  56.766  1.00  0.00    -0.550 OA
ENDBRANCH   8   9
ENDBRANCH   7   8
ENDBRANCH   6   7
ENDBRANCH   5   6
ENDBRANCH   4   5
ENDBRANCH   3   4
ENDBRANCH   2   3
ENDBRANCH   1   2
BRANCH   1  12
ATOM     12  C   UNL     1      -5.471  24.852  58.239  1.00  0.00     0.000 C 
BRANCH  12  13
ATOM     13  C   UNL     1      -4.789  25.973  59.042  1.00  0.00    -0.000 C 
BRANCH  13  14
ATOM     14  C   UNL     1      -3.252  25.895  58.985  1.00  0.00    -0.000 C 
BRANCH  14  15
ATOM     15  C   UNL     1      -2.544  27.230  58.672  1.00  0.00    -0.000 C 
BRANCH  15  16
ATOM     16  C   UNL     1      -1.546  27.180  57.501  1.00  0.00    -0.000 C 
BRANCH  16  17
ATOM     17  C   UNL     1      -1.510  28.484  56.691  1.00  0.00    -0.000 C 
BRANCH  17  18
ATOM     18  C   UNL     1      -1.149  29.675  57.585  1.00  0.00    -0.000 C 
BRANCH  18  19
ATOM     19  C   UNL     1      -0.389  30.746  56.794  1.00  0.00    -0.003 C 
ATOM     20  C   UNL     1      -1.275  31.372  55.720  1.00  0.00     0.004 C 
ENDBRANCH  18  19
ENDBRANCH  17  18
ENDBRANCH  16  17
ENDBRANCH  15  16
ENDBRANCH  14  15
ENDBRANCH  13  14
ENDBRANCH  12  13
ENDBRANCH   1  12
TORSDOF 16
ENDMDL
MODEL 7
REMARK VINA RESULT:    -3.758      3.722      5.647
REMARK INTER + INTRA:         -10.120
REMARK INTER:                  -7.295
REMARK INTRA:                  -2.825
REMARK UNBOUND:                -2.848
REMARK SMILES CCCCCCCCCCCCCCCCCC(=O)[O-]
REMARK SMILES IDX 10 1 11 2 12 3 13 4 14 5 15 6 16 7 17 8 18 9 19 10 20 11
REMARK SMILES IDX 9 12 8 13 7 14 6 15 5 16 4 17 3 18 2 19 1 20
REMARK H PARENT
REMARK Flexibility Score: inf
ROOT
ATOM      1  C   UNL     1      -1.112  26.969  55.582  1.00  0.00     0.000 C 
ENDROOT
BRANCH   1   2
ATOM      2  C   UNL     1      -2.342  26.948  54.655  1.00  0.00     0.000 C 
BRANCH   2   3
ATOM      3  C   UNL     1      -3.278  28.145  54.884  1.00  0.00     0.000 C 
BRANCH   3   4
ATOM      4  C   UNL     1      -2.613  29.487  54.537  1.00  0.00     0.000 C 
BRANCH   4   5
ATOM      5  C   UNL     1      -2.943  30.599  55.550  1.00  0.00     0.000 C 
BRANCH   5   6
ATOM      6  C   UNL     1      -4.110  30.289  56.511  1.00  0.00     0.000 C 
BRANCH   6   7
ATOM      7  C   UNL     1      -5.377  31.135  56.294  1.00  0.00     0.006 C 
BRANCH   7   8
ATOM      8  C   UNL     1      -6.097  30.802  54.981  1.00  0.00     0.053 C 
BRANCH   8   9
ATOM      9  C   UNL     1      -7.329  31.639  54.835  1.00  0.00     0.041 C 
ATOM     10  O   UNL     1      -8.254  31.556  55.685  1.00  0.00    -0.550 OA
ATOM     11  O   UNL     1      -7.435  32.545  53.788  1.00  0.00    -0.550 OA
ENDBRANCH   8   9
ENDBRANCH   7   8
ENDBRANCH   6   7
ENDBRANCH   5   6
ENDBRANCH   4   5
ENDBRANCH   3   4
ENDBRANCH   2   3
ENDBRANCH   1   2
BRANCH   1  12
ATOM     12  C   UNL     1      -1.469  26.634  57.039  1.00  0.00     0.000 C 
BRANCH  12  13
ATOM     13  C   UNL     1      -1.528  27.885  57.932  1.00  0.00    -0.000 C 
BRANCH  13  14
ATOM     14  C   UNL     1      -2.541  27.747  59.083  1.00  0.00    -0.000 C 
BRANCH  14  15
ATOM     15  C   UNL     1      -3.601  26.643  58.890  1.00  0.00    -0.000 C 
BRANCH  15  16
ATOM     16  C   UNL     1      -4.855  27.073  58.108  1.00  0.00    -0.000 C 
BRANCH  16  17
ATOM     17  C   UNL     1      -5.344  25.998  57.125  1.00  0.00    -0.000 C 
BRANCH  17  18
ATOM     18  C   UNL     1      -4.762  24.625  57.481  1.00  0.00    -0.000 C 
BRANCH  18  19
ATOM     19  C   UNL     1      -4.021  24.015  56.286  1.00  0.00    -0.003 C 
ATOM     20  C   UNL     1      -4.812  24.199  54.994  1.00  0.00     0.004 C 
ENDBRANCH  18  19
ENDBRANCH  17  18
ENDBRANCH  16  17
ENDBRANCH  15  16
ENDBRANCH  14  15
ENDBRANCH  13  14
ENDBRANCH  12  13
ENDBRANCH   1  12
TORSDOF 16
ENDMDL
MODEL 8
REMARK VINA RESULT:    -3.754      2.699      4.549
REMARK INTER + INTRA:         -10.113
REMARK INTER:                  -7.358
REMARK INTRA:                  -2.755
REMARK UNBOUND:                -2.848
REMARK SMILES CCCCCCCCCCCCCCCCCC(=O)[O-]
REMARK SMILES IDX 10 1 11 2 12 3 13 4 14 5 15 6 16 7 17 8 18 9 19 10 20 11
REMARK SMILES IDX 9 12 8 13 7 14 6 15 5 16 4 17 3 18 2 19 1 20
REMARK H PARENT
REMARK Flexibility Score: inf
ROOT
ATOM      1  C   UNL     1      -3.408  30.566  57.680  1.00  0.00     0.000 C 
ENDROOT
BRANCH   1   2
ATOM      2  C   UNL     1      -2.647  29.656  58.661  1.00  0.00     0.000 C 
BRANCH   2   3
ATOM      3  C   UNL     1      -1.638  28.736  57.957  1.00  0.00     0.000 C 
BRANCH   3   4
ATOM      4  C   UNL     1      -1.929  27.246  58.199  1.00  0.00     0.000 C 
BRANCH   4   5
ATOM      5  C   UNL     1      -3.051  27.014  59.228  1.00  0.00     0.000 C 
BRANCH   5   6
ATOM      6  C   UNL     1      -3.867  25.720  59.032  1.00  0.00     0.000 C 
BRANCH   6   7
ATOM      7  C   UNL     1      -5.254  25.912  58.393  1.00  0.00     0.006 C 
BRANCH   7   8
ATOM      8  C   UNL     1      -5.961  24.584  58.093  1.00  0.00     0.053 C 
BRANCH   8   9
ATOM      9  C   UNL     1      -6.978  24.767  57.012  1.00  0.00     0.041 C 
ATOM     10  O   UNL     1      -7.181  25.908  56.520  1.00  0.00    -0.550 OA
ATOM     11  O   UNL     1      -7.667  23.669  56.512  1.00  0.00    -0.550 OA
ENDBRANCH   8   9
ENDBRANCH   7   8
ENDBRANCH   6   7
ENDBRANCH   5   6
ENDBRANCH   4   5
ENDBRANCH   3   4
ENDBRANCH   2   3
ENDBRANCH   1   2
BRANCH   1  12
ATOM     12  C   UNL     1      -4.215  29.768  56.644  1.00  0.00     0.000 C 
BRANCH  12  13
ATOM     13  C   UNL     1      -3.693  29.968  55.210  1.00  0.00    -0.000 C 
BRANCH  13  14
ATOM     14  C   UNL     1      -3.579  28.648  54.429  1.00  0.00    -0.000 C 
BRANCH  14  15
ATOM     15  C   UNL     1      -4.062  27.396  55.190  1.00  0.00    -0.000 C 
BRANCH  15  16
ATOM     16  C   UNL     1      -4.704  26.306  54.313  1.00  0.00    -0.000 C 
BRANCH  16  17
ATOM     17  C   UNL     1      -3.900  24.997  54.302  1.00  0.00    -0.000 C 
BRANCH  17  18
ATOM     18  C   UNL     1      -3.038  24.873  55.564  1.00  0.00    -0.000 C 
BRANCH  18  19
ATOM     19  C   UNL     1      -2.583  23.424  55.778  1.00  0.00    -0.003 C 
ATOM     20  C   UNL     1      -3.777  22.479  55.872  1.00  0.00     0.004 C 
ENDBRANCH  18  19
ENDBRANCH  17  18
ENDBRANCH  16  17
ENDBRANCH  15  16
ENDBRANCH  14  15
ENDBRANCH  13  14
ENDBRANCH  12  13
ENDBRANCH   1  12
TORSDOF 16
ENDMDL
MODEL 9
REMARK VINA RESULT:    -3.722      3.825      6.016
REMARK INTER + INTRA:         -10.052
REMARK INTER:                  -7.376
REMARK INTRA:                  -2.677
REMARK UNBOUND:                -2.848
REMARK SMILES CCCCCCCCCCCCCCCCCC(=O)[O-]
REMARK SMILES IDX 10 1 11 2 12 3 13 4 14 5 15 6 16 7 17 8 18 9 19 10 20 11
REMARK SMILES IDX 9 12 8 13 7 14 6 15 5 16 4 17 3 18 2 19 1 20
REMARK H PARENT
REMARK Flexibility Score: inf
ROOT
ATOM      1  C   UNL     1      -1.121  29.069  55.725  1.00  0.00     0.000 C 
ENDROOT
BRANCH   1   2
ATOM      2  C   UNL     1      -2.067  29.428  54.564  1.00  0.00     0.000 C 
BRANCH   2   3
ATOM      3  C   UNL     1      -2.937  28.242  54.120  1.00  0.00     0.000 C 
BRANCH   3   4
ATOM      4  C   UNL     1      -3.936  27.805  55.205  1.00  0.00     0.000 C 
BRANCH   4   5
ATOM      5  C   UNL     1      -5.139  28.758  55.330  1.00  0.00     0.000 C 
BRANCH   5   6
ATOM      6  C   UNL     1      -5.085  29.733  56.524  1.00  0.00     0.000 C 
BRANCH   6   7
ATOM      7  C   UNL     1      -5.251  31.220  56.161  1.00  0.00     0.006 C 
BRANCH   7   8
ATOM      8  C   UNL     1      -5.517  31.441  54.666  1.00  0.00     0.053 C 
BRANCH   8   9
ATOM      9  C   UNL     1      -6.881  32.019  54.459  1.00  0.00     0.041 C 
ATOM     10  O   UNL     1      -7.011  33.195  54.028  1.00  0.00    -0.550 OA
ATOM     11  O   UNL     1      -8.009  31.243  54.695  1.00  0.00    -0.550 OA
ENDBRANCH   8   9
ENDBRANCH   7   8
ENDBRANCH   6   7
ENDBRANCH   5   6
ENDBRANCH   4   5
ENDBRANCH   3   4
ENDBRANCH   2   3
ENDBRANCH   1   2
BRANCH   1  12
ATOM     12  C   UNL     1      -1.199  30.080  56.879  1.00  0.00     0.000 C 
BRANCH  12  13
ATOM     13  C   UNL     1      -1.574  29.419  58.217  1.00  0.00    -0.000 C 
BRANCH  13  14
ATOM     14  C   UNL     1      -1.878  27.917  58.073  1.00  0.00    -0.000 C 
BRANCH  14  15
ATOM     15  C   UNL     1      -3.047  27.404  58.939  1.00  0.00    -0.000 C 
BRANCH  15  16
ATOM     16  C   UNL     1      -3.215  25.873  58.968  1.00  0.00    -0.000 C 
BRANCH  16  17
ATOM     17  C   UNL     1      -4.635  25.421  58.597  1.00  0.00    -0.000 C 
BRANCH  17  18
ATOM     18  C   UNL     1      -5.564  26.627  58.413  1.00  0.00    -0.000 C 
BRANCH  18  19
ATOM     19  C   UNL     1      -6.784  26.255  57.562  1.00  0.00    -0.003 C 
ATOM     20  C   UNL     1      -7.826  25.506  58.389  1.00  0.00     0.004 C 
ENDBRANCH  18  19
ENDBRANCH  17  18
ENDBRANCH  16  17
ENDBRANCH  15  16
ENDBRANCH  14  15
ENDBRANCH  13  14
ENDBRANCH  12  13
ENDBRANCH   1  12
TORSDOF 16
ENDMDL
