MODEL 1
REMARK VINA RESULT:    -4.151      0.000      0.000
REMARK INTER + INTRA:          -4.417
REMARK INTER:                  -4.393
REMARK INTRA:                  -0.023
REMARK UNBOUND:                -0.023
REMARK SMILES O=C([O-])c1cccnc1
REMARK SMILES IDX 4 1 5 2 9 3 6 4 8 5 7 6 2 7 1 8 3 9
REMARK H PARENT
REMARK Flexibility Score: inf
ROOT
ATOM      1  C   UNL     1      32.248  13.166  15.773  1.00  0.00     0.016 A 
ATOM      2  C   UNL     1      33.472  13.155  15.083  1.00  0.00     0.013 A 
ATOM      3  C   UNL     1      32.038  14.159  16.744  1.00  0.00     0.120 A 
ATOM      4  C   UNL     1      34.446  14.113  15.368  1.00  0.00     0.021 A 
ATOM      5  N   UNL     1      33.003  15.082  17.003  1.00  0.00    -0.264 NA
ATOM      6  C   UNL     1      34.191  15.080  16.341  1.00  0.00     0.111 A 
ENDROOT
BRANCH   1   7
ATOM      7  C   UNL     1      31.204  12.160  15.486  1.00  0.00     0.073 C 
ATOM      8  O   UNL     1      31.254  11.465  14.436  1.00  0.00    -0.545 OA
ATOM      9  O   UNL     1      30.150  11.965  16.373  1.00  0.00    -0.545 OA
ENDBRANCH   1   7
TORSDOF 1
ENDMDL
MODEL 2
REMARK VINA RESULT:    -4.118      8.453      9.475
REMARK INTER + INTRA:          -4.383
REMARK INTER:                  -4.364
REMARK INTRA:                  -0.019
REMARK UNBOUND:                -0.023
REMARK SMILES O=C([O-])c1cccnc1
REMARK SMILES IDX 4 1 5 2 9 3 6 4 8 5 7 6 2 7 1 8 3 9
REMARK H PARENT
REMARK Flexibility Score: inf
ROOT
ATOM      1  C   UNL     1      38.617  18.221  11.486  1.00  0.00     0.016 A 
ATOM      2  C   UNL     1      38.479  18.448  10.106  1.00  0.00     0.013 A 
ATOM      3  C   UNL     1      39.912  18.174  12.029  1.00  0.00     0.120 A 
ATOM      4  C   UNL     1      39.611  18.619   9.308  1.00  0.00     0.021 A 
ATOM      5  N   UNL     1      40.998  18.344  11.229  1.00  0.00    -0.264 NA
ATOM      6  C   UNL     1      40.876  18.564   9.893  1.00  0.00     0.111 A 
ENDROOT
BRANCH   1   7
ATOM      7  C   UNL     1      37.431  18.036  12.350  1.00  0.00     0.073 C 
ATOM      8  O   UNL     1      36.560  17.172  12.065  1.00  0.00    -0.545 OA
ATOM      9  O   UNL     1      37.261  18.814  13.489  1.00  0.00    -0.545 OA
ENDBRANCH   1   7
TORSDOF 1
ENDMDL
MODEL 3
REMARK VINA RESULT:    -4.118      0.484      1.169
REMARK INTER + INTRA:          -4.382
REMARK INTER:                  -4.361
REMARK INTRA:                  -0.021
REMARK UNBOUND:                -0.023
REMARK SMILES O=C([O-])c1cccnc1
REMARK SMILES IDX 4 1 5 2 9 3 6 4 8 5 7 6 2 7 1 8 3 9
REMARK H PARENT
REMARK Flexibility Score: inf
ROOT
ATOM      1  C   UNL     1      31.873  12.974  15.597  1.00  0.00     0.016 A 
ATOM      2  C   UNL     1      33.127  12.858  14.972  1.00  0.00     0.013 A 
ATOM      3  C   UNL     1      31.679  14.020  16.515  1.00  0.00     0.120 A 
ATOM      4  C   UNL     1      34.144  13.767  15.268  1.00  0.00     0.021 A 
ATOM      5  N   UNL     1      32.686  14.893  16.784  1.00  0.00    -0.264 NA
ATOM      6  C   UNL     1      33.902  14.789  16.186  1.00  0.00     0.111 A 
ENDROOT
BRANCH   1   7
ATOM      7  C   UNL     1      30.782  12.022  15.299  1.00  0.00     0.073 C 
ATOM      8  O   UNL     1      29.944  11.710  16.186  1.00  0.00    -0.545 OA
ATOM      9  O   UNL     1      30.666  11.457  14.034  1.00  0.00    -0.545 OA
ENDBRANCH   1   7
TORSDOF 1
ENDMDL
MODEL 4
REMARK VINA RESULT:    -4.116      8.470      9.501
REMARK INTER + INTRA:          -4.380
REMARK INTER:                  -4.361
REMARK INTRA:                  -0.018
REMARK UNBOUND:                -0.023
REMARK SMILES O=C([O-])c1cccnc1
REMARK SMILES IDX 4 1 5 2 9 3 6 4 8 5 7 6 2 7 1 8 3 9
REMARK H PARENT
REMARK Flexibility Score: inf
ROOT
ATOM      1  C   UNL     1      38.615  18.227  11.482  1.00  0.00     0.016 A 
ATOM      2  C   UNL     1      39.914  18.176  12.015  1.00  0.00     0.013 A 
ATOM      3  C   UNL     1      38.468  18.446  10.102  1.00  0.00     0.120 A 
ATOM      4  C   UNL     1      41.021  18.344  11.181  1.00  0.00     0.021 A 
ATOM      5  N   UNL     1      39.563  18.606   9.311  1.00  0.00    -0.264 NA
ATOM      6  C   UNL     1      40.824  18.560   9.817  1.00  0.00     0.111 A 
ENDROOT
BRANCH   1   7
ATOM      7  C   UNL     1      37.429  18.052  12.347  1.00  0.00     0.073 C 
ATOM      8  O   UNL     1      36.548  17.199  12.060  1.00  0.00    -0.545 OA
ATOM      9  O   UNL     1      37.271  18.826  13.491  1.00  0.00    -0.545 OA
ENDBRANCH   1   7
TORSDOF 1
ENDMDL
MODEL 5
REMARK VINA RESULT:    -4.099      8.161      9.220
REMARK INTER + INTRA:          -4.362
REMARK INTER:                  -4.343
REMARK INTRA:                  -0.019
REMARK UNBOUND:                -0.023
REMARK SMILES O=C([O-])c1cccnc1
REMARK SMILES IDX 4 1 5 2 9 3 6 4 8 5 7 6 2 7 1 8 3 9
REMARK H PARENT
REMARK Flexibility Score: inf
ROOT
ATOM      1  C   UNL     1      37.987  18.168  10.830  1.00  0.00     0.016 A 
ATOM      2  C   UNL     1      38.343  18.353  12.177  1.00  0.00     0.013 A 
ATOM      3  C   UNL     1      36.624  18.192  10.490  1.00  0.00     0.120 A 
ATOM      4  C   UNL     1      37.355  18.554  13.142  1.00  0.00     0.021 A 
ATOM      5  N   UNL     1      35.680  18.390  11.450  1.00  0.00    -0.264 NA
ATOM      6  C   UNL     1      36.014  18.570  12.755  1.00  0.00     0.111 A 
ENDROOT
BRANCH   1   7
ATOM      7  C   UNL     1      39.018  17.953   9.792  1.00  0.00     0.073 C 
ATOM      8  O   UNL     1      38.903  17.014   8.960  1.00  0.00    -0.545 OA
ATOM      9  O   UNL     1      40.129  18.785   9.721  1.00  0.00    -0.545 OA
ENDBRANCH   1   7
TORSDOF 1
ENDMDL
MODEL 6
REMARK VINA RESULT:    -4.028      7.329      7.964
REMARK INTER + INTRA:          -4.286
REMARK INTER:                  -4.270
REMARK INTRA:                  -0.016
REMARK UNBOUND:                -0.023
REMARK SMILES O=C([O-])c1cccnc1
REMARK SMILES IDX 4 1 5 2 9 3 6 4 8 5 7 6 2 7 1 8 3 9
REMARK H PARENT
REMARK Flexibility Score: inf
ROOT
ATOM      1  C   UNL     1      35.719  18.855  12.003  1.00  0.00     0.016 A 
ATOM      2  C   UNL     1      36.673  18.831  13.035  1.00  0.00     0.013 A 
ATOM      3  C   UNL     1      36.110  18.432  10.722  1.00  0.00     0.120 A 
ATOM      4  C   UNL     1      37.974  18.396  12.777  1.00  0.00     0.021 A 
ATOM      5  N   UNL     1      37.385  18.012  10.497  1.00  0.00    -0.264 NA
ATOM      6  C   UNL     1      38.315  17.986  11.488  1.00  0.00     0.111 A 
ENDROOT
BRANCH   1   7
ATOM      7  C   UNL     1      34.335  19.311  12.255  1.00  0.00     0.073 C 
ATOM      8  O   UNL     1      33.476  18.520  12.726  1.00  0.00    -0.545 OA
ATOM      9  O   UNL     1      33.964  20.622  11.977  1.00  0.00    -0.545 OA
ENDBRANCH   1   7
TORSDOF 1
ENDMDL
MODEL 7
REMARK VINA RESULT:    -4.005      8.274      8.945
REMARK INTER + INTRA:          -4.263
REMARK INTER:                  -4.242
REMARK INTRA:                  -0.021
REMARK UNBOUND:                -0.023
REMARK SMILES O=C([O-])c1cccnc1
REMARK SMILES IDX 4 1 5 2 9 3 6 4 8 5 7 6 2 7 1 8 3 9
REMARK H PARENT
REMARK Flexibility Score: inf
ROOT
ATOM      1  C   UNL     1      37.338  18.121  10.451  1.00  0.00     0.016 A 
ATOM      2  C   UNL     1      36.079  18.355  11.031  1.00  0.00     0.013 A 
ATOM      3  C   UNL     1      38.471  18.147  11.281  1.00  0.00     0.120 A 
ATOM      4  C   UNL     1      35.975  18.606  12.400  1.00  0.00     0.021 A 
ATOM      5  N   UNL     1      38.342  18.393  12.612  1.00  0.00    -0.264 NA
ATOM      6  C   UNL     1      37.129  18.621  13.183  1.00  0.00     0.111 A 
ENDROOT
BRANCH   1   7
ATOM      7  C   UNL     1      37.471  17.854   9.003  1.00  0.00     0.073 C 
ATOM      8  O   UNL     1      38.333  17.040   8.579  1.00  0.00    -0.545 OA
ATOM      9  O   UNL     1      36.645  18.498   8.089  1.00  0.00    -0.545 OA
ENDBRANCH   1   7
TORSDOF 1
ENDMDL
MODEL 8
REMARK VINA RESULT:    -3.968     10.102     11.282
REMARK INTER + INTRA:          -4.223
REMARK INTER:                  -4.206
REMARK INTRA:                  -0.016
REMARK UNBOUND:                -0.023
REMARK SMILES O=C([O-])c1cccnc1
REMARK SMILES IDX 4 1 5 2 9 3 6 4 8 5 7 6 2 7 1 8 3 9
REMARK H PARENT
REMARK Flexibility Score: inf
ROOT
ATOM      1  C   UNL     1      40.658  18.409  10.714  1.00  0.00     0.016 A 
ATOM      2  C   UNL     1      40.103  18.150  11.979  1.00  0.00     0.013 A 
ATOM      3  C   UNL     1      39.788  18.579   9.625  1.00  0.00     0.120 A 
ATOM      4  C   UNL     1      38.718  18.065  12.132  1.00  0.00     0.021 A 
ATOM      5  N   UNL     1      38.442  18.492   9.801  1.00  0.00    -0.264 NA
ATOM      6  C   UNL     1      37.895  18.241  11.020  1.00  0.00     0.111 A 
ENDROOT
BRANCH   1   7
ATOM      7  C   UNL     1      42.122  18.503  10.530  1.00  0.00     0.073 C 
ATOM      8  O   UNL     1      42.677  19.622  10.366  1.00  0.00    -0.545 OA
ATOM      9  O   UNL     1      42.908  17.356  10.536  1.00  0.00    -0.545 OA
ENDBRANCH   1   7
TORSDOF 1
ENDMDL
MODEL 9
REMARK VINA RESULT:    -3.877      2.887      3.800
REMARK INTER + INTRA:          -4.127
REMARK INTER:                  -4.103
REMARK INTRA:                  -0.024
REMARK UNBOUND:                -0.023
REMARK SMILES O=C([O-])c1cccnc1
REMARK SMILES IDX 4 1 5 2 9 3 6 4 8 5 7 6 2 7 1 8 3 9
REMARK H PARENT
REMARK Flexibility Score: inf
ROOT
ATOM      1  C   UNL     1      32.682  13.808  14.951  1.00  0.00     0.016 A 
ATOM      2  C   UNL     1      32.637  12.404  14.980  1.00  0.00     0.013 A 
ATOM      3  C   UNL     1      31.524  14.505  14.566  1.00  0.00     0.120 A 
ATOM      4  C   UNL     1      31.464  11.733  14.631  1.00  0.00     0.021 A 
ATOM      5  N   UNL     1      30.394  13.827  14.231  1.00  0.00    -0.264 NA
ATOM      6  C   UNL     1      30.340  12.469  14.256  1.00  0.00     0.111 A 
ENDROOT
BRANCH   1   7
ATOM      7  C   UNL     1      33.914  14.539  15.316  1.00  0.00     0.073 C 
ATOM      8  O   UNL     1      34.974  13.912  15.585  1.00  0.00    -0.545 OA
ATOM      9  O   UNL     1      33.921  15.928  15.367  1.00  0.00    -0.545 OA
ENDBRANCH   1   7
TORSDOF 1
ENDMDL
