MODEL 1
REMARK VINA RESULT:    -3.101      0.000      0.000
REMARK INTER + INTRA:          -3.601
REMARK INTER:                  -3.555
REMARK INTRA:                  -0.046
REMARK UNBOUND:                -0.046
REMARK SMILES O=C([O-])c1cc(O)c(O)c(O)c1
REMARK SMILES IDX 4 1 5 2 12 3 6 4 10 5 8 6 2 7 1 8 3 9 7 10 11 12 9 14
REMARK H PARENT 7 11 11 13 9 15
REMARK Flexibility Score: inf
ROOT
ATOM      1  C   UNL     1       0.290  -8.657   8.633  1.00  0.00     0.005 A 
ATOM      2  C   UNL     1       0.550  -7.336   9.029  1.00  0.00     0.060 A 
ATOM      3  C   UNL     1      -1.042  -9.085   8.523  1.00  0.00     0.060 A 
ATOM      4  C   UNL     1      -0.496  -6.450   9.315  1.00  0.00     0.162 A 
ATOM      5  C   UNL     1      -2.097  -8.214   8.805  1.00  0.00     0.162 A 
ATOM      6  C   UNL     1      -1.837  -6.889   9.202  1.00  0.00     0.200 A 
ENDROOT
BRANCH   1   7
ATOM      7  C   UNL     1       1.407  -9.581   8.335  1.00  0.00     0.072 C 
ATOM      8  O   UNL     1       1.566 -10.042   7.173  1.00  0.00    -0.545 OA
ATOM      9  O   UNL     1       2.299  -9.953   9.334  1.00  0.00    -0.545 OA
ENDBRANCH   1   7
BRANCH   4  10
ATOM     10  O   UNL     1      -0.157  -5.152   9.704  1.00  0.00    -0.504 OA
ATOM     11  H   UNL     1       0.245  -4.915  10.599  1.00  0.00     0.293 HD
ENDBRANCH   4  10
BRANCH   5  12
ATOM     12  O   UNL     1      -3.405  -8.685   8.682  1.00  0.00    -0.504 OA
ATOM     13  H   UNL     1      -3.645  -9.660   8.818  1.00  0.00     0.293 HD
ENDBRANCH   5  12
BRANCH   6  14
ATOM     14  O   UNL     1      -2.922  -6.051   9.474  1.00  0.00    -0.502 OA
ATOM     15  H   UNL     1      -3.751  -5.992   8.900  1.00  0.00     0.293 HD
ENDBRANCH   6  14
TORSDOF 4
ENDMDL
MODEL 2
REMARK VINA RESULT:    -3.085      0.201      2.451
REMARK INTER + INTRA:          -3.581
REMARK INTER:                  -3.535
REMARK INTRA:                  -0.046
REMARK UNBOUND:                -0.046
REMARK SMILES O=C([O-])c1cc(O)c(O)c(O)c1
REMARK SMILES IDX 4 1 5 2 12 3 6 4 10 5 8 6 2 7 1 8 3 9 7 10 11 12 9 14
REMARK H PARENT 7 11 11 13 9 15
REMARK Flexibility Score: inf
ROOT
ATOM      1  C   UNL     1       0.172  -8.641   8.615  1.00  0.00     0.005 A 
ATOM      2  C   UNL     1      -1.182  -9.008   8.580  1.00  0.00     0.060 A 
ATOM      3  C   UNL     1       0.515  -7.338   9.006  1.00  0.00     0.060 A 
ATOM      4  C   UNL     1      -2.184  -8.096   8.927  1.00  0.00     0.162 A 
ATOM      5  C   UNL     1      -0.474  -6.415   9.356  1.00  0.00     0.162 A 
ATOM      6  C   UNL     1      -1.832  -6.783   9.321  1.00  0.00     0.200 A 
ENDROOT
BRANCH   1   7
ATOM      7  C   UNL     1       1.221  -9.618   8.245  1.00  0.00     0.072 C 
ATOM      8  O   UNL     1       1.262 -10.105   7.083  1.00  0.00    -0.545 OA
ATOM      9  O   UNL     1       2.177 -10.013   9.173  1.00  0.00    -0.545 OA
ENDBRANCH   1   7
BRANCH   4  10
ATOM     10  O   UNL     1      -3.509  -8.535   8.867  1.00  0.00    -0.504 OA
ATOM     11  H   UNL     1      -4.312  -7.927   8.934  1.00  0.00     0.293 HD
ENDBRANCH   4  10
BRANCH   5  12
ATOM     12  O   UNL     1      -0.086  -5.131   9.738  1.00  0.00    -0.504 OA
ATOM     13  H   UNL     1       0.587  -4.966  10.478  1.00  0.00     0.293 HD
ENDBRANCH   5  12
BRANCH   6  14
ATOM     14  O   UNL     1      -2.788  -5.828   9.678  1.00  0.00    -0.502 OA
ATOM     15  H   UNL     1      -3.080  -5.066   9.083  1.00  0.00     0.293 HD
ENDBRANCH   6  14
TORSDOF 4
ENDMDL
MODEL 3
REMARK VINA RESULT:    -3.075     10.873     12.535
REMARK INTER + INTRA:          -3.571
REMARK INTER:                  -3.526
REMARK INTRA:                  -0.045
REMARK UNBOUND:                -0.046
REMARK SMILES O=C([O-])c1cc(O)c(O)c(O)c1
REMARK SMILES IDX 4 1 5 2 12 3 6 4 10 5 8 6 2 7 1 8 3 9 7 10 11 12 9 14
REMARK H PARENT 7 11 11 13 9 15
REMARK Flexibility Score: inf
ROOT
ATOM      1  C   UNL     1      -9.181  -8.810  -0.815  1.00  0.00     0.005 A 
ATOM      2  C   UNL     1      -7.846  -9.208  -0.642  1.00  0.00     0.060 A 
ATOM      3  C   UNL     1      -9.924  -8.414   0.308  1.00  0.00     0.060 A 
ATOM      4  C   UNL     1      -7.254  -9.214   0.626  1.00  0.00     0.162 A 
ATOM      5  C   UNL     1      -9.348  -8.413   1.580  1.00  0.00     0.162 A 
ATOM      6  C   UNL     1      -8.009  -8.812   1.754  1.00  0.00     0.200 A 
ENDROOT
BRANCH   1   7
ATOM      7  C   UNL     1      -9.792  -8.811  -2.162  1.00  0.00     0.072 C 
ATOM      8  O   UNL     1     -10.110  -9.894  -2.722  1.00  0.00    -0.545 OA
ATOM      9  O   UNL     1     -10.027  -7.615  -2.831  1.00  0.00    -0.545 OA
ENDBRANCH   1   7
BRANCH   4  10
ATOM     10  O   UNL     1      -5.922  -9.622   0.717  1.00  0.00    -0.504 OA
ATOM     11  H   UNL     1      -5.313  -9.403   1.491  1.00  0.00     0.293 HD
ENDBRANCH   4  10
BRANCH   5  12
ATOM     12  O   UNL     1     -10.125  -8.010   2.667  1.00  0.00    -0.504 OA
ATOM     13  H   UNL     1      -9.847  -8.184   3.626  1.00  0.00     0.293 HD
ENDBRANCH   5  12
BRANCH   6  14
ATOM     14  O   UNL     1      -7.472  -8.796   3.044  1.00  0.00    -0.502 OA
ATOM     15  H   UNL     1      -6.896  -9.531   3.428  1.00  0.00     0.293 HD
ENDBRANCH   6  14
TORSDOF 4
ENDMDL
MODEL 4
REMARK VINA RESULT:    -3.040     21.735     22.953
REMARK INTER + INTRA:          -3.530
REMARK INTER:                  -3.478
REMARK INTRA:                  -0.053
REMARK UNBOUND:                -0.046
REMARK SMILES O=C([O-])c1cc(O)c(O)c(O)c1
REMARK SMILES IDX 4 1 5 2 12 3 6 4 10 5 8 6 2 7 1 8 3 9 7 10 11 12 9 14
REMARK H PARENT 7 11 11 13 9 15
REMARK Flexibility Score: inf
ROOT
ATOM      1  C   UNL     1      -9.921   4.200  -6.846  1.00  0.00     0.005 A 
ATOM      2  C   UNL     1      -9.945   4.617  -8.186  1.00  0.00     0.060 A 
ATOM      3  C   UNL     1      -9.967   5.168  -5.831  1.00  0.00     0.060 A 
ATOM      4  C   UNL     1     -10.012   5.975  -8.517  1.00  0.00     0.162 A 
ATOM      5  C   UNL     1     -10.034   6.528  -6.145  1.00  0.00     0.162 A 
ATOM      6  C   UNL     1     -10.057   6.946  -7.488  1.00  0.00     0.200 A 
ENDROOT
BRANCH   1   7
ATOM      7  C   UNL     1      -9.850   2.760  -6.512  1.00  0.00     0.072 C 
ATOM      8  O   UNL     1      -9.871   2.378  -5.312  1.00  0.00    -0.545 OA
ATOM      9  O   UNL     1      -9.759   1.807  -7.520  1.00  0.00    -0.545 OA
ENDBRANCH   1   7
BRANCH   4  10
ATOM     10  O   UNL     1     -10.031   6.310  -9.873  1.00  0.00    -0.504 OA
ATOM     11  H   UNL     1     -10.838   6.207 -10.471  1.00  0.00     0.293 HD
ENDBRANCH   4  10
BRANCH   5  12
ATOM     12  O   UNL     1     -10.077   7.454  -5.102  1.00  0.00    -0.504 OA
ATOM     13  H   UNL     1      -9.433   7.421  -4.321  1.00  0.00     0.293 HD
ENDBRANCH   5  12
BRANCH   6  14
ATOM     14  O   UNL     1     -10.125   8.316  -7.757  1.00  0.00    -0.502 OA
ATOM     15  H   UNL     1      -9.982   9.038  -7.066  1.00  0.00     0.293 HD
ENDBRANCH   6  14
TORSDOF 4
ENDMDL
MODEL 5
REMARK VINA RESULT:    -2.983     20.258     21.459
REMARK INTER + INTRA:          -3.465
REMARK INTER:                  -3.421
REMARK INTRA:                  -0.045
REMARK UNBOUND:                -0.046
REMARK SMILES O=C([O-])c1cc(O)c(O)c(O)c1
REMARK SMILES IDX 4 1 5 2 12 3 6 4 10 5 8 6 2 7 1 8 3 9 7 10 11 12 9 14
REMARK H PARENT 7 11 11 13 9 15
REMARK Flexibility Score: inf
ROOT
ATOM      1  C   UNL     1      -8.841   8.821  -0.239  1.00  0.00     0.005 A 
ATOM      2  C   UNL     1      -7.493   9.156  -0.444  1.00  0.00     0.060 A 
ATOM      3  C   UNL     1      -9.631   8.473  -1.345  1.00  0.00     0.060 A 
ATOM      4  C   UNL     1      -6.936   9.148  -1.728  1.00  0.00     0.162 A 
ATOM      5  C   UNL     1      -9.090   8.460  -2.633  1.00  0.00     0.162 A 
ATOM      6  C   UNL     1      -7.739   8.796  -2.839  1.00  0.00     0.200 A 
ENDROOT
BRANCH   1   7
ATOM      7  C   UNL     1      -9.415   8.836   1.125  1.00  0.00     0.072 C 
ATOM      8  O   UNL     1      -9.418   7.792   1.831  1.00  0.00    -0.545 OA
ATOM      9  O   UNL     1      -9.959  10.003   1.648  1.00  0.00    -0.545 OA
ENDBRANCH   1   7
BRANCH   4  10
ATOM     10  O   UNL     1      -5.589   9.494  -1.851  1.00  0.00    -0.504 OA
ATOM     11  H   UNL     1      -5.174   9.870  -2.691  1.00  0.00     0.293 HD
ENDBRANCH   4  10
BRANCH   5  12
ATOM     12  O   UNL     1      -9.915   8.107  -3.702  1.00  0.00    -0.504 OA
ATOM     13  H   UNL     1      -9.854   7.204  -4.159  1.00  0.00     0.293 HD
ENDBRANCH   5  12
BRANCH   6  14
ATOM     14  O   UNL     1      -7.239   8.769  -4.144  1.00  0.00    -0.502 OA
ATOM     15  H   UNL     1      -7.096   9.590  -4.713  1.00  0.00     0.293 HD
ENDBRANCH   6  14
TORSDOF 4
ENDMDL
MODEL 6
REMARK VINA RESULT:    -2.927     20.579     21.600
REMARK INTER + INTRA:          -3.400
REMARK INTER:                  -3.348
REMARK INTRA:                  -0.053
REMARK UNBOUND:                -0.046
REMARK SMILES O=C([O-])c1cc(O)c(O)c(O)c1
REMARK SMILES IDX 4 1 5 2 12 3 6 4 10 5 8 6 2 7 1 8 3 9 7 10 11 12 9 14
REMARK H PARENT 7 11 11 13 9 15
REMARK Flexibility Score: inf
ROOT
ATOM      1  C   UNL     1      -6.431   9.354  -1.627  1.00  0.00     0.005 A 
ATOM      2  C   UNL     1      -7.443   8.814  -0.820  1.00  0.00     0.060 A 
ATOM      3  C   UNL     1      -6.663   9.501  -3.003  1.00  0.00     0.060 A 
ATOM      4  C   UNL     1      -8.670   8.423  -1.368  1.00  0.00     0.162 A 
ATOM      5  C   UNL     1      -7.882   9.116  -3.566  1.00  0.00     0.162 A 
ATOM      6  C   UNL     1      -8.898   8.574  -2.757  1.00  0.00     0.200 A 
ENDROOT
BRANCH   1   7
ATOM      7  C   UNL     1      -5.138   9.762  -1.032  1.00  0.00     0.072 C 
ATOM      8  O   UNL     1      -4.987   9.785   0.219  1.00  0.00    -0.545 OA
ATOM      9  O   UNL     1      -4.071  10.125  -1.845  1.00  0.00    -0.545 OA
ENDBRANCH   1   7
BRANCH   4  10
ATOM     10  O   UNL     1      -9.628   7.894  -0.500  1.00  0.00    -0.504 OA
ATOM     11  H   UNL     1     -10.412   8.414  -0.135  1.00  0.00     0.293 HD
ENDBRANCH   4  10
BRANCH   5  12
ATOM     12  O   UNL     1      -8.067   9.281  -4.939  1.00  0.00    -0.504 OA
ATOM     13  H   UNL     1      -8.930   9.642  -5.330  1.00  0.00     0.293 HD
ENDBRANCH   5  12
BRANCH   6  14
ATOM     14  O   UNL     1     -10.102   8.202  -3.361  1.00  0.00    -0.502 OA
ATOM     15  H   UNL     1     -10.502   7.277  -3.306  1.00  0.00     0.293 HD
ENDBRANCH   6  14
TORSDOF 4
ENDMDL
MODEL 7
REMARK VINA RESULT:    -2.824     10.049     11.581
REMARK INTER + INTRA:          -3.282
REMARK INTER:                  -3.230
REMARK INTRA:                  -0.052
REMARK UNBOUND:                -0.046
REMARK SMILES O=C([O-])c1cc(O)c(O)c(O)c1
REMARK SMILES IDX 4 1 5 2 12 3 6 4 10 5 8 6 2 7 1 8 3 9 7 10 11 12 9 14
REMARK H PARENT 7 11 11 13 9 15
REMARK Flexibility Score: inf
ROOT
ATOM      1  C   UNL     1      -9.354  -1.256   6.221  1.00  0.00     0.005 A 
ATOM      2  C   UNL     1      -9.717  -2.544   6.640  1.00  0.00     0.060 A 
ATOM      3  C   UNL     1      -8.604  -0.444   7.085  1.00  0.00     0.060 A 
ATOM      4  C   UNL     1      -9.344  -3.024   7.901  1.00  0.00     0.162 A 
ATOM      5  C   UNL     1      -8.222  -0.908   8.347  1.00  0.00     0.162 A 
ATOM      6  C   UNL     1      -8.587  -2.200   8.768  1.00  0.00     0.200 A 
ENDROOT
BRANCH   1   7
ATOM      7  C   UNL     1      -9.757  -0.764   4.884  1.00  0.00     0.072 C 
ATOM      8  O   UNL     1     -10.125  -1.570   3.988  1.00  0.00    -0.545 OA
ATOM      9  O   UNL     1      -9.738   0.596   4.599  1.00  0.00    -0.545 OA
ENDBRANCH   1   7
BRANCH   4  10
ATOM     10  O   UNL     1      -9.744  -4.316   8.247  1.00  0.00    -0.504 OA
ATOM     11  H   UNL     1     -10.205  -4.955   7.616  1.00  0.00     0.293 HD
ENDBRANCH   4  10
BRANCH   5  12
ATOM     12  O   UNL     1      -7.477  -0.065   9.172  1.00  0.00    -0.504 OA
ATOM     13  H   UNL     1      -6.467  -0.128   9.241  1.00  0.00     0.293 HD
ENDBRANCH   5  12
BRANCH   6  14
ATOM     14  O   UNL     1      -8.185  -2.623  10.038  1.00  0.00    -0.502 OA
ATOM     15  H   UNL     1      -8.679  -2.407  10.892  1.00  0.00     0.293 HD
ENDBRANCH   6  14
TORSDOF 4
ENDMDL
