MODEL 1
REMARK VINA RESULT:     9.694      0.000      0.000
REMARK INTER + INTRA:          22.865
REMARK INTER:                  24.429
REMARK INTRA:                  -1.564
REMARK UNBOUND:                -1.564
REMARK SMILES CCCCCCCCCCCCCCCCCCCCCCCCCCCC(=O)[O-]
REMARK SMILES IDX 15 1 16 2 17 3 18 4 19 5 20 6 21 7 22 8 23 9 24 10 25 11
REMARK SMILES IDX 26 12 27 13 28 14 29 15 30 16 14 17 13 18 12 19 11 20 10 21
REMARK SMILES IDX 9 22 8 23 7 24 6 25 5 26 4 27 3 28 2 29 1 30
REMARK H PARENT
REMARK Flexibility Score: inf
ROOT
ATOM      1  C   UNL     1       3.754   4.085   0.640  1.00  0.00     0.000 C 
ENDROOT
BRANCH   1   2
ATOM      2  C   UNL     1       2.515   4.615  -0.103  1.00  0.00     0.000 C 
BRANCH   2   3
ATOM      3  C   UNL     1       1.797   3.524  -0.917  1.00  0.00     0.000 C 
BRANCH   3   4
ATOM      4  C   UNL     1       2.685   2.298  -1.180  1.00  0.00     0.000 C 
BRANCH   4   5
ATOM      5  C   UNL     1       1.871   1.007  -1.383  1.00  0.00     0.000 C 
BRANCH   5   6
ATOM      6  C   UNL     1       1.561   0.296  -0.047  1.00  0.00     0.000 C 
BRANCH   6   7
ATOM      7  C   UNL     1       0.509  -0.820  -0.168  1.00  0.00     0.000 C 
BRANCH   7   8
ATOM      8  C   UNL     1      -0.140  -0.884  -1.560  1.00  0.00     0.000 C 
BRANCH   8   9
ATOM      9  C   UNL     1      -1.542  -0.247  -1.607  1.00  0.00     0.000 C 
BRANCH   9  10
ATOM     10  C   UNL     1      -2.701  -1.207  -1.937  1.00  0.00     0.000 C 
BRANCH  10  11
ATOM     11  C   UNL     1      -3.658  -1.428  -0.753  1.00  0.00     0.000 C 
BRANCH  11  12
ATOM     12  C   UNL     1      -3.381  -2.740   0.007  1.00  0.00     0.006 C 
BRANCH  12  13
ATOM     13  C   UNL     1      -3.092  -3.944  -0.907  1.00  0.00     0.053 C 
BRANCH  13  14
ATOM     14  C   UNL     1      -1.781  -4.601  -0.603  1.00  0.00     0.041 C 
ATOM     15  O   UNL     1      -1.669  -5.854  -0.660  1.00  0.00    -0.550 OA
ATOM     16  O   UNL     1      -0.689  -3.830  -0.220  1.00  0.00    -0.550 OA
ENDBRANCH  13  14
ENDBRANCH  12  13
ENDBRANCH  11  12
ENDBRANCH  10  11
ENDBRANCH   9  10
ENDBRANCH   8   9
ENDBRANCH   7   8
ENDBRANCH   6   7
ENDBRANCH   5   6
ENDBRANCH   4   5
ENDBRANCH   3   4
ENDBRANCH   2   3
ENDBRANCH   1   2
BRANCH   1  17
ATOM     17  C   UNL     1       3.856   4.509   2.119  1.00  0.00     0.000 C 
BRANCH  17  18
ATOM     18  C   UNL     1       3.976   3.349   3.128  1.00  0.00     0.000 C 
BRANCH  18  19
ATOM     19  C   UNL     1       4.562   3.736   4.497  1.00  0.00     0.000 C 
BRANCH  19  20
ATOM     20  C   UNL     1       6.098   3.648   4.528  1.00  0.00     0.000 C 
BRANCH  20  21
ATOM     21  C   UNL     1       6.667   3.477   5.949  1.00  0.00     0.000 C 
BRANCH  21  22
ATOM     22  C   UNL     1       7.871   4.376   6.287  1.00  0.00    -0.000 C 
BRANCH  22  23
ATOM     23  C   UNL     1       8.228   4.366   7.785  1.00  0.00    -0.000 C 
BRANCH  23  24
ATOM     24  C   UNL     1       9.569   3.670   8.066  1.00  0.00    -0.000 C 
BRANCH  24  25
ATOM     25  C   UNL     1       9.880   3.579   9.570  1.00  0.00    -0.000 C 
BRANCH  25  26
ATOM     26  C   UNL     1       9.748   2.149  10.124  1.00  0.00    -0.000 C 
BRANCH  26  27
ATOM     27  C   UNL     1       9.748   1.036   9.060  1.00  0.00    -0.000 C 
BRANCH  27  28
ATOM     28  C   UNL     1       8.918  -0.191   9.475  1.00  0.00    -0.000 C 
BRANCH  28  29
ATOM     29  C   UNL     1       7.505  -0.177   8.870  1.00  0.00    -0.003 C 
ATOM     30  C   UNL     1       6.469  -0.853   9.767  1.00  0.00     0.004 C 
ENDBRANCH  28  29
ENDBRANCH  27  28
ENDBRANCH  26  27
ENDBRANCH  25  26
ENDBRANCH  24  25
ENDBRANCH  23  24
ENDBRANCH  22  23
ENDBRANCH  21  22
ENDBRANCH  20  21
ENDBRANCH  19  20
ENDBRANCH  18  19
ENDBRANCH  17  18
ENDBRANCH   1  17
TORSDOF 26
ENDMDL
MODEL 2
REMARK VINA RESULT:     9.736      7.356     13.622
REMARK INTER + INTRA:          22.970
REMARK INTER:                  24.380
REMARK INTRA:                  -1.410
REMARK UNBOUND:                -1.564
REMARK SMILES CCCCCCCCCCCCCCCCCCCCCCCCCCCC(=O)[O-]
REMARK SMILES IDX 15 1 16 2 17 3 18 4 19 5 20 6 21 7 22 8 23 9 24 10 25 11
REMARK SMILES IDX 26 12 27 13 28 14 29 15 30 16 14 17 13 18 12 19 11 20 10 21
REMARK SMILES IDX 9 22 8 23 7 24 6 25 5 26 4 27 3 28 2 29 1 30
REMARK H PARENT
REMARK Flexibility Score: inf
ROOT
ATOM      1  C   UNL     1      -4.133  -4.705   2.746  1.00  0.00     0.000 C 
ENDROOT
BRANCH   1   2
ATOM      2  C   UNL     1      -3.387  -3.700   1.849  1.00  0.00     0.000 C 
BRANCH   2   3
ATOM      3  C   UNL     1      -4.070  -3.498   0.485  1.00  0.00     0.000 C 
BRANCH   3   4
ATOM      4  C   UNL     1      -3.356  -4.243  -0.653  1.00  0.00     0.000 C 
BRANCH   4   5
ATOM      5  C   UNL     1      -2.417  -3.332  -1.463  1.00  0.00     0.000 C 
BRANCH   5   6
ATOM      6  C   UNL     1      -3.085  -1.992  -1.840  1.00  0.00     0.000 C 
BRANCH   6   7
ATOM      7  C   UNL     1      -2.138  -0.781  -1.763  1.00  0.00     0.000 C 
BRANCH   7   8
ATOM      8  C   UNL     1      -1.498  -0.610  -0.376  1.00  0.00     0.000 C 
BRANCH   8   9
ATOM      9  C   UNL     1      -0.121   0.080  -0.423  1.00  0.00     0.000 C 
BRANCH   9  10
ATOM     10  C   UNL     1       0.742  -0.237  -1.659  1.00  0.00     0.000 C 
BRANCH  10  11
ATOM     11  C   UNL     1       1.749   0.877  -1.994  1.00  0.00     0.000 C 
BRANCH  11  12
ATOM     12  C   UNL     1       1.756   2.014  -0.953  1.00  0.00     0.006 C 
BRANCH  12  13
ATOM     13  C   UNL     1       3.118   2.713  -0.797  1.00  0.00     0.053 C 
BRANCH  13  14
ATOM     14  C   UNL     1       3.000   4.090  -0.220  1.00  0.00     0.041 C 
ATOM     15  O   UNL     1       3.419   4.332   0.942  1.00  0.00    -0.550 OA
ATOM     16  O   UNL     1       2.392   5.102  -0.956  1.00  0.00    -0.550 OA
ENDBRANCH  13  14
ENDBRANCH  12  13
ENDBRANCH  11  12
ENDBRANCH  10  11
ENDBRANCH   9  10
ENDBRANCH   8   9
ENDBRANCH   7   8
ENDBRANCH   6   7
ENDBRANCH   5   6
ENDBRANCH   4   5
ENDBRANCH   3   4
ENDBRANCH   2   3
ENDBRANCH   1   2
BRANCH   1  17
ATOM     17  C   UNL     1      -4.681  -4.118   4.062  1.00  0.00     0.000 C 
BRANCH  17  18
ATOM     18  C   UNL     1      -6.216  -4.138   4.201  1.00  0.00     0.000 C 
BRANCH  18  19
ATOM     19  C   UNL     1      -6.739  -4.073   5.647  1.00  0.00     0.000 C 
BRANCH  19  20
ATOM     20  C   UNL     1      -7.888  -5.063   5.904  1.00  0.00     0.000 C 
BRANCH  20  21
ATOM     21  C   UNL     1      -9.021  -4.467   6.762  1.00  0.00     0.000 C 
BRANCH  21  22
ATOM     22  C   UNL     1      -9.006  -2.933   6.897  1.00  0.00    -0.000 C 
BRANCH  22  23
ATOM     23  C   UNL     1      -9.839  -2.426   8.088  1.00  0.00    -0.000 C 
BRANCH  23  24
ATOM     24  C   UNL     1      -9.262  -2.868   9.441  1.00  0.00    -0.000 C 
BRANCH  24  25
ATOM     25  C   UNL     1     -10.123  -3.943  10.125  1.00  0.00    -0.000 C 
BRANCH  25  26
ATOM     26  C   UNL     1     -10.078  -5.300   9.398  1.00  0.00    -0.000 C 
BRANCH  26  27
ATOM     27  C   UNL     1      -9.211  -6.375  10.078  1.00  0.00    -0.000 C 
BRANCH  27  28
ATOM     28  C   UNL     1      -8.510  -7.304   9.073  1.00  0.00    -0.000 C 
BRANCH  28  29
ATOM     29  C   UNL     1      -9.477  -8.309   8.428  1.00  0.00    -0.003 C 
ATOM     30  C   UNL     1      -9.707  -9.548   9.293  1.00  0.00     0.004 C 
ENDBRANCH  28  29
ENDBRANCH  27  28
ENDBRANCH  26  27
ENDBRANCH  25  26
ENDBRANCH  24  25
ENDBRANCH  23  24
ENDBRANCH  22  23
ENDBRANCH  21  22
ENDBRANCH  20  21
ENDBRANCH  19  20
ENDBRANCH  18  19
ENDBRANCH  17  18
ENDBRANCH   1  17
TORSDOF 26
ENDMDL
MODEL 3
REMARK VINA RESULT:    10.321      4.560     13.204
REMARK INTER + INTRA:          24.445
REMARK INTER:                  25.604
REMARK INTRA:                  -1.159
REMARK UNBOUND:                -1.564
REMARK SMILES CCCCCCCCCCCCCCCCCCCCCCCCCCCC(=O)[O-]
REMARK SMILES IDX 15 1 16 2 17 3 18 4 19 5 20 6 21 7 22 8 23 9 24 10 25 11
REMARK SMILES IDX 26 12 27 13 28 14 29 15 30 16 14 17 13 18 12 19 11 20 10 21
REMARK SMILES IDX 9 22 8 23 7 24 6 25 5 26 4 27 3 28 2 29 1 30
REMARK H PARENT
REMARK Flexibility Score: inf
ROOT
ATOM      1  C   UNL     1       2.668   3.863   0.231  1.00  0.00     0.000 C 
ENDROOT
BRANCH   1   2
ATOM      2  C   UNL     1       3.013   3.195   1.573  1.00  0.00     0.000 C 
BRANCH   2   3
ATOM      3  C   UNL     1       3.845   4.104   2.496  1.00  0.00     0.000 C 
BRANCH   3   4
ATOM      4  C   UNL     1       4.726   3.310   3.473  1.00  0.00     0.000 C 
BRANCH   4   5
ATOM      5  C   UNL     1       5.194   4.155   4.671  1.00  0.00     0.000 C 
BRANCH   5   6
ATOM      6  C   UNL     1       6.674   3.893   5.029  1.00  0.00     0.000 C 
BRANCH   6   7
ATOM      7  C   UNL     1       6.917   3.648   6.528  1.00  0.00     0.000 C 
BRANCH   7   8
ATOM      8  C   UNL     1       8.232   2.903   6.809  1.00  0.00     0.000 C 
BRANCH   8   9
ATOM      9  C   UNL     1       8.100   1.827   7.903  1.00  0.00     0.000 C 
BRANCH   9  10
ATOM     10  C   UNL     1       9.407   1.443   8.622  1.00  0.00     0.000 C 
BRANCH  10  11
ATOM     11  C   UNL     1      10.114   2.645   9.273  1.00  0.00     0.000 C 
BRANCH  11  12
ATOM     12  C   UNL     1       9.157   3.815   9.572  1.00  0.00     0.006 C 
BRANCH  12  13
ATOM     13  C   UNL     1       9.863   5.171   9.752  1.00  0.00     0.053 C 
BRANCH  13  14
ATOM     14  C   UNL     1       8.968   6.334   9.453  1.00  0.00     0.041 C 
ATOM     15  O   UNL     1       9.331   7.506   9.738  1.00  0.00    -0.550 OA
ATOM     16  O   UNL     1       7.713   6.121   8.892  1.00  0.00    -0.550 OA
ENDBRANCH  13  14
ENDBRANCH  12  13
ENDBRANCH  11  12
ENDBRANCH  10  11
ENDBRANCH   9  10
ENDBRANCH   8   9
ENDBRANCH   7   8
ENDBRANCH   6   7
ENDBRANCH   5   6
ENDBRANCH   4   5
ENDBRANCH   3   4
ENDBRANCH   2   3
ENDBRANCH   1   2
BRANCH   1  17
ATOM     17  C   UNL     1       3.183   3.119  -1.017  1.00  0.00     0.000 C 
BRANCH  17  18
ATOM     18  C   UNL     1       3.041   1.585  -0.972  1.00  0.00     0.000 C 
BRANCH  18  19
ATOM     19  C   UNL     1       2.038   0.995  -1.978  1.00  0.00     0.000 C 
BRANCH  19  20
ATOM     20  C   UNL     1       1.447  -0.345  -1.506  1.00  0.00     0.000 C 
BRANCH  20  21
ATOM     21  C   UNL     1       0.447  -0.191  -0.343  1.00  0.00     0.000 C 
BRANCH  21  22
ATOM     22  C   UNL     1      -0.021  -1.509   0.301  1.00  0.00    -0.000 C 
BRANCH  22  23
ATOM     23  C   UNL     1       0.594  -2.755  -0.364  1.00  0.00    -0.000 C 
BRANCH  23  24
ATOM     24  C   UNL     1      -0.463  -3.644  -1.038  1.00  0.00    -0.000 C 
BRANCH  24  25
ATOM     25  C   UNL     1      -1.515  -4.162  -0.043  1.00  0.00    -0.000 C 
BRANCH  25  26
ATOM     26  C   UNL     1      -2.912  -4.312  -0.673  1.00  0.00    -0.000 C 
BRANCH  26  27
ATOM     27  C   UNL     1      -3.459  -3.043  -1.354  1.00  0.00    -0.000 C 
BRANCH  27  28
ATOM     28  C   UNL     1      -3.248  -1.773  -0.512  1.00  0.00    -0.000 C 
BRANCH  28  29
ATOM     29  C   UNL     1      -2.810  -0.570  -1.363  1.00  0.00    -0.003 C 
ATOM     30  C   UNL     1      -1.985  -0.977  -2.584  1.00  0.00     0.004 C 
ENDBRANCH  28  29
ENDBRANCH  27  28
ENDBRANCH  26  27
ENDBRANCH  25  26
ENDBRANCH  24  25
ENDBRANCH  23  24
ENDBRANCH  22  23
ENDBRANCH  21  22
ENDBRANCH  20  21
ENDBRANCH  19  20
ENDBRANCH  18  19
ENDBRANCH  17  18
ENDBRANCH   1  17
TORSDOF 26
ENDMDL
MODEL 4
REMARK VINA RESULT:    10.530      4.591     13.457
REMARK INTER + INTRA:          24.971
REMARK INTER:                  22.716
REMARK INTRA:                   2.255
REMARK UNBOUND:                -1.564
REMARK SMILES CCCCCCCCCCCCCCCCCCCCCCCCCCCC(=O)[O-]
REMARK SMILES IDX 15 1 16 2 17 3 18 4 19 5 20 6 21 7 22 8 23 9 24 10 25 11
REMARK SMILES IDX 26 12 27 13 28 14 29 15 30 16 14 17 13 18 12 19 11 20 10 21
REMARK SMILES IDX 9 22 8 23 7 24 6 25 5 26 4 27 3 28 2 29 1 30
REMARK H PARENT
REMARK Flexibility Score: inf
ROOT
ATOM      1  C   UNL     1       2.999   4.102   1.297  1.00  0.00     0.000 C 
ENDROOT
BRANCH   1   2
ATOM      2  C   UNL     1       3.612   3.267   2.435  1.00  0.00     0.000 C 
BRANCH   2   3
ATOM      3  C   UNL     1       4.415   4.120   3.434  1.00  0.00     0.000 C 
BRANCH   3   4
ATOM      4  C   UNL     1       5.424   3.292   4.244  1.00  0.00     0.000 C 
BRANCH   4   5
ATOM      5  C   UNL     1       5.927   4.030   5.498  1.00  0.00     0.000 C 
BRANCH   5   6
ATOM      6  C   UNL     1       7.400   3.696   5.821  1.00  0.00     0.000 C 
BRANCH   6   7
ATOM      7  C   UNL     1       7.622   3.188   7.256  1.00  0.00     0.000 C 
BRANCH   7   8
ATOM      8  C   UNL     1       8.845   2.265   7.384  1.00  0.00     0.000 C 
BRANCH   8   9
ATOM      9  C   UNL     1       8.658   1.148   8.428  1.00  0.00     0.000 C 
BRANCH   9  10
ATOM     10  C   UNL     1       9.702   1.111   9.560  1.00  0.00     0.000 C 
BRANCH  10  11
ATOM     11  C   UNL     1      10.119   2.511  10.042  1.00  0.00     0.000 C 
BRANCH  11  12
ATOM     12  C   UNL     1       9.292   3.640   9.398  1.00  0.00     0.006 C 
BRANCH  12  13
ATOM     13  C   UNL     1      10.089   4.932   9.140  1.00  0.00     0.053 C 
BRANCH  13  14
ATOM     14  C   UNL     1       9.214   6.144   9.053  1.00  0.00     0.041 C 
ATOM     15  O   UNL     1       7.963   6.034   9.150  1.00  0.00    -0.550 OA
ATOM     16  O   UNL     1       9.779   7.395   8.829  1.00  0.00    -0.550 OA
ENDBRANCH  13  14
ENDBRANCH  12  13
ENDBRANCH  11  12
ENDBRANCH  10  11
ENDBRANCH   9  10
ENDBRANCH   8   9
ENDBRANCH   7   8
ENDBRANCH   6   7
ENDBRANCH   5   6
ENDBRANCH   4   5
ENDBRANCH   3   4
ENDBRANCH   2   3
ENDBRANCH   1   2
BRANCH   1  17
ATOM     17  C   UNL     1       3.487   3.730  -0.117  1.00  0.00     0.000 C 
BRANCH  17  18
ATOM     18  C   UNL     1       3.197   2.280  -0.552  1.00  0.00     0.000 C 
BRANCH  18  19
ATOM     19  C   UNL     1       1.983   2.111  -1.484  1.00  0.00     0.000 C 
BRANCH  19  20
ATOM     20  C   UNL     1       1.255   0.773  -1.267  1.00  0.00     0.000 C 
BRANCH  20  21
ATOM     21  C   UNL     1       0.076   0.877  -0.280  1.00  0.00     0.000 C 
BRANCH  21  22
ATOM     22  C   UNL     1      -0.924  -0.292  -0.326  1.00  0.00    -0.000 C 
BRANCH  22  23
ATOM     23  C   UNL     1      -0.888  -1.064  -1.658  1.00  0.00    -0.000 C 
BRANCH  23  24
ATOM     24  C   UNL     1      -2.226  -1.000  -2.411  1.00  0.00    -0.000 C 
BRANCH  24  25
ATOM     25  C   UNL     1      -3.420  -1.387  -1.523  1.00  0.00    -0.000 C 
BRANCH  25  26
ATOM     26  C   UNL     1      -2.994  -2.083  -0.217  1.00  0.00    -0.000 C 
BRANCH  26  27
ATOM     27  C   UNL     1      -2.386  -3.487  -0.395  1.00  0.00    -0.000 C 
BRANCH  27  28
ATOM     28  C   UNL     1      -3.386  -4.505  -0.970  1.00  0.00    -0.000 C 
BRANCH  28  29
ATOM     29  C   UNL     1      -2.909  -5.956  -0.802  1.00  0.00    -0.003 C 
ATOM     30  C   UNL     1      -4.054  -6.927  -0.514  1.00  0.00     0.004 C 
ENDBRANCH  28  29
ENDBRANCH  27  28
ENDBRANCH  26  27
ENDBRANCH  25  26
ENDBRANCH  24  25
ENDBRANCH  23  24
ENDBRANCH  22  23
ENDBRANCH  21  22
ENDBRANCH  20  21
ENDBRANCH  19  20
ENDBRANCH  18  19
ENDBRANCH  17  18
ENDBRANCH   1  17
TORSDOF 26
ENDMDL
MODEL 5
REMARK VINA RESULT:    10.766      6.929     12.797
REMARK INTER + INTRA:          25.566
REMARK INTER:                  27.134
REMARK INTRA:                  -1.569
REMARK UNBOUND:                -1.564
REMARK SMILES CCCCCCCCCCCCCCCCCCCCCCCCCCCC(=O)[O-]
REMARK SMILES IDX 15 1 16 2 17 3 18 4 19 5 20 6 21 7 22 8 23 9 24 10 25 11
REMARK SMILES IDX 26 12 27 13 28 14 29 15 30 16 14 17 13 18 12 19 11 20 10 21
REMARK SMILES IDX 9 22 8 23 7 24 6 25 5 26 4 27 3 28 2 29 1 30
REMARK H PARENT
REMARK Flexibility Score: inf
ROOT
ATOM      1  C   UNL     1      -3.470  -4.617   2.265  1.00  0.00     0.000 C 
ENDROOT
BRANCH   1   2
ATOM      2  C   UNL     1      -2.507  -3.917   1.289  1.00  0.00     0.000 C 
BRANCH   2   3
ATOM      3  C   UNL     1      -3.211  -3.408   0.019  1.00  0.00     0.000 C 
BRANCH   3   4
ATOM      4  C   UNL     1      -2.375  -3.628  -1.252  1.00  0.00     0.000 C 
BRANCH   4   5
ATOM      5  C   UNL     1      -2.207  -2.344  -2.083  1.00  0.00     0.000 C 
BRANCH   5   6
ATOM      6  C   UNL     1      -2.780  -1.103  -1.363  1.00  0.00     0.000 C 
BRANCH   6   7
ATOM      7  C   UNL     1      -1.838   0.114  -1.377  1.00  0.00     0.000 C 
BRANCH   7   8
ATOM      8  C   UNL     1      -0.753   0.044  -0.291  1.00  0.00     0.000 C 
BRANCH   8   9
ATOM      9  C   UNL     1       0.622  -0.391  -0.831  1.00  0.00     0.000 C 
BRANCH   9  10
ATOM     10  C   UNL     1       1.370   0.659  -1.675  1.00  0.00     0.000 C 
BRANCH  10  11
ATOM     11  C   UNL     1       2.800   0.928  -1.176  1.00  0.00     0.000 C 
BRANCH  11  12
ATOM     12  C   UNL     1       3.214   2.407  -1.308  1.00  0.00     0.006 C 
BRANCH  12  13
ATOM     13  C   UNL     1       2.814   3.279  -0.105  1.00  0.00     0.053 C 
BRANCH  13  14
ATOM     14  C   UNL     1       1.533   4.022  -0.329  1.00  0.00     0.041 C 
ATOM     15  O   UNL     1       1.542   5.272  -0.487  1.00  0.00    -0.550 OA
ATOM     16  O   UNL     1       0.322   3.338  -0.329  1.00  0.00    -0.550 OA
ENDBRANCH  13  14
ENDBRANCH  12  13
ENDBRANCH  11  12
ENDBRANCH  10  11
ENDBRANCH   9  10
ENDBRANCH   8   9
ENDBRANCH   7   8
ENDBRANCH   6   7
ENDBRANCH   5   6
ENDBRANCH   4   5
ENDBRANCH   3   4
ENDBRANCH   2   3
ENDBRANCH   1   2
BRANCH   1  17
ATOM     17  C   UNL     1      -4.036  -3.714   3.379  1.00  0.00     0.000 C 
BRANCH  17  18
ATOM     18  C   UNL     1      -5.510  -3.972   3.748  1.00  0.00     0.000 C 
BRANCH  18  19
ATOM     19  C   UNL     1      -5.753  -4.370   5.215  1.00  0.00     0.000 C 
BRANCH  19  20
ATOM     20  C   UNL     1      -7.219  -4.751   5.488  1.00  0.00     0.000 C 
BRANCH  20  21
ATOM     21  C   UNL     1      -7.769  -4.147   6.794  1.00  0.00     0.000 C 
BRANCH  21  22
ATOM     22  C   UNL     1      -8.842  -4.990   7.507  1.00  0.00    -0.000 C 
BRANCH  22  23
ATOM     23  C   UNL     1      -9.938  -4.134   8.169  1.00  0.00    -0.000 C 
BRANCH  23  24
ATOM     24  C   UNL     1      -9.752  -4.014   9.689  1.00  0.00    -0.000 C 
BRANCH  24  25
ATOM     25  C   UNL     1      -9.320  -2.601  10.118  1.00  0.00    -0.000 C 
BRANCH  25  26
ATOM     26  C   UNL     1      -9.772  -1.510   9.130  1.00  0.00    -0.000 C 
BRANCH  26  27
ATOM     27  C   UNL     1      -8.736  -0.404   8.862  1.00  0.00    -0.000 C 
BRANCH  27  28
ATOM     28  C   UNL     1      -8.378   0.400  10.124  1.00  0.00    -0.000 C 
BRANCH  28  29
ATOM     29  C   UNL     1      -6.986   1.045  10.034  1.00  0.00    -0.003 C 
ATOM     30  C   UNL     1      -5.857   0.016   9.991  1.00  0.00     0.004 C 
ENDBRANCH  28  29
ENDBRANCH  27  28
ENDBRANCH  26  27
ENDBRANCH  25  26
ENDBRANCH  24  25
ENDBRANCH  23  24
ENDBRANCH  22  23
ENDBRANCH  21  22
ENDBRANCH  20  21
ENDBRANCH  19  20
ENDBRANCH  18  19
ENDBRANCH  17  18
ENDBRANCH   1  17
TORSDOF 26
ENDMDL
MODEL 6
REMARK VINA RESULT:    10.865      1.373      1.863
REMARK INTER + INTRA:          25.815
REMARK INTER:                  25.226
REMARK INTRA:                   0.589
REMARK UNBOUND:                -1.564
REMARK SMILES CCCCCCCCCCCCCCCCCCCCCCCCCCCC(=O)[O-]
REMARK SMILES IDX 15 1 16 2 17 3 18 4 19 5 20 6 21 7 22 8 23 9 24 10 25 11
REMARK SMILES IDX 26 12 27 13 28 14 29 15 30 16 14 17 13 18 12 19 11 20 10 21
REMARK SMILES IDX 9 22 8 23 7 24 6 25 5 26 4 27 3 28 2 29 1 30
REMARK H PARENT
REMARK Flexibility Score: inf
ROOT
ATOM      1  C   UNL     1       2.596   4.217   0.198  1.00  0.00     0.000 C 
ENDROOT
BRANCH   1   2
ATOM      2  C   UNL     1       3.440   3.388  -0.787  1.00  0.00     0.000 C 
BRANCH   2   3
ATOM      3  C   UNL     1       3.180   1.876  -0.670  1.00  0.00     0.000 C 
BRANCH   3   4
ATOM      4  C   UNL     1       1.897   1.437  -1.393  1.00  0.00     0.000 C 
BRANCH   4   5
ATOM      5  C   UNL     1       2.019   0.036  -2.020  1.00  0.00     0.000 C 
BRANCH   5   6
ATOM      6  C   UNL     1       0.707  -0.772  -1.904  1.00  0.00     0.000 C 
BRANCH   6   7
ATOM      7  C   UNL     1       0.199  -0.926  -0.460  1.00  0.00     0.000 C 
BRANCH   7   8
ATOM      8  C   UNL     1      -1.202  -0.331  -0.250  1.00  0.00     0.000 C 
BRANCH   8   9
ATOM      9  C   UNL     1      -2.010  -0.201  -1.556  1.00  0.00     0.000 C 
BRANCH   9  10
ATOM     10  C   UNL     1      -2.875  -1.420  -1.929  1.00  0.00     0.000 C 
BRANCH  10  11
ATOM     11  C   UNL     1      -2.288  -2.752  -1.431  1.00  0.00     0.000 C 
BRANCH  11  12
ATOM     12  C   UNL     1      -3.254  -3.530  -0.515  1.00  0.00     0.006 C 
BRANCH  12  13
ATOM     13  C   UNL     1      -2.714  -4.894  -0.051  1.00  0.00     0.053 C 
BRANCH  13  14
ATOM     14  C   UNL     1      -3.594  -6.035  -0.460  1.00  0.00     0.041 C 
ATOM     15  O   UNL     1      -3.148  -6.947  -1.205  1.00  0.00    -0.550 OA
ATOM     16  O   UNL     1      -4.921  -6.073  -0.047  1.00  0.00    -0.550 OA
ENDBRANCH  13  14
ENDBRANCH  12  13
ENDBRANCH  11  12
ENDBRANCH  10  11
ENDBRANCH   9  10
ENDBRANCH   8   9
ENDBRANCH   7   8
ENDBRANCH   6   7
ENDBRANCH   5   6
ENDBRANCH   4   5
ENDBRANCH   3   4
ENDBRANCH   2   3
ENDBRANCH   1   2
BRANCH   1  17
ATOM     17  C   UNL     1       3.329   4.636   1.488  1.00  0.00     0.000 C 
BRANCH  17  18
ATOM     18  C   UNL     1       3.858   3.472   2.350  1.00  0.00     0.000 C 
BRANCH  18  19
ATOM     19  C   UNL     1       4.056   3.805   3.840  1.00  0.00     0.000 C 
BRANCH  19  20
ATOM     20  C   UNL     1       5.200   2.997   4.477  1.00  0.00     0.000 C 
BRANCH  20  21
ATOM     21  C   UNL     1       6.280   3.885   5.126  1.00  0.00     0.000 C 
BRANCH  21  22
ATOM     22  C   UNL     1       6.390   3.773   6.658  1.00  0.00    -0.000 C 
BRANCH  22  23
ATOM     23  C   UNL     1       7.844   3.652   7.150  1.00  0.00    -0.000 C 
BRANCH  23  24
ATOM     24  C   UNL     1       8.590   4.995   7.118  1.00  0.00    -0.000 C 
BRANCH  24  25
ATOM     25  C   UNL     1       9.168   5.379   8.491  1.00  0.00    -0.000 C 
BRANCH  25  26
ATOM     26  C   UNL     1       9.689   4.166   9.282  1.00  0.00    -0.000 C 
BRANCH  26  27
ATOM     27  C   UNL     1       9.400   2.796   8.640  1.00  0.00    -0.000 C 
BRANCH  27  28
ATOM     28  C   UNL     1      10.124   1.638   9.347  1.00  0.00    -0.000 C 
BRANCH  28  29
ATOM     29  C   UNL     1       9.166   0.510   9.759  1.00  0.00    -0.003 C 
ATOM     30  C   UNL     1       9.784  -0.879   9.606  1.00  0.00     0.004 C 
ENDBRANCH  28  29
ENDBRANCH  27  28
ENDBRANCH  26  27
ENDBRANCH  25  26
ENDBRANCH  24  25
ENDBRANCH  23  24
ENDBRANCH  22  23
ENDBRANCH  21  22
ENDBRANCH  20  21
ENDBRANCH  19  20
ENDBRANCH  18  19
ENDBRANCH  17  18
ENDBRANCH   1  17
TORSDOF 26
ENDMDL
MODEL 7
REMARK VINA RESULT:    10.874      1.256      2.276
REMARK INTER + INTRA:          25.838
REMARK INTER:                  26.532
REMARK INTRA:                  -0.694
REMARK UNBOUND:                -1.564
REMARK SMILES CCCCCCCCCCCCCCCCCCCCCCCCCCCC(=O)[O-]
REMARK SMILES IDX 15 1 16 2 17 3 18 4 19 5 20 6 21 7 22 8 23 9 24 10 25 11
REMARK SMILES IDX 26 12 27 13 28 14 29 15 30 16 14 17 13 18 12 19 11 20 10 21
REMARK SMILES IDX 9 22 8 23 7 24 6 25 5 26 4 27 3 28 2 29 1 30
REMARK H PARENT
REMARK Flexibility Score: inf
ROOT
ATOM      1  C   UNL     1       3.882   4.107   3.614  1.00  0.00     0.000 C 
ENDROOT
BRANCH   1   2
ATOM      2  C   UNL     1       3.261   3.754   2.250  1.00  0.00     0.000 C 
BRANCH   2   3
ATOM      3  C   UNL     1       4.074   4.304   1.065  1.00  0.00     0.000 C 
BRANCH   3   4
ATOM      4  C   UNL     1       3.185   4.865  -0.055  1.00  0.00     0.000 C 
BRANCH   4   5
ATOM      5  C   UNL     1       2.229   3.810  -0.640  1.00  0.00     0.000 C 
BRANCH   5   6
ATOM      6  C   UNL     1       2.797   2.379  -0.523  1.00  0.00     0.000 C 
BRANCH   6   7
ATOM      7  C   UNL     1       1.717   1.291  -0.391  1.00  0.00     0.000 C 
BRANCH   7   8
ATOM      8  C   UNL     1       1.114   0.878  -1.744  1.00  0.00     0.000 C 
BRANCH   8   9
ATOM      9  C   UNL     1      -0.396   0.582  -1.672  1.00  0.00     0.000 C 
BRANCH   9  10
ATOM     10  C   UNL     1      -0.829  -0.417  -0.582  1.00  0.00     0.000 C 
BRANCH  10  11
ATOM     11  C   UNL     1      -0.750  -1.884  -1.041  1.00  0.00     0.000 C 
BRANCH  11  12
ATOM     12  C   UNL     1      -2.089  -2.415  -1.590  1.00  0.00     0.006 C 
BRANCH  12  13
ATOM     13  C   UNL     1      -2.361  -3.892  -1.255  1.00  0.00     0.053 C 
BRANCH  13  14
ATOM     14  C   UNL     1      -3.393  -4.062  -0.183  1.00  0.00     0.041 C 
ATOM     15  O   UNL     1      -3.858  -5.203   0.077  1.00  0.00    -0.550 OA
ATOM     16  O   UNL     1      -3.869  -2.952   0.507  1.00  0.00    -0.550 OA
ENDBRANCH  13  14
ENDBRANCH  12  13
ENDBRANCH  11  12
ENDBRANCH  10  11
ENDBRANCH   9  10
ENDBRANCH   8   9
ENDBRANCH   7   8
ENDBRANCH   6   7
ENDBRANCH   5   6
ENDBRANCH   4   5
ENDBRANCH   3   4
ENDBRANCH   2   3
ENDBRANCH   1   2
BRANCH   1  17
ATOM     17  C   UNL     1       5.244   3.444   3.899  1.00  0.00     0.000 C 
BRANCH  17  18
ATOM     18  C   UNL     1       5.865   3.784   5.269  1.00  0.00     0.000 C 
BRANCH  18  19
ATOM     19  C   UNL     1       7.403   3.736   5.315  1.00  0.00     0.000 C 
BRANCH  19  20
ATOM     20  C   UNL     1       7.967   4.174   6.678  1.00  0.00     0.000 C 
BRANCH  20  21
ATOM     21  C   UNL     1       6.917   4.853   7.578  1.00  0.00     0.000 C 
BRANCH  21  22
ATOM     22  C   UNL     1       7.477   5.544   8.835  1.00  0.00    -0.000 C 
BRANCH  22  23
ATOM     23  C   UNL     1       8.953   5.956   8.687  1.00  0.00    -0.000 C 
BRANCH  23  24
ATOM     24  C   UNL     1       9.904   4.750   8.694  1.00  0.00    -0.000 C 
BRANCH  24  25
ATOM     25  C   UNL     1       9.802   3.929   9.991  1.00  0.00    -0.000 C 
BRANCH  25  26
ATOM     26  C   UNL     1      10.124   2.437   9.783  1.00  0.00    -0.000 C 
BRANCH  26  27
ATOM     27  C   UNL     1       8.972   1.597   9.202  1.00  0.00    -0.000 C 
BRANCH  27  28
ATOM     28  C   UNL     1       9.341   0.114   9.029  1.00  0.00    -0.000 C 
BRANCH  28  29
ATOM     29  C   UNL     1       8.474  -0.813   9.896  1.00  0.00    -0.003 C 
ATOM     30  C   UNL     1       6.977  -0.555   9.725  1.00  0.00     0.004 C 
ENDBRANCH  28  29
ENDBRANCH  27  28
ENDBRANCH  26  27
ENDBRANCH  25  26
ENDBRANCH  24  25
ENDBRANCH  23  24
ENDBRANCH  22  23
ENDBRANCH  21  22
ENDBRANCH  20  21
ENDBRANCH  19  20
ENDBRANCH  18  19
ENDBRANCH  17  18
ENDBRANCH   1  17
TORSDOF 26
ENDMDL
