MODEL 1
REMARK VINA RESULT:    -7.774      0.000      0.000
REMARK INTER + INTRA:          -9.702
REMARK INTER:                  -9.592
REMARK INTRA:                  -0.109
REMARK UNBOUND:                -0.109
REMARK SMILES Oc1cc(O)c2cc(O)c(-c3cc(O)c(O)c(O)c3)[o+]c2c1
REMARK SMILES IDX 10 1 20 2 21 3 22 4 2 5 3 6 4 7 6 8 7 9 8 10 11 11 12 12
REMARK SMILES IDX 13 13 19 14 15 15 17 16 14 17 16 19 18 21 9 23 1 25 5 27
REMARK H PARENT 14 18 16 20 18 22 9 24 1 26 5 28
REMARK Flexibility Score: inf
ROOT
ATOM      1  C   UNL     1      23.156  24.394  34.532  1.00  0.00     0.402 A 
ATOM      2  O   UNL     1      22.470  23.696  35.438  1.00  0.00    -0.202 OA
ATOM      3  C   UNL     1      22.799  22.462  35.807  1.00  0.00     0.368 A 
ATOM      4  C   UNL     1      22.029  21.799  36.767  1.00  0.00     0.162 A 
ATOM      5  C   UNL     1      22.368  20.500  37.167  1.00  0.00     0.128 A 
ATOM      6  C   UNL     1      23.479  19.863  36.604  1.00  0.00     0.093 A 
ATOM      7  C   UNL     1      24.259  20.515  35.638  1.00  0.00     0.136 A 
ATOM      8  C   UNL     1      23.919  21.822  35.236  1.00  0.00     0.125 A 
ATOM      9  C   UNL     1      24.657  22.517  34.272  1.00  0.00     0.078 A 
ATOM     10  C   UNL     1      24.273  23.810  33.902  1.00  0.00     0.223 A 
ENDROOT
BRANCH   1  11
ATOM     11  C   UNL     1      22.697  25.764  34.210  1.00  0.00     0.091 A 
ATOM     12  C   UNL     1      23.580  26.857  34.234  1.00  0.00     0.068 A 
ATOM     13  C   UNL     1      23.125  28.148  33.949  1.00  0.00     0.162 A 
ATOM     14  C   UNL     1      21.340  25.990  33.929  1.00  0.00     0.068 A 
ATOM     15  C   UNL     1      21.770  28.364  33.647  1.00  0.00     0.200 A 
ATOM     16  C   UNL     1      20.876  27.280  33.641  1.00  0.00     0.162 A 
BRANCH  13  17
ATOM     17  O   UNL     1      24.034  29.205  33.978  1.00  0.00    -0.504 OA
ATOM     18  H   UNL     1      24.171  29.776  34.804  1.00  0.00     0.293 HD
ENDBRANCH  13  17
BRANCH  15  19
ATOM     19  O   UNL     1      21.325  29.655  33.359  1.00  0.00    -0.502 OA
ATOM     20  H   UNL     1      21.440  30.424  34.010  1.00  0.00     0.293 HD
ENDBRANCH  15  19
BRANCH  16  21
ATOM     21  O   UNL     1      19.528  27.487  33.349  1.00  0.00    -0.504 OA
ATOM     22  H   UNL     1      19.019  28.279  33.723  1.00  0.00     0.293 HD
ENDBRANCH  16  21
ENDBRANCH   1  11
BRANCH  10  23
ATOM     23  O   UNL     1      24.974  24.490  32.906  1.00  0.00    -0.500 OA
ATOM     24  H   UNL     1      25.077  25.497  32.922  1.00  0.00     0.294 HD
ENDBRANCH  10  23
BRANCH   5  25
ATOM     25  O   UNL     1      21.608  19.833  38.125  1.00  0.00    -0.507 OA
ATOM     26  H   UNL     1      21.955  19.006  38.596  1.00  0.00     0.293 HD
ENDBRANCH   5  25
BRANCH   7  27
ATOM     27  O   UNL     1      25.363  19.869  35.082  1.00  0.00    -0.507 OA
ATOM     28  H   UNL     1      25.323  18.898  34.796  1.00  0.00     0.293 HD
ENDBRANCH   7  27
TORSDOF 7
ENDMDL
MODEL 2
REMARK VINA RESULT:    -7.467      1.046      6.922
REMARK INTER + INTRA:          -9.323
REMARK INTER:                  -9.415
REMARK INTRA:                   0.092
REMARK UNBOUND:                -0.109
REMARK SMILES Oc1cc(O)c2cc(O)c(-c3cc(O)c(O)c(O)c3)[o+]c2c1
REMARK SMILES IDX 10 1 20 2 21 3 22 4 2 5 3 6 4 7 6 8 7 9 8 10 11 11 12 12
REMARK SMILES IDX 13 13 19 14 15 15 17 16 14 17 16 19 18 21 9 23 1 25 5 27
REMARK H PARENT 14 18 16 20 18 22 9 24 1 26 5 28
REMARK Flexibility Score: inf
ROOT
ATOM      1  C   UNL     1      23.454  24.153  35.260  1.00  0.00     0.402 A 
ATOM      2  O   UNL     1      22.268  24.719  35.030  1.00  0.00    -0.202 OA
ATOM      3  C   UNL     1      22.129  25.970  34.604  1.00  0.00     0.368 A 
ATOM      4  C   UNL     1      20.849  26.488  34.384  1.00  0.00     0.162 A 
ATOM      5  C   UNL     1      20.690  27.804  33.931  1.00  0.00     0.128 A 
ATOM      6  C   UNL     1      21.815  28.603  33.699  1.00  0.00     0.093 A 
ATOM      7  C   UNL     1      23.104  28.098  33.918  1.00  0.00     0.136 A 
ATOM      8  C   UNL     1      23.265  26.775  34.372  1.00  0.00     0.125 A 
ATOM      9  C   UNL     1      24.527  26.221  34.614  1.00  0.00     0.078 A 
ATOM     10  C   UNL     1      24.632  24.904  35.073  1.00  0.00     0.223 A 
ENDROOT
BRANCH   1  11
ATOM     11  C   UNL     1      23.480  22.748  35.724  1.00  0.00     0.091 A 
ATOM     12  C   UNL     1      24.495  21.863  35.321  1.00  0.00     0.068 A 
ATOM     13  C   UNL     1      24.493  20.532  35.752  1.00  0.00     0.162 A 
ATOM     14  C   UNL     1      22.443  22.271  36.540  1.00  0.00     0.068 A 
ATOM     15  C   UNL     1      23.463  20.066  36.587  1.00  0.00     0.200 A 
ATOM     16  C   UNL     1      22.434  20.939  36.978  1.00  0.00     0.162 A 
BRANCH  13  17
ATOM     17  O   UNL     1      25.520  19.687  35.333  1.00  0.00    -0.504 OA
ATOM     18  H   UNL     1      26.348  20.036  34.866  1.00  0.00     0.293 HD
ENDBRANCH  13  17
BRANCH  15  19
ATOM     19  O   UNL     1      23.471  18.738  37.015  1.00  0.00    -0.502 OA
ATOM     20  H   UNL     1      22.819  18.050  36.657  1.00  0.00     0.293 HD
ENDBRANCH  15  19
BRANCH  16  21
ATOM     21  O   UNL     1      21.405  20.482  37.800  1.00  0.00    -0.504 OA
ATOM     22  H   UNL     1      20.821  21.121  38.326  1.00  0.00     0.293 HD
ENDBRANCH  16  21
ENDBRANCH   1  11
BRANCH  10  23
ATOM     23  O   UNL     1      25.884  24.362  35.363  1.00  0.00    -0.500 OA
ATOM     24  H   UNL     1      26.601  24.270  34.654  1.00  0.00     0.294 HD
ENDBRANCH  10  23
BRANCH   5  25
ATOM     25  O   UNL     1      19.419  28.327  33.707  1.00  0.00    -0.507 OA
ATOM     26  H   UNL     1      19.241  29.324  33.748  1.00  0.00     0.293 HD
ENDBRANCH   5  25
BRANCH   7  27
ATOM     27  O   UNL     1      24.218  28.906  33.684  1.00  0.00    -0.507 OA
ATOM     28  H   UNL     1      24.903  29.089  34.408  1.00  0.00     0.293 HD
ENDBRANCH   7  27
TORSDOF 7
ENDMDL
MODEL 3
REMARK VINA RESULT:    -7.413      1.035      7.080
REMARK INTER + INTRA:          -9.256
REMARK INTER:                  -9.426
REMARK INTRA:                   0.170
REMARK UNBOUND:                -0.109
REMARK SMILES Oc1cc(O)c2cc(O)c(-c3cc(O)c(O)c(O)c3)[o+]c2c1
REMARK SMILES IDX 10 1 20 2 21 3 22 4 2 5 3 6 4 7 6 8 7 9 8 10 11 11 12 12
REMARK SMILES IDX 13 13 19 14 15 15 17 16 14 17 16 19 18 21 9 23 1 25 5 27
REMARK H PARENT 14 18 16 20 18 22 9 24 1 26 5 28
REMARK Flexibility Score: inf
ROOT
ATOM      1  C   UNL     1      23.393  24.115  35.226  1.00  0.00     0.402 A 
ATOM      2  O   UNL     1      22.210  24.686  35.000  1.00  0.00    -0.202 OA
ATOM      3  C   UNL     1      22.075  25.939  34.580  1.00  0.00     0.368 A 
ATOM      4  C   UNL     1      20.797  26.463  34.363  1.00  0.00     0.162 A 
ATOM      5  C   UNL     1      20.641  27.782  33.917  1.00  0.00     0.128 A 
ATOM      6  C   UNL     1      21.769  28.578  33.688  1.00  0.00     0.093 A 
ATOM      7  C   UNL     1      23.057  28.067  33.904  1.00  0.00     0.136 A 
ATOM      8  C   UNL     1      23.213  26.741  34.352  1.00  0.00     0.125 A 
ATOM      9  C   UNL     1      24.473  26.182  34.590  1.00  0.00     0.078 A 
ATOM     10  C   UNL     1      24.574  24.862  35.042  1.00  0.00     0.223 A 
ENDROOT
BRANCH   1  11
ATOM     11  C   UNL     1      23.415  22.707  35.684  1.00  0.00     0.091 A 
ATOM     12  C   UNL     1      22.432  22.205  36.555  1.00  0.00     0.068 A 
ATOM     13  C   UNL     1      22.481  20.878  36.995  1.00  0.00     0.162 A 
ATOM     14  C   UNL     1      24.468  21.868  35.287  1.00  0.00     0.068 A 
ATOM     15  C   UNL     1      23.526  20.037  36.577  1.00  0.00     0.200 A 
ATOM     16  C   UNL     1      24.523  20.537  35.723  1.00  0.00     0.162 A 
BRANCH  13  17
ATOM     17  O   UNL     1      21.484  20.417  37.854  1.00  0.00    -0.504 OA
ATOM     18  H   UNL     1      20.854  19.667  37.595  1.00  0.00     0.293 HD
ENDBRANCH  13  17
BRANCH  15  19
ATOM     19  O   UNL     1      23.564  18.714  37.018  1.00  0.00    -0.502 OA
ATOM     20  H   UNL     1      23.092  18.412  37.862  1.00  0.00     0.293 HD
ENDBRANCH  15  19
BRANCH  16  21
ATOM     21  O   UNL     1      25.568  19.711  35.309  1.00  0.00    -0.504 OA
ATOM     22  H   UNL     1      25.726  18.803  35.728  1.00  0.00     0.293 HD
ENDBRANCH  16  21
ENDBRANCH   1  11
BRANCH  10  23
ATOM     23  O   UNL     1      25.824  24.314  35.330  1.00  0.00    -0.500 OA
ATOM     24  H   UNL     1      26.126  23.437  34.922  1.00  0.00     0.294 HD
ENDBRANCH  10  23
BRANCH   5  25
ATOM     25  O   UNL     1      19.372  28.310  33.697  1.00  0.00    -0.507 OA
ATOM     26  H   UNL     1      19.181  29.298  33.817  1.00  0.00     0.293 HD
ENDBRANCH   5  25
BRANCH   7  27
ATOM     27  O   UNL     1      24.173  28.872  33.674  1.00  0.00    -0.507 OA
ATOM     28  H   UNL     1      24.158  29.868  33.862  1.00  0.00     0.293 HD
ENDBRANCH   7  27
TORSDOF 7
ENDMDL
MODEL 4
REMARK VINA RESULT:    -7.329      1.177      3.329
REMARK INTER + INTRA:          -9.151
REMARK INTER:                  -8.980
REMARK INTRA:                  -0.171
REMARK UNBOUND:                -0.109
REMARK SMILES Oc1cc(O)c2cc(O)c(-c3cc(O)c(O)c(O)c3)[o+]c2c1
REMARK SMILES IDX 10 1 20 2 21 3 22 4 2 5 3 6 4 7 6 8 7 9 8 10 11 11 12 12
REMARK SMILES IDX 13 13 19 14 15 15 17 16 14 17 16 19 18 21 9 23 1 25 5 27
REMARK H PARENT 14 18 16 20 18 22 9 24 1 26 5 28
REMARK Flexibility Score: inf
ROOT
ATOM      1  C   UNL     1      23.080  24.453  34.725  1.00  0.00     0.402 A 
ATOM      2  O   UNL     1      24.059  23.937  33.983  1.00  0.00    -0.202 OA
ATOM      3  C   UNL     1      24.578  22.732  34.199  1.00  0.00     0.368 A 
ATOM      4  C   UNL     1      25.601  22.261  33.371  1.00  0.00     0.162 A 
ATOM      5  C   UNL     1      26.154  20.992  33.587  1.00  0.00     0.128 A 
ATOM      6  C   UNL     1      25.682  20.194  34.634  1.00  0.00     0.093 A 
ATOM      7  C   UNL     1      24.658  20.655  35.474  1.00  0.00     0.136 A 
ATOM      8  C   UNL     1      24.101  21.930  35.257  1.00  0.00     0.125 A 
ATOM      9  C   UNL     1      23.083  22.443  36.068  1.00  0.00     0.078 A 
ATOM     10  C   UNL     1      22.569  23.719  35.815  1.00  0.00     0.223 A 
ENDROOT
BRANCH   1  11
ATOM     11  C   UNL     1      22.577  25.803  34.380  1.00  0.00     0.091 A 
ATOM     12  C   UNL     1      21.217  26.030  34.112  1.00  0.00     0.068 A 
ATOM     13  C   UNL     1      20.762  27.307  33.765  1.00  0.00     0.162 A 
ATOM     14  C   UNL     1      23.483  26.868  34.263  1.00  0.00     0.068 A 
ATOM     15  C   UNL     1      21.671  28.374  33.672  1.00  0.00     0.200 A 
ATOM     16  C   UNL     1      23.036  28.151  33.919  1.00  0.00     0.162 A 
BRANCH  13  17
ATOM     17  O   UNL     1      19.404  27.493  33.512  1.00  0.00    -0.504 OA
ATOM     18  H   UNL     1      19.044  27.624  32.574  1.00  0.00     0.293 HD
ENDBRANCH  13  17
BRANCH  15  19
ATOM     19  O   UNL     1      21.208  29.646  33.330  1.00  0.00    -0.502 OA
ATOM     20  H   UNL     1      20.608  29.805  32.530  1.00  0.00     0.293 HD
ENDBRANCH  15  19
BRANCH  16  21
ATOM     21  O   UNL     1      23.946  29.203  33.820  1.00  0.00    -0.504 OA
ATOM     22  H   UNL     1      23.813  30.070  34.327  1.00  0.00     0.293 HD
ENDBRANCH  16  21
ENDBRANCH   1  11
BRANCH  10  23
ATOM     23  O   UNL     1      21.590  24.257  36.649  1.00  0.00    -0.500 OA
ATOM     24  H   UNL     1      20.669  23.841  36.725  1.00  0.00     0.294 HD
ENDBRANCH  10  23
BRANCH   5  25
ATOM     25  O   UNL     1      27.172  20.514  32.765  1.00  0.00    -0.507 OA
ATOM     26  H   UNL     1      27.547  19.579  32.875  1.00  0.00     0.293 HD
ENDBRANCH   5  25
BRANCH   7  27
ATOM     27  O   UNL     1      24.197  19.849  36.516  1.00  0.00    -0.507 OA
ATOM     28  H   UNL     1      23.934  18.883  36.365  1.00  0.00     0.293 HD
ENDBRANCH   7  27
TORSDOF 7
ENDMDL
MODEL 5
REMARK VINA RESULT:    -7.296      1.435      6.924
REMARK INTER + INTRA:          -9.111
REMARK INTER:                  -8.778
REMARK INTRA:                  -0.333
REMARK UNBOUND:                -0.109
REMARK SMILES Oc1cc(O)c2cc(O)c(-c3cc(O)c(O)c(O)c3)[o+]c2c1
REMARK SMILES IDX 10 1 20 2 21 3 22 4 2 5 3 6 4 7 6 8 7 9 8 10 11 11 12 12
REMARK SMILES IDX 13 13 19 14 15 15 17 16 14 17 16 19 18 21 9 23 1 25 5 27
REMARK H PARENT 14 18 16 20 18 22 9 24 1 26 5 28
REMARK Flexibility Score: inf
ROOT
ATOM      1  C   UNL     1      23.254  25.030  34.698  1.00  0.00     0.402 A 
ATOM      2  O   UNL     1      21.939  25.245  34.655  1.00  0.00    -0.202 OA
ATOM      3  C   UNL     1      21.404  26.435  34.400  1.00  0.00     0.368 A 
ATOM      4  C   UNL     1      20.013  26.576  34.370  1.00  0.00     0.162 A 
ATOM      5  C   UNL     1      19.438  27.825  34.099  1.00  0.00     0.128 A 
ATOM      6  C   UNL     1      20.256  28.933  33.857  1.00  0.00     0.093 A 
ATOM      7  C   UNL     1      21.653  28.806  33.887  1.00  0.00     0.136 A 
ATOM      8  C   UNL     1      22.232  27.552  34.159  1.00  0.00     0.125 A 
ATOM      9  C   UNL     1      23.618  27.370  34.208  1.00  0.00     0.078 A 
ATOM     10  C   UNL     1      24.143  26.104  34.490  1.00  0.00     0.223 A 
ENDROOT
BRANCH   1  11
ATOM     11  C   UNL     1      23.729  23.658  34.983  1.00  0.00     0.091 A 
ATOM     12  C   UNL     1      24.287  22.852  33.975  1.00  0.00     0.068 A 
ATOM     13  C   UNL     1      24.711  21.549  34.257  1.00  0.00     0.162 A 
ATOM     14  C   UNL     1      23.572  23.126  36.272  1.00  0.00     0.068 A 
ATOM     15  C   UNL     1      24.570  21.030  35.556  1.00  0.00     0.200 A 
ATOM     16  C   UNL     1      23.996  21.822  36.564  1.00  0.00     0.162 A 
BRANCH  13  17
ATOM     17  O   UNL     1      25.263  20.783  33.231  1.00  0.00    -0.504 OA
ATOM     18  H   UNL     1      24.706  20.146  32.675  1.00  0.00     0.293 HD
ENDBRANCH  13  17
BRANCH  15  19
ATOM     19  O   UNL     1      25.000  19.731  35.829  1.00  0.00    -0.502 OA
ATOM     20  H   UNL     1      24.716  18.938  35.266  1.00  0.00     0.293 HD
ENDBRANCH  15  19
BRANCH  16  21
ATOM     21  O   UNL     1      23.846  21.312  37.853  1.00  0.00    -0.504 OA
ATOM     22  H   UNL     1      23.572  21.902  38.630  1.00  0.00     0.293 HD
ENDBRANCH  16  21
ENDBRANCH   1  11
BRANCH  10  23
ATOM     23  O   UNL     1      25.522  25.925  34.590  1.00  0.00    -0.500 OA
ATOM     24  H   UNL     1      26.107  25.833  33.768  1.00  0.00     0.294 HD
ENDBRANCH  10  23
BRANCH   5  25
ATOM     25  O   UNL     1      18.053  27.974  34.065  1.00  0.00    -0.507 OA
ATOM     26  H   UNL     1      17.599  28.546  33.363  1.00  0.00     0.293 HD
ENDBRANCH   5  25
BRANCH   7  27
ATOM     27  O   UNL     1      22.458  29.920  33.647  1.00  0.00    -0.507 OA
ATOM     28  H   UNL     1      22.946  30.395  34.397  1.00  0.00     0.293 HD
ENDBRANCH   7  27
TORSDOF 7
ENDMDL
MODEL 6
REMARK VINA RESULT:    -7.217      1.171      2.795
REMARK INTER + INTRA:          -9.013
REMARK INTER:                  -8.940
REMARK INTRA:                  -0.073
REMARK UNBOUND:                -0.109
REMARK SMILES Oc1cc(O)c2cc(O)c(-c3cc(O)c(O)c(O)c3)[o+]c2c1
REMARK SMILES IDX 10 1 20 2 21 3 22 4 2 5 3 6 4 7 6 8 7 9 8 10 11 11 12 12
REMARK SMILES IDX 13 13 19 14 15 15 17 16 14 17 16 19 18 21 9 23 1 25 5 27
REMARK H PARENT 14 18 16 20 18 22 9 24 1 26 5 28
REMARK Flexibility Score: inf
ROOT
ATOM      1  C   UNL     1      23.162  24.493  34.706  1.00  0.00     0.402 A 
ATOM      2  O   UNL     1      24.160  23.958  34.002  1.00  0.00    -0.202 OA
ATOM      3  C   UNL     1      24.649  22.745  34.239  1.00  0.00     0.368 A 
ATOM      4  C   UNL     1      25.695  22.255  33.452  1.00  0.00     0.162 A 
ATOM      5  C   UNL     1      26.217  20.977  33.690  1.00  0.00     0.128 A 
ATOM      6  C   UNL     1      25.690  20.188  34.719  1.00  0.00     0.093 A 
ATOM      7  C   UNL     1      24.642  20.668  35.518  1.00  0.00     0.136 A 
ATOM      8  C   UNL     1      24.117  21.952  35.279  1.00  0.00     0.125 A 
ATOM      9  C   UNL     1      23.077  22.484  36.049  1.00  0.00     0.078 A 
ATOM     10  C   UNL     1      22.597  23.769  35.776  1.00  0.00     0.223 A 
ENDROOT
BRANCH   1  11
ATOM     11  C   UNL     1      22.697  25.850  34.341  1.00  0.00     0.091 A 
ATOM     12  C   UNL     1      23.592  26.930  34.247  1.00  0.00     0.068 A 
ATOM     13  C   UNL     1      23.132  28.210  33.923  1.00  0.00     0.162 A 
ATOM     14  C   UNL     1      21.327  26.079  34.138  1.00  0.00     0.068 A 
ATOM     15  C   UNL     1      21.762  28.429  33.699  1.00  0.00     0.200 A 
ATOM     16  C   UNL     1      20.859  27.359  33.811  1.00  0.00     0.162 A 
BRANCH  13  17
ATOM     17  O   UNL     1      24.052  29.254  33.834  1.00  0.00    -0.504 OA
ATOM     18  H   UNL     1      24.789  29.265  33.139  1.00  0.00     0.293 HD
ENDBRANCH  13  17
BRANCH  15  19
ATOM     19  O   UNL     1      21.313  29.709  33.371  1.00  0.00    -0.502 OA
ATOM     20  H   UNL     1      21.011  30.372  34.076  1.00  0.00     0.293 HD
ENDBRANCH  15  19
BRANCH  16  21
ATOM     21  O   UNL     1      19.496  27.569  33.598  1.00  0.00    -0.504 OA
ATOM     22  H   UNL     1      19.142  27.895  32.707  1.00  0.00     0.293 HD
ENDBRANCH  16  21
ENDBRANCH   1  11
BRANCH  10  23
ATOM     23  O   UNL     1      21.595  24.325  36.570  1.00  0.00    -0.500 OA
ATOM     24  H   UNL     1      21.072  25.140  36.274  1.00  0.00     0.294 HD
ENDBRANCH  10  23
BRANCH   5  25
ATOM     25  O   UNL     1      27.258  20.480  32.909  1.00  0.00    -0.507 OA
ATOM     26  H   UNL     1      27.337  20.708  31.925  1.00  0.00     0.293 HD
ENDBRANCH   5  25
BRANCH   7  27
ATOM     27  O   UNL     1      24.127  19.872  36.542  1.00  0.00    -0.507 OA
ATOM     28  H   UNL     1      23.744  20.277  37.388  1.00  0.00     0.293 HD
ENDBRANCH   7  27
TORSDOF 7
ENDMDL
MODEL 7
REMARK VINA RESULT:    -7.041      1.705      7.054
REMARK INTER + INTRA:          -8.797
REMARK INTER:                  -8.591
REMARK INTRA:                  -0.205
REMARK UNBOUND:                -0.109
REMARK SMILES Oc1cc(O)c2cc(O)c(-c3cc(O)c(O)c(O)c3)[o+]c2c1
REMARK SMILES IDX 10 1 20 2 21 3 22 4 2 5 3 6 4 7 6 8 7 9 8 10 11 11 12 12
REMARK SMILES IDX 13 13 19 14 15 15 17 16 14 17 16 19 18 21 9 23 1 25 5 27
REMARK H PARENT 14 18 16 20 18 22 9 24 1 26 5 28
REMARK Flexibility Score: inf
ROOT
ATOM      1  C   UNL     1      24.097  24.169  34.110  1.00  0.00     0.402 A 
ATOM      2  O   UNL     1      22.820  24.219  33.730  1.00  0.00    -0.202 OA
ATOM      3  C   UNL     1      22.131  25.353  33.642  1.00  0.00     0.368 A 
ATOM      4  C   UNL     1      20.795  25.320  33.232  1.00  0.00     0.162 A 
ATOM      5  C   UNL     1      20.059  26.508  33.132  1.00  0.00     0.128 A 
ATOM      6  C   UNL     1      20.663  27.731  33.445  1.00  0.00     0.093 A 
ATOM      7  C   UNL     1      22.002  27.778  33.860  1.00  0.00     0.136 A 
ATOM      8  C   UNL     1      22.741  26.584  33.960  1.00  0.00     0.125 A 
ATOM      9  C   UNL     1      24.077  26.572  34.375  1.00  0.00     0.078 A 
ATOM     10  C   UNL     1      24.766  25.358  34.465  1.00  0.00     0.223 A 
ENDROOT
BRANCH   1  11
ATOM     11  C   UNL     1      24.760  22.846  34.160  1.00  0.00     0.091 A 
ATOM     12  C   UNL     1      24.335  21.847  35.052  1.00  0.00     0.068 A 
ATOM     13  C   UNL     1      24.988  20.611  35.102  1.00  0.00     0.162 A 
ATOM     14  C   UNL     1      25.873  22.601  33.340  1.00  0.00     0.068 A 
ATOM     15  C   UNL     1      26.087  20.363  34.263  1.00  0.00     0.200 A 
ATOM     16  C   UNL     1      26.531  21.364  33.383  1.00  0.00     0.162 A 
BRANCH  13  17
ATOM     17  O   UNL     1      24.532  19.644  35.997  1.00  0.00    -0.504 OA
ATOM     18  H   UNL     1      25.133  18.906  36.345  1.00  0.00     0.293 HD
ENDBRANCH  13  17
BRANCH  15  19
ATOM     19  O   UNL     1      26.729  19.126  34.316  1.00  0.00    -0.502 OA
ATOM     20  H   UNL     1      27.485  18.936  34.965  1.00  0.00     0.293 HD
ENDBRANCH  15  19
BRANCH  16  21
ATOM     21  O   UNL     1      27.627  21.129  32.552  1.00  0.00    -0.504 OA
ATOM     22  H   UNL     1      28.259  21.873  32.282  1.00  0.00     0.293 HD
ENDBRANCH  16  21
ENDBRANCH   1  11
BRANCH  10  23
ATOM     23  O   UNL     1      26.082  25.332  34.926  1.00  0.00    -0.500 OA
ATOM     24  H   UNL     1      26.869  25.390  34.291  1.00  0.00     0.294 HD
ENDBRANCH  10  23
BRANCH   5  25
ATOM     25  O   UNL     1      18.728  26.485  32.722  1.00  0.00    -0.507 OA
ATOM     26  H   UNL     1      18.195  27.339  32.605  1.00  0.00     0.293 HD
ENDBRANCH   5  25
BRANCH   7  27
ATOM     27  O   UNL     1      22.591  29.004  34.171  1.00  0.00    -0.507 OA
ATOM     28  H   UNL     1      22.274  29.563  34.954  1.00  0.00     0.293 HD
ENDBRANCH   7  27
TORSDOF 7
ENDMDL
MODEL 8
REMARK VINA RESULT:    -7.025      1.966      2.288
REMARK INTER + INTRA:          -8.776
REMARK INTER:                  -8.393
REMARK INTRA:                  -0.384
REMARK UNBOUND:                -0.109
REMARK SMILES Oc1cc(O)c2cc(O)c(-c3cc(O)c(O)c(O)c3)[o+]c2c1
REMARK SMILES IDX 10 1 20 2 21 3 22 4 2 5 3 6 4 7 6 8 7 9 8 10 11 11 12 12
REMARK SMILES IDX 13 13 19 14 15 15 17 16 14 17 16 19 18 21 9 23 1 25 5 27
REMARK H PARENT 14 18 16 20 18 22 9 24 1 26 5 28
REMARK Flexibility Score: inf
ROOT
ATOM      1  C   UNL     1      22.250  25.408  34.138  1.00  0.00     0.402 A 
ATOM      2  O   UNL     1      22.743  25.004  35.310  1.00  0.00    -0.202 OA
ATOM      3  C   UNL     1      23.494  23.916  35.448  1.00  0.00     0.368 A 
ATOM      4  C   UNL     1      23.975  23.563  36.712  1.00  0.00     0.162 A 
ATOM      5  C   UNL     1      24.770  22.420  36.869  1.00  0.00     0.128 A 
ATOM      6  C   UNL     1      25.083  21.629  35.759  1.00  0.00     0.093 A 
ATOM      7  C   UNL     1      24.605  21.970  34.485  1.00  0.00     0.136 A 
ATOM      8  C   UNL     1      23.806  23.119  34.326  1.00  0.00     0.125 A 
ATOM      9  C   UNL     1      23.297  23.502  33.081  1.00  0.00     0.078 A 
ATOM     10  C   UNL     1      22.501  24.648  32.978  1.00  0.00     0.223 A 
ENDROOT
BRANCH   1  11
ATOM     11  C   UNL     1      21.434  26.643  34.110  1.00  0.00     0.091 A 
ATOM     12  C   UNL     1      22.009  27.893  33.823  1.00  0.00     0.068 A 
ATOM     13  C   UNL     1      21.228  29.053  33.823  1.00  0.00     0.162 A 
ATOM     14  C   UNL     1      20.070  26.576  34.430  1.00  0.00     0.068 A 
ATOM     15  C   UNL     1      19.857  28.977  34.122  1.00  0.00     0.200 A 
ATOM     16  C   UNL     1      19.279  27.734  34.430  1.00  0.00     0.162 A 
BRANCH  13  17
ATOM     17  O   UNL     1      21.834  30.274  33.528  1.00  0.00    -0.504 OA
ATOM     18  H   UNL     1      22.822  30.436  33.684  1.00  0.00     0.293 HD
ENDBRANCH  13  17
BRANCH  15  19
ATOM     19  O   UNL     1      19.084  30.139  34.115  1.00  0.00    -0.502 OA
ATOM     20  H   UNL     1      18.295  30.259  33.491  1.00  0.00     0.293 HD
ENDBRANCH  15  19
BRANCH  16  21
ATOM     21  O   UNL     1      17.921  27.651  34.736  1.00  0.00    -0.504 OA
ATOM     22  H   UNL     1      17.445  28.385  35.244  1.00  0.00     0.293 HD
ENDBRANCH  16  21
ENDBRANCH   1  11
BRANCH  10  23
ATOM     23  O   UNL     1      21.949  25.009  31.749  1.00  0.00    -0.500 OA
ATOM     24  H   UNL     1      22.390  24.755  30.873  1.00  0.00     0.294 HD
ENDBRANCH  10  23
BRANCH   5  25
ATOM     25  O   UNL     1      25.255  22.063  38.125  1.00  0.00    -0.507 OA
ATOM     26  H   UNL     1      24.664  21.607  38.811  1.00  0.00     0.293 HD
ENDBRANCH   5  25
BRANCH   7  27
ATOM     27  O   UNL     1      24.922  21.172  33.386  1.00  0.00    -0.507 OA
ATOM     28  H   UNL     1      25.812  20.691  33.317  1.00  0.00     0.293 HD
ENDBRANCH   7  27
TORSDOF 7
ENDMDL
MODEL 9
REMARK VINA RESULT:    -6.959      3.525      7.243
REMARK INTER + INTRA:          -8.695
REMARK INTER:                  -9.079
REMARK INTRA:                   0.384
REMARK UNBOUND:                -0.109
REMARK SMILES Oc1cc(O)c2cc(O)c(-c3cc(O)c(O)c(O)c3)[o+]c2c1
REMARK SMILES IDX 10 1 20 2 21 3 22 4 2 5 3 6 4 7 6 8 7 9 8 10 11 11 12 12
REMARK SMILES IDX 13 13 19 14 15 15 17 16 14 17 16 19 18 21 9 23 1 25 5 27
REMARK H PARENT 14 18 16 20 18 22 9 24 1 26 5 28
REMARK Flexibility Score: inf
ROOT
ATOM      1  C   UNL     1      25.402  22.053  34.296  1.00  0.00     0.402 A 
ATOM      2  O   UNL     1      26.606  21.515  34.100  1.00  0.00    -0.202 OA
ATOM      3  C   UNL     1      27.519  22.049  33.295  1.00  0.00     0.368 A 
ATOM      4  C   UNL     1      28.760  21.424  33.146  1.00  0.00     0.162 A 
ATOM      5  C   UNL     1      29.732  21.979  32.303  1.00  0.00     0.128 A 
ATOM      6  C   UNL     1      29.460  23.162  31.608  1.00  0.00     0.093 A 
ATOM      7  C   UNL     1      28.218  23.798  31.745  1.00  0.00     0.136 A 
ATOM      8  C   UNL     1      27.241  23.241  32.592  1.00  0.00     0.125 A 
ATOM      9  C   UNL     1      25.983  23.830  32.762  1.00  0.00     0.078 A 
ATOM     10  C   UNL     1      25.044  23.232  33.610  1.00  0.00     0.223 A 
ENDROOT
BRANCH   1  11
ATOM     11  C   UNL     1      24.473  21.370  35.224  1.00  0.00     0.091 A 
ATOM     12  C   UNL     1      23.210  21.909  35.525  1.00  0.00     0.068 A 
ATOM     13  C   UNL     1      22.354  21.262  36.422  1.00  0.00     0.162 A 
ATOM     14  C   UNL     1      24.880  20.188  35.863  1.00  0.00     0.068 A 
ATOM     15  C   UNL     1      22.758  20.068  37.041  1.00  0.00     0.200 A 
ATOM     16  C   UNL     1      24.027  19.533  36.761  1.00  0.00     0.162 A 
BRANCH  13  17
ATOM     17  O   UNL     1      21.107  21.827  36.690  1.00  0.00    -0.504 OA
ATOM     18  H   UNL     1      20.242  21.355  36.457  1.00  0.00     0.293 HD
ENDBRANCH  13  17
BRANCH  15  19
ATOM     19  O   UNL     1      21.896  19.426  37.931  1.00  0.00    -0.502 OA
ATOM     20  H   UNL     1      22.179  19.173  38.870  1.00  0.00     0.293 HD
ENDBRANCH  15  19
BRANCH  16  21
ATOM     21  O   UNL     1      24.439  18.351  37.377  1.00  0.00    -0.504 OA
ATOM     22  H   UNL     1      24.035  18.038  38.251  1.00  0.00     0.293 HD
ENDBRANCH  16  21
ENDBRANCH   1  11
BRANCH  10  23
ATOM     23  O   UNL     1      23.771  23.785  33.745  1.00  0.00    -0.500 OA
ATOM     24  H   UNL     1      22.934  23.236  33.591  1.00  0.00     0.294 HD
ENDBRANCH  10  23
BRANCH   5  25
ATOM     25  O   UNL     1      30.973  21.364  32.151  1.00  0.00    -0.507 OA
ATOM     26  H   UNL     1      31.196  20.818  31.327  1.00  0.00     0.293 HD
ENDBRANCH   5  25
BRANCH   7  27
ATOM     27  O   UNL     1      27.958  24.977  31.044  1.00  0.00    -0.507 OA
ATOM     28  H   UNL     1      28.670  25.430  30.484  1.00  0.00     0.293 HD
ENDBRANCH   7  27
TORSDOF 7
ENDMDL
