MODEL 1
REMARK VINA RESULT:    -1.581      0.000      0.000
REMARK INTER + INTRA:          -2.792
REMARK INTER:                  -2.228
REMARK INTRA:                  -0.564
REMARK UNBOUND:                -0.564
REMARK SMILES CCCCCCCCC(=O)[O-]
REMARK SMILES IDX 6 1 7 2 8 3 9 4 10 5 11 6 5 7 4 8 3 9 2 10 1 11
REMARK H PARENT
REMARK Flexibility Score: inf
ROOT
ATOM      1  C   UNL     1      14.292 -33.608   2.082  1.00  0.00     0.000 C 
ENDROOT
BRANCH   1   2
ATOM      2  C   UNL     1      13.681 -32.199   2.013  1.00  0.00     0.006 C 
BRANCH   2   3
ATOM      3  C   UNL     1      14.063 -31.326   3.216  1.00  0.00     0.053 C 
BRANCH   3   4
ATOM      4  C   UNL     1      14.998 -30.238   2.794  1.00  0.00     0.041 C 
ATOM      5  O   UNL     1      14.578 -29.058   2.657  1.00  0.00    -0.550 OA
ATOM      6  O   UNL     1      16.345 -30.515   2.599  1.00  0.00    -0.550 OA
ENDBRANCH   3   4
ENDBRANCH   2   3
ENDBRANCH   1   2
BRANCH   1   7
ATOM      7  C   UNL     1      15.288 -33.876   0.940  1.00  0.00     0.000 C 
BRANCH   7   8
ATOM      8  C   UNL     1      14.732 -34.852  -0.109  1.00  0.00    -0.000 C 
BRANCH   8   9
ATOM      9  C   UNL     1      14.264 -34.144  -1.391  1.00  0.00    -0.000 C 
BRANCH   9  10
ATOM     10  C   UNL     1      12.749 -33.908  -1.363  1.00  0.00    -0.003 C 
ATOM     11  C   UNL     1      12.416 -32.437  -1.591  1.00  0.00     0.004 C 
ENDBRANCH   9  10
ENDBRANCH   8   9
ENDBRANCH   7   8
ENDBRANCH   1   7
TORSDOF 7
ENDMDL
MODEL 2
REMARK VINA RESULT:    -1.576      2.423      3.985
REMARK INTER + INTRA:          -2.785
REMARK INTER:                  -2.082
REMARK INTRA:                  -0.703
REMARK UNBOUND:                -0.564
REMARK SMILES CCCCCCCCC(=O)[O-]
REMARK SMILES IDX 6 1 7 2 8 3 9 4 10 5 11 6 5 7 4 8 3 9 2 10 1 11
REMARK H PARENT
REMARK Flexibility Score: inf
ROOT
ATOM      1  C   UNL     1      13.760 -34.895  -1.342  1.00  0.00     0.000 C 
ENDROOT
BRANCH   1   2
ATOM      2  C   UNL     1      13.343 -33.416  -1.396  1.00  0.00     0.006 C 
BRANCH   2   3
ATOM      3  C   UNL     1      12.317 -33.050  -0.315  1.00  0.00     0.053 C 
BRANCH   3   4
ATOM      4  C   UNL     1      12.051 -31.579  -0.326  1.00  0.00     0.041 C 
ATOM      5  O   UNL     1      12.024 -30.930   0.754  1.00  0.00    -0.550 OA
ATOM      6  O   UNL     1      11.881 -30.912  -1.532  1.00  0.00    -0.550 OA
ENDBRANCH   3   4
ENDBRANCH   2   3
ENDBRANCH   1   2
BRANCH   1   7
ATOM      7  C   UNL     1      15.270 -35.074  -1.108  1.00  0.00     0.000 C 
BRANCH   7   8
ATOM      8  C   UNL     1      15.609 -35.361   0.363  1.00  0.00    -0.000 C 
BRANCH   8   9
ATOM      9  C   UNL     1      16.371 -34.208   1.035  1.00  0.00    -0.000 C 
BRANCH   9  10
ATOM     10  C   UNL     1      15.417 -33.316   1.839  1.00  0.00    -0.003 C 
ATOM     11  C   UNL     1      14.323 -34.142   2.510  1.00  0.00     0.004 C 
ENDBRANCH   9  10
ENDBRANCH   8   9
ENDBRANCH   7   8
ENDBRANCH   1   7
TORSDOF 7
ENDMDL
MODEL 3
REMARK VINA RESULT:    -1.555      1.387      1.666
REMARK INTER + INTRA:          -2.755
REMARK INTER:                  -2.294
REMARK INTRA:                  -0.461
REMARK UNBOUND:                -0.564
REMARK SMILES CCCCCCCCC(=O)[O-]
REMARK SMILES IDX 6 1 7 2 8 3 9 4 10 5 11 6 5 7 4 8 3 9 2 10 1 11
REMARK H PARENT
REMARK Flexibility Score: inf
ROOT
ATOM      1  C   UNL     1      15.835 -32.711   2.776  1.00  0.00     0.000 C 
ENDROOT
BRANCH   1   2
ATOM      2  C   UNL     1      14.724 -31.660   2.617  1.00  0.00     0.006 C 
BRANCH   2   3
ATOM      3  C   UNL     1      15.245 -30.223   2.752  1.00  0.00     0.053 C 
BRANCH   3   4
ATOM      4  C   UNL     1      14.166 -29.244   2.414  1.00  0.00     0.041 C 
ATOM      5  O   UNL     1      13.246 -29.565   1.615  1.00  0.00    -0.550 OA
ATOM      6  O   UNL     1      14.147 -27.994   3.018  1.00  0.00    -0.550 OA
ENDBRANCH   3   4
ENDBRANCH   2   3
ENDBRANCH   1   2
BRANCH   1   7
ATOM      7  C   UNL     1      15.877 -33.707   1.604  1.00  0.00     0.000 C 
BRANCH   7   8
ATOM      8  C   UNL     1      14.490 -33.952   0.989  1.00  0.00    -0.000 C 
BRANCH   8   9
ATOM      9  C   UNL     1      14.551 -34.255  -0.516  1.00  0.00    -0.000 C 
BRANCH   9  10
ATOM     10  C   UNL     1      13.362 -33.624  -1.251  1.00  0.00    -0.003 C 
ATOM     11  C   UNL     1      12.527 -32.761  -0.310  1.00  0.00     0.004 C 
ENDBRANCH   9  10
ENDBRANCH   8   9
ENDBRANCH   7   8
ENDBRANCH   1   7
TORSDOF 7
ENDMDL
MODEL 4
REMARK VINA RESULT:    -1.528      3.482      5.558
REMARK INTER + INTRA:          -2.717
REMARK INTER:                  -2.333
REMARK INTRA:                  -0.384
REMARK UNBOUND:                -0.564
REMARK SMILES CCCCCCCCC(=O)[O-]
REMARK SMILES IDX 6 1 7 2 8 3 9 4 10 5 11 6 5 7 4 8 3 9 2 10 1 11
REMARK H PARENT
REMARK Flexibility Score: inf
ROOT
ATOM      1  C   UNL     1      16.393 -33.778   1.676  1.00  0.00     0.000 C 
ENDROOT
BRANCH   1   2
ATOM      2  C   UNL     1      15.713 -34.432   0.462  1.00  0.00     0.006 C 
BRANCH   2   3
ATOM      3  C   UNL     1      14.256 -33.983   0.285  1.00  0.00     0.053 C 
BRANCH   3   4
ATOM      4  C   UNL     1      13.898 -33.938  -1.166  1.00  0.00     0.041 C 
ATOM      5  O   UNL     1      14.443 -34.729  -1.980  1.00  0.00    -0.550 OA
ATOM      6  O   UNL     1      12.925 -33.053  -1.614  1.00  0.00    -0.550 OA
ENDBRANCH   3   4
ENDBRANCH   2   3
ENDBRANCH   1   2
BRANCH   1   7
ATOM      7  C   UNL     1      15.477 -32.774   2.396  1.00  0.00     0.000 C 
BRANCH   7   8
ATOM      8  C   UNL     1      16.202 -31.467   2.757  1.00  0.00    -0.000 C 
BRANCH   8   9
ATOM      9  C   UNL     1      17.704 -31.671   3.010  1.00  0.00    -0.000 C 
BRANCH   9  10
ATOM     10  C   UNL     1      18.518 -30.496   2.455  1.00  0.00    -0.003 C 
ATOM     11  C   UNL     1      19.712 -30.987   1.642  1.00  0.00     0.004 C 
ENDBRANCH   9  10
ENDBRANCH   8   9
ENDBRANCH   7   8
ENDBRANCH   1   7
TORSDOF 7
ENDMDL
MODEL 5
REMARK VINA RESULT:    -1.519      2.786      4.632
REMARK INTER + INTRA:          -2.705
REMARK INTER:                  -2.087
REMARK INTRA:                  -0.617
REMARK UNBOUND:                -0.564
REMARK SMILES CCCCCCCCC(=O)[O-]
REMARK SMILES IDX 6 1 7 2 8 3 9 4 10 5 11 6 5 7 4 8 3 9 2 10 1 11
REMARK H PARENT
REMARK Flexibility Score: inf
ROOT
ATOM      1  C   UNL     1      16.403 -34.649   0.342  1.00  0.00     0.000 C 
ENDROOT
BRANCH   1   2
ATOM      2  C   UNL     1      14.867 -34.617   0.302  1.00  0.00     0.006 C 
BRANCH   2   3
ATOM      3  C   UNL     1      14.317 -34.183  -1.063  1.00  0.00     0.053 C 
BRANCH   3   4
ATOM      4  C   UNL     1      13.033 -33.436  -0.894  1.00  0.00     0.041 C 
ATOM      5  O   UNL     1      12.291 -33.664   0.098  1.00  0.00    -0.550 OA
ATOM      6  O   UNL     1      12.676 -32.452  -1.807  1.00  0.00    -0.550 OA
ENDBRANCH   3   4
ENDBRANCH   2   3
ENDBRANCH   1   2
BRANCH   1   7
ATOM      7  C   UNL     1      16.965 -34.310   1.733  1.00  0.00     0.000 C 
BRANCH   7   8
ATOM      8  C   UNL     1      15.880 -33.813   2.702  1.00  0.00    -0.000 C 
BRANCH   8   9
ATOM      9  C   UNL     1      16.238 -32.470   3.359  1.00  0.00    -0.000 C 
BRANCH   9  10
ATOM     10  C   UNL     1      15.495 -31.313   2.680  1.00  0.00    -0.003 C 
ATOM     11  C   UNL     1      14.024 -31.653   2.463  1.00  0.00     0.004 C 
ENDBRANCH   9  10
ENDBRANCH   8   9
ENDBRANCH   7   8
ENDBRANCH   1   7
TORSDOF 7
ENDMDL
MODEL 6
REMARK VINA RESULT:    -1.511      2.292      2.731
REMARK INTER + INTRA:          -2.693
REMARK INTER:                  -1.921
REMARK INTRA:                  -0.772
REMARK UNBOUND:                -0.564
REMARK SMILES CCCCCCCCC(=O)[O-]
REMARK SMILES IDX 6 1 7 2 8 3 9 4 10 5 11 6 5 7 4 8 3 9 2 10 1 11
REMARK H PARENT
REMARK Flexibility Score: inf
ROOT
ATOM      1  C   UNL     1      15.974 -34.345   1.846  1.00  0.00     0.000 C 
ENDROOT
BRANCH   1   2
ATOM      2  C   UNL     1      15.841 -32.864   2.236  1.00  0.00     0.006 C 
BRANCH   2   3
ATOM      3  C   UNL     1      14.393 -32.360   2.167  1.00  0.00     0.053 C 
BRANCH   3   4
ATOM      4  C   UNL     1      13.498 -33.233   2.986  1.00  0.00     0.041 C 
ATOM      5  O   UNL     1      13.605 -33.253   4.241  1.00  0.00    -0.550 OA
ATOM      6  O   UNL     1      12.511 -33.991   2.368  1.00  0.00    -0.550 OA
ENDBRANCH   3   4
ENDBRANCH   2   3
ENDBRANCH   1   2
BRANCH   1   7
ATOM      7  C   UNL     1      16.918 -34.557   0.650  1.00  0.00     0.000 C 
BRANCH   7   8
ATOM      8  C   UNL     1      16.255 -35.345  -0.491  1.00  0.00    -0.000 C 
BRANCH   8   9
ATOM      9  C   UNL     1      14.727 -35.180  -0.519  1.00  0.00    -0.000 C 
BRANCH   9  10
ATOM     10  C   UNL     1      14.308 -34.131  -1.555  1.00  0.00    -0.003 C 
ATOM     11  C   UNL     1      13.044 -33.396  -1.117  1.00  0.00     0.004 C 
ENDBRANCH   9  10
ENDBRANCH   8   9
ENDBRANCH   7   8
ENDBRANCH   1   7
TORSDOF 7
ENDMDL
MODEL 7
REMARK VINA RESULT:    -1.500      2.068      3.258
REMARK INTER + INTRA:          -2.678
REMARK INTER:                  -2.085
REMARK INTRA:                  -0.592
REMARK UNBOUND:                -0.564
REMARK SMILES CCCCCCCCC(=O)[O-]
REMARK SMILES IDX 6 1 7 2 8 3 9 4 10 5 11 6 5 7 4 8 3 9 2 10 1 11
REMARK H PARENT
REMARK Flexibility Score: inf
ROOT
ATOM      1  C   UNL     1      14.641 -34.817   0.060  1.00  0.00     0.000 C 
ENDROOT
BRANCH   1   2
ATOM      2  C   UNL     1      16.008 -34.385   0.615  1.00  0.00     0.006 C 
BRANCH   2   3
ATOM      3  C   UNL     1      15.889 -33.513   1.872  1.00  0.00     0.053 C 
BRANCH   3   4
ATOM      4  C   UNL     1      17.246 -33.163   2.394  1.00  0.00     0.041 C 
ATOM      5  O   UNL     1      17.386 -32.766   3.581  1.00  0.00    -0.550 OA
ATOM      6  O   UNL     1      18.364 -33.322   1.585  1.00  0.00    -0.550 OA
ENDBRANCH   3   4
ENDBRANCH   2   3
ENDBRANCH   1   2
BRANCH   1   7
ATOM      7  C   UNL     1      14.340 -34.196  -1.316  1.00  0.00     0.000 C 
BRANCH   7   8
ATOM      8  C   UNL     1      13.023 -33.403  -1.329  1.00  0.00    -0.000 C 
BRANCH   8   9
ATOM      9  C   UNL     1      12.455 -33.169   0.080  1.00  0.00    -0.000 C 
BRANCH   9  10
ATOM     10  C   UNL     1      12.295 -31.671   0.365  1.00  0.00    -0.003 C 
ATOM     11  C   UNL     1      12.827 -31.312   1.749  1.00  0.00     0.004 C 
ENDBRANCH   9  10
ENDBRANCH   8   9
ENDBRANCH   7   8
ENDBRANCH   1   7
TORSDOF 7
ENDMDL
MODEL 8
REMARK VINA RESULT:    -1.482      7.472      9.108
REMARK INTER + INTRA:          -2.652
REMARK INTER:                  -1.824
REMARK INTRA:                  -0.828
REMARK UNBOUND:                -0.564
REMARK SMILES CCCCCCCCC(=O)[O-]
REMARK SMILES IDX 6 1 7 2 8 3 9 4 10 5 11 6 5 7 4 8 3 9 2 10 1 11
REMARK H PARENT
REMARK Flexibility Score: inf
ROOT
ATOM      1  C   UNL     1      19.861 -28.950  -0.315  1.00  0.00     0.000 C 
ENDROOT
BRANCH   1   2
ATOM      2  C   UNL     1      20.262 -30.080   0.647  1.00  0.00     0.006 C 
BRANCH   2   3
ATOM      3  C   UNL     1      21.714 -30.539   0.450  1.00  0.00     0.053 C 
BRANCH   3   4
ATOM      4  C   UNL     1      22.647 -29.663   1.224  1.00  0.00     0.041 C 
ATOM      5  O   UNL     1      23.729 -29.276   0.707  1.00  0.00    -0.550 OA
ATOM      6  O   UNL     1      22.301 -29.234   2.498  1.00  0.00    -0.550 OA
ENDBRANCH   3   4
ENDBRANCH   2   3
ENDBRANCH   1   2
BRANCH   1   7
ATOM      7  C   UNL     1      20.554 -29.066  -1.684  1.00  0.00     0.000 C 
BRANCH   7   8
ATOM      8  C   UNL     1      21.232 -27.755  -2.114  1.00  0.00    -0.000 C 
BRANCH   8   9
ATOM      9  C   UNL     1      21.015 -26.614  -1.108  1.00  0.00    -0.000 C 
BRANCH   9  10
ATOM     10  C   UNL     1      22.332 -26.230  -0.423  1.00  0.00    -0.003 C 
ATOM     11  C   UNL     1      22.124 -25.971   1.067  1.00  0.00     0.004 C 
ENDBRANCH   9  10
ENDBRANCH   8   9
ENDBRANCH   7   8
ENDBRANCH   1   7
TORSDOF 7
ENDMDL
MODEL 9
REMARK VINA RESULT:    -1.480      7.136      8.645
REMARK INTER + INTRA:          -2.649
REMARK INTER:                  -2.034
REMARK INTRA:                  -0.615
REMARK UNBOUND:                -0.564
REMARK SMILES CCCCCCCCC(=O)[O-]
REMARK SMILES IDX 6 1 7 2 8 3 9 4 10 5 11 6 5 7 4 8 3 9 2 10 1 11
REMARK H PARENT
REMARK Flexibility Score: inf
ROOT
ATOM      1  C   UNL     1      21.653 -25.620  -0.226  1.00  0.00     0.000 C 
ENDROOT
BRANCH   1   2
ATOM      2  C   UNL     1      20.534 -25.440   0.813  1.00  0.00     0.006 C 
BRANCH   2   3
ATOM      3  C   UNL     1      20.684 -26.382   2.015  1.00  0.00     0.053 C 
BRANCH   3   4
ATOM      4  C   UNL     1      19.863 -25.893   3.166  1.00  0.00     0.041 C 
ATOM      5  O   UNL     1      20.082 -26.323   4.330  1.00  0.00    -0.550 OA
ATOM      6  O   UNL     1      18.887 -24.926   2.962  1.00  0.00    -0.550 OA
ENDBRANCH   3   4
ENDBRANCH   2   3
ENDBRANCH   1   2
BRANCH   1   7
ATOM      7  C   UNL     1      21.190 -26.418  -1.458  1.00  0.00     0.000 C 
BRANCH   7   8
ATOM      8  C   UNL     1      21.715 -27.863  -1.455  1.00  0.00    -0.000 C 
BRANCH   8   9
ATOM      9  C   UNL     1      20.596 -28.902  -1.625  1.00  0.00    -0.000 C 
BRANCH   9  10
ATOM     10  C   UNL     1      19.777 -29.042  -0.336  1.00  0.00    -0.003 C 
ATOM     11  C   UNL     1      20.490 -29.933   0.677  1.00  0.00     0.004 C 
ENDBRANCH   9  10
ENDBRANCH   8   9
ENDBRANCH   7   8
ENDBRANCH   1   7
TORSDOF 7
ENDMDL
