MODEL 1
REMARK VINA RESULT:    -6.865      0.000      0.000
REMARK INTER + INTRA:          -7.467
REMARK INTER:                  -7.467
REMARK INTRA:                   0.000
REMARK UNBOUND:                 0.000
REMARK SMILES Cc1cc(O)c2c(c1)C(=O)c1cc(O)cc(O)c1C2=O
REMARK SMILES IDX 1 1 2 2 8 3 7 4 6 5 4 6 3 7 19 8 20 9 18 10 11 11 9 12 10 13
REMARK SMILES IDX 12 14 13 15 15 16 16 17 5 18 17 20 14 22
REMARK H PARENT 5 19 17 21 14 23
REMARK Flexibility Score: inf
ROOT
ATOM      1  C   UNL     1      11.591   6.786  55.955  1.00  0.00     0.044 C 
ATOM      2  C   UNL     1      11.184   8.209  55.712  1.00  0.00    -0.047 A 
ATOM      3  C   UNL     1       9.894   8.506  55.257  1.00  0.00     0.016 A 
ATOM      4  C   UNL     1       9.490   9.839  55.070  1.00  0.00     0.038 A 
ATOM      5  C   UNL     1      10.382  10.894  55.368  1.00  0.00     0.076 A 
ATOM      6  C   UNL     1      11.702  10.586  55.784  1.00  0.00     0.127 A 
ATOM      7  C   UNL     1      12.076   9.253  55.982  1.00  0.00     0.050 A 
ATOM      8  C   UNL     1       9.869  12.287  55.297  1.00  0.00     0.201 C 
ATOM      9  O   UNL     1      10.355  13.173  56.051  1.00  0.00    -0.288 OA
ATOM     10  C   UNL     1       8.664  12.589  54.482  1.00  0.00     0.076 A 
ATOM     11  C   UNL     1       7.774  11.532  54.187  1.00  0.00     0.041 A 
ATOM     12  C   UNL     1       8.132  10.143  54.558  1.00  0.00     0.194 C 
ATOM     13  O   UNL     1       7.289   9.214  54.414  1.00  0.00    -0.289 OA
ATOM     14  C   UNL     1       6.558  11.803  53.539  1.00  0.00     0.059 A 
ATOM     15  C   UNL     1       6.226  13.109  53.169  1.00  0.00     0.120 A 
ATOM     16  C   UNL     1       7.120  14.149  53.422  1.00  0.00     0.093 A 
ATOM     17  C   UNL     1       8.346  13.904  54.048  1.00  0.00     0.131 A 
ENDROOT
BRANCH   6  18
ATOM     18  O   UNL     1      12.680  11.564  55.979  1.00  0.00    -0.507 OA
ATOM     19  H   UNL     1      12.675  12.460  55.514  1.00  0.00     0.293 HD
ENDBRANCH   6  18
BRANCH  17  20
ATOM     20  O   UNL     1       9.226  14.979  54.186  1.00  0.00    -0.507 OA
ATOM     21  H   UNL     1      10.209  14.873  54.394  1.00  0.00     0.293 HD
ENDBRANCH  17  20
BRANCH  15  22
ATOM     22  O   UNL     1       5.016  13.383  52.537  1.00  0.00    -0.508 OA
ATOM     23  H   UNL     1       4.642  12.772  51.819  1.00  0.00     0.293 HD
ENDBRANCH  15  22
TORSDOF 3
ENDMDL
MODEL 2
REMARK VINA RESULT:    -6.662      2.478      5.859
REMARK INTER + INTRA:          -7.246
REMARK INTER:                  -7.246
REMARK INTRA:                   0.000
REMARK UNBOUND:                 0.000
REMARK SMILES Cc1cc(O)c2c(c1)C(=O)c1cc(O)cc(O)c1C2=O
REMARK SMILES IDX 1 1 2 2 8 3 7 4 6 5 4 6 3 7 19 8 20 9 18 10 11 11 9 12 10 13
REMARK SMILES IDX 12 14 13 15 15 16 16 17 5 18 17 20 14 22
REMARK H PARENT 5 19 17 21 14 23
REMARK Flexibility Score: inf
ROOT
ATOM      1  C   UNL     1      11.118  16.743  52.751  1.00  0.00     0.044 C 
ATOM      2  C   UNL     1       9.933  15.823  52.777  1.00  0.00    -0.047 A 
ATOM      3  C   UNL     1       9.930  14.701  53.614  1.00  0.00     0.016 A 
ATOM      4  C   UNL     1       8.807  13.859  53.679  1.00  0.00     0.038 A 
ATOM      5  C   UNL     1       7.658  14.158  52.913  1.00  0.00     0.076 A 
ATOM      6  C   UNL     1       7.684  15.269  52.032  1.00  0.00     0.127 A 
ATOM      7  C   UNL     1       8.805  16.104  51.999  1.00  0.00     0.050 A 
ATOM      8  C   UNL     1       6.442  13.328  53.119  1.00  0.00     0.201 C 
ATOM      9  O   UNL     1       5.301  13.836  52.951  1.00  0.00    -0.288 OA
ATOM     10  C   UNL     1       6.567  11.968  53.704  1.00  0.00     0.076 A 
ATOM     11  C   UNL     1       7.718  11.674  54.470  1.00  0.00     0.041 A 
ATOM     12  C   UNL     1       8.825  12.656  54.545  1.00  0.00     0.194 C 
ATOM     13  O   UNL     1       9.794  12.455  55.327  1.00  0.00    -0.289 OA
ATOM     14  C   UNL     1       7.808  10.449  55.152  1.00  0.00     0.059 A 
ATOM     15  C   UNL     1       6.776   9.511  55.068  1.00  0.00     0.120 A 
ATOM     16  C   UNL     1       5.656   9.782  54.280  1.00  0.00     0.093 A 
ATOM     17  C   UNL     1       5.551  10.985  53.575  1.00  0.00     0.131 A 
ENDROOT
BRANCH   6  18
ATOM     18  O   UNL     1       6.639  15.560  51.152  1.00  0.00    -0.507 OA
ATOM     19  H   UNL     1       6.232  14.882  50.524  1.00  0.00     0.293 HD
ENDBRANCH   6  18
BRANCH  17  20
ATOM     20  O   UNL     1       4.445  11.146  52.737  1.00  0.00    -0.507 OA
ATOM     21  H   UNL     1       3.492  10.988  53.033  1.00  0.00     0.293 HD
ENDBRANCH  17  20
BRANCH  15  22
ATOM     22  O   UNL     1       6.856   8.301  55.752  1.00  0.00    -0.508 OA
ATOM     23  H   UNL     1       6.027   7.764  55.979  1.00  0.00     0.293 HD
ENDBRANCH  15  22
TORSDOF 3
ENDMDL
MODEL 3
REMARK VINA RESULT:    -6.511      1.319      2.135
REMARK INTER + INTRA:          -7.082
REMARK INTER:                  -7.082
REMARK INTRA:                   0.000
REMARK UNBOUND:                 0.000
REMARK SMILES Cc1cc(O)c2c(c1)C(=O)c1cc(O)cc(O)c1C2=O
REMARK SMILES IDX 1 1 2 2 8 3 7 4 6 5 4 6 3 7 19 8 20 9 18 10 11 11 9 12 10 13
REMARK SMILES IDX 12 14 13 15 15 16 16 17 5 18 17 20 14 22
REMARK H PARENT 5 19 17 21 14 23
REMARK Flexibility Score: inf
ROOT
ATOM      1  C   UNL     1      11.990   8.889  56.125  1.00  0.00     0.044 C 
ATOM      2  C   UNL     1      10.978   9.907  55.690  1.00  0.00    -0.047 A 
ATOM      3  C   UNL     1       9.727   9.500  55.213  1.00  0.00     0.016 A 
ATOM      4  C   UNL     1       8.756  10.448  54.847  1.00  0.00     0.038 A 
ATOM      5  C   UNL     1       9.032  11.826  54.985  1.00  0.00     0.076 A 
ATOM      6  C   UNL     1      10.317  12.234  55.425  1.00  0.00     0.127 A 
ATOM      7  C   UNL     1      11.260  11.273  55.802  1.00  0.00     0.050 A 
ATOM      8  C   UNL     1       7.931  12.791  54.727  1.00  0.00     0.201 C 
ATOM      9  O   UNL     1       7.902  13.889  55.344  1.00  0.00    -0.288 OA
ATOM     10  C   UNL     1       6.773  12.382  53.891  1.00  0.00     0.076 A 
ATOM     11  C   UNL     1       6.500  11.002  53.756  1.00  0.00     0.041 A 
ATOM     12  C   UNL     1       7.446  10.006  54.313  1.00  0.00     0.194 C 
ATOM     13  O   UNL     1       7.145   8.780  54.310  1.00  0.00    -0.289 OA
ATOM     14  C   UNL     1       5.337  10.581  53.091  1.00  0.00     0.059 A 
ATOM     15  C   UNL     1       4.453  11.516  52.546  1.00  0.00     0.120 A 
ATOM     16  C   UNL     1       4.739  12.878  52.642  1.00  0.00     0.093 A 
ATOM     17  C   UNL     1       5.900  13.322  53.282  1.00  0.00     0.131 A 
ENDROOT
BRANCH   6  18
ATOM     18  O   UNL     1      10.710  13.574  55.471  1.00  0.00    -0.507 OA
ATOM     19  H   UNL     1      11.642  13.891  55.244  1.00  0.00     0.293 HD
ENDBRANCH   6  18
BRANCH  17  20
ATOM     20  O   UNL     1       6.165  14.694  53.259  1.00  0.00    -0.507 OA
ATOM     21  H   UNL     1       6.443  15.195  52.427  1.00  0.00     0.293 HD
ENDBRANCH  17  20
BRANCH  15  22
ATOM     22  O   UNL     1       3.293  11.103  51.896  1.00  0.00    -0.508 OA
ATOM     23  H   UNL     1       3.185  10.154  51.557  1.00  0.00     0.293 HD
ENDBRANCH  15  22
TORSDOF 3
ENDMDL
MODEL 4
REMARK VINA RESULT:    -6.058      1.975      3.602
REMARK INTER + INTRA:          -6.589
REMARK INTER:                  -6.589
REMARK INTRA:                   0.000
REMARK UNBOUND:                 0.000
REMARK SMILES Cc1cc(O)c2c(c1)C(=O)c1cc(O)cc(O)c1C2=O
REMARK SMILES IDX 1 1 2 2 8 3 7 4 6 5 4 6 3 7 19 8 20 9 18 10 11 11 9 12 10 13
REMARK SMILES IDX 12 14 13 15 15 16 16 17 5 18 17 20 14 22
REMARK H PARENT 5 19 17 21 14 23
REMARK Flexibility Score: inf
ROOT
ATOM      1  C   UNL     1      10.364   7.772  55.210  1.00  0.00     0.044 C 
ATOM      2  C   UNL     1       9.548   9.017  55.026  1.00  0.00    -0.047 A 
ATOM      3  C   UNL     1      10.029  10.064  54.232  1.00  0.00     0.016 A 
ATOM      4  C   UNL     1       9.252  11.216  54.018  1.00  0.00     0.038 A 
ATOM      5  C   UNL     1       7.962  11.310  54.586  1.00  0.00     0.076 A 
ATOM      6  C   UNL     1       7.499  10.267  55.428  1.00  0.00     0.127 A 
ATOM      7  C   UNL     1       8.282   9.122  55.610  1.00  0.00     0.050 A 
ATOM      8  C   UNL     1       7.117  12.476  54.217  1.00  0.00     0.201 C 
ATOM      9  O   UNL     1       5.863  12.357  54.190  1.00  0.00    -0.288 OA
ATOM     10  C   UNL     1       7.753  13.714  53.698  1.00  0.00     0.076 A 
ATOM     11  C   UNL     1       9.044  13.615  53.130  1.00  0.00     0.041 A 
ATOM     12  C   UNL     1       9.783  12.333  53.200  1.00  0.00     0.194 C 
ATOM     13  O   UNL     1      10.877  12.201  52.585  1.00  0.00    -0.289 OA
ATOM     14  C   UNL     1       9.620  14.734  52.506  1.00  0.00     0.059 A 
ATOM     15  C   UNL     1       8.934  15.950  52.456  1.00  0.00     0.120 A 
ATOM     16  C   UNL     1       7.678  16.063  53.051  1.00  0.00     0.093 A 
ATOM     17  C   UNL     1       7.090  14.970  53.696  1.00  0.00     0.131 A 
ENDROOT
BRANCH   6  18
ATOM     18  O   UNL     1       6.291  10.339  56.125  1.00  0.00    -0.507 OA
ATOM     19  H   UNL     1       5.546   9.665  56.021  1.00  0.00     0.293 HD
ENDBRANCH   6  18
BRANCH  17  20
ATOM     20  O   UNL     1       5.873  15.183  54.346  1.00  0.00    -0.507 OA
ATOM     21  H   UNL     1       5.791  15.646  55.241  1.00  0.00     0.293 HD
ENDBRANCH  17  20
BRANCH  15  22
ATOM     22  O   UNL     1       9.498  17.058  51.828  1.00  0.00    -0.508 OA
ATOM     23  H   UNL     1       8.974  17.611  51.158  1.00  0.00     0.293 HD
ENDBRANCH  15  22
TORSDOF 3
ENDMDL
MODEL 5
REMARK VINA RESULT:    -5.842      3.639      5.849
REMARK INTER + INTRA:          -6.355
REMARK INTER:                  -6.355
REMARK INTRA:                   0.000
REMARK UNBOUND:                 0.000
REMARK SMILES Cc1cc(O)c2c(c1)C(=O)c1cc(O)cc(O)c1C2=O
REMARK SMILES IDX 1 1 2 2 8 3 7 4 6 5 4 6 3 7 19 8 20 9 18 10 11 11 9 12 10 13
REMARK SMILES IDX 12 14 13 15 15 16 16 17 5 18 17 20 14 22
REMARK H PARENT 5 19 17 21 14 23
REMARK Flexibility Score: inf
ROOT
ATOM      1  C   UNL     1      12.382  14.176  48.021  1.00  0.00     0.044 C 
ATOM      2  C   UNL     1      11.488  14.528  49.173  1.00  0.00    -0.047 A 
ATOM      3  C   UNL     1      11.209  13.581  50.164  1.00  0.00     0.016 A 
ATOM      4  C   UNL     1      10.410  13.916  51.271  1.00  0.00     0.038 A 
ATOM      5  C   UNL     1       9.903  15.229  51.401  1.00  0.00     0.076 A 
ATOM      6  C   UNL     1      10.151  16.171  50.371  1.00  0.00     0.127 A 
ATOM      7  C   UNL     1      10.965  15.821  49.289  1.00  0.00     0.050 A 
ATOM      8  C   UNL     1       9.187  15.583  52.654  1.00  0.00     0.201 C 
ATOM      9  O   UNL     1       9.224  16.767  53.084  1.00  0.00    -0.288 OA
ATOM     10  C   UNL     1       8.595  14.510  53.494  1.00  0.00     0.076 A 
ATOM     11  C   UNL     1       9.105  13.199  53.361  1.00  0.00     0.041 A 
ATOM     12  C   UNL     1      10.094  12.897  52.300  1.00  0.00     0.194 C 
ATOM     13  O   UNL     1      10.648  11.764  52.258  1.00  0.00    -0.289 OA
ATOM     14  C   UNL     1       8.668  12.187  54.233  1.00  0.00     0.059 A 
ATOM     15  C   UNL     1       7.720  12.463  55.221  1.00  0.00     0.120 A 
ATOM     16  C   UNL     1       7.184  13.747  55.330  1.00  0.00     0.093 A 
ATOM     17  C   UNL     1       7.587  14.766  54.462  1.00  0.00     0.131 A 
ENDROOT
BRANCH   6  18
ATOM     18  O   UNL     1       9.585  17.448  50.363  1.00  0.00    -0.507 OA
ATOM     19  H   UNL     1       9.453  17.996  49.524  1.00  0.00     0.293 HD
ENDBRANCH   6  18
BRANCH  17  20
ATOM     20  O   UNL     1       6.941  16.000  54.572  1.00  0.00    -0.507 OA
ATOM     21  H   UNL     1       6.038  16.120  55.009  1.00  0.00     0.293 HD
ENDBRANCH  17  20
BRANCH  15  22
ATOM     22  O   UNL     1       7.293  11.466  56.095  1.00  0.00    -0.508 OA
ATOM     23  H   UNL     1       6.308  11.291  56.259  1.00  0.00     0.293 HD
ENDBRANCH  15  22
TORSDOF 3
ENDMDL
MODEL 6
REMARK VINA RESULT:    -5.793      3.505      5.390
REMARK INTER + INTRA:          -6.301
REMARK INTER:                  -6.301
REMARK INTRA:                   0.000
REMARK UNBOUND:                 0.000
REMARK SMILES Cc1cc(O)c2c(c1)C(=O)c1cc(O)cc(O)c1C2=O
REMARK SMILES IDX 1 1 2 2 8 3 7 4 6 5 4 6 3 7 19 8 20 9 18 10 11 11 9 12 10 13
REMARK SMILES IDX 12 14 13 15 15 16 16 17 5 18 17 20 14 22
REMARK H PARENT 5 19 17 21 14 23
REMARK Flexibility Score: inf
ROOT
ATOM      1  C   UNL     1       7.933  10.781  56.125  1.00  0.00     0.044 C 
ATOM      2  C   UNL     1       8.178  11.964  55.236  1.00  0.00    -0.047 A 
ATOM      3  C   UNL     1       9.058  11.862  54.152  1.00  0.00     0.016 A 
ATOM      4  C   UNL     1       9.258  12.951  53.287  1.00  0.00     0.038 A 
ATOM      5  C   UNL     1       8.547  14.154  53.494  1.00  0.00     0.076 A 
ATOM      6  C   UNL     1       7.692  14.268  54.620  1.00  0.00     0.127 A 
ATOM      7  C   UNL     1       7.493  13.164  55.456  1.00  0.00     0.050 A 
ATOM      8  C   UNL     1       8.675  15.230  52.476  1.00  0.00     0.201 C 
ATOM      9  O   UNL     1       7.715  16.019  52.273  1.00  0.00    -0.288 OA
ATOM     10  C   UNL     1       9.854  15.252  51.572  1.00  0.00     0.076 A 
ATOM     11  C   UNL     1      10.563  14.046  51.367  1.00  0.00     0.041 A 
ATOM     12  C   UNL     1      10.216  12.844  52.161  1.00  0.00     0.194 C 
ATOM     13  O   UNL     1      10.755  11.734  51.894  1.00  0.00    -0.289 OA
ATOM     14  C   UNL     1      11.595  13.995  50.416  1.00  0.00     0.059 A 
ATOM     15  C   UNL     1      11.939  15.132  49.680  1.00  0.00     0.120 A 
ATOM     16  C   UNL     1      11.269  16.334  49.908  1.00  0.00     0.093 A 
ATOM     17  C   UNL     1      10.252  16.417  50.863  1.00  0.00     0.131 A 
ENDROOT
BRANCH   6  18
ATOM     18  O   UNL     1       7.050  15.459  54.964  1.00  0.00    -0.507 OA
ATOM     19  H   UNL     1       6.909  16.225  54.320  1.00  0.00     0.293 HD
ENDBRANCH   6  18
BRANCH  17  20
ATOM     20  O   UNL     1       9.690  17.673  51.100  1.00  0.00    -0.507 OA
ATOM     21  H   UNL     1      10.219  18.469  51.427  1.00  0.00     0.293 HD
ENDBRANCH  17  20
BRANCH  15  22
ATOM     22  O   UNL     1      12.954  15.082  48.728  1.00  0.00    -0.508 OA
ATOM     23  H   UNL     1      13.268  15.916  48.244  1.00  0.00     0.293 HD
ENDBRANCH  15  22
TORSDOF 3
ENDMDL
MODEL 7
REMARK VINA RESULT:    -5.773     12.588     14.716
REMARK INTER + INTRA:          -6.280
REMARK INTER:                  -6.280
REMARK INTRA:                   0.000
REMARK UNBOUND:                 0.000
REMARK SMILES Cc1cc(O)c2c(c1)C(=O)c1cc(O)cc(O)c1C2=O
REMARK SMILES IDX 1 1 2 2 8 3 7 4 6 5 4 6 3 7 19 8 20 9 18 10 11 11 9 12 10 13
REMARK SMILES IDX 12 14 13 15 15 16 16 17 5 18 17 20 14 22
REMARK H PARENT 5 19 17 21 14 23
REMARK Flexibility Score: inf
ROOT
ATOM      1  C   UNL     1       7.011  21.224  46.153  1.00  0.00     0.044 C 
ATOM      2  C   UNL     1       6.591  20.051  45.317  1.00  0.00    -0.047 A 
ATOM      3  C   UNL     1       5.406  20.102  44.575  1.00  0.00     0.016 A 
ATOM      4  C   UNL     1       5.027  19.026  43.754  1.00  0.00     0.038 A 
ATOM      5  C   UNL     1       5.862  17.890  43.653  1.00  0.00     0.076 A 
ATOM      6  C   UNL     1       7.038  17.824  44.442  1.00  0.00     0.127 A 
ATOM      7  C   UNL     1       7.405  18.916  45.237  1.00  0.00     0.050 A 
ATOM      8  C   UNL     1       5.501  16.840  42.665  1.00  0.00     0.201 C 
ATOM      9  O   UNL     1       6.407  16.153  42.122  1.00  0.00    -0.288 OA
ATOM     10  C   UNL     1       4.101  16.734  42.180  1.00  0.00     0.076 A 
ATOM     11  C   UNL     1       3.269  17.872  42.283  1.00  0.00     0.041 A 
ATOM     12  C   UNL     1       3.754  19.077  42.997  1.00  0.00     0.194 C 
ATOM     13  O   UNL     1       3.070  20.137  42.980  1.00  0.00    -0.289 OA
ATOM     14  C   UNL     1       1.986  17.854  41.711  1.00  0.00     0.059 A 
ATOM     15  C   UNL     1       1.518  16.713  41.055  1.00  0.00     0.120 A 
ATOM     16  C   UNL     1       2.320  15.573  40.987  1.00  0.00     0.093 A 
ATOM     17  C   UNL     1       3.593  15.559  41.565  1.00  0.00     0.131 A 
ENDROOT
BRANCH   6  18
ATOM     18  O   UNL     1       7.851  16.690  44.494  1.00  0.00    -0.507 OA
ATOM     19  H   UNL     1       7.921  16.089  45.303  1.00  0.00     0.293 HD
ENDBRANCH   6  18
BRANCH  17  20
ATOM     20  O   UNL     1       4.300  14.355  41.536  1.00  0.00    -0.507 OA
ATOM     21  H   UNL     1       4.163  13.610  42.205  1.00  0.00     0.293 HD
ENDBRANCH  17  20
BRANCH  15  22
ATOM     22  O   UNL     1       0.251  16.695  40.477  1.00  0.00    -0.508 OA
ATOM     23  H   UNL     1      -0.114  17.497  39.975  1.00  0.00     0.293 HD
ENDBRANCH  15  22
TORSDOF 3
ENDMDL
MODEL 8
REMARK VINA RESULT:    -5.613     14.875     15.351
REMARK INTER + INTRA:          -6.106
REMARK INTER:                  -6.106
REMARK INTRA:                   0.000
REMARK UNBOUND:                 0.000
REMARK SMILES Cc1cc(O)c2c(c1)C(=O)c1cc(O)cc(O)c1C2=O
REMARK SMILES IDX 1 1 2 2 8 3 7 4 6 5 4 6 3 7 19 8 20 9 18 10 11 11 9 12 10 13
REMARK SMILES IDX 12 14 13 15 15 16 16 17 5 18 17 20 14 22
REMARK H PARENT 5 19 17 21 14 23
REMARK Flexibility Score: inf
ROOT
ATOM      1  C   UNL     1       7.262  15.260  40.232  1.00  0.00     0.044 C 
ATOM      2  C   UNL     1       6.184  16.046  40.917  1.00  0.00    -0.047 A 
ATOM      3  C   UNL     1       6.484  17.267  41.533  1.00  0.00     0.016 A 
ATOM      4  C   UNL     1       5.473  18.032  42.138  1.00  0.00     0.038 A 
ATOM      5  C   UNL     1       4.134  17.581  42.105  1.00  0.00     0.076 A 
ATOM      6  C   UNL     1       3.843  16.322  41.521  1.00  0.00     0.127 A 
ATOM      7  C   UNL     1       4.863  15.587  40.907  1.00  0.00     0.050 A 
ATOM      8  C   UNL     1       3.076  18.486  42.625  1.00  0.00     0.201 C 
ATOM      9  O   UNL     1       1.915  18.439  42.137  1.00  0.00    -0.288 OA
ATOM     10  C   UNL     1       3.434  19.568  43.579  1.00  0.00     0.076 A 
ATOM     11  C   UNL     1       4.774  20.016  43.609  1.00  0.00     0.041 A 
ATOM     12  C   UNL     1       5.806  19.308  42.815  1.00  0.00     0.194 C 
ATOM     13  O   UNL     1       6.974  19.779  42.736  1.00  0.00    -0.289 OA
ATOM     14  C   UNL     1       5.122  21.127  44.395  1.00  0.00     0.059 A 
ATOM     15  C   UNL     1       4.156  21.785  45.161  1.00  0.00     0.120 A 
ATOM     16  C   UNL     1       2.840  21.321  45.165  1.00  0.00     0.093 A 
ATOM     17  C   UNL     1       2.473  20.205  44.407  1.00  0.00     0.131 A 
ENDROOT
BRANCH   6  18
ATOM     18  O   UNL     1       2.569  15.750  41.556  1.00  0.00    -0.507 OA
ATOM     19  H   UNL     1       2.242  15.160  42.308  1.00  0.00     0.293 HD
ENDBRANCH   6  18
BRANCH  17  20
ATOM     20  O   UNL     1       1.160  19.744  44.533  1.00  0.00    -0.507 OA
ATOM     21  H   UNL     1       0.396  20.318  44.863  1.00  0.00     0.293 HD
ENDBRANCH  17  20
BRANCH  15  22
ATOM     22  O   UNL     1       4.495  22.894  45.932  1.00  0.00    -0.508 OA
ATOM     23  H   UNL     1       4.812  23.758  45.508  1.00  0.00     0.293 HD
ENDBRANCH  15  22
TORSDOF 3
ENDMDL
MODEL 9
REMARK VINA RESULT:    -5.577     13.960     15.001
REMARK INTER + INTRA:          -6.067
REMARK INTER:                  -6.067
REMARK INTRA:                   0.000
REMARK UNBOUND:                 0.000
REMARK SMILES Cc1cc(O)c2c(c1)C(=O)c1cc(O)cc(O)c1C2=O
REMARK SMILES IDX 1 1 2 2 8 3 7 4 6 5 4 6 3 7 19 8 20 9 18 10 11 11 9 12 10 13
REMARK SMILES IDX 12 14 13 15 15 16 16 17 5 18 17 20 14 22
REMARK H PARENT 5 19 17 21 14 23
REMARK Flexibility Score: inf
ROOT
ATOM      1  C   UNL     1      10.753  10.373  35.882  1.00  0.00     0.044 C 
ATOM      2  C   UNL     1      10.981  10.708  37.326  1.00  0.00    -0.047 A 
ATOM      3  C   UNL     1      11.602   9.785  38.176  1.00  0.00     0.016 A 
ATOM      4  C   UNL     1      11.860  10.109  39.519  1.00  0.00     0.038 A 
ATOM      5  C   UNL     1      11.516  11.386  40.014  1.00  0.00     0.076 A 
ATOM      6  C   UNL     1      10.845  12.300  39.162  1.00  0.00     0.127 A 
ATOM      7  C   UNL     1      10.616  11.964  37.823  1.00  0.00     0.050 A 
ATOM      8  C   UNL     1      11.937  11.740  41.394  1.00  0.00     0.201 C 
ATOM      9  O   UNL     1      12.187  12.941  41.685  1.00  0.00    -0.288 OA
ATOM     10  C   UNL     1      12.246  10.664  42.371  1.00  0.00     0.076 A 
ATOM     11  C   UNL     1      12.591   9.387  41.871  1.00  0.00     0.041 A 
ATOM     12  C   UNL     1      12.490   9.113  40.418  1.00  0.00     0.194 C 
ATOM     13  O   UNL     1      12.917   8.021  39.952  1.00  0.00    -0.289 OA
ATOM     14  C   UNL     1      13.023   8.384  42.755  1.00  0.00     0.059 A 
ATOM     15  C   UNL     1      13.099   8.633  44.128  1.00  0.00     0.120 A 
ATOM     16  C   UNL     1      12.721   9.879  44.629  1.00  0.00     0.093 A 
ATOM     17  C   UNL     1      12.269  10.887  43.773  1.00  0.00     0.131 A 
ENDROOT
BRANCH   6  18
ATOM     18  O   UNL     1      10.362  13.533  39.607  1.00  0.00    -0.507 OA
ATOM     19  H   UNL     1      10.932  14.363  39.680  1.00  0.00     0.293 HD
ENDBRANCH   6  18
BRANCH  17  20
ATOM     20  O   UNL     1      11.822  12.076  44.356  1.00  0.00    -0.507 OA
ATOM     21  H   UNL     1      11.448  12.851  43.827  1.00  0.00     0.293 HD
ENDBRANCH  17  20
BRANCH  15  22
ATOM     22  O   UNL     1      13.538   7.645  45.005  1.00  0.00    -0.508 OA
ATOM     23  H   UNL     1      14.399   7.746  45.530  1.00  0.00     0.293 HD
ENDBRANCH  15  22
TORSDOF 3
ENDMDL
