MODEL 1
REMARK VINA RESULT:    -5.329      0.000      0.000
REMARK INTER + INTRA:          -6.537
REMARK INTER:                  -6.264
REMARK INTRA:                  -0.274
REMARK UNBOUND:                -0.274
REMARK SMILES O=c1cc(-c2ccc(O)c(O)c2)oc2cc(O)cc(O)c12
REMARK SMILES IDX 4 1 3 2 2 3 1 4 21 5 19 6 18 7 16 8 15 9 14 10 13 11 5 12
REMARK SMILES IDX 6 13 7 14 8 15 12 16 10 17 9 18 11 20 20 22 17 24
REMARK H PARENT 9 19 11 21 20 23 17 25
REMARK Flexibility Score: inf
ROOT
ATOM      1  C   UNL     1      -3.567  -1.466  -6.005  1.00  0.00     0.138 A 
ATOM      2  C   UNL     1      -4.409  -0.762  -6.877  1.00  0.00     0.100 A 
ATOM      3  C   UNL     1      -3.861  -0.083  -7.966  1.00  0.00     0.197 A 
ATOM      4  O   UNL     1      -4.648   0.493  -8.760  1.00  0.00    -0.289 OA
ATOM      5  C   UNL     1      -2.459  -0.078  -8.160  1.00  0.00     0.107 A 
ATOM      6  C   UNL     1      -1.786   0.608  -9.216  1.00  0.00     0.134 A 
ATOM      7  C   UNL     1      -0.402   0.458  -9.364  1.00  0.00     0.093 A 
ATOM      8  C   UNL     1       0.342  -0.308  -8.461  1.00  0.00     0.123 A 
ATOM      9  C   UNL     1      -0.299  -0.941  -7.399  1.00  0.00     0.094 A 
ATOM     10  C   UNL     1      -1.684  -0.838  -7.245  1.00  0.00     0.146 A 
ATOM     11  O   UNL     1      -2.257  -1.473  -6.228  1.00  0.00    -0.456 OA
ENDROOT
BRANCH   1  12
ATOM     12  C   UNL     1      -4.094  -2.205  -4.829  1.00  0.00     0.021 A 
ATOM     13  C   UNL     1      -3.727  -3.547  -4.636  1.00  0.00     0.016 A 
ATOM     14  C   UNL     1      -4.214  -4.268  -3.542  1.00  0.00     0.051 A 
ATOM     15  C   UNL     1      -5.083  -3.665  -2.629  1.00  0.00     0.157 A 
ATOM     16  C   UNL     1      -4.980  -1.605  -3.913  1.00  0.00     0.062 A 
ATOM     17  C   UNL     1      -5.471  -2.328  -2.815  1.00  0.00     0.158 A 
BRANCH  15  18
ATOM     18  O   UNL     1      -5.551  -4.408  -1.546  1.00  0.00    -0.504 OA
ATOM     19  H   UNL     1      -6.539  -4.557  -1.382  1.00  0.00     0.293 HD
ENDBRANCH  15  18
BRANCH  17  20
ATOM     20  O   UNL     1      -6.347  -1.725  -1.914  1.00  0.00    -0.504 OA
ATOM     21  H   UNL     1      -7.063  -2.256  -1.431  1.00  0.00     0.293 HD
ENDBRANCH  17  20
ENDBRANCH   1  12
BRANCH   6  22
ATOM     22  O   UNL     1      -2.419   1.462 -10.125  1.00  0.00    -0.507 OA
ATOM     23  H   UNL     1      -2.472   1.313 -11.120  1.00  0.00     0.293 HD
ENDBRANCH   6  22
BRANCH   8  24
ATOM     24  O   UNL     1       1.720  -0.438  -8.608  1.00  0.00    -0.508 OA
ATOM     25  H   UNL     1       2.129  -1.218  -9.109  1.00  0.00     0.293 HD
ENDBRANCH   8  24
TORSDOF 5
ENDMDL
MODEL 2
REMARK VINA RESULT:    -5.019      1.514      6.756
REMARK INTER + INTRA:          -6.172
REMARK INTER:                  -5.855
REMARK INTRA:                  -0.317
REMARK UNBOUND:                -0.274
REMARK SMILES O=c1cc(-c2ccc(O)c(O)c2)oc2cc(O)cc(O)c12
REMARK SMILES IDX 4 1 3 2 2 3 1 4 21 5 19 6 18 7 16 8 15 9 14 10 13 11 5 12
REMARK SMILES IDX 6 13 7 14 8 15 12 16 10 17 9 18 11 20 20 22 17 24
REMARK H PARENT 9 19 11 21 20 23 17 25
REMARK Flexibility Score: inf
ROOT
ATOM      1  C   UNL     1      -3.325  -1.107  -6.625  1.00  0.00     0.138 A 
ATOM      2  C   UNL     1      -4.515  -0.669  -7.222  1.00  0.00     0.100 A 
ATOM      3  C   UNL     1      -5.735  -0.915  -6.591  1.00  0.00     0.197 A 
ATOM      4  O   UNL     1      -6.780  -0.461  -7.124  1.00  0.00    -0.289 OA
ATOM      5  C   UNL     1      -5.765  -1.637  -5.374  1.00  0.00     0.107 A 
ATOM      6  C   UNL     1      -6.952  -1.976  -4.657  1.00  0.00     0.134 A 
ATOM      7  C   UNL     1      -6.851  -2.607  -3.411  1.00  0.00     0.093 A 
ATOM      8  C   UNL     1      -5.606  -2.962  -2.882  1.00  0.00     0.123 A 
ATOM      9  C   UNL     1      -4.445  -2.679  -3.597  1.00  0.00     0.094 A 
ATOM     10  C   UNL     1      -4.512  -2.020  -4.826  1.00  0.00     0.146 A 
ATOM     11  O   UNL     1      -3.378  -1.754  -5.465  1.00  0.00    -0.456 OA
ENDROOT
BRANCH   1  12
ATOM     12  C   UNL     1      -1.999  -0.874  -7.253  1.00  0.00     0.021 A 
ATOM     13  C   UNL     1      -1.914  -0.086  -8.412  1.00  0.00     0.016 A 
ATOM     14  C   UNL     1      -0.680   0.144  -9.026  1.00  0.00     0.051 A 
ATOM     15  C   UNL     1       0.487  -0.418  -8.501  1.00  0.00     0.157 A 
ATOM     16  C   UNL     1      -0.822  -1.448  -6.733  1.00  0.00     0.062 A 
ATOM     17  C   UNL     1       0.417  -1.220  -7.351  1.00  0.00     0.158 A 
BRANCH  15  18
ATOM     18  O   UNL     1       1.704  -0.169  -9.134  1.00  0.00    -0.504 OA
ATOM     19  H   UNL     1       1.872   0.676  -9.665  1.00  0.00     0.293 HD
ENDBRANCH  15  18
BRANCH  17  20
ATOM     20  O   UNL     1       1.576  -1.792  -6.828  1.00  0.00    -0.504 OA
ATOM     21  H   UNL     1       1.609  -2.157  -5.883  1.00  0.00     0.293 HD
ENDBRANCH  17  20
ENDBRANCH   1  12
BRANCH   6  22
ATOM     22  O   UNL     1      -8.248  -1.740  -5.130  1.00  0.00    -0.507 OA
ATOM     23  H   UNL     1      -8.482  -1.491  -6.078  1.00  0.00     0.293 HD
ENDBRANCH   6  22
BRANCH   8  24
ATOM     24  O   UNL     1      -5.516  -3.603  -1.649  1.00  0.00    -0.508 OA
ATOM     25  H   UNL     1      -6.342  -3.905  -1.147  1.00  0.00     0.293 HD
ENDBRANCH   8  24
TORSDOF 5
ENDMDL
MODEL 3
REMARK VINA RESULT:    -5.000      1.729      2.940
REMARK INTER + INTRA:          -6.150
REMARK INTER:                  -5.872
REMARK INTRA:                  -0.279
REMARK UNBOUND:                -0.274
REMARK SMILES O=c1cc(-c2ccc(O)c(O)c2)oc2cc(O)cc(O)c12
REMARK SMILES IDX 4 1 3 2 2 3 1 4 21 5 19 6 18 7 16 8 15 9 14 10 13 11 5 12
REMARK SMILES IDX 6 13 7 14 8 15 12 16 10 17 9 18 11 20 20 22 17 24
REMARK H PARENT 9 19 11 21 20 23 17 25
REMARK Flexibility Score: inf
ROOT
ATOM      1  C   UNL     1      -3.158  -2.651  -5.736  1.00  0.00     0.138 A 
ATOM      2  C   UNL     1      -2.760  -3.867  -6.308  1.00  0.00     0.100 A 
ATOM      3  C   UNL     1      -1.757  -3.878  -7.278  1.00  0.00     0.197 A 
ATOM      4  O   UNL     1      -1.385  -4.991  -7.731  1.00  0.00    -0.289 OA
ATOM      5  C   UNL     1      -1.175  -2.660  -7.703  1.00  0.00     0.107 A 
ATOM      6  C   UNL     1      -0.168  -2.546  -8.708  1.00  0.00     0.134 A 
ATOM      7  C   UNL     1       0.404  -1.296  -8.974  1.00  0.00     0.093 A 
ATOM      8  C   UNL     1      -0.036  -0.146  -8.311  1.00  0.00     0.123 A 
ATOM      9  C   UNL     1      -1.052  -0.240  -7.364  1.00  0.00     0.094 A 
ATOM     10  C   UNL     1      -1.618  -1.478  -7.052  1.00  0.00     0.146 A 
ATOM     11  O   UNL     1      -2.573  -1.524  -6.129  1.00  0.00    -0.456 OA
ENDROOT
BRANCH   1  12
ATOM     12  C   UNL     1      -4.222  -2.580  -4.702  1.00  0.00     0.021 A 
ATOM     13  C   UNL     1      -5.193  -1.568  -4.781  1.00  0.00     0.016 A 
ATOM     14  C   UNL     1      -6.201  -1.474  -3.818  1.00  0.00     0.051 A 
ATOM     15  C   UNL     1      -6.252  -2.381  -2.755  1.00  0.00     0.157 A 
ATOM     16  C   UNL     1      -4.269  -3.484  -3.623  1.00  0.00     0.062 A 
ATOM     17  C   UNL     1      -5.280  -3.390  -2.655  1.00  0.00     0.158 A 
BRANCH  15  18
ATOM     18  O   UNL     1      -7.271  -2.264  -1.811  1.00  0.00    -0.504 OA
ATOM     19  H   UNL     1      -7.254  -1.558  -1.085  1.00  0.00     0.293 HD
ENDBRANCH  15  18
BRANCH  17  20
ATOM     20  O   UNL     1      -5.318  -4.291  -1.591  1.00  0.00    -0.504 OA
ATOM     21  H   UNL     1      -4.475  -4.573  -1.103  1.00  0.00     0.293 HD
ENDBRANCH  17  20
ENDBRANCH   1  12
BRANCH   6  22
ATOM     22  O   UNL     1       0.288  -3.615  -9.486  1.00  0.00    -0.507 OA
ATOM     23  H   UNL     1      -0.208  -4.481  -9.628  1.00  0.00     0.293 HD
ENDBRANCH   6  22
BRANCH   8  24
ATOM     24  O   UNL     1       0.528   1.095  -8.593  1.00  0.00    -0.508 OA
ATOM     25  H   UNL     1       1.431   1.178  -9.046  1.00  0.00     0.293 HD
ENDBRANCH   8  24
TORSDOF 5
ENDMDL
MODEL 4
REMARK VINA RESULT:    -4.796      1.697      6.895
REMARK INTER + INTRA:          -5.911
REMARK INTER:                  -5.597
REMARK INTRA:                  -0.314
REMARK UNBOUND:                -0.274
REMARK SMILES O=c1cc(-c2ccc(O)c(O)c2)oc2cc(O)cc(O)c12
REMARK SMILES IDX 4 1 3 2 2 3 1 4 21 5 19 6 18 7 16 8 15 9 14 10 13 11 5 12
REMARK SMILES IDX 6 13 7 14 8 15 12 16 10 17 9 18 11 20 20 22 17 24
REMARK H PARENT 9 19 11 21 20 23 17 25
REMARK Flexibility Score: inf
ROOT
ATOM      1  C   UNL     1      -4.315  -1.652  -5.679  1.00  0.00     0.138 A 
ATOM      2  C   UNL     1      -5.258  -1.427  -4.667  1.00  0.00     0.100 A 
ATOM      3  C   UNL     1      -5.350  -2.320  -3.598  1.00  0.00     0.197 A 
ATOM      4  O   UNL     1      -6.168  -2.060  -2.679  1.00  0.00    -0.289 OA
ATOM      5  C   UNL     1      -4.517  -3.463  -3.563  1.00  0.00     0.107 A 
ATOM      6  C   UNL     1      -4.546  -4.460  -2.541  1.00  0.00     0.134 A 
ATOM      7  C   UNL     1      -3.604  -5.496  -2.561  1.00  0.00     0.093 A 
ATOM      8  C   UNL     1      -2.672  -5.604  -3.597  1.00  0.00     0.123 A 
ATOM      9  C   UNL     1      -2.669  -4.665  -4.625  1.00  0.00     0.094 A 
ATOM     10  C   UNL     1      -3.573  -3.600  -4.615  1.00  0.00     0.146 A 
ATOM     11  O   UNL     1      -3.522  -2.716  -5.606  1.00  0.00    -0.456 OA
ENDROOT
BRANCH   1  12
ATOM     12  C   UNL     1      -4.174  -0.736  -6.840  1.00  0.00     0.021 A 
ATOM     13  C   UNL     1      -5.216   0.156  -7.144  1.00  0.00     0.016 A 
ATOM     14  C   UNL     1      -5.113   1.024  -8.235  1.00  0.00     0.051 A 
ATOM     15  C   UNL     1      -3.974   1.009  -9.045  1.00  0.00     0.157 A 
ATOM     16  C   UNL     1      -3.034  -0.756  -7.667  1.00  0.00     0.062 A 
ATOM     17  C   UNL     1      -2.930   0.113  -8.763  1.00  0.00     0.158 A 
BRANCH  15  18
ATOM     18  O   UNL     1      -3.899   1.888 -10.125  1.00  0.00    -0.504 OA
ATOM     19  H   UNL     1      -4.644   2.537 -10.344  1.00  0.00     0.293 HD
ENDBRANCH  15  18
BRANCH  17  20
ATOM     20  O   UNL     1      -1.797   0.086  -9.574  1.00  0.00    -0.504 OA
ATOM     21  H   UNL     1      -1.626   0.799 -10.274  1.00  0.00     0.293 HD
ENDBRANCH  17  20
ENDBRANCH   1  12
BRANCH   6  22
ATOM     22  O   UNL     1      -5.485  -4.493  -1.505  1.00  0.00    -0.507 OA
ATOM     23  H   UNL     1      -6.219  -5.178  -1.410  1.00  0.00     0.293 HD
ENDBRANCH   6  22
BRANCH   8  24
ATOM     24  O   UNL     1      -1.750  -6.647  -3.617  1.00  0.00    -0.508 OA
ATOM     25  H   UNL     1      -1.541  -7.155  -4.468  1.00  0.00     0.293 HD
ENDBRANCH   8  24
TORSDOF 5
ENDMDL
MODEL 5
REMARK VINA RESULT:    -4.667      1.428      7.244
REMARK INTER + INTRA:          -5.760
REMARK INTER:                  -5.487
REMARK INTRA:                  -0.272
REMARK UNBOUND:                -0.274
REMARK SMILES O=c1cc(-c2ccc(O)c(O)c2)oc2cc(O)cc(O)c12
REMARK SMILES IDX 4 1 3 2 2 3 1 4 21 5 19 6 18 7 16 8 15 9 14 10 13 11 5 12
REMARK SMILES IDX 6 13 7 14 8 15 12 16 10 17 9 18 11 20 20 22 17 24
REMARK H PARENT 9 19 11 21 20 23 17 25
REMARK Flexibility Score: inf
ROOT
ATOM      1  C   UNL     1      -2.811  -1.999  -6.372  1.00  0.00     0.138 A 
ATOM      2  C   UNL     1      -2.418  -3.345  -6.383  1.00  0.00     0.100 A 
ATOM      3  C   UNL     1      -2.975  -4.234  -5.464  1.00  0.00     0.197 A 
ATOM      4  O   UNL     1      -2.644  -5.445  -5.536  1.00  0.00    -0.289 OA
ATOM      5  C   UNL     1      -3.904  -3.765  -4.504  1.00  0.00     0.107 A 
ATOM      6  C   UNL     1      -4.512  -4.573  -3.497  1.00  0.00     0.134 A 
ATOM      7  C   UNL     1      -5.492  -4.018  -2.665  1.00  0.00     0.093 A 
ATOM      8  C   UNL     1      -5.845  -2.669  -2.767  1.00  0.00     0.123 A 
ATOM      9  C   UNL     1      -5.221  -1.861  -3.714  1.00  0.00     0.094 A 
ATOM     10  C   UNL     1      -4.265  -2.393  -4.581  1.00  0.00     0.146 A 
ATOM     11  O   UNL     1      -3.708  -1.590  -5.481  1.00  0.00    -0.456 OA
ENDROOT
BRANCH   1  12
ATOM     12  C   UNL     1      -2.249  -1.009  -7.325  1.00  0.00     0.021 A 
ATOM     13  C   UNL     1      -0.887  -0.674  -7.249  1.00  0.00     0.016 A 
ATOM     14  C   UNL     1      -0.333   0.260  -8.129  1.00  0.00     0.051 A 
ATOM     15  C   UNL     1      -1.131   0.882  -9.093  1.00  0.00     0.157 A 
ATOM     16  C   UNL     1      -3.052  -0.370  -8.290  1.00  0.00     0.062 A 
ATOM     17  C   UNL     1      -2.498   0.569  -9.173  1.00  0.00     0.158 A 
BRANCH  15  18
ATOM     18  O   UNL     1      -0.551   1.808  -9.959  1.00  0.00    -0.504 OA
ATOM     19  H   UNL     1       0.349   1.648 -10.394  1.00  0.00     0.293 HD
ENDBRANCH  15  18
BRANCH  17  20
ATOM     20  O   UNL     1      -3.302   1.195 -10.125  1.00  0.00    -0.504 OA
ATOM     21  H   UNL     1      -3.805   2.050  -9.917  1.00  0.00     0.293 HD
ENDBRANCH  17  20
ENDBRANCH   1  12
BRANCH   6  22
ATOM     22  O   UNL     1      -4.177  -5.909  -3.255  1.00  0.00    -0.507 OA
ATOM     23  H   UNL     1      -4.707  -6.706  -3.571  1.00  0.00     0.293 HD
ENDBRANCH   6  22
BRANCH   8  24
ATOM     24  O   UNL     1      -6.810  -2.122  -1.925  1.00  0.00    -0.508 OA
ATOM     25  H   UNL     1      -7.377  -2.704  -1.319  1.00  0.00     0.293 HD
ENDBRANCH   8  24
TORSDOF 5
ENDMDL
MODEL 6
REMARK VINA RESULT:    -4.640      1.857      3.692
REMARK INTER + INTRA:          -5.728
REMARK INTER:                  -5.425
REMARK INTRA:                  -0.303
REMARK UNBOUND:                -0.274
REMARK SMILES O=c1cc(-c2ccc(O)c(O)c2)oc2cc(O)cc(O)c12
REMARK SMILES IDX 4 1 3 2 2 3 1 4 21 5 19 6 18 7 16 8 15 9 14 10 13 11 5 12
REMARK SMILES IDX 6 13 7 14 8 15 12 16 10 17 9 18 11 20 20 22 17 24
REMARK H PARENT 9 19 11 21 20 23 17 25
REMARK Flexibility Score: inf
ROOT
ATOM      1  C   UNL     1      -3.935  -2.068  -5.817  1.00  0.00     0.138 A 
ATOM      2  C   UNL     1      -2.784  -1.707  -6.529  1.00  0.00     0.100 A 
ATOM      3  C   UNL     1      -2.872  -0.757  -7.548  1.00  0.00     0.197 A 
ATOM      4  O   UNL     1      -1.812  -0.414  -8.131  1.00  0.00    -0.289 OA
ATOM      5  C   UNL     1      -4.128  -0.193  -7.878  1.00  0.00     0.107 A 
ATOM      6  C   UNL     1      -4.345   0.759  -8.919  1.00  0.00     0.134 A 
ATOM      7  C   UNL     1      -5.616   1.321  -9.087  1.00  0.00     0.093 A 
ATOM      8  C   UNL     1      -6.692   0.923  -8.288  1.00  0.00     0.123 A 
ATOM      9  C   UNL     1      -6.502  -0.042  -7.302  1.00  0.00     0.094 A 
ATOM     10  C   UNL     1      -5.237  -0.596  -7.088  1.00  0.00     0.146 A 
ATOM     11  O   UNL     1      -5.097  -1.500  -6.124  1.00  0.00    -0.456 OA
ENDROOT
BRANCH   1  12
ATOM     12  C   UNL     1      -3.900  -3.074  -4.725  1.00  0.00     0.021 A 
ATOM     13  C   UNL     1      -3.015  -4.161  -4.817  1.00  0.00     0.016 A 
ATOM     14  C   UNL     1      -2.966  -5.126  -3.808  1.00  0.00     0.051 A 
ATOM     15  C   UNL     1      -3.806  -5.029  -2.695  1.00  0.00     0.157 A 
ATOM     16  C   UNL     1      -4.753  -2.987  -3.608  1.00  0.00     0.062 A 
ATOM     17  C   UNL     1      -4.706  -3.956  -2.594  1.00  0.00     0.158 A 
BRANCH  15  18
ATOM     18  O   UNL     1      -3.733  -6.005  -1.702  1.00  0.00    -0.504 OA
ATOM     19  H   UNL     1      -2.883  -6.524  -1.519  1.00  0.00     0.293 HD
ENDBRANCH  15  18
BRANCH  17  20
ATOM     20  O   UNL     1      -5.554  -3.859  -1.492  1.00  0.00    -0.504 OA
ATOM     21  H   UNL     1      -5.473  -3.101  -0.823  1.00  0.00     0.293 HD
ENDBRANCH  17  20
ENDBRANCH   1  12
BRANCH   6  22
ATOM     22  O   UNL     1      -3.360   1.168  -9.825  1.00  0.00    -0.507 OA
ATOM     23  H   UNL     1      -3.379   2.027 -10.352  1.00  0.00     0.293 HD
ENDBRANCH   6  22
BRANCH   8  24
ATOM     24  O   UNL     1      -7.956   1.476  -8.473  1.00  0.00    -0.508 OA
ATOM     25  H   UNL     1      -8.231   2.337  -8.015  1.00  0.00     0.293 HD
ENDBRANCH   8  24
TORSDOF 5
ENDMDL
MODEL 7
REMARK VINA RESULT:    -4.582      2.348      6.745
REMARK INTER + INTRA:          -5.659
REMARK INTER:                  -5.345
REMARK INTRA:                  -0.314
REMARK UNBOUND:                -0.274
REMARK SMILES O=c1cc(-c2ccc(O)c(O)c2)oc2cc(O)cc(O)c12
REMARK SMILES IDX 4 1 3 2 2 3 1 4 21 5 19 6 18 7 16 8 15 9 14 10 13 11 5 12
REMARK SMILES IDX 6 13 7 14 8 15 12 16 10 17 9 18 11 20 20 22 17 24
REMARK H PARENT 9 19 11 21 20 23 17 25
REMARK Flexibility Score: inf
ROOT
ATOM      1  C   UNL     1      -4.088  -1.296  -6.755  1.00  0.00     0.138 A 
ATOM      2  C   UNL     1      -3.074  -2.163  -7.184  1.00  0.00     0.100 A 
ATOM      3  C   UNL     1      -2.706  -3.245  -6.383  1.00  0.00     0.197 A 
ATOM      4  O   UNL     1      -1.832  -4.035  -6.821  1.00  0.00    -0.289 OA
ATOM      5  C   UNL     1      -3.333  -3.437  -5.128  1.00  0.00     0.107 A 
ATOM      6  C   UNL     1      -3.017  -4.485  -4.212  1.00  0.00     0.134 A 
ATOM      7  C   UNL     1      -3.774  -4.632  -3.044  1.00  0.00     0.093 A 
ATOM      8  C   UNL     1      -4.799  -3.735  -2.731  1.00  0.00     0.123 A 
ATOM      9  C   UNL     1      -5.082  -2.680  -3.594  1.00  0.00     0.094 A 
ATOM     10  C   UNL     1      -4.367  -2.526  -4.784  1.00  0.00     0.146 A 
ATOM     11  O   UNL     1      -4.683  -1.516  -5.588  1.00  0.00    -0.456 OA
ENDROOT
BRANCH   1  12
ATOM     12  C   UNL     1      -4.518  -0.128  -7.566  1.00  0.00     0.021 A 
ATOM     13  C   UNL     1      -3.683   0.345  -8.591  1.00  0.00     0.016 A 
ATOM     14  C   UNL     1      -4.060   1.446  -9.365  1.00  0.00     0.051 A 
ATOM     15  C   UNL     1      -5.271   2.100  -9.122  1.00  0.00     0.157 A 
ATOM     16  C   UNL     1      -5.732   0.542  -7.316  1.00  0.00     0.062 A 
ATOM     17  C   UNL     1      -6.111   1.648  -8.091  1.00  0.00     0.158 A 
BRANCH  15  18
ATOM     18  O   UNL     1      -5.622   3.194  -9.911  1.00  0.00    -0.504 OA
ATOM     19  H   UNL     1      -5.831   4.101  -9.512  1.00  0.00     0.293 HD
ENDBRANCH  15  18
BRANCH  17  20
ATOM     20  O   UNL     1      -7.315   2.303  -7.836  1.00  0.00    -0.504 OA
ATOM     21  H   UNL     1      -7.453   2.855  -6.997  1.00  0.00     0.293 HD
ENDBRANCH  17  20
ENDBRANCH   1  12
BRANCH   6  22
ATOM     22  O   UNL     1      -1.962  -5.387  -4.387  1.00  0.00    -0.507 OA
ATOM     23  H   UNL     1      -1.456  -5.527  -5.248  1.00  0.00     0.293 HD
ENDBRANCH   6  22
BRANCH   8  24
ATOM     24  O   UNL     1      -5.536  -3.880  -1.558  1.00  0.00    -0.508 OA
ATOM     25  H   UNL     1      -6.442  -3.442  -1.443  1.00  0.00     0.293 HD
ENDBRANCH   8  24
TORSDOF 5
ENDMDL
MODEL 8
REMARK VINA RESULT:    -4.575     11.525     12.369
REMARK INTER + INTRA:          -5.651
REMARK INTER:                  -5.334
REMARK INTRA:                  -0.317
REMARK UNBOUND:                -0.274
REMARK SMILES O=c1cc(-c2ccc(O)c(O)c2)oc2cc(O)cc(O)c12
REMARK SMILES IDX 4 1 3 2 2 3 1 4 21 5 19 6 18 7 16 8 15 9 14 10 13 11 5 12
REMARK SMILES IDX 6 13 7 14 8 15 12 16 10 17 9 18 11 20 20 22 17 24
REMARK H PARENT 9 19 11 21 20 23 17 25
REMARK Flexibility Score: inf
ROOT
ATOM      1  C   UNL     1      -0.731   6.791   2.177  1.00  0.00     0.138 A 
ATOM      2  C   UNL     1      -0.208   7.105   3.439  1.00  0.00     0.100 A 
ATOM      3  C   UNL     1       1.051   7.699   3.536  1.00  0.00     0.197 A 
ATOM      4  O   UNL     1       1.468   8.018   4.679  1.00  0.00    -0.289 OA
ATOM      5  C   UNL     1       1.805   7.946   2.364  1.00  0.00     0.107 A 
ATOM      6  C   UNL     1       3.114   8.516   2.343  1.00  0.00     0.134 A 
ATOM      7  C   UNL     1       3.721   8.805   1.115  1.00  0.00     0.093 A 
ATOM      8  C   UNL     1       3.091   8.492  -0.093  1.00  0.00     0.123 A 
ATOM      9  C   UNL     1       1.835   7.890  -0.082  1.00  0.00     0.094 A 
ATOM     10  C   UNL     1       1.189   7.621   1.127  1.00  0.00     0.146 A 
ATOM     11  O   UNL     1      -0.017   7.063   1.090  1.00  0.00    -0.456 OA
ENDROOT
BRANCH   1  12
ATOM     12  C   UNL     1      -2.064   6.156   2.015  1.00  0.00     0.021 A 
ATOM     13  C   UNL     1      -2.760   5.714   3.152  1.00  0.00     0.016 A 
ATOM     14  C   UNL     1      -4.013   5.107   3.028  1.00  0.00     0.051 A 
ATOM     15  C   UNL     1      -4.587   4.923   1.767  1.00  0.00     0.157 A 
ATOM     16  C   UNL     1      -2.641   5.958   0.746  1.00  0.00     0.062 A 
ATOM     17  C   UNL     1      -3.898   5.347   0.619  1.00  0.00     0.158 A 
BRANCH  15  18
ATOM     18  O   UNL     1      -5.839   4.317   1.674  1.00  0.00    -0.504 OA
ATOM     19  H   UNL     1      -6.214   3.739   2.416  1.00  0.00     0.293 HD
ENDBRANCH  15  18
BRANCH  17  20
ATOM     20  O   UNL     1      -4.461   5.157  -0.642  1.00  0.00    -0.504 OA
ATOM     21  H   UNL     1      -4.821   5.932  -1.186  1.00  0.00     0.293 HD
ENDBRANCH  17  20
ENDBRANCH   1  12
BRANCH   6  22
ATOM     22  O   UNL     1       3.866   8.794   3.489  1.00  0.00    -0.507 OA
ATOM     23  H   UNL     1       4.212   9.705   3.748  1.00  0.00     0.293 HD
ENDBRANCH   6  22
BRANCH   8  24
ATOM     24  O   UNL     1       3.709   8.769  -1.309  1.00  0.00    -0.508 OA
ATOM     25  H   UNL     1       3.973   9.713  -1.567  1.00  0.00     0.293 HD
ENDBRANCH   8  24
TORSDOF 5
ENDMDL
MODEL 9
REMARK VINA RESULT:    -4.534     10.406     12.855
REMARK INTER + INTRA:          -5.603
REMARK INTER:                  -5.322
REMARK INTRA:                  -0.281
REMARK UNBOUND:                -0.274
REMARK SMILES O=c1cc(-c2ccc(O)c(O)c2)oc2cc(O)cc(O)c12
REMARK SMILES IDX 4 1 3 2 2 3 1 4 21 5 19 6 18 7 16 8 15 9 14 10 13 11 5 12
REMARK SMILES IDX 6 13 7 14 8 15 12 16 10 17 9 18 11 20 20 22 17 24
REMARK H PARENT 9 19 11 21 20 23 17 25
REMARK Flexibility Score: inf
ROOT
ATOM      1  C   UNL     1      -1.433   6.873   1.203  1.00  0.00     0.138 A 
ATOM      2  C   UNL     1      -1.502   6.403   2.521  1.00  0.00     0.100 A 
ATOM      3  C   UNL     1      -2.639   5.718   2.952  1.00  0.00     0.197 A 
ATOM      4  O   UNL     1      -2.647   5.261   4.123  1.00  0.00    -0.289 OA
ATOM      5  C   UNL     1      -3.729   5.536   2.067  1.00  0.00     0.107 A 
ATOM      6  C   UNL     1      -4.952   4.884   2.405  1.00  0.00     0.134 A 
ATOM      7  C   UNL     1      -5.921   4.676   1.415  1.00  0.00     0.093 A 
ATOM      8  C   UNL     1      -5.733   5.148   0.112  1.00  0.00     0.123 A 
ATOM      9  C   UNL     1      -4.564   5.829  -0.215  1.00  0.00     0.094 A 
ATOM     10  C   UNL     1      -3.564   6.022   0.742  1.00  0.00     0.146 A 
ATOM     11  O   UNL     1      -2.457   6.661   0.382  1.00  0.00    -0.456 OA
ENDROOT
BRANCH   1  12
ATOM     12  C   UNL     1      -0.249   7.609   0.692  1.00  0.00     0.021 A 
ATOM     13  C   UNL     1      -0.436   8.715  -0.154  1.00  0.00     0.016 A 
ATOM     14  C   UNL     1       0.661   9.422  -0.654  1.00  0.00     0.051 A 
ATOM     15  C   UNL     1       1.962   9.031  -0.328  1.00  0.00     0.157 A 
ATOM     16  C   UNL     1       1.065   7.211   1.008  1.00  0.00     0.062 A 
ATOM     17  C   UNL     1       2.167   7.919   0.505  1.00  0.00     0.158 A 
BRANCH  15  18
ATOM     18  O   UNL     1       3.037   9.757  -0.840  1.00  0.00    -0.504 OA
ATOM     19  H   UNL     1       2.965  10.294  -1.695  1.00  0.00     0.293 HD
ENDBRANCH  15  18
BRANCH  17  20
ATOM     20  O   UNL     1       3.463   7.517   0.825  1.00  0.00    -0.504 OA
ATOM     21  H   UNL     1       3.890   6.705   0.393  1.00  0.00     0.293 HD
ENDBRANCH  17  20
ENDBRANCH   1  12
BRANCH   6  22
ATOM     22  O   UNL     1      -5.277   4.445   3.693  1.00  0.00    -0.507 OA
ATOM     23  H   UNL     1      -4.742   4.643   4.524  1.00  0.00     0.293 HD
ENDBRANCH   6  22
BRANCH   8  24
ATOM     24  O   UNL     1      -6.708   4.949  -0.862  1.00  0.00    -0.508 OA
ATOM     25  H   UNL     1      -6.579   5.268  -1.814  1.00  0.00     0.293 HD
ENDBRANCH   8  24
TORSDOF 5
ENDMDL
