MODEL 1
REMARK VINA RESULT:    -4.660      0.000      0.000
REMARK INTER + INTRA:          -6.202
REMARK INTER:                  -6.023
REMARK INTRA:                  -0.180
REMARK UNBOUND:                -0.180
REMARK SMILES C=CC(=O)CCCCC
REMARK SMILES IDX 6 1 7 2 8 3 9 4 5 5 3 6 4 7 2 8 1 9
REMARK H PARENT
REMARK Flexibility Score: inf
ROOT
ATOM      1  C   UNL     1      15.687  25.678 -24.605  1.00  0.00     0.008 C 
ENDROOT
BRANCH   1   2
ATOM      2  C   UNL     1      14.824  25.479 -25.861  1.00  0.00     0.000 C 
BRANCH   2   3
ATOM      3  C   UNL     1      14.479  24.003 -26.111  1.00  0.00    -0.003 C 
ATOM      4  C   UNL     1      12.970  23.804 -26.221  1.00  0.00     0.004 C 
ENDBRANCH   2   3
ENDBRANCH   1   2
BRANCH   1   5
ATOM      5  C   UNL     1      17.188  25.527 -24.890  1.00  0.00     0.080 C 
BRANCH   5   6
ATOM      6  C   UNL     1      17.770  24.391 -24.090  1.00  0.00     0.155 C 
ATOM      7  O   UNL     1      17.049  23.382 -23.864  1.00  0.00    -0.295 OA
BRANCH   6   8
ATOM      8  C   UNL     1      19.160  24.385 -23.586  1.00  0.00     0.039 C 
ATOM      9  C   UNL     1      19.483  24.392 -22.292  1.00  0.00     0.012 C 
ENDBRANCH   6   8
ENDBRANCH   5   6
ENDBRANCH   1   5
TORSDOF 5
ENDMDL
MODEL 2
REMARK VINA RESULT:    -4.447      1.103      4.966
REMARK INTER + INTRA:          -5.927
REMARK INTER:                  -5.853
REMARK INTRA:                  -0.074
REMARK UNBOUND:                -0.180
REMARK SMILES C=CC(=O)CCCCC
REMARK SMILES IDX 6 1 7 2 8 3 9 4 5 5 3 6 4 7 2 8 1 9
REMARK H PARENT
REMARK Flexibility Score: inf
ROOT
ATOM      1  C   UNL     1      16.097  25.015 -24.166  1.00  0.00     0.008 C 
ENDROOT
BRANCH   1   2
ATOM      2  C   UNL     1      17.606  24.772 -24.326  1.00  0.00     0.000 C 
BRANCH   2   3
ATOM      3  C   UNL     1      18.192  23.936 -23.179  1.00  0.00    -0.003 C 
ATOM      4  C   UNL     1      19.666  24.267 -22.956  1.00  0.00     0.004 C 
ENDBRANCH   2   3
ENDBRANCH   1   2
BRANCH   1   5
ATOM      5  C   UNL     1      15.380  25.181 -25.513  1.00  0.00     0.080 C 
BRANCH   5   6
ATOM      6  C   UNL     1      14.716  23.894 -25.925  1.00  0.00     0.155 C 
ATOM      7  O   UNL     1      15.292  22.807 -25.657  1.00  0.00    -0.295 OA
BRANCH   6   8
ATOM      8  C   UNL     1      13.401  23.842 -26.599  1.00  0.00     0.039 C 
ATOM      9  C   UNL     1      12.265  23.496 -25.993  1.00  0.00     0.012 C 
ENDBRANCH   6   8
ENDBRANCH   5   6
ENDBRANCH   1   5
TORSDOF 5
ENDMDL
MODEL 3
REMARK VINA RESULT:    -4.181     14.122     14.923
REMARK INTER + INTRA:          -5.582
REMARK INTER:                  -5.319
REMARK INTRA:                  -0.263
REMARK UNBOUND:                -0.180
REMARK SMILES C=CC(=O)CCCCC
REMARK SMILES IDX 6 1 7 2 8 3 9 4 5 5 3 6 4 7 2 8 1 9
REMARK H PARENT
REMARK Flexibility Score: inf
ROOT
ATOM      1  C   UNL     1      19.082  11.525 -25.542  1.00  0.00     0.008 C 
ENDROOT
BRANCH   1   2
ATOM      2  C   UNL     1      20.151  12.626 -25.619  1.00  0.00     0.000 C 
BRANCH   2   3
ATOM      3  C   UNL     1      20.820  12.701 -26.999  1.00  0.00    -0.003 C 
ATOM      4  C   UNL     1      22.319  12.429 -26.898  1.00  0.00     0.004 C 
ENDBRANCH   2   3
ENDBRANCH   1   2
BRANCH   1   5
ATOM      5  C   UNL     1      19.598  10.165 -26.034  1.00  0.00     0.080 C 
BRANCH   5   6
ATOM      6  C   UNL     1      20.102   9.338 -24.881  1.00  0.00     0.155 C 
ATOM      7  O   UNL     1      21.258   9.567 -24.436  1.00  0.00    -0.295 OA
BRANCH   6   8
ATOM      8  C   UNL     1      19.292   8.292 -24.220  1.00  0.00     0.039 C 
ATOM      9  C   UNL     1      17.963   8.218 -24.300  1.00  0.00     0.012 C 
ENDBRANCH   6   8
ENDBRANCH   5   6
ENDBRANCH   1   5
TORSDOF 5
ENDMDL
MODEL 4
REMARK VINA RESULT:    -4.154     14.092     14.844
REMARK INTER + INTRA:          -5.548
REMARK INTER:                  -5.040
REMARK INTRA:                  -0.508
REMARK UNBOUND:                -0.180
REMARK SMILES C=CC(=O)CCCCC
REMARK SMILES IDX 6 1 7 2 8 3 9 4 5 5 3 6 4 7 2 8 1 9
REMARK H PARENT
REMARK Flexibility Score: inf
ROOT
ATOM      1  C   UNL     1      18.781  11.135 -25.673  1.00  0.00     0.008 C 
ENDROOT
BRANCH   1   2
ATOM      2  C   UNL     1      19.742  12.327 -25.552  1.00  0.00     0.000 C 
BRANCH   2   3
ATOM      3  C   UNL     1      20.322  12.754 -26.908  1.00  0.00    -0.003 C 
ATOM      4  C   UNL     1      21.846  12.664 -26.906  1.00  0.00     0.004 C 
ENDBRANCH   2   3
ENDBRANCH   1   2
BRANCH   1   5
ATOM      5  C   UNL     1      19.493   9.844 -26.101  1.00  0.00     0.080 C 
BRANCH   5   6
ATOM      6  C   UNL     1      20.197   9.211 -24.930  1.00  0.00     0.155 C 
ATOM      7  O   UNL     1      19.523   8.511 -24.128  1.00  0.00    -0.295 OA
BRANCH   6   8
ATOM      8  C   UNL     1      21.651   9.342 -24.693  1.00  0.00     0.039 C 
ATOM      9  C   UNL     1      22.569   9.318 -25.660  1.00  0.00     0.012 C 
ENDBRANCH   6   8
ENDBRANCH   5   6
ENDBRANCH   1   5
TORSDOF 5
ENDMDL
MODEL 5
REMARK VINA RESULT:    -4.105     13.744     14.560
REMARK INTER + INTRA:          -5.485
REMARK INTER:                  -5.024
REMARK INTRA:                  -0.461
REMARK UNBOUND:                -0.180
REMARK SMILES C=CC(=O)CCCCC
REMARK SMILES IDX 6 1 7 2 8 3 9 4 5 5 3 6 4 7 2 8 1 9
REMARK H PARENT
REMARK Flexibility Score: inf
ROOT
ATOM      1  C   UNL     1      19.854  12.290 -25.623  1.00  0.00     0.008 C 
ENDROOT
BRANCH   1   2
ATOM      2  C   UNL     1      20.449  13.035 -26.828  1.00  0.00     0.000 C 
BRANCH   2   3
ATOM      3  C   UNL     1      21.471  12.185 -27.598  1.00  0.00    -0.003 C 
ATOM      4  C   UNL     1      22.850  12.265 -26.951  1.00  0.00     0.004 C 
ENDBRANCH   2   3
ENDBRANCH   1   2
BRANCH   1   5
ATOM      5  C   UNL     1      18.911  11.153 -26.038  1.00  0.00     0.080 C 
BRANCH   5   6
ATOM      6  C   UNL     1      19.348   9.848 -25.425  1.00  0.00     0.155 C 
ATOM      7  O   UNL     1      18.510   9.189 -24.754  1.00  0.00    -0.295 OA
BRANCH   6   8
ATOM      8  C   UNL     1      20.704   9.285 -25.600  1.00  0.00     0.039 C 
ATOM      9  C   UNL     1      21.683   9.405 -24.704  1.00  0.00     0.012 C 
ENDBRANCH   6   8
ENDBRANCH   5   6
ENDBRANCH   1   5
TORSDOF 5
ENDMDL
MODEL 6
REMARK VINA RESULT:    -4.058     14.173     15.086
REMARK INTER + INTRA:          -5.424
REMARK INTER:                  -4.977
REMARK INTRA:                  -0.447
REMARK UNBOUND:                -0.180
REMARK SMILES C=CC(=O)CCCCC
REMARK SMILES IDX 6 1 7 2 8 3 9 4 5 5 3 6 4 7 2 8 1 9
REMARK H PARENT
REMARK Flexibility Score: inf
ROOT
ATOM      1  C   UNL     1      22.471   9.634 -25.373  1.00  0.00     0.008 C 
ENDROOT
BRANCH   1   2
ATOM      2  C   UNL     1      21.263   9.272 -24.494  1.00  0.00     0.000 C 
BRANCH   2   3
ATOM      3  C   UNL     1      20.014   8.933 -25.321  1.00  0.00    -0.003 C 
ATOM      4  C   UNL     1      18.904   8.376 -24.435  1.00  0.00     0.004 C 
ENDBRANCH   2   3
ENDBRANCH   1   2
BRANCH   1   5
ATOM      5  C   UNL     1      22.782  11.137 -25.359  1.00  0.00     0.080 C 
BRANCH   5   6
ATOM      6  C   UNL     1      22.182  11.816 -26.562  1.00  0.00     0.155 C 
ATOM      7  O   UNL     1      22.704  11.613 -27.690  1.00  0.00    -0.295 OA
BRANCH   6   8
ATOM      8  C   UNL     1      20.987  12.684 -26.489  1.00  0.00     0.039 C 
ATOM      9  C   UNL     1      20.135  12.695 -25.464  1.00  0.00     0.012 C 
ENDBRANCH   6   8
ENDBRANCH   5   6
ENDBRANCH   1   5
TORSDOF 5
ENDMDL
MODEL 7
REMARK VINA RESULT:    -4.056     14.374     15.300
REMARK INTER + INTRA:          -5.422
REMARK INTER:                  -4.978
REMARK INTRA:                  -0.443
REMARK UNBOUND:                -0.180
REMARK SMILES C=CC(=O)CCCCC
REMARK SMILES IDX 6 1 7 2 8 3 9 4 5 5 3 6 4 7 2 8 1 9
REMARK H PARENT
REMARK Flexibility Score: inf
ROOT
ATOM      1  C   UNL     1      22.366  11.170 -25.298  1.00  0.00     0.008 C 
ENDROOT
BRANCH   1   2
ATOM      2  C   UNL     1      22.337  12.008 -26.586  1.00  0.00     0.000 C 
BRANCH   2   3
ATOM      3  C   UNL     1      21.003  12.744 -26.779  1.00  0.00    -0.003 C 
ATOM      4  C   UNL     1      20.145  12.663 -25.519  1.00  0.00     0.004 C 
ENDBRANCH   2   3
ENDBRANCH   1   2
BRANCH   1   5
ATOM      5  C   UNL     1      22.476   9.664 -25.575  1.00  0.00     0.080 C 
BRANCH   5   6
ATOM      6  C   UNL     1      21.108   9.038 -25.661  1.00  0.00     0.155 C 
ATOM      7  O   UNL     1      20.724   8.583 -26.771  1.00  0.00    -0.295 OA
BRANCH   6   8
ATOM      8  C   UNL     1      20.208   8.900 -24.497  1.00  0.00     0.039 C 
ATOM      9  C   UNL     1      18.911   8.605 -24.588  1.00  0.00     0.012 C 
ENDBRANCH   6   8
ENDBRANCH   5   6
ENDBRANCH   1   5
TORSDOF 5
ENDMDL
MODEL 8
REMARK VINA RESULT:    -4.010     14.622     15.336
REMARK INTER + INTRA:          -5.362
REMARK INTER:                  -5.165
REMARK INTRA:                  -0.197
REMARK UNBOUND:                -0.180
REMARK SMILES C=CC(=O)CCCCC
REMARK SMILES IDX 6 1 7 2 8 3 9 4 5 5 3 6 4 7 2 8 1 9
REMARK H PARENT
REMARK Flexibility Score: inf
ROOT
ATOM      1  C   UNL     1      20.677   9.240 -24.572  1.00  0.00     0.008 C 
ENDROOT
BRANCH   1   2
ATOM      2  C   UNL     1      19.420   8.563 -25.141  1.00  0.00     0.000 C 
BRANCH   2   3
ATOM      3  C   UNL     1      18.670   7.735 -24.087  1.00  0.00    -0.003 C 
ATOM      4  C   UNL     1      17.178   8.055 -24.098  1.00  0.00     0.004 C 
ENDBRANCH   2   3
ENDBRANCH   1   2
BRANCH   1   5
ATOM      5  C   UNL     1      21.679   9.638 -25.665  1.00  0.00     0.080 C 
BRANCH   5   6
ATOM      6  C   UNL     1      21.897  11.129 -25.670  1.00  0.00     0.155 C 
ATOM      7  O   UNL     1      23.078  11.564 -25.709  1.00  0.00    -0.295 OA
BRANCH   6   8
ATOM      8  C   UNL     1      20.789  12.108 -25.667  1.00  0.00     0.039 C 
ATOM      9  C   UNL     1      20.524  12.937 -26.677  1.00  0.00     0.012 C 
ENDBRANCH   6   8
ENDBRANCH   5   6
ENDBRANCH   1   5
TORSDOF 5
ENDMDL
MODEL 9
REMARK VINA RESULT:    -3.967     14.125     14.857
REMARK INTER + INTRA:          -5.306
REMARK INTER:                  -4.746
REMARK INTRA:                  -0.561
REMARK UNBOUND:                -0.180
REMARK SMILES C=CC(=O)CCCCC
REMARK SMILES IDX 6 1 7 2 8 3 9 4 5 5 3 6 4 7 2 8 1 9
REMARK H PARENT
REMARK Flexibility Score: inf
ROOT
ATOM      1  C   UNL     1      21.991  12.253 -27.251  1.00  0.00     0.008 C 
ENDROOT
BRANCH   1   2
ATOM      2  C   UNL     1      20.650  12.950 -26.973  1.00  0.00     0.000 C 
BRANCH   2   3
ATOM      3  C   UNL     1      20.106  12.640 -25.570  1.00  0.00    -0.003 C 
ATOM      4  C   UNL     1      19.022  11.568 -25.627  1.00  0.00     0.004 C 
ENDBRANCH   2   3
ENDBRANCH   1   2
BRANCH   1   5
ATOM      5  C   UNL     1      21.817  10.903 -27.961  1.00  0.00     0.080 C 
BRANCH   5   6
ATOM      6  C   UNL     1      22.514   9.807 -27.199  1.00  0.00     0.155 C 
ATOM      7  O   UNL     1      22.980   8.829 -27.842  1.00  0.00    -0.295 OA
BRANCH   6   8
ATOM      8  C   UNL     1      22.709   9.838 -25.733  1.00  0.00     0.039 C 
ATOM      9  C   UNL     1      21.834   9.348 -24.854  1.00  0.00     0.012 C 
ENDBRANCH   6   8
ENDBRANCH   5   6
ENDBRANCH   1   5
TORSDOF 5
ENDMDL
