MODEL 1
REMARK VINA RESULT:    -4.296      0.000      0.000
REMARK INTER + INTRA:          -5.662
REMARK INTER:                  -5.050
REMARK INTRA:                  -0.613
REMARK UNBOUND:                -0.613
REMARK SMILES CCCC[C@@H]1OC(=O)C2=C1CCC=C2
REMARK SMILES IDX 3 1 2 2 1 3 4 4 5 5 10 6 6 7 9 8 11 9 7 10 14 11 12 12 8 13
REMARK SMILES IDX 13 14
REMARK H PARENT
REMARK Flexibility Score: inf
ROOT
ATOM      1  C   UNL     1       1.810  -2.312 -35.192  1.00  0.00     0.004 C 
ENDROOT
BRANCH   1   2
ATOM      2  C   UNL     1       2.918  -2.371 -36.250  1.00  0.00    -0.003 C 
ATOM      3  C   UNL     1       2.342  -2.234 -37.657  1.00  0.00     0.004 C 
ENDBRANCH   1   2
BRANCH   1   4
ATOM      4  C   UNL     1       1.971  -1.076 -34.298  1.00  0.00     0.050 C 
BRANCH   4   5
ATOM      5  C   UNL     1       0.693  -0.227 -34.284  1.00  0.00     0.204 C 
ATOM      6  C   UNL     1       0.230   0.097 -35.684  1.00  0.00    -0.015 C 
ATOM      7  O   UNL     1      -0.404  -0.971 -33.745  1.00  0.00    -0.454 OA
ATOM      8  C   UNL     1      -0.989  -0.373 -35.893  1.00  0.00     0.062 C 
ATOM      9  C   UNL     1       0.868   1.062 -36.646  1.00  0.00     0.040 C 
ATOM     10  C   UNL     1      -1.406  -1.054 -34.695  1.00  0.00     0.338 C 
ATOM     11  C   UNL     1      -1.753  -0.090 -37.115  1.00  0.00     0.011 C 
ATOM     12  C   UNL     1       0.342   0.838 -38.084  1.00  0.00     0.032 C 
ATOM     13  O   UNL     1      -2.511  -1.628 -34.515  1.00  0.00    -0.246 OA
ATOM     14  C   UNL     1      -1.146   0.547 -38.125  1.00  0.00    -0.026 C 
ENDBRANCH   4   5
ENDBRANCH   1   4
TORSDOF 3
ENDMDL
MODEL 2
REMARK VINA RESULT:    -4.275      2.266      4.335
REMARK INTER + INTRA:          -5.637
REMARK INTER:                  -5.183
REMARK INTRA:                  -0.454
REMARK UNBOUND:                -0.613
REMARK SMILES CCCC[C@@H]1OC(=O)C2=C1CCC=C2
REMARK SMILES IDX 3 1 2 2 1 3 4 4 5 5 10 6 6 7 9 8 11 9 7 10 14 11 12 12 8 13
REMARK SMILES IDX 13 14
REMARK H PARENT
REMARK Flexibility Score: inf
ROOT
ATOM      1  C   UNL     1      -1.394  -0.123 -36.918  1.00  0.00     0.004 C 
ENDROOT
BRANCH   1   2
ATOM      2  C   UNL     1      -1.554  -1.448 -37.673  1.00  0.00    -0.003 C 
ATOM      3  C   UNL     1      -1.386  -2.640 -36.734  1.00  0.00     0.004 C 
ENDBRANCH   1   2
BRANCH   1   4
ATOM      4  C   UNL     1      -0.465   0.832 -37.678  1.00  0.00     0.050 C 
BRANCH   4   5
ATOM      5  C   UNL     1       0.998   0.638 -37.258  1.00  0.00     0.204 C 
ATOM      6  C   UNL     1       1.103  -0.025 -35.905  1.00  0.00    -0.015 C 
ATOM      7  O   UNL     1       1.655  -0.292 -38.125  1.00  0.00    -0.454 OA
ATOM      8  C   UNL     1       1.767  -1.165 -35.994  1.00  0.00     0.062 C 
ATOM      9  C   UNL     1       0.796   0.596 -34.569  1.00  0.00     0.040 C 
ATOM     10  C   UNL     1       2.118  -1.359 -37.377  1.00  0.00     0.338 C 
ATOM     11  C   UNL     1       2.146  -1.959 -34.818  1.00  0.00     0.011 C 
ATOM     12  C   UNL     1       0.655  -0.489 -33.475  1.00  0.00     0.032 C 
ATOM     13  O   UNL     1       2.758  -2.334 -37.849  1.00  0.00    -0.246 OA
ATOM     14  C   UNL     1       1.678  -1.599 -33.616  1.00  0.00    -0.026 C 
ENDBRANCH   4   5
ENDBRANCH   1   4
TORSDOF 3
ENDMDL
MODEL 3
REMARK VINA RESULT:    -4.170      2.470      4.694
REMARK INTER + INTRA:          -5.514
REMARK INTER:                  -5.315
REMARK INTRA:                  -0.199
REMARK UNBOUND:                -0.613
REMARK SMILES CCCC[C@@H]1OC(=O)C2=C1CCC=C2
REMARK SMILES IDX 3 1 2 2 1 3 4 4 5 5 10 6 6 7 9 8 11 9 7 10 14 11 12 12 8 13
REMARK SMILES IDX 13 14
REMARK H PARENT
REMARK Flexibility Score: inf
ROOT
ATOM      1  C   UNL     1      -3.937  -2.275 -33.656  1.00  0.00     0.004 C 
ENDROOT
BRANCH   1   2
ATOM      2  C   UNL     1      -4.317  -2.865 -32.293  1.00  0.00    -0.003 C 
ATOM      3  C   UNL     1      -3.204  -2.652 -31.271  1.00  0.00     0.004 C 
ENDBRANCH   1   2
BRANCH   1   4
ATOM      4  C   UNL     1      -2.427  -2.384 -33.899  1.00  0.00     0.050 C 
BRANCH   4   5
ATOM      5  C   UNL     1      -2.007  -1.611 -35.156  1.00  0.00     0.204 C 
ATOM      6  C   UNL     1      -0.531  -1.289 -35.140  1.00  0.00    -0.015 C 
ATOM      7  O   UNL     1      -2.146  -2.428 -36.323  1.00  0.00    -0.454 OA
ATOM      8  C   UNL     1       0.075  -1.824 -36.186  1.00  0.00     0.062 C 
ATOM      9  C   UNL     1       0.161  -0.270 -34.275  1.00  0.00     0.040 C 
ATOM     10  C   UNL     1      -0.914  -2.550 -36.940  1.00  0.00     0.338 C 
ATOM     11  C   UNL     1       1.483  -1.563 -36.510  1.00  0.00     0.011 C 
ATOM     12  C   UNL     1       1.691  -0.497 -34.272  1.00  0.00     0.032 C 
ATOM     13  O   UNL     1      -0.712  -3.190 -38.004  1.00  0.00    -0.246 OA
ATOM     14  C   UNL     1       2.231  -0.873 -35.638  1.00  0.00    -0.026 C 
ENDBRANCH   4   5
ENDBRANCH   1   4
TORSDOF 3
ENDMDL
MODEL 4
REMARK VINA RESULT:    -4.137      6.772      8.578
REMARK INTER + INTRA:          -5.475
REMARK INTER:                  -5.166
REMARK INTRA:                  -0.310
REMARK UNBOUND:                -0.613
REMARK SMILES CCCC[C@@H]1OC(=O)C2=C1CCC=C2
REMARK SMILES IDX 3 1 2 2 1 3 4 4 5 5 10 6 6 7 9 8 11 9 7 10 14 11 12 12 8 13
REMARK SMILES IDX 13 14
REMARK H PARENT
REMARK Flexibility Score: inf
ROOT
ATOM      1  C   UNL     1      -2.170  -5.449 -27.279  1.00  0.00     0.004 C 
ENDROOT
BRANCH   1   2
ATOM      2  C   UNL     1      -3.632  -5.616 -26.848  1.00  0.00    -0.003 C 
ATOM      3  C   UNL     1      -4.019  -4.576 -25.801  1.00  0.00     0.004 C 
ENDBRANCH   1   2
BRANCH   1   4
ATOM      4  C   UNL     1      -2.076  -5.050 -28.757  1.00  0.00     0.050 C 
BRANCH   4   5
ATOM      5  C   UNL     1      -3.314  -5.508 -29.538  1.00  0.00     0.204 C 
ATOM      6  C   UNL     1      -3.535  -4.662 -30.770  1.00  0.00    -0.015 C 
ATOM      7  O   UNL     1      -3.118  -6.818 -30.077  1.00  0.00    -0.454 OA
ATOM      8  C   UNL     1      -3.504  -5.410 -31.860  1.00  0.00     0.062 C 
ATOM      9  C   UNL     1      -4.025  -3.240 -30.813  1.00  0.00     0.040 C 
ATOM     10  C   UNL     1      -3.237  -6.764 -31.455  1.00  0.00     0.338 C 
ATOM     11  C   UNL     1      -3.826  -4.885 -33.194  1.00  0.00     0.011 C 
ATOM     12  C   UNL     1      -3.759  -2.606 -32.199  1.00  0.00     0.032 C 
ATOM     13  O   UNL     1      -3.137  -7.761 -32.217  1.00  0.00    -0.246 OA
ATOM     14  C   UNL     1      -4.018  -3.568 -33.343  1.00  0.00    -0.026 C 
ENDBRANCH   4   5
ENDBRANCH   1   4
TORSDOF 3
ENDMDL
MODEL 5
REMARK VINA RESULT:    -3.961      5.982      7.836
REMARK INTER + INTRA:          -5.268
REMARK INTER:                  -4.908
REMARK INTRA:                  -0.360
REMARK UNBOUND:                -0.613
REMARK SMILES CCCC[C@@H]1OC(=O)C2=C1CCC=C2
REMARK SMILES IDX 3 1 2 2 1 3 4 4 5 5 10 6 6 7 9 8 11 9 7 10 14 11 12 12 8 13
REMARK SMILES IDX 13 14
REMARK H PARENT
REMARK Flexibility Score: inf
ROOT
ATOM      1  C   UNL     1      -3.891  -4.942 -28.457  1.00  0.00     0.004 C 
ENDROOT
BRANCH   1   2
ATOM      2  C   UNL     1      -2.360  -5.022 -28.490  1.00  0.00    -0.003 C 
ATOM      3  C   UNL     1      -1.814  -5.637 -27.204  1.00  0.00     0.004 C 
ENDBRANCH   1   2
BRANCH   1   4
ATOM      4  C   UNL     1      -4.414  -4.006 -29.554  1.00  0.00     0.050 C 
BRANCH   4   5
ATOM      5  C   UNL     1      -3.397  -3.858 -30.693  1.00  0.00     0.204 C 
ATOM      6  C   UNL     1      -3.705  -4.797 -31.835  1.00  0.00    -0.015 C 
ATOM      7  O   UNL     1      -3.501  -2.567 -31.300  1.00  0.00    -0.454 OA
ATOM      8  C   UNL     1      -3.918  -4.120 -32.951  1.00  0.00     0.062 C 
ATOM      9  C   UNL     1      -3.517  -6.290 -31.853  1.00  0.00     0.040 C 
ATOM     10  C   UNL     1      -3.802  -2.719 -32.641  1.00  0.00     0.338 C 
ATOM     11  C   UNL     1      -4.101  -4.772 -34.255  1.00  0.00     0.011 C 
ATOM     12  C   UNL     1      -4.288  -6.930 -33.031  1.00  0.00     0.032 C 
ATOM     13  O   UNL     1      -3.938  -1.766 -33.453  1.00  0.00    -0.246 OA
ATOM     14  C   UNL     1      -4.205  -6.106 -34.302  1.00  0.00    -0.026 C 
ENDBRANCH   4   5
ENDBRANCH   1   4
TORSDOF 3
ENDMDL
MODEL 6
REMARK VINA RESULT:    -3.903      7.175      9.384
REMARK INTER + INTRA:          -5.200
REMARK INTER:                  -4.941
REMARK INTRA:                  -0.259
REMARK UNBOUND:                -0.613
REMARK SMILES CCCC[C@@H]1OC(=O)C2=C1CCC=C2
REMARK SMILES IDX 3 1 2 2 1 3 4 4 5 5 10 6 6 7 9 8 11 9 7 10 14 11 12 12 8 13
REMARK SMILES IDX 13 14
REMARK H PARENT
REMARK Flexibility Score: inf
ROOT
ATOM      1  C   UNL     1      -3.405  -2.657 -31.531  1.00  0.00     0.004 C 
ENDROOT
BRANCH   1   2
ATOM      2  C   UNL     1      -4.477  -2.737 -32.624  1.00  0.00    -0.003 C 
ATOM      3  C   UNL     1      -3.988  -3.557 -33.815  1.00  0.00     0.004 C 
ENDBRANCH   1   2
BRANCH   1   4
ATOM      4  C   UNL     1      -3.725  -3.617 -30.378  1.00  0.00     0.050 C 
BRANCH   4   5
ATOM      5  C   UNL     1      -2.892  -4.902 -30.476  1.00  0.00     0.204 C 
ATOM      6  C   UNL     1      -2.662  -5.517 -29.116  1.00  0.00    -0.015 C 
ATOM      7  O   UNL     1      -3.615  -5.922 -31.173  1.00  0.00    -0.454 OA
ATOM      8  C   UNL     1      -3.159  -6.741 -29.067  1.00  0.00     0.062 C 
ATOM      9  C   UNL     1      -1.750  -5.001 -28.035  1.00  0.00     0.040 C 
ATOM     10  C   UNL     1      -3.769  -7.017 -30.341  1.00  0.00     0.338 C 
ATOM     11  C   UNL     1      -2.961  -7.635 -27.918  1.00  0.00     0.011 C 
ATOM     12  C   UNL     1      -2.069  -5.672 -26.678  1.00  0.00     0.032 C 
ATOM     13  O   UNL     1      -4.344  -8.086 -30.672  1.00  0.00    -0.246 OA
ATOM     14  C   UNL     1      -2.381  -7.150 -26.813  1.00  0.00    -0.026 C 
ENDBRANCH   4   5
ENDBRANCH   1   4
TORSDOF 3
ENDMDL
MODEL 7
REMARK VINA RESULT:    -3.654     17.850     19.570
REMARK INTER + INTRA:          -4.907
REMARK INTER:                  -4.755
REMARK INTRA:                  -0.152
REMARK UNBOUND:                -0.613
REMARK SMILES CCCC[C@@H]1OC(=O)C2=C1CCC=C2
REMARK SMILES IDX 3 1 2 2 1 3 4 4 5 5 10 6 6 7 9 8 11 9 7 10 14 11 12 12 8 13
REMARK SMILES IDX 13 14
REMARK H PARENT
REMARK Flexibility Score: inf
ROOT
ATOM      1  C   UNL     1       9.085  11.125 -26.568  1.00  0.00     0.004 C 
ENDROOT
BRANCH   1   2
ATOM      2  C   UNL     1       8.240  10.417 -27.634  1.00  0.00    -0.003 C 
ATOM      3  C   UNL     1       8.585  10.921 -29.033  1.00  0.00     0.004 C 
ENDBRANCH   1   2
BRANCH   1   4
ATOM      4  C   UNL     1       9.121  10.312 -25.268  1.00  0.00     0.050 C 
BRANCH   4   5
ATOM      5  C   UNL     1       9.902  11.048 -24.171  1.00  0.00     0.204 C 
ATOM      6  C   UNL     1       9.537  10.539 -22.797  1.00  0.00    -0.015 C 
ATOM      7  O   UNL     1      11.300  10.756 -24.263  1.00  0.00    -0.454 OA
ATOM      8  C   UNL     1      10.604  10.058 -22.180  1.00  0.00     0.062 C 
ATOM      9  C   UNL     1       8.252  10.786 -22.055  1.00  0.00     0.040 C 
ATOM     10  C   UNL     1      11.720  10.175 -23.080  1.00  0.00     0.338 C 
ATOM     11  C   UNL     1      10.582   9.623 -20.777  1.00  0.00     0.011 C 
ATOM     12  C   UNL     1       8.103   9.805 -20.868  1.00  0.00     0.032 C 
ATOM     13  O   UNL     1      12.905   9.823 -22.842  1.00  0.00    -0.246 OA
ATOM     14  C   UNL     1       9.409   9.571 -20.133  1.00  0.00    -0.026 C 
ENDBRANCH   4   5
ENDBRANCH   1   4
TORSDOF 3
ENDMDL
MODEL 8
REMARK VINA RESULT:    -3.527     11.217     13.085
REMARK INTER + INTRA:          -4.759
REMARK INTER:                  -4.522
REMARK INTRA:                  -0.236
REMARK UNBOUND:                -0.613
REMARK SMILES CCCC[C@@H]1OC(=O)C2=C1CCC=C2
REMARK SMILES IDX 3 1 2 2 1 3 4 4 5 5 10 6 6 7 9 8 11 9 7 10 14 11 12 12 8 13
REMARK SMILES IDX 13 14
REMARK H PARENT
REMARK Flexibility Score: inf
ROOT
ATOM      1  C   UNL     1      -2.545  -5.762 -26.878  1.00  0.00     0.004 C 
ENDROOT
BRANCH   1   2
ATOM      2  C   UNL     1      -1.751  -5.015 -27.956  1.00  0.00    -0.003 C 
ATOM      3  C   UNL     1      -2.501  -5.006 -29.285  1.00  0.00     0.004 C 
ENDBRANCH   1   2
BRANCH   1   4
ATOM      4  C   UNL     1      -1.720  -6.913 -26.289  1.00  0.00     0.050 C 
BRANCH   4   5
ATOM      5  C   UNL     1      -1.899  -7.007 -24.768  1.00  0.00     0.204 C 
ATOM      6  C   UNL     1      -0.603  -6.741 -24.041  1.00  0.00    -0.015 C 
ATOM      7  O   UNL     1      -2.755  -5.962 -24.294  1.00  0.00    -0.454 OA
ATOM      8  C   UNL     1      -0.726  -5.702 -23.232  1.00  0.00     0.062 C 
ATOM      9  C   UNL     1       0.591  -7.654 -23.962  1.00  0.00     0.040 C 
ATOM     10  C   UNL     1      -2.063  -5.191 -23.377  1.00  0.00     0.338 C 
ATOM     11  C   UNL     1       0.328  -5.296 -22.292  1.00  0.00     0.011 C 
ATOM     12  C   UNL     1       1.840  -6.888 -23.463  1.00  0.00     0.032 C 
ATOM     13  O   UNL     1      -2.551  -4.206 -22.764  1.00  0.00    -0.246 OA
ATOM     14  C   UNL     1       1.519  -5.905 -22.353  1.00  0.00    -0.026 C 
ENDBRANCH   4   5
ENDBRANCH   1   4
TORSDOF 3
ENDMDL
