MODEL 1
REMARK VINA RESULT:    -3.511      0.000      0.000
REMARK INTER + INTRA:          -4.330
REMARK INTER:                  -4.229
REMARK INTRA:                  -0.101
REMARK UNBOUND:                -0.101
REMARK SMILES CC[C@@H](C)[C@@H]([NH3+])C(=O)[O-]
REMARK SMILES IDX 3 1 4 2 5 3 6 4 7 8 8 9 9 10 2 11 1 12
REMARK H PARENT 6 5 6 6 6 7
REMARK Flexibility Score: inf
ROOT
ATOM      1  C   UNL     1      21.433  14.082 -18.851  1.00  0.00     0.050 C 
ATOM      2  C   UNL     1      22.553  15.090 -18.533  1.00  0.00     0.014 C 
ENDROOT
BRANCH   1   3
ATOM      3  C   UNL     1      21.660  13.410 -20.241  1.00  0.00     0.230 C 
BRANCH   3   4
ATOM      4  N   UNL     1      21.912  11.963 -20.142  1.00  0.00    -0.350 N 
ATOM      5  H   UNL     1      21.877  11.537 -21.098  1.00  0.00     0.345 HD
ATOM      6  H   UNL     1      21.198  11.491 -19.542  1.00  0.00     0.345 HD
ATOM      7  H   UNL     1      22.864  11.785 -19.752  1.00  0.00     0.345 HD
ENDBRANCH   3   4
BRANCH   3   8
ATOM      8  C   UNL     1      20.512  13.700 -21.178  1.00  0.00     0.099 C 
ATOM      9  O   UNL     1      19.409  14.123 -20.740  1.00  0.00    -0.544 OA
ATOM     10  O   UNL     1      20.686  13.541 -22.547  1.00  0.00    -0.544 OA
ENDBRANCH   3   8
ENDBRANCH   1   3
BRANCH   1  11
ATOM     11  C   UNL     1      21.261  13.054 -17.704  1.00  0.00     0.006 C 
ATOM     12  C   UNL     1      19.807  12.619 -17.512  1.00  0.00     0.004 C 
ENDBRANCH   1  11
TORSDOF 4
ENDMDL
MODEL 2
REMARK VINA RESULT:    -3.393      2.402      3.584
REMARK INTER + INTRA:          -4.189
REMARK INTER:                  -4.111
REMARK INTRA:                  -0.077
REMARK UNBOUND:                -0.101
REMARK SMILES CC[C@@H](C)[C@@H]([NH3+])C(=O)[O-]
REMARK SMILES IDX 3 1 4 2 5 3 6 4 7 8 8 9 9 10 2 11 1 12
REMARK H PARENT 6 5 6 6 6 7
REMARK Flexibility Score: inf
ROOT
ATOM      1  C   UNL     1      21.608  12.586 -19.745  1.00  0.00     0.050 C 
ATOM      2  C   UNL     1      22.876  11.747 -19.987  1.00  0.00     0.014 C 
ENDROOT
BRANCH   1   3
ATOM      3  C   UNL     1      21.647  13.270 -18.343  1.00  0.00     0.230 C 
BRANCH   3   4
ATOM      4  N   UNL     1      21.741  14.736 -18.425  1.00  0.00    -0.350 N 
ATOM      5  H   UNL     1      21.878  15.022 -19.423  1.00  0.00     0.345 HD
ATOM      6  H   UNL     1      22.543  15.101 -17.863  1.00  0.00     0.345 HD
ATOM      7  H   UNL     1      20.855  15.177 -18.089  1.00  0.00     0.345 HD
ENDBRANCH   3   4
BRANCH   3   8
ATOM      8  C   UNL     1      20.468  12.846 -17.501  1.00  0.00     0.099 C 
ATOM      9  O   UNL     1      20.418  13.119 -16.271  1.00  0.00    -0.544 OA
ATOM     10  O   UNL     1      19.401  12.185 -18.096  1.00  0.00    -0.544 OA
ENDBRANCH   3   8
ENDBRANCH   1   3
BRANCH   1  11
ATOM     11  C   UNL     1      21.372  13.591 -20.901  1.00  0.00     0.006 C 
ATOM     12  C   UNL     1      19.889  13.880 -21.141  1.00  0.00     0.004 C 
ENDBRANCH   1  11
TORSDOF 4
ENDMDL
MODEL 3
REMARK VINA RESULT:    -3.044      2.853      3.555
REMARK INTER + INTRA:          -3.768
REMARK INTER:                  -3.768
REMARK INTRA:                   0.000
REMARK UNBOUND:                -0.101
REMARK SMILES CC[C@@H](C)[C@@H]([NH3+])C(=O)[O-]
REMARK SMILES IDX 3 1 4 2 5 3 6 4 7 8 8 9 9 10 2 11 1 12
REMARK H PARENT 6 5 6 6 6 7
REMARK Flexibility Score: inf
ROOT
ATOM      1  C   UNL     1      21.523  13.539 -20.126  1.00  0.00     0.050 C 
ATOM      2  C   UNL     1      20.221  13.837 -20.893  1.00  0.00     0.014 C 
ENDROOT
BRANCH   1   3
ATOM      3  C   UNL     1      21.692  14.504 -18.911  1.00  0.00     0.230 C 
BRANCH   3   4
ATOM      4  N   UNL     1      21.370  13.864 -17.625  1.00  0.00    -0.350 N 
ATOM      5  H   UNL     1      20.331  13.778 -17.529  1.00  0.00     0.345 HD
ATOM      6  H   UNL     1      21.733  14.421 -16.819  1.00  0.00     0.345 HD
ATOM      7  H   UNL     1      21.771  12.900 -17.588  1.00  0.00     0.345 HD
ENDBRANCH   3   4
BRANCH   3   8
ATOM      8  C   UNL     1      23.075  15.109 -18.887  1.00  0.00     0.099 C 
ATOM      9  O   UNL     1      23.236  16.359 -18.912  1.00  0.00    -0.544 OA
ATOM     10  O   UNL     1      24.186  14.280 -18.792  1.00  0.00    -0.544 OA
ENDBRANCH   3   8
ENDBRANCH   1   3
BRANCH   1  11
ATOM     11  C   UNL     1      21.610  12.044 -19.727  1.00  0.00     0.006 C 
ATOM     12  C   UNL     1      23.028  11.483 -19.842  1.00  0.00     0.004 C 
ENDBRANCH   1  11
TORSDOF 4
ENDMDL
MODEL 4
REMARK VINA RESULT:    -3.013      2.639      3.486
REMARK INTER + INTRA:          -3.731
REMARK INTER:                  -3.697
REMARK INTRA:                  -0.034
REMARK UNBOUND:                -0.101
REMARK SMILES CC[C@@H](C)[C@@H]([NH3+])C(=O)[O-]
REMARK SMILES IDX 3 1 4 2 5 3 6 4 7 8 8 9 9 10 2 11 1 12
REMARK H PARENT 6 5 6 6 6 7
REMARK Flexibility Score: inf
ROOT
ATOM      1  C   UNL     1      21.467  13.076 -18.456  1.00  0.00     0.050 C 
ATOM      2  C   UNL     1      20.136  12.605 -17.840  1.00  0.00     0.014 C 
ENDROOT
BRANCH   1   3
ATOM      3  C   UNL     1      21.898  12.151 -19.636  1.00  0.00     0.230 C 
BRANCH   3   4
ATOM      4  N   UNL     1      21.628  12.745 -20.955  1.00  0.00    -0.350 N 
ATOM      5  H   UNL     1      21.334  11.994 -21.623  1.00  0.00     0.345 HD
ATOM      6  H   UNL     1      22.475  13.219 -21.342  1.00  0.00     0.345 HD
ATOM      7  H   UNL     1      20.845  13.434 -20.891  1.00  0.00     0.345 HD
ENDBRANCH   3   4
BRANCH   3   8
ATOM      8  C   UNL     1      23.347  11.746 -19.507  1.00  0.00     0.099 C 
ATOM      9  O   UNL     1      24.271  12.591 -19.651  1.00  0.00    -0.544 OA
ATOM     10  O   UNL     1      23.667  10.434 -19.182  1.00  0.00    -0.544 OA
ENDBRANCH   3   8
ENDBRANCH   1   3
BRANCH   1  11
ATOM     11  C   UNL     1      21.403  14.572 -18.853  1.00  0.00     0.006 C 
ATOM     12  C   UNL     1      22.734  15.297 -18.650  1.00  0.00     0.004 C 
ENDBRANCH   1  11
TORSDOF 4
ENDMDL
MODEL 5
REMARK VINA RESULT:    -2.848      1.387      1.773
REMARK INTER + INTRA:          -3.532
REMARK INTER:                  -3.619
REMARK INTRA:                   0.087
REMARK UNBOUND:                -0.101
REMARK SMILES CC[C@@H](C)[C@@H]([NH3+])C(=O)[O-]
REMARK SMILES IDX 3 1 4 2 5 3 6 4 7 8 8 9 9 10 2 11 1 12
REMARK H PARENT 6 5 6 6 6 7
REMARK Flexibility Score: inf
ROOT
ATOM      1  C   UNL     1      21.635  12.744 -18.698  1.00  0.00     0.050 C 
ATOM      2  C   UNL     1      22.499  11.845 -19.603  1.00  0.00     0.014 C 
ENDROOT
BRANCH   1   3
ATOM      3  C   UNL     1      21.421  14.148 -19.344  1.00  0.00     0.230 C 
BRANCH   3   4
ATOM      4  N   UNL     1      22.682  14.880 -19.552  1.00  0.00    -0.350 N 
ATOM      5  H   UNL     1      22.596  15.488 -20.400  1.00  0.00     0.345 HD
ATOM      6  H   UNL     1      23.485  14.226 -19.693  1.00  0.00     0.345 HD
ATOM      7  H   UNL     1      22.881  15.501 -18.737  1.00  0.00     0.345 HD
ENDBRANCH   3   4
BRANCH   3   8
ATOM      8  C   UNL     1      20.636  14.040 -20.629  1.00  0.00     0.099 C 
ATOM      9  O   UNL     1      19.402  14.293 -20.658  1.00  0.00    -0.544 OA
ATOM     10  O   UNL     1      21.290  13.700 -21.807  1.00  0.00    -0.544 OA
ENDBRANCH   3   8
ENDBRANCH   1   3
BRANCH   1  11
ATOM     11  C   UNL     1      20.306  12.044 -18.318  1.00  0.00     0.006 C 
ATOM     12  C   UNL     1      19.626  12.684 -17.107  1.00  0.00     0.004 C 
ENDBRANCH   1  11
TORSDOF 4
ENDMDL
MODEL 6
REMARK VINA RESULT:    -2.791      2.090      3.172
REMARK INTER + INTRA:          -3.463
REMARK INTER:                  -3.567
REMARK INTRA:                   0.103
REMARK UNBOUND:                -0.101
REMARK SMILES CC[C@@H](C)[C@@H]([NH3+])C(=O)[O-]
REMARK SMILES IDX 3 1 4 2 5 3 6 4 7 8 8 9 9 10 2 11 1 12
REMARK H PARENT 6 5 6 6 6 7
REMARK Flexibility Score: inf
ROOT
ATOM      1  C   UNL     1      21.700  13.924 -19.910  1.00  0.00     0.050 C 
ATOM      2  C   UNL     1      22.267  14.952 -18.913  1.00  0.00     0.014 C 
ENDROOT
BRANCH   1   3
ATOM      3  C   UNL     1      21.576  12.514 -19.252  1.00  0.00     0.230 C 
BRANCH   3   4
ATOM      4  N   UNL     1      22.876  11.958 -18.843  1.00  0.00    -0.350 N 
ATOM      5  H   UNL     1      22.776  11.488 -17.912  1.00  0.00     0.345 HD
ATOM      6  H   UNL     1      23.603  12.704 -18.762  1.00  0.00     0.345 HD
ATOM      7  H   UNL     1      23.195  11.236 -19.528  1.00  0.00     0.345 HD
ENDBRANCH   3   4
BRANCH   3   8
ATOM      8  C   UNL     1      20.606  12.540 -18.095  1.00  0.00     0.099 C 
ATOM      9  O   UNL     1      19.419  12.141 -18.235  1.00  0.00    -0.544 OA
ATOM     10  O   UNL     1      21.039  12.967 -16.846  1.00  0.00    -0.544 OA
ENDBRANCH   3   8
ENDBRANCH   1   3
BRANCH   1  11
ATOM     11  C   UNL     1      20.370  14.420 -20.532  1.00  0.00     0.006 C 
ATOM     12  C   UNL     1      20.033  13.716 -21.847  1.00  0.00     0.004 C 
ENDBRANCH   1  11
TORSDOF 4
ENDMDL
MODEL 7
REMARK VINA RESULT:    -2.728      2.479      3.496
REMARK INTER + INTRA:          -3.388
REMARK INTER:                  -4.123
REMARK INTRA:                   0.736
REMARK UNBOUND:                -0.101
REMARK SMILES CC[C@@H](C)[C@@H]([NH3+])C(=O)[O-]
REMARK SMILES IDX 3 1 4 2 5 3 6 4 7 8 8 9 9 10 2 11 1 12
REMARK H PARENT 6 5 6 6 6 7
REMARK Flexibility Score: inf
ROOT
ATOM      1  C   UNL     1      21.969  13.265 -19.956  1.00  0.00     0.050 C 
ATOM      2  C   UNL     1      20.725  13.729 -20.737  1.00  0.00     0.014 C 
ENDROOT
BRANCH   1   3
ATOM      3  C   UNL     1      21.898  13.719 -18.465  1.00  0.00     0.230 C 
BRANCH   3   4
ATOM      4  N   UNL     1      21.831  15.182 -18.317  1.00  0.00    -0.350 N 
ATOM      5  H   UNL     1      21.183  15.424 -17.531  1.00  0.00     0.345 HD
ATOM      6  H   UNL     1      21.480  15.640 -19.188  1.00  0.00     0.345 HD
ATOM      7  H   UNL     1      22.772  15.568 -18.079  1.00  0.00     0.345 HD
ENDBRANCH   3   4
BRANCH   3   8
ATOM      8  C   UNL     1      20.752  13.047 -17.748  1.00  0.00     0.099 C 
ATOM      9  O   UNL     1      20.717  12.994 -16.489  1.00  0.00    -0.544 OA
ATOM     10  O   UNL     1      19.698  12.516 -18.481  1.00  0.00    -0.544 OA
ENDBRANCH   3   8
ENDBRANCH   1   3
BRANCH   1  11
ATOM     11  C   UNL     1      22.191  11.739 -20.113  1.00  0.00     0.006 C 
ATOM     12  C   UNL     1      23.577  11.291 -19.645  1.00  0.00     0.004 C 
ENDBRANCH   1  11
TORSDOF 4
ENDMDL
MODEL 8
REMARK VINA RESULT:    -2.696      0.629      2.077
REMARK INTER + INTRA:          -3.349
REMARK INTER:                  -4.012
REMARK INTRA:                   0.663
REMARK UNBOUND:                -0.101
REMARK SMILES CC[C@@H](C)[C@@H]([NH3+])C(=O)[O-]
REMARK SMILES IDX 3 1 4 2 5 3 6 4 7 8 8 9 9 10 2 11 1 12
REMARK H PARENT 6 5 6 6 6 7
REMARK Flexibility Score: inf
ROOT
ATOM      1  C   UNL     1      21.980  13.558 -18.700  1.00  0.00     0.050 C 
ATOM      2  C   UNL     1      20.830  12.943 -17.881  1.00  0.00     0.014 C 
ENDROOT
BRANCH   1   3
ATOM      3  C   UNL     1      21.983  13.011 -20.161  1.00  0.00     0.230 C 
BRANCH   3   4
ATOM      4  N   UNL     1      22.074  11.543 -20.221  1.00  0.00    -0.350 N 
ATOM      5  H   UNL     1      21.978  11.228 -21.216  1.00  0.00     0.345 HD
ATOM      6  H   UNL     1      21.321  11.089 -19.656  1.00  0.00     0.345 HD
ATOM      7  H   UNL     1      23.006  11.221 -19.877  1.00  0.00     0.345 HD
ENDBRANCH   3   4
BRANCH   3   8
ATOM      8  C   UNL     1      20.786  13.514 -20.931  1.00  0.00     0.099 C 
ATOM      9  O   UNL     1      19.735  13.871 -20.334  1.00  0.00    -0.544 OA
ATOM     10  O   UNL     1      20.856  13.628 -22.314  1.00  0.00    -0.544 OA
ENDBRANCH   3   8
ENDBRANCH   1   3
BRANCH   1  11
ATOM     11  C   UNL     1      21.950  15.106 -18.634  1.00  0.00     0.006 C 
ATOM     12  C   UNL     1      23.345  15.728 -18.694  1.00  0.00     0.004 C 
ENDBRANCH   1  11
TORSDOF 4
ENDMDL
MODEL 9
REMARK VINA RESULT:    -2.522      1.558      2.259
REMARK INTER + INTRA:          -3.140
REMARK INTER:                  -3.019
REMARK INTRA:                  -0.121
REMARK UNBOUND:                -0.101
REMARK SMILES CC[C@@H](C)[C@@H]([NH3+])C(=O)[O-]
REMARK SMILES IDX 3 1 4 2 5 3 6 4 7 8 8 9 9 10 2 11 1 12
REMARK H PARENT 6 5 6 6 6 7
REMARK Flexibility Score: inf
ROOT
ATOM      1  C   UNL     1      21.148  12.690 -18.849  1.00  0.00     0.050 C 
ATOM      2  C   UNL     1      20.458  12.689 -17.472  1.00  0.00     0.014 C 
ENDROOT
BRANCH   1   3
ATOM      3  C   UNL     1      21.007  14.079 -19.546  1.00  0.00     0.230 C 
BRANCH   3   4
ATOM      4  N   UNL     1      22.275  14.826 -19.592  1.00  0.00    -0.350 N 
ATOM      5  H   UNL     1      22.825  14.633 -18.722  1.00  0.00     0.345 HD
ATOM      6  H   UNL     1      22.110  15.855 -19.659  1.00  0.00     0.345 HD
ATOM      7  H   UNL     1      22.852  14.514 -20.405  1.00  0.00     0.345 HD
ENDBRANCH   3   4
BRANCH   3   8
ATOM      8  C   UNL     1      20.410  13.935 -20.925  1.00  0.00     0.099 C 
ATOM      9  O   UNL     1      19.194  14.192 -21.135  1.00  0.00    -0.544 OA
ATOM     10  O   UNL     1      21.220  13.558 -21.989  1.00  0.00    -0.544 OA
ENDBRANCH   3   8
ENDBRANCH   1   3
BRANCH   1  11
ATOM     11  C   UNL     1      22.619  12.215 -18.740  1.00  0.00     0.006 C 
ATOM     12  C   UNL     1      23.071  11.402 -19.954  1.00  0.00     0.004 C 
ENDBRANCH   1  11
TORSDOF 4
ENDMDL
