MODEL 1
REMARK VINA RESULT:    -4.414      0.000      0.000
REMARK INTER + INTRA:          -4.689
REMARK INTER:                  -4.672
REMARK INTRA:                  -0.016
REMARK UNBOUND:                -0.016
REMARK SMILES O=C([O-])c1cccnc1
REMARK SMILES IDX 4 1 5 2 9 3 6 4 8 5 7 6 2 7 1 8 3 9
REMARK H PARENT
REMARK Flexibility Score: inf
ROOT
ATOM      1  C   UNL     1     -29.856 -21.319 -23.653  1.00  0.00     0.016 A 
ATOM      2  C   UNL     1     -28.479 -21.344 -23.376  1.00  0.00     0.013 A 
ATOM      3  C   UNL     1     -30.749 -21.708 -22.638  1.00  0.00     0.120 A 
ATOM      4  C   UNL     1     -28.025 -21.748 -22.119  1.00  0.00     0.021 A 
ATOM      5  N   UNL     1     -30.279 -22.097 -21.422  1.00  0.00    -0.264 NA
ATOM      6  C   UNL     1     -28.950 -22.125 -21.145  1.00  0.00     0.111 A 
ENDROOT
BRANCH   1   7
ATOM      7  C   UNL     1     -30.350 -20.893 -24.980  1.00  0.00     0.073 C 
ATOM      8  O   UNL     1     -30.749 -21.744 -25.819  1.00  0.00    -0.545 OA
ATOM      9  O   UNL     1     -30.379 -19.545 -25.320  1.00  0.00    -0.545 OA
ENDBRANCH   1   7
TORSDOF 1
ENDMDL
MODEL 2
REMARK VINA RESULT:    -4.229      2.741      3.551
REMARK INTER + INTRA:          -4.492
REMARK INTER:                  -4.468
REMARK INTRA:                  -0.024
REMARK UNBOUND:                -0.016
REMARK SMILES O=C([O-])c1cccnc1
REMARK SMILES IDX 4 1 5 2 9 3 6 4 8 5 7 6 2 7 1 8 3 9
REMARK H PARENT
REMARK Flexibility Score: inf
ROOT
ATOM      1  C   UNL     1     -29.347 -21.373 -22.793  1.00  0.00     0.016 A 
ATOM      2  C   UNL     1     -29.145 -20.973 -24.124  1.00  0.00     0.013 A 
ATOM      3  C   UNL     1     -30.641 -21.272 -22.252  1.00  0.00     0.120 A 
ATOM      4  C   UNL     1     -30.215 -20.488 -24.879  1.00  0.00     0.021 A 
ATOM      5  N   UNL     1     -31.666 -20.796 -23.010  1.00  0.00    -0.264 NA
ATOM      6  C   UNL     1     -31.481 -20.406 -24.298  1.00  0.00     0.111 A 
ENDROOT
BRANCH   1   7
ATOM      7  C   UNL     1     -28.222 -21.890 -21.983  1.00  0.00     0.073 C 
ATOM      8  O   UNL     1     -27.104 -22.125 -22.515  1.00  0.00    -0.545 OA
ATOM      9  O   UNL     1     -28.385 -22.125 -20.622  1.00  0.00    -0.545 OA
ENDBRANCH   1   7
TORSDOF 1
ENDMDL
MODEL 3
REMARK VINA RESULT:    -4.040      2.951      3.870
REMARK INTER + INTRA:          -4.293
REMARK INTER:                  -4.268
REMARK INTRA:                  -0.024
REMARK UNBOUND:                -0.016
REMARK SMILES O=C([O-])c1cccnc1
REMARK SMILES IDX 4 1 5 2 9 3 6 4 8 5 7 6 2 7 1 8 3 9
REMARK H PARENT
REMARK Flexibility Score: inf
ROOT
ATOM      1  C   UNL     1     -29.336 -21.331 -22.763  1.00  0.00     0.016 A 
ATOM      2  C   UNL     1     -30.631 -21.128 -22.257  1.00  0.00     0.013 A 
ATOM      3  C   UNL     1     -29.085 -21.002 -24.107  1.00  0.00     0.120 A 
ATOM      4  C   UNL     1     -31.632 -20.611 -23.081  1.00  0.00     0.021 A 
ATOM      5  N   UNL     1     -30.079 -20.499 -24.888  1.00  0.00    -0.264 NA
ATOM      6  C   UNL     1     -31.334 -20.299 -24.408  1.00  0.00     0.111 A 
ENDROOT
BRANCH   1   7
ATOM      7  C   UNL     1     -28.267 -21.877 -21.900  1.00  0.00     0.073 C 
ATOM      8  O   UNL     1     -28.487 -22.124 -20.684  1.00  0.00    -0.545 OA
ATOM      9  O   UNL     1     -27.001 -22.125 -22.420  1.00  0.00    -0.545 OA
ENDBRANCH   1   7
TORSDOF 1
ENDMDL
MODEL 4
REMARK VINA RESULT:    -3.865      3.274      4.062
REMARK INTER + INTRA:          -4.108
REMARK INTER:                  -4.089
REMARK INTRA:                  -0.019
REMARK UNBOUND:                -0.016
REMARK SMILES O=C([O-])c1cccnc1
REMARK SMILES IDX 4 1 5 2 9 3 6 4 8 5 7 6 2 7 1 8 3 9
REMARK H PARENT
REMARK Flexibility Score: inf
ROOT
ATOM      1  C   UNL     1     -31.130 -20.698 -24.244  1.00  0.00     0.016 A 
ATOM      2  C   UNL     1     -31.138 -21.905 -24.962  1.00  0.00     0.013 A 
ATOM      3  C   UNL     1     -30.746 -19.523 -24.915  1.00  0.00     0.120 A 
ATOM      4  C   UNL     1     -30.769 -21.922 -26.308  1.00  0.00     0.021 A 
ATOM      5  N   UNL     1     -30.391 -19.568 -26.228  1.00  0.00    -0.264 NA
ATOM      6  C   UNL     1     -30.394 -20.731 -26.930  1.00  0.00     0.111 A 
ENDROOT
BRANCH   1   7
ATOM      7  C   UNL     1     -31.520 -20.667 -22.818  1.00  0.00     0.073 C 
ATOM      8  O   UNL     1     -30.967 -21.435 -21.985  1.00  0.00    -0.545 OA
ATOM      9  O   UNL     1     -32.504 -19.789 -22.376  1.00  0.00    -0.545 OA
ENDBRANCH   1   7
TORSDOF 1
ENDMDL
MODEL 5
REMARK VINA RESULT:    -3.853      1.650      1.899
REMARK INTER + INTRA:          -4.095
REMARK INTER:                  -4.071
REMARK INTRA:                  -0.024
REMARK UNBOUND:                -0.016
REMARK SMILES O=C([O-])c1cccnc1
REMARK SMILES IDX 4 1 5 2 9 3 6 4 8 5 7 6 2 7 1 8 3 9
REMARK H PARENT
REMARK Flexibility Score: inf
ROOT
ATOM      1  C   UNL     1     -30.041 -21.155 -22.847  1.00  0.00     0.016 A 
ATOM      2  C   UNL     1     -28.945 -21.140 -23.726  1.00  0.00     0.013 A 
ATOM      3  C   UNL     1     -29.850 -21.662 -21.549  1.00  0.00     0.120 A 
ATOM      4  C   UNL     1     -27.704 -21.621 -23.306  1.00  0.00     0.021 A 
ATOM      5  N   UNL     1     -28.629 -22.124 -21.166  1.00  0.00    -0.264 NA
ATOM      6  C   UNL     1     -27.564 -22.115 -22.009  1.00  0.00     0.111 A 
ENDROOT
BRANCH   1   7
ATOM      7  C   UNL     1     -31.361 -20.647 -23.279  1.00  0.00     0.073 C 
ATOM      8  O   UNL     1     -31.551 -20.289 -24.472  1.00  0.00    -0.545 OA
ATOM      9  O   UNL     1     -32.411 -20.555 -22.372  1.00  0.00    -0.545 OA
ENDBRANCH   1   7
TORSDOF 1
ENDMDL
MODEL 6
REMARK VINA RESULT:    -3.054      0.914      1.600
REMARK INTER + INTRA:          -3.249
REMARK INTER:                  -3.232
REMARK INTRA:                  -0.016
REMARK UNBOUND:                -0.016
REMARK SMILES O=C([O-])c1cccnc1
REMARK SMILES IDX 4 1 5 2 9 3 6 4 8 5 7 6 2 7 1 8 3 9
REMARK H PARENT
REMARK Flexibility Score: inf
ROOT
ATOM      1  C   UNL     1     -29.854 -21.312 -23.659  1.00  0.00     0.016 A 
ATOM      2  C   UNL     1     -30.751 -21.713 -22.655  1.00  0.00     0.013 A 
ATOM      3  C   UNL     1     -28.477 -21.333 -23.373  1.00  0.00     0.120 A 
ATOM      4  C   UNL     1     -30.270 -22.121 -21.409  1.00  0.00     0.021 A 
ATOM      5  N   UNL     1     -28.036 -21.735 -22.150  1.00  0.00    -0.264 NA
ATOM      6  C   UNL     1     -28.895 -22.125 -21.173  1.00  0.00     0.111 A 
ENDROOT
BRANCH   1   7
ATOM      7  C   UNL     1     -30.349 -20.879 -24.983  1.00  0.00     0.073 C 
ATOM      8  O   UNL     1     -30.735 -21.726 -25.832  1.00  0.00    -0.545 OA
ATOM      9  O   UNL     1     -30.396 -19.528 -25.310  1.00  0.00    -0.545 OA
ENDBRANCH   1   7
TORSDOF 1
ENDMDL
MODEL 7
REMARK VINA RESULT:    -3.013      3.464      4.179
REMARK INTER + INTRA:          -3.205
REMARK INTER:                  -3.182
REMARK INTRA:                  -0.024
REMARK UNBOUND:                -0.016
REMARK SMILES O=C([O-])c1cccnc1
REMARK SMILES IDX 4 1 5 2 9 3 6 4 8 5 7 6 2 7 1 8 3 9
REMARK H PARENT
REMARK Flexibility Score: inf
ROOT
ATOM      1  C   UNL     1     -28.960 -21.786 -21.134  1.00  0.00     0.016 A 
ATOM      2  C   UNL     1     -27.851 -21.640 -21.984  1.00  0.00     0.013 A 
ATOM      3  C   UNL     1     -30.247 -21.707 -21.694  1.00  0.00     0.120 A 
ATOM      4  C   UNL     1     -28.041 -21.422 -23.350  1.00  0.00     0.021 A 
ATOM      5  N   UNL     1     -30.404 -21.493 -23.028  1.00  0.00    -0.264 NA
ATOM      6  C   UNL     1     -29.338 -21.350 -23.859  1.00  0.00     0.111 A 
ENDROOT
BRANCH   1   7
ATOM      7  C   UNL     1     -28.772 -22.019 -19.685  1.00  0.00     0.073 C 
ATOM      8  O   UNL     1     -29.767 -22.125 -18.919  1.00  0.00    -0.545 OA
ATOM      9  O   UNL     1     -27.494 -22.123 -19.149  1.00  0.00    -0.545 OA
ENDBRANCH   1   7
TORSDOF 1
ENDMDL
MODEL 8
REMARK VINA RESULT:    -2.488      2.472      3.171
REMARK INTER + INTRA:          -2.649
REMARK INTER:                  -2.633
REMARK INTRA:                  -0.016
REMARK UNBOUND:                -0.016
REMARK SMILES O=C([O-])c1cccnc1
REMARK SMILES IDX 4 1 5 2 9 3 6 4 8 5 7 6 2 7 1 8 3 9
REMARK H PARENT
REMARK Flexibility Score: inf
ROOT
ATOM      1  C   UNL     1     -31.309 -20.226 -23.118  1.00  0.00     0.016 A 
ATOM      2  C   UNL     1     -30.988 -20.009 -24.469  1.00  0.00     0.013 A 
ATOM      3  C   UNL     1     -30.439 -21.012 -22.342  1.00  0.00     0.120 A 
ATOM      4  C   UNL     1     -29.829 -20.568 -25.011  1.00  0.00     0.021 A 
ATOM      5  N   UNL     1     -29.317 -21.545 -22.896  1.00  0.00    -0.264 NA
ATOM      6  C   UNL     1     -28.997 -21.341 -24.201  1.00  0.00     0.111 A 
ENDROOT
BRANCH   1   7
ATOM      7  C   UNL     1     -32.533 -19.639 -22.531  1.00  0.00     0.073 C 
ATOM      8  O   UNL     1     -33.605 -20.300 -22.489  1.00  0.00    -0.545 OA
ATOM      9  O   UNL     1     -32.517 -18.346 -22.019  1.00  0.00    -0.545 OA
ENDBRANCH   1   7
TORSDOF 1
ENDMDL
