MODEL 1
REMARK VINA RESULT:    -3.432      0.000      0.000
REMARK INTER + INTRA:          -3.870
REMARK INTER:                  -3.833
REMARK INTRA:                  -0.037
REMARK UNBOUND:                -0.037
REMARK SMILES CCCC(=O)[O-]
REMARK SMILES IDX 3 1 4 2 5 3 6 4 2 5 1 6
REMARK H PARENT
REMARK Flexibility Score: inf
ROOT
ATOM      1  C   UNL     1      -2.164  29.577  41.306  1.00  0.00     0.052 C 
ENDROOT
BRANCH   1   2
ATOM      2  C   UNL     1      -1.111  30.603  41.017  1.00  0.00     0.041 C 
ATOM      3  O   UNL     1      -1.140  31.723  41.590  1.00  0.00    -0.550 OA
ATOM      4  O   UNL     1      -0.077  30.307  40.138  1.00  0.00    -0.550 OA
ENDBRANCH   1   2
BRANCH   1   5
ATOM      5  C   UNL     1      -2.668  29.674  42.751  1.00  0.00     0.003 C 
ATOM      6  C   UNL     1      -1.975  28.675  43.677  1.00  0.00     0.004 C 
ENDBRANCH   1   5
TORSDOF 2
ENDMDL
MODEL 2
REMARK VINA RESULT:    -3.419      2.716      3.793
REMARK INTER + INTRA:          -3.856
REMARK INTER:                  -3.824
REMARK INTRA:                  -0.032
REMARK UNBOUND:                -0.037
REMARK SMILES CCCC(=O)[O-]
REMARK SMILES IDX 3 1 4 2 5 3 6 4 2 5 1 6
REMARK H PARENT
REMARK Flexibility Score: inf
ROOT
ATOM      1  C   UNL     1      -1.179  30.787  43.792  1.00  0.00     0.052 C 
ENDROOT
BRANCH   1   2
ATOM      2  C   UNL     1      -1.928  29.541  44.156  1.00  0.00     0.041 C 
ATOM      3  O   UNL     1      -2.525  28.878  43.270  1.00  0.00    -0.550 OA
ATOM      4  O   UNL     1      -1.937  29.097  45.472  1.00  0.00    -0.550 OA
ENDBRANCH   1   2
BRANCH   1   5
ATOM      5  C   UNL     1      -0.499  30.661  42.423  1.00  0.00     0.003 C 
ATOM      6  C   UNL     1      -1.187  31.507  41.352  1.00  0.00     0.004 C 
ENDBRANCH   1   5
TORSDOF 2
ENDMDL
MODEL 3
REMARK VINA RESULT:    -3.411      0.216      1.339
REMARK INTER + INTRA:          -3.847
REMARK INTER:                  -3.818
REMARK INTRA:                  -0.029
REMARK UNBOUND:                -0.037
REMARK SMILES CCCC(=O)[O-]
REMARK SMILES IDX 3 1 4 2 5 3 6 4 2 5 1 6
REMARK H PARENT
REMARK Flexibility Score: inf
ROOT
ATOM      1  C   UNL     1      -1.942  29.330  41.227  1.00  0.00     0.052 C 
ENDROOT
BRANCH   1   2
ATOM      2  C   UNL     1      -0.987  30.429  40.873  1.00  0.00     0.041 C 
ATOM      3  O   UNL     1      -0.050  30.219  40.060  1.00  0.00    -0.550 OA
ATOM      4  O   UNL     1      -1.154  31.696  41.418  1.00  0.00    -0.550 OA
ENDBRANCH   1   2
BRANCH   1   5
ATOM      5  C   UNL     1      -2.596  29.565  42.593  1.00  0.00     0.003 C 
ATOM      6  C   UNL     1      -2.052  28.624  43.669  1.00  0.00     0.004 C 
ENDBRANCH   1   5
TORSDOF 2
ENDMDL
MODEL 4
REMARK VINA RESULT:    -3.386     22.597     23.160
REMARK INTER + INTRA:          -3.820
REMARK INTER:                  -3.805
REMARK INTRA:                  -0.015
REMARK UNBOUND:                -0.037
REMARK SMILES CCCC(=O)[O-]
REMARK SMILES IDX 3 1 4 2 5 3 6 4 2 5 1 6
REMARK H PARENT
REMARK Flexibility Score: inf
ROOT
ATOM      1  C   UNL     1      15.723  15.193  44.772  1.00  0.00     0.052 C 
ENDROOT
BRANCH   1   2
ATOM      2  C   UNL     1      14.854  14.165  44.114  1.00  0.00     0.041 C 
ATOM      3  O   UNL     1      14.310  14.409  43.006  1.00  0.00    -0.550 OA
ATOM      4  O   UNL     1      14.672  12.925  44.713  1.00  0.00    -0.550 OA
ENDBRANCH   1   2
BRANCH   1   5
ATOM      5  C   UNL     1      15.243  15.518  46.191  1.00  0.00     0.003 C 
ATOM      6  C   UNL     1      16.052  14.785  47.261  1.00  0.00     0.004 C 
ENDBRANCH   1   5
TORSDOF 2
ENDMDL
MODEL 5
REMARK VINA RESULT:    -3.379     22.454     23.188
REMARK INTER + INTRA:          -3.811
REMARK INTER:                  -3.771
REMARK INTRA:                  -0.040
REMARK UNBOUND:                -0.037
REMARK SMILES CCCC(=O)[O-]
REMARK SMILES IDX 3 1 4 2 5 3 6 4 2 5 1 6
REMARK H PARENT
REMARK Flexibility Score: inf
ROOT
ATOM      1  C   UNL     1      14.185  13.719  46.901  1.00  0.00     0.052 C 
ENDROOT
BRANCH   1   2
ATOM      2  C   UNL     1      14.990  14.857  47.451  1.00  0.00     0.041 C 
ATOM      3  O   UNL     1      16.106  15.147  46.946  1.00  0.00    -0.550 OA
ATOM      4  O   UNL     1      14.491  15.617  48.501  1.00  0.00    -0.550 OA
ENDBRANCH   1   2
BRANCH   1   5
ATOM      5  C   UNL     1      14.581  13.389  45.457  1.00  0.00     0.003 C 
ATOM      6  C   UNL     1      13.702  14.108  44.434  1.00  0.00     0.004 C 
ENDBRANCH   1   5
TORSDOF 2
ENDMDL
MODEL 6
REMARK VINA RESULT:    -3.324     22.311     23.066
REMARK INTER + INTRA:          -3.750
REMARK INTER:                  -3.712
REMARK INTRA:                  -0.038
REMARK UNBOUND:                -0.037
REMARK SMILES CCCC(=O)[O-]
REMARK SMILES IDX 3 1 4 2 5 3 6 4 2 5 1 6
REMARK H PARENT
REMARK Flexibility Score: inf
ROOT
ATOM      1  C   UNL     1      15.935  14.704  44.829  1.00  0.00     0.052 C 
ENDROOT
BRANCH   1   2
ATOM      2  C   UNL     1      15.605  15.264  46.179  1.00  0.00     0.041 C 
ATOM      3  O   UNL     1      14.677  16.104  46.308  1.00  0.00    -0.550 OA
ATOM      4  O   UNL     1      16.304  14.833  47.300  1.00  0.00    -0.550 OA
ENDBRANCH   1   2
BRANCH   1   5
ATOM      5  C   UNL     1      14.794  13.840  44.279  1.00  0.00     0.003 C 
ATOM      6  C   UNL     1      14.026  14.537  43.156  1.00  0.00     0.004 C 
ENDBRANCH   1   5
TORSDOF 2
ENDMDL
MODEL 7
REMARK VINA RESULT:    -3.308     22.101     22.907
REMARK INTER + INTRA:          -3.732
REMARK INTER:                  -3.681
REMARK INTRA:                  -0.051
REMARK UNBOUND:                -0.037
REMARK SMILES CCCC(=O)[O-]
REMARK SMILES IDX 3 1 4 2 5 3 6 4 2 5 1 6
REMARK H PARENT
REMARK Flexibility Score: inf
ROOT
ATOM      1  C   UNL     1      15.790  15.168  46.378  1.00  0.00     0.052 C 
ENDROOT
BRANCH   1   2
ATOM      2  C   UNL     1      14.668  15.844  47.105  1.00  0.00     0.041 C 
ATOM      3  O   UNL     1      13.872  16.596  46.485  1.00  0.00    -0.550 OA
ATOM      4  O   UNL     1      14.485  15.617  48.463  1.00  0.00    -0.550 OA
ENDBRANCH   1   2
BRANCH   1   5
ATOM      5  C   UNL     1      15.553  13.659  46.247  1.00  0.00     0.003 C 
ATOM      6  C   UNL     1      14.602  13.316  45.100  1.00  0.00     0.004 C 
ENDBRANCH   1   5
TORSDOF 2
ENDMDL
MODEL 8
REMARK VINA RESULT:    -3.226     22.161     23.012
REMARK INTER + INTRA:          -3.641
REMARK INTER:                  -3.572
REMARK INTRA:                  -0.069
REMARK UNBOUND:                -0.037
REMARK SMILES CCCC(=O)[O-]
REMARK SMILES IDX 3 1 4 2 5 3 6 4 2 5 1 6
REMARK H PARENT
REMARK Flexibility Score: inf
ROOT
ATOM      1  C   UNL     1      15.803  14.828  47.333  1.00  0.00     0.052 C 
ENDROOT
BRANCH   1   2
ATOM      2  C   UNL     1      15.426  14.577  45.905  1.00  0.00     0.041 C 
ATOM      3  O   UNL     1      14.484  13.792  45.625  1.00  0.00    -0.550 OA
ATOM      4  O   UNL     1      16.098  15.237  44.884  1.00  0.00    -0.550 OA
ENDBRANCH   1   2
BRANCH   1   5
ATOM      5  C   UNL     1      14.613  15.346  48.150  1.00  0.00     0.003 C 
ATOM      6  C   UNL     1      14.204  16.763  47.748  1.00  0.00     0.004 C 
ENDBRANCH   1   5
TORSDOF 2
ENDMDL
MODEL 9
REMARK VINA RESULT:    -3.195      1.751      2.265
REMARK INTER + INTRA:          -3.606
REMARK INTER:                  -3.558
REMARK INTRA:                  -0.048
REMARK UNBOUND:                -0.037
REMARK SMILES CCCC(=O)[O-]
REMARK SMILES IDX 3 1 4 2 5 3 6 4 2 5 1 6
REMARK H PARENT
REMARK Flexibility Score: inf
ROOT
ATOM      1  C   UNL     1      -0.492  30.975  42.024  1.00  0.00     0.052 C 
ENDROOT
BRANCH   1   2
ATOM      2  C   UNL     1       0.515  29.958  41.582  1.00  0.00     0.041 C 
ATOM      3  O   UNL     1       1.004  29.146  42.411  1.00  0.00    -0.550 OA
ATOM      4  O   UNL     1       0.890  29.886  40.247  1.00  0.00    -0.550 OA
ENDBRANCH   1   2
BRANCH   1   5
ATOM      5  C   UNL     1      -1.853  30.753  41.355  1.00  0.00     0.003 C 
ATOM      6  C   UNL     1      -2.341  29.311  41.490  1.00  0.00     0.004 C 
ENDBRANCH   1   5
TORSDOF 2
ENDMDL
