MODEL 1
REMARK VINA RESULT:    -5.797      0.000      0.000
REMARK INTER + INTRA:          -9.382
REMARK INTER:                  -8.000
REMARK INTRA:                  -1.383
REMARK UNBOUND:                -1.383
REMARK SMILES O=C([O-])[C@@H]1O[C@H](Oc2cc3oc(-c4ccccc4)cc(=O)c3c(O)c2O)[C@H](O)[C@@H](O)[C@H]1O
REMARK SMILES IDX 7 1 6 2 4 3 31 4 5 5 29 6 27 7 2 8 1 9 3 10 32 11 30 13
REMARK SMILES IDX 28 15 8 17 25 18 9 19 23 20 10 21 22 22 11 23 20 24 12 25
REMARK SMILES IDX 19 26 21 27 26 28 24 30 13 32 14 33 18 34 15 35 17 36 16 37
REMARK H PARENT 32 12 30 14 28 16 26 29 24 31
REMARK Flexibility Score: inf
ROOT
ATOM      1  O   UNL     1     120.667  71.303  45.256  1.00  0.00    -0.458 OA
ENDROOT
BRANCH   1   2
ATOM      2  C   UNL     1     119.905  72.017  44.277  1.00  0.00     0.339 C 
ATOM      3  C   UNL     1     120.925  74.139  44.655  1.00  0.00     0.199 C 
ATOM      4  C   UNL     1     121.689  74.075  43.307  1.00  0.00     0.180 C 
ATOM      5  O   UNL     1     119.722  73.380  44.647  1.00  0.00    -0.328 OA
ATOM      6  C   UNL     1     121.895  72.623  42.856  1.00  0.00     0.181 C 
ATOM      7  C   UNL     1     120.552  71.878  42.890  1.00  0.00     0.214 C 
BRANCH   3   8
ATOM      8  C   UNL     1     121.767  73.848  45.875  1.00  0.00     0.073 C 
ATOM      9  O   UNL     1     122.976  73.508  45.773  1.00  0.00    -0.547 OA
ATOM     10  O   UNL     1     121.197  73.957  47.136  1.00  0.00    -0.547 OA
ENDBRANCH   3   8
BRANCH   4  11
ATOM     11  O   UNL     1     120.962  74.768  42.322  1.00  0.00    -0.387 OA
ATOM     12  H   UNL     1     121.231  75.722  42.381  1.00  0.00     0.211 HD
ENDBRANCH   4  11
BRANCH   6  13
ATOM     13  O   UNL     1     122.425  72.611  41.555  1.00  0.00    -0.387 OA
ATOM     14  H   UNL     1     122.282  73.517  41.175  1.00  0.00     0.211 HD
ENDBRANCH   6  13
BRANCH   7  15
ATOM     15  O   UNL     1     120.745  70.515  42.605  1.00  0.00    -0.384 OA
ATOM     16  H   UNL     1     121.572  70.235  43.076  1.00  0.00     0.211 HD
ENDBRANCH   7  15
ENDBRANCH   1   2
BRANCH   1  17
ATOM     17  C   UNL     1     120.177  70.485  46.293  1.00  0.00     0.172 A 
ATOM     18  C   UNL     1     119.304  70.925  47.315  1.00  0.00     0.201 A 
ATOM     19  C   UNL     1     120.613  69.161  46.293  1.00  0.00     0.098 A 
ATOM     20  C   UNL     1     118.887  70.032  48.327  1.00  0.00     0.176 A 
ATOM     21  C   UNL     1     120.177  68.256  47.257  1.00  0.00     0.146 A 
ATOM     22  C   UNL     1     119.284  68.664  48.277  1.00  0.00     0.111 A 
ATOM     23  O   UNL     1     120.610  67.001  47.190  1.00  0.00    -0.456 OA
ATOM     24  C   UNL     1     118.826  67.660  49.164  1.00  0.00     0.197 A 
ATOM     25  C   UNL     1     120.230  66.049  48.036  1.00  0.00     0.138 A 
ATOM     26  C   UNL     1     119.319  66.359  49.053  1.00  0.00     0.100 A 
ATOM     27  O   UNL     1     117.956  67.892  50.043  1.00  0.00    -0.289 OA
BRANCH  18  28
ATOM     28  O   UNL     1     118.863  72.248  47.346  1.00  0.00    -0.502 OA
ATOM     29  H   UNL     1     119.477  73.031  47.534  1.00  0.00     0.293 HD
ENDBRANCH  18  28
BRANCH  20  30
ATOM     30  O   UNL     1     118.113  70.560  49.365  1.00  0.00    -0.504 OA
ATOM     31  H   UNL     1     117.246  71.062  49.237  1.00  0.00     0.293 HD
ENDBRANCH  20  30
BRANCH  25  32
ATOM     32  C   UNL     1     120.792  64.683  47.872  1.00  0.00     0.017 A 
ATOM     33  C   UNL     1     120.206  63.739  47.005  1.00  0.00     0.012 A 
ATOM     34  C   UNL     1     121.959  64.326  48.573  1.00  0.00     0.012 A 
ATOM     35  C   UNL     1     120.764  62.465  46.865  1.00  0.00     0.001 A 
ATOM     36  C   UNL     1     122.511  63.051  48.430  1.00  0.00     0.001 A 
ATOM     37  C   UNL     1     121.913  62.119  47.578  1.00  0.00     0.000 A 
ENDBRANCH  25  32
ENDBRANCH   1  17
TORSDOF 9
ENDMDL
MODEL 2
REMARK VINA RESULT:    -5.531      2.050      2.712
REMARK INTER + INTRA:          -9.016
REMARK INTER:                  -7.702
REMARK INTRA:                  -1.314
REMARK UNBOUND:                -1.383
REMARK SMILES O=C([O-])[C@@H]1O[C@H](Oc2cc3oc(-c4ccccc4)cc(=O)c3c(O)c2O)[C@H](O)[C@@H](O)[C@H]1O
REMARK SMILES IDX 7 1 6 2 4 3 31 4 5 5 29 6 27 7 2 8 1 9 3 10 32 11 30 13
REMARK SMILES IDX 28 15 8 17 25 18 9 19 23 20 10 21 22 22 11 23 20 24 12 25
REMARK SMILES IDX 19 26 21 27 26 28 24 30 13 32 14 33 18 34 15 35 17 36 16 37
REMARK H PARENT 32 12 30 14 28 16 26 29 24 31
REMARK Flexibility Score: inf
ROOT
ATOM      1  O   UNL     1     121.231  72.084  44.698  1.00  0.00    -0.458 OA
ENDROOT
BRANCH   1   2
ATOM      2  C   UNL     1     119.896  72.016  44.187  1.00  0.00     0.339 C 
ATOM      3  C   UNL     1     119.504  74.367  44.172  1.00  0.00     0.199 C 
ATOM      4  C   UNL     1     119.575  74.427  42.624  1.00  0.00     0.180 C 
ATOM      5  O   UNL     1     119.096  73.094  44.660  1.00  0.00    -0.328 OA
ATOM      6  C   UNL     1     120.413  73.269  42.064  1.00  0.00     0.181 C 
ATOM      7  C   UNL     1     119.914  71.940  42.652  1.00  0.00     0.214 C 
BRANCH   3   8
ATOM      8  C   UNL     1     120.735  74.876  44.883  1.00  0.00     0.073 C 
ATOM      9  O   UNL     1     121.799  75.125  44.257  1.00  0.00    -0.547 OA
ATOM     10  O   UNL     1     120.694  75.073  46.257  1.00  0.00    -0.547 OA
ENDBRANCH   3   8
BRANCH   4  11
ATOM     11  O   UNL     1     118.274  74.358  42.091  1.00  0.00    -0.387 OA
ATOM     12  H   UNL     1     118.221  73.515  41.569  1.00  0.00     0.211 HD
ENDBRANCH   4  11
BRANCH   6  13
ATOM     13  O   UNL     1     120.305  73.253  40.663  1.00  0.00    -0.387 OA
ATOM     14  H   UNL     1     120.613  74.140  40.338  1.00  0.00     0.211 HD
ENDBRANCH   6  13
BRANCH   7  15
ATOM     15  O   UNL     1     120.753  70.887  42.250  1.00  0.00    -0.384 OA
ATOM     16  H   UNL     1     120.343  70.047  42.583  1.00  0.00     0.211 HD
ENDBRANCH   7  15
ENDBRANCH   1   2
BRANCH   1  17
ATOM     17  C   UNL     1     121.757  71.404  45.813  1.00  0.00     0.172 A 
ATOM     18  C   UNL     1     122.626  71.982  46.768  1.00  0.00     0.201 A 
ATOM     19  C   UNL     1     121.392  70.066  45.948  1.00  0.00     0.098 A 
ATOM     20  C   UNL     1     123.120  71.207  47.841  1.00  0.00     0.176 A 
ATOM     21  C   UNL     1     121.834  69.299  47.023  1.00  0.00     0.146 A 
ATOM     22  C   UNL     1     122.683  69.861  48.006  1.00  0.00     0.111 A 
ATOM     23  O   UNL     1     121.431  68.035  47.110  1.00  0.00    -0.456 OA
ATOM     24  C   UNL     1     123.015  69.037  49.109  1.00  0.00     0.197 A 
ATOM     25  C   UNL     1     121.763  67.227  48.111  1.00  0.00     0.138 A 
ATOM     26  C   UNL     1     122.571  67.715  49.146  1.00  0.00     0.100 A 
ATOM     27  O   UNL     1     123.681  69.467  50.087  1.00  0.00    -0.289 OA
BRANCH  18  28
ATOM     28  O   UNL     1     123.017  73.316  46.649  1.00  0.00    -0.502 OA
ATOM     29  H   UNL     1     123.809  73.706  47.146  1.00  0.00     0.293 HD
ENDBRANCH  18  28
BRANCH  20  30
ATOM     30  O   UNL     1     124.058  71.811  48.685  1.00  0.00    -0.504 OA
ATOM     31  H   UNL     1     124.091  71.688  49.686  1.00  0.00     0.293 HD
ENDBRANCH  20  30
BRANCH  25  32
ATOM     32  C   UNL     1     121.265  65.828  48.093  1.00  0.00     0.017 A 
ATOM     33  C   UNL     1     120.025  65.490  47.514  1.00  0.00     0.012 A 
ATOM     34  C   UNL     1     122.059  64.804  48.640  1.00  0.00     0.012 A 
ATOM     35  C   UNL     1     119.587  64.162  47.505  1.00  0.00     0.001 A 
ATOM     36  C   UNL     1     121.616  63.478  48.629  1.00  0.00     0.001 A 
ATOM     37  C   UNL     1     120.379  63.158  48.064  1.00  0.00     0.000 A 
ENDBRANCH  25  32
ENDBRANCH   1  17
TORSDOF 9
ENDMDL
MODEL 3
REMARK VINA RESULT:    -5.472      1.606      2.237
REMARK INTER + INTRA:          -8.934
REMARK INTER:                  -7.551
REMARK INTRA:                  -1.383
REMARK UNBOUND:                -1.383
REMARK SMILES O=C([O-])[C@@H]1O[C@H](Oc2cc3oc(-c4ccccc4)cc(=O)c3c(O)c2O)[C@H](O)[C@@H](O)[C@H]1O
REMARK SMILES IDX 7 1 6 2 4 3 31 4 5 5 29 6 27 7 2 8 1 9 3 10 32 11 30 13
REMARK SMILES IDX 28 15 8 17 25 18 9 19 23 20 10 21 22 22 11 23 20 24 12 25
REMARK SMILES IDX 19 26 21 27 26 28 24 30 13 32 14 33 18 34 15 35 17 36 16 37
REMARK H PARENT 32 12 30 14 28 16 26 29 24 31
REMARK Flexibility Score: inf
ROOT
ATOM      1  O   UNL     1     120.992  69.732  46.349  1.00  0.00    -0.458 OA
ENDROOT
BRANCH   1   2
ATOM      2  C   UNL     1     120.422  70.583  45.349  1.00  0.00     0.339 C 
ATOM      3  C   UNL     1     121.444  72.598  46.111  1.00  0.00     0.199 C 
ATOM      4  C   UNL     1     122.410  72.633  44.898  1.00  0.00     0.180 C 
ATOM      5  O   UNL     1     120.231  71.908  45.834  1.00  0.00    -0.328 OA
ATOM      6  C   UNL     1     122.633  71.226  44.327  1.00  0.00     0.181 C 
ATOM      7  C   UNL     1     121.276  70.553  44.071  1.00  0.00     0.214 C 
BRANCH   3   8
ATOM      8  C   UNL     1     122.070  72.139  47.406  1.00  0.00     0.073 C 
ATOM      9  O   UNL     1     121.416  72.124  48.483  1.00  0.00    -0.547 OA
ATOM     10  O   UNL     1     123.395  71.723  47.412  1.00  0.00    -0.547 OA
ENDBRANCH   3   8
BRANCH   4  11
ATOM     11  O   UNL     1     121.874  73.461  43.894  1.00  0.00    -0.387 OA
ATOM     12  H   UNL     1     120.921  73.204  43.786  1.00  0.00     0.211 HD
ENDBRANCH   4  11
BRANCH   6  13
ATOM     13  O   UNL     1     123.363  71.320  43.130  1.00  0.00    -0.387 OA
ATOM     14  H   UNL     1     124.285  71.595  43.374  1.00  0.00     0.211 HD
ENDBRANCH   6  13
BRANCH   7  15
ATOM     15  O   UNL     1     121.463  69.219  43.671  1.00  0.00    -0.384 OA
ATOM     16  H   UNL     1     121.596  69.227  42.688  1.00  0.00     0.211 HD
ENDBRANCH   7  15
ENDBRANCH   1   2
BRANCH   1  17
ATOM     17  C   UNL     1     120.320  68.807  47.171  1.00  0.00     0.172 A 
ATOM     18  C   UNL     1     119.306  69.146  48.096  1.00  0.00     0.201 A 
ATOM     19  C   UNL     1     120.716  67.476  47.052  1.00  0.00     0.098 A 
ATOM     20  C   UNL     1     118.708  68.145  48.894  1.00  0.00     0.176 A 
ATOM     21  C   UNL     1     120.107  66.470  47.799  1.00  0.00     0.146 A 
ATOM     22  C   UNL     1     119.072  66.780  48.714  1.00  0.00     0.111 A 
ATOM     23  O   UNL     1     120.512  65.216  47.623  1.00  0.00    -0.456 OA
ATOM     24  C   UNL     1     118.451  65.688  49.368  1.00  0.00     0.197 A 
ATOM     25  C   UNL     1     119.976  64.178  48.257  1.00  0.00     0.138 A 
ATOM     26  C   UNL     1     118.920  64.392  49.153  1.00  0.00     0.100 A 
ATOM     27  O   UNL     1     117.457  65.840  50.124  1.00  0.00    -0.289 OA
BRANCH  18  28
ATOM     28  O   UNL     1     118.901  70.473  48.244  1.00  0.00    -0.502 OA
ATOM     29  H   UNL     1     118.509  71.018  47.486  1.00  0.00     0.293 HD
ENDBRANCH  18  28
BRANCH  20  30
ATOM     30  O   UNL     1     117.790  68.565  49.863  1.00  0.00    -0.504 OA
ATOM     31  H   UNL     1     117.929  68.481  50.859  1.00  0.00     0.293 HD
ENDBRANCH  20  30
BRANCH  25  32
ATOM     32  C   UNL     1     120.521  62.822  47.991  1.00  0.00     0.017 A 
ATOM     33  C   UNL     1     120.826  61.927  49.037  1.00  0.00     0.012 A 
ATOM     34  C   UNL     1     120.712  62.401  46.662  1.00  0.00     0.012 A 
ATOM     35  C   UNL     1     121.330  60.654  48.754  1.00  0.00     0.001 A 
ATOM     36  C   UNL     1     121.216  61.128  46.385  1.00  0.00     0.001 A 
ATOM     37  C   UNL     1     121.527  60.255  47.431  1.00  0.00     0.000 A 
ENDBRANCH  25  32
ENDBRANCH   1  17
TORSDOF 9
ENDMDL
MODEL 4
REMARK VINA RESULT:    -5.381      4.754      7.988
REMARK INTER + INTRA:          -8.809
REMARK INTER:                  -7.490
REMARK INTRA:                  -1.318
REMARK UNBOUND:                -1.383
REMARK SMILES O=C([O-])[C@@H]1O[C@H](Oc2cc3oc(-c4ccccc4)cc(=O)c3c(O)c2O)[C@H](O)[C@@H](O)[C@H]1O
REMARK SMILES IDX 7 1 6 2 4 3 31 4 5 5 29 6 27 7 2 8 1 9 3 10 32 11 30 13
REMARK SMILES IDX 28 15 8 17 25 18 9 19 23 20 10 21 22 22 11 23 20 24 12 25
REMARK SMILES IDX 19 26 21 27 26 28 24 30 13 32 14 33 18 34 15 35 17 36 16 37
REMARK H PARENT 32 12 30 14 28 16 26 29 24 31
REMARK Flexibility Score: inf
ROOT
ATOM      1  O   UNL     1     120.120  72.788  44.777  1.00  0.00    -0.458 OA
ENDROOT
BRANCH   1   2
ATOM      2  C   UNL     1     120.542  71.621  45.490  1.00  0.00     0.339 C 
ATOM      3  C   UNL     1     121.913  70.738  43.751  1.00  0.00     0.199 C 
ATOM      4  C   UNL     1     123.213  71.085  44.522  1.00  0.00     0.180 C 
ATOM      5  O   UNL     1     120.797  70.532  44.609  1.00  0.00    -0.328 OA
ATOM      6  C   UNL     1     122.982  72.245  45.501  1.00  0.00     0.181 C 
ATOM      7  C   UNL     1     121.755  71.945  46.375  1.00  0.00     0.214 C 
BRANCH   3   8
ATOM      8  C   UNL     1     121.582  71.673  42.612  1.00  0.00     0.073 C 
ATOM      9  O   UNL     1     122.276  72.698  42.382  1.00  0.00    -0.547 OA
ATOM     10  O   UNL     1     120.490  71.396  41.800  1.00  0.00    -0.547 OA
ENDBRANCH   3   8
BRANCH   4  11
ATOM     11  O   UNL     1     123.651  69.955  45.237  1.00  0.00    -0.387 OA
ATOM     12  H   UNL     1     123.700  69.204  44.589  1.00  0.00     0.211 HD
ENDBRANCH   4  11
BRANCH   6  13
ATOM     13  O   UNL     1     124.123  72.410  46.303  1.00  0.00    -0.387 OA
ATOM     14  H   UNL     1     123.811  72.468  47.244  1.00  0.00     0.211 HD
ENDBRANCH   6  13
BRANCH   7  15
ATOM     15  O   UNL     1     121.455  73.052  47.186  1.00  0.00    -0.384 OA
ATOM     16  H   UNL     1     120.634  72.824  47.695  1.00  0.00     0.211 HD
ENDBRANCH   7  15
ENDBRANCH   1   2
BRANCH   1  17
ATOM     17  C   UNL     1     118.799  73.216  44.539  1.00  0.00     0.172 A 
ATOM     18  C   UNL     1     118.335  73.737  43.309  1.00  0.00     0.201 A 
ATOM     19  C   UNL     1     117.918  73.123  45.615  1.00  0.00     0.098 A 
ATOM     20  C   UNL     1     116.994  74.163  43.179  1.00  0.00     0.176 A 
ATOM     21  C   UNL     1     116.582  73.497  45.492  1.00  0.00     0.146 A 
ATOM     22  C   UNL     1     116.086  73.997  44.264  1.00  0.00     0.111 A 
ATOM     23  O   UNL     1     115.785  73.361  46.547  1.00  0.00    -0.456 OA
ATOM     24  C   UNL     1     114.698  74.272  44.202  1.00  0.00     0.197 A 
ATOM     25  C   UNL     1     114.489  73.654  46.528  1.00  0.00     0.138 A 
ATOM     26  C   UNL     1     113.909  74.120  45.342  1.00  0.00     0.100 A 
ATOM     27  O   UNL     1     114.135  74.626  43.133  1.00  0.00    -0.289 OA
BRANCH  18  28
ATOM     28  O   UNL     1     119.199  73.853  42.221  1.00  0.00    -0.502 OA
ATOM     29  H   UNL     1     119.553  74.742  41.889  1.00  0.00     0.293 HD
ENDBRANCH  18  28
BRANCH  20  30
ATOM     30  O   UNL     1     116.631  74.766  41.970  1.00  0.00    -0.504 OA
ATOM     31  H   UNL     1     116.573  74.286  41.084  1.00  0.00     0.293 HD
ENDBRANCH  20  30
BRANCH  25  32
ATOM     32  C   UNL     1     113.700  73.476  47.775  1.00  0.00     0.017 A 
ATOM     33  C   UNL     1     114.155  72.661  48.831  1.00  0.00     0.012 A 
ATOM     34  C   UNL     1     112.480  74.161  47.925  1.00  0.00     0.012 A 
ATOM     35  C   UNL     1     113.394  72.521  49.995  1.00  0.00     0.001 A 
ATOM     36  C   UNL     1     111.723  74.017  49.090  1.00  0.00     0.001 A 
ATOM     37  C   UNL     1     112.179  73.195  50.124  1.00  0.00     0.000 A 
ENDBRANCH  25  32
ENDBRANCH   1  17
TORSDOF 9
ENDMDL
MODEL 5
REMARK VINA RESULT:    -5.307      2.065      3.631
REMARK INTER + INTRA:          -8.706
REMARK INTER:                  -7.275
REMARK INTRA:                  -1.432
REMARK UNBOUND:                -1.383
REMARK SMILES O=C([O-])[C@@H]1O[C@H](Oc2cc3oc(-c4ccccc4)cc(=O)c3c(O)c2O)[C@H](O)[C@@H](O)[C@H]1O
REMARK SMILES IDX 7 1 6 2 4 3 31 4 5 5 29 6 27 7 2 8 1 9 3 10 32 11 30 13
REMARK SMILES IDX 28 15 8 17 25 18 9 19 23 20 10 21 22 22 11 23 20 24 12 25
REMARK SMILES IDX 19 26 21 27 26 28 24 30 13 32 14 33 18 34 15 35 17 36 16 37
REMARK H PARENT 32 12 30 14 28 16 26 29 24 31
REMARK Flexibility Score: inf
ROOT
ATOM      1  O   UNL     1     120.183  71.132  45.129  1.00  0.00    -0.458 OA
ENDROOT
BRANCH   1   2
ATOM      2  C   UNL     1     120.185  72.543  45.369  1.00  0.00     0.339 C 
ATOM      3  C   UNL     1     120.975  73.173  43.210  1.00  0.00     0.199 C 
ATOM      4  C   UNL     1     119.587  73.735  42.804  1.00  0.00     0.180 C 
ATOM      5  O   UNL     1     121.196  73.203  44.615  1.00  0.00    -0.328 OA
ATOM      6  C   UNL     1     118.463  73.065  43.606  1.00  0.00     0.181 C 
ATOM      7  C   UNL     1     118.790  73.133  45.106  1.00  0.00     0.214 C 
BRANCH   3   8
ATOM      8  C   UNL     1     121.312  71.826  42.616  1.00  0.00     0.073 C 
ATOM      9  O   UNL     1     120.492  71.205  41.888  1.00  0.00    -0.547 OA
ATOM     10  O   UNL     1     122.552  71.259  42.877  1.00  0.00    -0.547 OA
ENDBRANCH   3   8
BRANCH   4  11
ATOM     11  O   UNL     1     119.557  75.123  43.032  1.00  0.00    -0.387 OA
ATOM     12  H   UNL     1     120.485  75.456  42.911  1.00  0.00     0.211 HD
ENDBRANCH   4  11
BRANCH   6  13
ATOM     13  O   UNL     1     117.250  73.722  43.342  1.00  0.00    -0.387 OA
ATOM     14  H   UNL     1     117.445  74.441  42.686  1.00  0.00     0.211 HD
ENDBRANCH   6  13
BRANCH   7  15
ATOM     15  O   UNL     1     117.836  72.412  45.843  1.00  0.00    -0.384 OA
ATOM     16  H   UNL     1     117.697  71.549  45.373  1.00  0.00     0.211 HD
ENDBRANCH   7  15
ENDBRANCH   1   2
BRANCH   1  17
ATOM     17  C   UNL     1     120.805  70.131  45.900  1.00  0.00     0.172 A 
ATOM     18  C   UNL     1     122.197  70.051  46.136  1.00  0.00     0.201 A 
ATOM     19  C   UNL     1     119.965  69.159  46.440  1.00  0.00     0.098 A 
ATOM     20  C   UNL     1     122.727  68.991  46.905  1.00  0.00     0.176 A 
ATOM     21  C   UNL     1     120.465  68.132  47.237  1.00  0.00     0.146 A 
ATOM     22  C   UNL     1     121.852  68.043  47.509  1.00  0.00     0.111 A 
ATOM     23  O   UNL     1     119.612  67.249  47.744  1.00  0.00    -0.456 OA
ATOM     24  C   UNL     1     122.264  67.020  48.398  1.00  0.00     0.197 A 
ATOM     25  C   UNL     1     119.977  66.253  48.545  1.00  0.00     0.138 A 
ATOM     26  C   UNL     1     121.326  66.114  48.895  1.00  0.00     0.100 A 
ATOM     27  O   UNL     1     123.456  66.912  48.785  1.00  0.00    -0.289 OA
BRANCH  18  28
ATOM     28  O   UNL     1     123.060  71.004  45.595  1.00  0.00    -0.502 OA
ATOM     29  H   UNL     1     122.735  71.833  45.112  1.00  0.00     0.293 HD
ENDBRANCH  18  28
BRANCH  20  30
ATOM     30  O   UNL     1     124.120  68.912  47.007  1.00  0.00    -0.504 OA
ATOM     31  H   UNL     1     124.746  68.776  46.227  1.00  0.00     0.293 HD
ENDBRANCH  20  30
BRANCH  25  32
ATOM     32  C   UNL     1     118.935  65.317  49.039  1.00  0.00     0.017 A 
ATOM     33  C   UNL     1     117.560  65.585  48.877  1.00  0.00     0.012 A 
ATOM     34  C   UNL     1     119.322  64.114  49.658  1.00  0.00     0.012 A 
ATOM     35  C   UNL     1     116.603  64.679  49.346  1.00  0.00     0.001 A 
ATOM     36  C   UNL     1     118.361  63.213  50.125  1.00  0.00     0.001 A 
ATOM     37  C   UNL     1     117.002  63.497  49.971  1.00  0.00     0.000 A 
ENDBRANCH  25  32
ENDBRANCH   1  17
TORSDOF 9
ENDMDL
MODEL 6
REMARK VINA RESULT:    -5.207      2.101      3.768
REMARK INTER + INTRA:          -8.568
REMARK INTER:                  -7.977
REMARK INTRA:                  -0.591
REMARK UNBOUND:                -1.383
REMARK SMILES O=C([O-])[C@@H]1O[C@H](Oc2cc3oc(-c4ccccc4)cc(=O)c3c(O)c2O)[C@H](O)[C@@H](O)[C@H]1O
REMARK SMILES IDX 7 1 6 2 4 3 31 4 5 5 29 6 27 7 2 8 1 9 3 10 32 11 30 13
REMARK SMILES IDX 28 15 8 17 25 18 9 19 23 20 10 21 22 22 11 23 20 24 12 25
REMARK SMILES IDX 19 26 21 27 26 28 24 30 13 32 14 33 18 34 15 35 17 36 16 37
REMARK H PARENT 32 12 30 14 28 16 26 29 24 31
REMARK Flexibility Score: inf
ROOT
ATOM      1  O   UNL     1     120.921  72.537  44.346  1.00  0.00    -0.458 OA
ENDROOT
BRANCH   1   2
ATOM      2  C   UNL     1     120.340  73.845  44.379  1.00  0.00     0.339 C 
ATOM      3  C   UNL     1     119.940  74.008  42.034  1.00  0.00     0.199 C 
ATOM      4  C   UNL     1     118.409  73.853  42.227  1.00  0.00     0.180 C 
ATOM      5  O   UNL     1     120.590  74.560  43.174  1.00  0.00    -0.328 OA
ATOM      6  C   UNL     1     118.089  73.102  43.527  1.00  0.00     0.181 C 
ATOM      7  C   UNL     1     118.839  73.756  44.698  1.00  0.00     0.214 C 
BRANCH   3   8
ATOM      8  C   UNL     1     120.644  72.771  41.529  1.00  0.00     0.073 C 
ATOM      9  O   UNL     1     119.999  71.761  41.140  1.00  0.00    -0.547 OA
ATOM     10  O   UNL     1     122.031  72.746  41.491  1.00  0.00    -0.547 OA
ENDBRANCH   3   8
BRANCH   4  11
ATOM     11  O   UNL     1     117.809  75.125  42.266  1.00  0.00    -0.387 OA
ATOM     12  H   UNL     1     117.631  75.331  43.221  1.00  0.00     0.211 HD
ENDBRANCH   4  11
BRANCH   6  13
ATOM     13  O   UNL     1     116.703  73.140  43.756  1.00  0.00    -0.387 OA
ATOM     14  H   UNL     1     116.273  72.644  43.011  1.00  0.00     0.211 HD
ENDBRANCH   6  13
BRANCH   7  15
ATOM     15  O   UNL     1     118.659  73.003  45.871  1.00  0.00    -0.384 OA
ATOM     16  H   UNL     1     119.098  72.126  45.722  1.00  0.00     0.211 HD
ENDBRANCH   7  15
ENDBRANCH   1   2
BRANCH   1  17
ATOM     17  C   UNL     1     121.493  71.827  45.420  1.00  0.00     0.172 A 
ATOM     18  C   UNL     1     122.478  72.348  46.291  1.00  0.00     0.201 A 
ATOM     19  C   UNL     1     121.049  70.518  45.600  1.00  0.00     0.098 A 
ATOM     20  C   UNL     1     123.008  71.545  47.326  1.00  0.00     0.176 A 
ATOM     21  C   UNL     1     121.527  69.728  46.641  1.00  0.00     0.146 A 
ATOM     22  C   UNL     1     122.495  70.234  47.542  1.00  0.00     0.111 A 
ATOM     23  O   UNL     1     121.047  68.495  46.775  1.00  0.00    -0.456 OA
ATOM     24  C   UNL     1     122.863  69.393  48.621  1.00  0.00     0.197 A 
ATOM     25  C   UNL     1     121.408  67.671  47.753  1.00  0.00     0.138 A 
ATOM     26  C   UNL     1     122.334  68.106  48.710  1.00  0.00     0.100 A 
ATOM     27  O   UNL     1     123.638  69.780  49.534  1.00  0.00    -0.289 OA
BRANCH  18  28
ATOM     28  O   UNL     1     122.949  73.650  46.124  1.00  0.00    -0.502 OA
ATOM     29  H   UNL     1     123.831  73.971  46.503  1.00  0.00     0.293 HD
ENDBRANCH  18  28
BRANCH  20  30
ATOM     30  O   UNL     1     124.054  72.086  48.080  1.00  0.00    -0.504 OA
ATOM     31  H   UNL     1     123.937  72.762  48.821  1.00  0.00     0.293 HD
ENDBRANCH  20  30
BRANCH  25  32
ATOM     32  C   UNL     1     120.814  66.310  47.793  1.00  0.00     0.017 A 
ATOM     33  C   UNL     1     121.381  65.275  48.566  1.00  0.00     0.012 A 
ATOM     34  C   UNL     1     119.638  66.046  47.067  1.00  0.00     0.012 A 
ATOM     35  C   UNL     1     120.793  64.007  48.589  1.00  0.00     0.001 A 
ATOM     36  C   UNL     1     119.056  64.776  47.094  1.00  0.00     0.001 A 
ATOM     37  C   UNL     1     119.634  63.756  47.853  1.00  0.00     0.000 A 
ENDBRANCH  25  32
ENDBRANCH   1  17
TORSDOF 9
ENDMDL
MODEL 7
REMARK VINA RESULT:    -5.116      4.187      8.484
REMARK INTER + INTRA:          -8.443
REMARK INTER:                  -7.046
REMARK INTRA:                  -1.397
REMARK UNBOUND:                -1.383
REMARK SMILES O=C([O-])[C@@H]1O[C@H](Oc2cc3oc(-c4ccccc4)cc(=O)c3c(O)c2O)[C@H](O)[C@@H](O)[C@H]1O
REMARK SMILES IDX 7 1 6 2 4 3 31 4 5 5 29 6 27 7 2 8 1 9 3 10 32 11 30 13
REMARK SMILES IDX 28 15 8 17 25 18 9 19 23 20 10 21 22 22 11 23 20 24 12 25
REMARK SMILES IDX 19 26 21 27 26 28 24 30 13 32 14 33 18 34 15 35 17 36 16 37
REMARK H PARENT 32 12 30 14 28 16 26 29 24 31
REMARK Flexibility Score: inf
ROOT
ATOM      1  O   UNL     1     120.339  71.471  46.116  1.00  0.00    -0.458 OA
ENDROOT
BRANCH   1   2
ATOM      2  C   UNL     1     120.087  70.293  46.888  1.00  0.00     0.339 C 
ATOM      3  C   UNL     1     121.449  68.833  45.585  1.00  0.00     0.199 C 
ATOM      4  C   UNL     1     122.523  68.747  46.701  1.00  0.00     0.180 C 
ATOM      5  O   UNL     1     120.148  69.117  46.088  1.00  0.00    -0.328 OA
ATOM      6  C   UNL     1     122.482  69.988  47.604  1.00  0.00     0.181 C 
ATOM      7  C   UNL     1     121.044  70.226  48.089  1.00  0.00     0.214 C 
BRANCH   3   8
ATOM      8  C   UNL     1     121.812  69.728  44.424  1.00  0.00     0.073 C 
ATOM      9  O   UNL     1     122.850  70.441  44.443  1.00  0.00    -0.547 OA
ATOM     10  O   UNL     1     120.983  69.766  43.310  1.00  0.00    -0.547 OA
ENDBRANCH   3   8
BRANCH   4  11
ATOM     11  O   UNL     1     122.299  67.598  47.481  1.00  0.00    -0.387 OA
ATOM     12  H   UNL     1     122.465  67.854  48.426  1.00  0.00     0.211 HD
ENDBRANCH   4  11
BRANCH   6  13
ATOM     13  O   UNL     1     123.339  69.793  48.700  1.00  0.00    -0.387 OA
ATOM     14  H   UNL     1     123.253  68.841  48.970  1.00  0.00     0.211 HD
ENDBRANCH   6  13
BRANCH   7  15
ATOM     15  O   UNL     1     120.968  71.429  48.810  1.00  0.00    -0.384 OA
ATOM     16  H   UNL     1     121.849  71.877  48.720  1.00  0.00     0.211 HD
ENDBRANCH   7  15
ENDBRANCH   1   2
BRANCH   1  17
ATOM     17  C   UNL     1     119.393  72.291  45.471  1.00  0.00     0.172 A 
ATOM     18  C   UNL     1     119.598  72.922  44.222  1.00  0.00     0.201 A 
ATOM     19  C   UNL     1     118.187  72.487  46.142  1.00  0.00     0.098 A 
ATOM     20  C   UNL     1     118.594  73.747  43.668  1.00  0.00     0.176 A 
ATOM     21  C   UNL     1     117.169  73.260  45.591  1.00  0.00     0.146 A 
ATOM     22  C   UNL     1     117.340  73.883  44.331  1.00  0.00     0.111 A 
ATOM     23  O   UNL     1     116.032  73.390  46.268  1.00  0.00    -0.456 OA
ATOM     24  C   UNL     1     116.224  74.580  43.806  1.00  0.00     0.197 A 
ATOM     25  C   UNL     1     114.986  74.075  45.819  1.00  0.00     0.138 A 
ATOM     26  C   UNL     1     115.057  74.691  44.563  1.00  0.00     0.100 A 
ATOM     27  O   UNL     1     116.233  75.085  42.654  1.00  0.00    -0.289 OA
BRANCH  18  28
ATOM     28  O   UNL     1     120.801  72.753  43.536  1.00  0.00    -0.502 OA
ATOM     29  H   UNL     1     121.444  71.994  43.727  1.00  0.00     0.293 HD
ENDBRANCH  18  28
BRANCH  20  30
ATOM     30  O   UNL     1     118.906  74.425  42.485  1.00  0.00    -0.504 OA
ATOM     31  H   UNL     1     119.427  74.029  41.717  1.00  0.00     0.293 HD
ENDBRANCH  20  30
BRANCH  25  32
ATOM     32  C   UNL     1     113.772  74.163  46.672  1.00  0.00     0.017 A 
ATOM     33  C   UNL     1     113.682  73.486  47.905  1.00  0.00     0.012 A 
ATOM     34  C   UNL     1     112.693  74.966  46.259  1.00  0.00     0.012 A 
ATOM     35  C   UNL     1     112.530  73.596  48.689  1.00  0.00     0.001 A 
ATOM     36  C   UNL     1     111.544  75.072  47.047  1.00  0.00     0.001 A 
ATOM     37  C   UNL     1     111.461  74.385  48.261  1.00  0.00     0.000 A 
ENDBRANCH  25  32
ENDBRANCH   1  17
TORSDOF 9
ENDMDL
MODEL 8
REMARK VINA RESULT:    -5.092      2.474      8.700
REMARK INTER + INTRA:          -8.410
REMARK INTER:                  -7.188
REMARK INTRA:                  -1.222
REMARK UNBOUND:                -1.383
REMARK SMILES O=C([O-])[C@@H]1O[C@H](Oc2cc3oc(-c4ccccc4)cc(=O)c3c(O)c2O)[C@H](O)[C@@H](O)[C@H]1O
REMARK SMILES IDX 7 1 6 2 4 3 31 4 5 5 29 6 27 7 2 8 1 9 3 10 32 11 30 13
REMARK SMILES IDX 28 15 8 17 25 18 9 19 23 20 10 21 22 22 11 23 20 24 12 25
REMARK SMILES IDX 19 26 21 27 26 28 24 30 13 32 14 33 18 34 15 35 17 36 16 37
REMARK H PARENT 32 12 30 14 28 16 26 29 24 31
REMARK Flexibility Score: inf
ROOT
ATOM      1  O   UNL     1     120.735  66.734  47.780  1.00  0.00    -0.458 OA
ENDROOT
BRANCH   1   2
ATOM      2  C   UNL     1     119.882  66.523  48.909  1.00  0.00     0.339 C 
ATOM      3  C   UNL     1     118.376  65.030  47.818  1.00  0.00     0.199 C 
ATOM      4  C   UNL     1     118.917  63.813  48.614  1.00  0.00     0.180 C 
ATOM      5  O   UNL     1     118.540  66.262  48.511  1.00  0.00    -0.328 OA
ATOM      6  C   UNL     1     120.359  64.056  49.082  1.00  0.00     0.181 C 
ATOM      7  C   UNL     1     120.445  65.408  49.805  1.00  0.00     0.214 C 
BRANCH   3   8
ATOM      8  C   UNL     1     118.857  65.118  46.390  1.00  0.00     0.073 C 
ATOM      9  O   UNL     1     118.525  66.077  45.643  1.00  0.00    -0.547 OA
ATOM     10  O   UNL     1     119.684  64.122  45.888  1.00  0.00    -0.547 OA
ENDBRANCH   3   8
BRANCH   4  11
ATOM     11  O   UNL     1     118.098  63.582  49.735  1.00  0.00    -0.387 OA
ATOM     12  H   UNL     1     117.687  64.453  49.976  1.00  0.00     0.211 HD
ENDBRANCH   4  11
BRANCH   6  13
ATOM     13  O   UNL     1     120.748  63.017  49.944  1.00  0.00    -0.387 OA
ATOM     14  H   UNL     1     121.684  62.782  49.712  1.00  0.00     0.211 HD
ENDBRANCH   6  13
BRANCH   7  15
ATOM     15  O   UNL     1     121.781  65.703  50.125  1.00  0.00    -0.384 OA
ATOM     16  H   UNL     1     121.779  66.113  51.029  1.00  0.00     0.211 HD
ENDBRANCH   7  15
ENDBRANCH   1   2
BRANCH   1  17
ATOM     17  C   UNL     1     121.359  67.935  47.390  1.00  0.00     0.172 A 
ATOM     18  C   UNL     1     122.512  68.475  48.006  1.00  0.00     0.201 A 
ATOM     19  C   UNL     1     120.766  68.624  46.333  1.00  0.00     0.098 A 
ATOM     20  C   UNL     1     123.050  69.702  47.556  1.00  0.00     0.176 A 
ATOM     21  C   UNL     1     121.307  69.811  45.848  1.00  0.00     0.146 A 
ATOM     22  C   UNL     1     122.475  70.360  46.430  1.00  0.00     0.111 A 
ATOM     23  O   UNL     1     120.710  70.409  44.822  1.00  0.00    -0.456 OA
ATOM     24  C   UNL     1     123.006  71.523  45.821  1.00  0.00     0.197 A 
ATOM     25  C   UNL     1     121.162  71.525  44.260  1.00  0.00     0.138 A 
ATOM     26  C   UNL     1     122.334  72.114  44.751  1.00  0.00     0.100 A 
ATOM     27  O   UNL     1     124.093  72.036  46.195  1.00  0.00    -0.289 OA
BRANCH  18  28
ATOM     28  O   UNL     1     123.117  67.812  49.074  1.00  0.00    -0.502 OA
ATOM     29  H   UNL     1     124.113  67.632  49.119  1.00  0.00     0.293 HD
ENDBRANCH  18  28
BRANCH  20  30
ATOM     30  O   UNL     1     124.124  70.230  48.279  1.00  0.00    -0.504 OA
ATOM     31  H   UNL     1     124.091  70.481  49.256  1.00  0.00     0.293 HD
ENDBRANCH  20  30
BRANCH  25  32
ATOM     32  C   UNL     1     120.401  72.110  43.126  1.00  0.00     0.017 A 
ATOM     33  C   UNL     1     119.230  72.868  43.331  1.00  0.00     0.012 A 
ATOM     34  C   UNL     1     120.873  71.934  41.812  1.00  0.00     0.012 A 
ATOM     35  C   UNL     1     118.541  73.413  42.244  1.00  0.00     0.001 A 
ATOM     36  C   UNL     1     120.179  72.481  40.729  1.00  0.00     0.001 A 
ATOM     37  C   UNL     1     119.013  73.219  40.944  1.00  0.00     0.000 A 
ENDBRANCH  25  32
ENDBRANCH   1  17
TORSDOF 9
ENDMDL
MODEL 9
REMARK VINA RESULT:    -5.043      1.846      3.422
REMARK INTER + INTRA:          -8.342
REMARK INTER:                  -7.296
REMARK INTRA:                  -1.046
REMARK UNBOUND:                -1.383
REMARK SMILES O=C([O-])[C@@H]1O[C@H](Oc2cc3oc(-c4ccccc4)cc(=O)c3c(O)c2O)[C@H](O)[C@@H](O)[C@H]1O
REMARK SMILES IDX 7 1 6 2 4 3 31 4 5 5 29 6 27 7 2 8 1 9 3 10 32 11 30 13
REMARK SMILES IDX 28 15 8 17 25 18 9 19 23 20 10 21 22 22 11 23 20 24 12 25
REMARK SMILES IDX 19 26 21 27 26 28 24 30 13 32 14 33 18 34 15 35 17 36 16 37
REMARK H PARENT 32 12 30 14 28 16 26 29 24 31
REMARK Flexibility Score: inf
ROOT
ATOM      1  O   UNL     1     121.143  69.519  46.701  1.00  0.00    -0.458 OA
ENDROOT
BRANCH   1   2
ATOM      2  C   UNL     1     122.509  69.900  46.894  1.00  0.00     0.339 C 
ATOM      3  C   UNL     1     122.770  71.000  44.795  1.00  0.00     0.199 C 
ATOM      4  C   UNL     1     122.792  72.398  45.467  1.00  0.00     0.180 C 
ATOM      5  O   UNL     1     123.216  69.962  45.660  1.00  0.00    -0.328 OA
ATOM      6  C   UNL     1     122.056  72.376  46.814  1.00  0.00     0.181 C 
ATOM      7  C   UNL     1     122.591  71.222  47.674  1.00  0.00     0.214 C 
BRANCH   3   8
ATOM      8  C   UNL     1     121.470  70.645  44.113  1.00  0.00     0.073 C 
ATOM      9  O   UNL     1     120.501  71.449  44.088  1.00  0.00    -0.547 OA
ATOM     10  O   UNL     1     121.341  69.407  43.499  1.00  0.00    -0.547 OA
ENDBRANCH   3   8
BRANCH   4  11
ATOM     11  O   UNL     1     124.125  72.799  45.673  1.00  0.00    -0.387 OA
ATOM     12  H   UNL     1     124.683  72.288  45.031  1.00  0.00     0.211 HD
ENDBRANCH   4  11
BRANCH   6  13
ATOM     13  O   UNL     1     122.251  73.603  47.469  1.00  0.00    -0.387 OA
ATOM     14  H   UNL     1     121.352  73.960  47.691  1.00  0.00     0.211 HD
ENDBRANCH   6  13
BRANCH   7  15
ATOM     15  O   UNL     1     121.839  71.109  48.856  1.00  0.00    -0.384 OA
ATOM     16  H   UNL     1     121.129  71.801  48.815  1.00  0.00     0.211 HD
ENDBRANCH   7  15
ENDBRANCH   1   2
BRANCH   1  17
ATOM     17  C   UNL     1     120.402  68.581  47.445  1.00  0.00     0.172 A 
ATOM     18  C   UNL     1     119.303  68.904  48.274  1.00  0.00     0.201 A 
ATOM     19  C   UNL     1     120.814  67.253  47.348  1.00  0.00     0.098 A 
ATOM     20  C   UNL     1     118.639  67.891  49.001  1.00  0.00     0.176 A 
ATOM     21  C   UNL     1     120.144  66.235  48.022  1.00  0.00     0.146 A 
ATOM     22  C   UNL     1     119.026  66.529  48.839  1.00  0.00     0.111 A 
ATOM     23  O   UNL     1     120.570  64.985  47.871  1.00  0.00    -0.456 OA
ATOM     24  C   UNL     1     118.352  65.426  49.419  1.00  0.00     0.197 A 
ATOM     25  C   UNL     1     119.983  63.937  48.439  1.00  0.00     0.138 A 
ATOM     26  C   UNL     1     118.847  64.135  49.234  1.00  0.00     0.100 A 
ATOM     27  O   UNL     1     117.290  65.566  50.081  1.00  0.00    -0.289 OA
BRANCH  18  28
ATOM     28  O   UNL     1     118.879  70.227  48.399  1.00  0.00    -0.502 OA
ATOM     29  H   UNL     1     119.104  70.945  47.722  1.00  0.00     0.293 HD
ENDBRANCH  18  28
BRANCH  20  30
ATOM     30  O   UNL     1     117.632  68.295  49.884  1.00  0.00    -0.504 OA
ATOM     31  H   UNL     1     117.664  69.133  50.446  1.00  0.00     0.293 HD
ENDBRANCH  20  30
BRANCH  25  32
ATOM     32  C   UNL     1     120.558  62.587  48.210  1.00  0.00     0.017 A 
ATOM     33  C   UNL     1     120.949  62.155  46.926  1.00  0.00     0.012 A 
ATOM     34  C   UNL     1     120.750  61.722  49.303  1.00  0.00     0.012 A 
ATOM     35  C   UNL     1     121.495  60.881  46.744  1.00  0.00     0.001 A 
ATOM     36  C   UNL     1     121.297  60.450  49.115  1.00  0.00     0.001 A 
ATOM     37  C   UNL     1     121.667  60.028  47.835  1.00  0.00     0.000 A 
ENDBRANCH  25  32
ENDBRANCH   1  17
TORSDOF 9
ENDMDL
