MODEL 1
REMARK VINA RESULT:    27.680      0.000      0.000
REMARK INTER + INTRA:          32.370
REMARK INTER:                  32.534
REMARK INTRA:                  -0.164
REMARK UNBOUND:                -0.164
REMARK SMILES O=c1c(O)c(-c2ccc(O)cc2)oc2cc(O)cc(O)c12
REMARK SMILES IDX 5 1 3 2 2 3 1 4 21 5 19 6 18 7 16 8 15 9 14 10 13 11 6 12
REMARK SMILES IDX 7 13 8 14 9 15 12 16 11 17 10 18 4 20 20 22 17 24
REMARK H PARENT 10 19 4 21 20 23 17 25
REMARK Flexibility Score: inf
ROOT
ATOM      1  C   UNL     1      -2.079  -0.517   2.812  1.00  0.00     0.180 A 
ATOM      2  C   UNL     1      -3.013   0.146   3.628  1.00  0.00     0.208 A 
ATOM      3  C   UNL     1      -4.382  -0.014   3.363  1.00  0.00     0.238 A 
ATOM      4  O   UNL     1      -5.211   0.626   4.062  1.00  0.00    -0.285 OA
ATOM      5  C   UNL     1      -4.802  -0.846   2.297  1.00  0.00     0.111 A 
ATOM      6  C   UNL     1      -6.164  -1.112   1.965  1.00  0.00     0.134 A 
ATOM      7  C   UNL     1      -6.463  -1.846   0.810  1.00  0.00     0.093 A 
ATOM      8  C   UNL     1      -5.446  -2.379   0.013  1.00  0.00     0.123 A 
ATOM      9  C   UNL     1      -4.114  -2.176   0.363  1.00  0.00     0.094 A 
ATOM     10  C   UNL     1      -3.785  -1.417   1.489  1.00  0.00     0.146 A 
ATOM     11  O   UNL     1      -2.502  -1.238   1.780  1.00  0.00    -0.452 OA
ENDROOT
BRANCH   1  12
ATOM     12  C   UNL     1      -0.620  -0.418   3.044  1.00  0.00     0.021 A 
ATOM     13  C   UNL     1       0.201   0.149   2.054  1.00  0.00     0.016 A 
ATOM     14  C   UNL     1       1.584   0.232   2.242  1.00  0.00     0.047 A 
ATOM     15  C   UNL     1       2.165  -0.265   3.416  1.00  0.00     0.115 A 
ATOM     16  C   UNL     1      -0.026  -0.933   4.211  1.00  0.00     0.016 A 
ATOM     17  C   UNL     1       1.358  -0.850   4.396  1.00  0.00     0.047 A 
BRANCH  15  18
ATOM     18  O   UNL     1       3.542  -0.187   3.615  1.00  0.00    -0.508 OA
ATOM     19  H   UNL     1       4.005   0.699   3.779  1.00  0.00     0.293 HD
ENDBRANCH  15  18
ENDBRANCH   1  12
BRANCH   2  20
ATOM     20  O   UNL     1      -2.577   0.980   4.660  1.00  0.00    -0.502 OA
ATOM     21  H   UNL     1      -3.218   1.464   5.277  1.00  0.00     0.293 HD
ENDBRANCH   2  20
BRANCH   6  22
ATOM     22  O   UNL     1      -7.252  -0.704   2.743  1.00  0.00    -0.507 OA
ATOM     23  H   UNL     1      -7.274  -0.719   3.752  1.00  0.00     0.293 HD
ENDBRANCH   6  22
BRANCH   8  24
ATOM     24  O   UNL     1      -5.753  -3.123  -1.125  1.00  0.00    -0.508 OA
ATOM     25  H   UNL     1      -6.712  -3.303  -1.398  1.00  0.00     0.293 HD
ENDBRANCH   8  24
TORSDOF 5
ENDMDL
