MODEL 1
REMARK VINA RESULT:    -4.252      0.000      0.000
REMARK INTER + INTRA:          -4.975
REMARK INTER:                  -4.749
REMARK INTRA:                  -0.225
REMARK UNBOUND:                -0.225
REMARK SMILES O=C([O-])c1ccccc1C(=O)[O-]
REMARK SMILES IDX 4 1 9 2 5 3 8 4 6 5 7 6 2 7 1 8 3 9 10 10 11 11 12 12
REMARK H PARENT
REMARK Flexibility Score: inf
ROOT
ATOM      1  C   UNL     1      11.460  33.228  62.381  1.00  0.00     0.006 A 
ATOM      2  C   UNL     1      12.200  32.508  61.403  1.00  0.00     0.006 A 
ATOM      3  C   UNL     1      11.522  32.819  63.726  1.00  0.00     0.010 A 
ATOM      4  C   UNL     1      13.025  31.445  61.816  1.00  0.00     0.010 A 
ATOM      5  C   UNL     1      12.329  31.747  64.109  1.00  0.00     0.001 A 
ATOM      6  C   UNL     1      13.087  31.069  63.158  1.00  0.00     0.001 A 
ENDROOT
BRANCH   1   7
ATOM      7  C   UNL     1      10.675  34.444  62.063  1.00  0.00     0.072 C 
ATOM      8  O   UNL     1      11.176  35.591  62.205  1.00  0.00    -0.545 OA
ATOM      9  O   UNL     1       9.349  34.333  61.665  1.00  0.00    -0.545 OA
ENDBRANCH   1   7
BRANCH   2  10
ATOM     10  C   UNL     1      12.086  32.781  59.952  1.00  0.00     0.072 C 
ATOM     11  O   UNL     1      11.190  32.217  59.270  1.00  0.00    -0.545 OA
ATOM     12  O   UNL     1      12.917  33.709  59.337  1.00  0.00    -0.545 OA
ENDBRANCH   2  10
TORSDOF 2
ENDMDL
MODEL 2
REMARK VINA RESULT:    -4.223      0.171      3.148
REMARK INTER + INTRA:          -4.942
REMARK INTER:                  -4.717
REMARK INTRA:                  -0.225
REMARK UNBOUND:                -0.225
REMARK SMILES O=C([O-])c1ccccc1C(=O)[O-]
REMARK SMILES IDX 4 1 9 2 5 3 8 4 6 5 7 6 2 7 1 8 3 9 10 10 11 11 12 12
REMARK H PARENT
REMARK Flexibility Score: inf
ROOT
ATOM      1  C   UNL     1      12.291  32.549  61.422  1.00  0.00     0.006 A 
ATOM      2  C   UNL     1      11.453  33.210  62.362  1.00  0.00     0.006 A 
ATOM      3  C   UNL     1      13.127  31.507  61.862  1.00  0.00     0.010 A 
ATOM      4  C   UNL     1      11.436  32.761  63.696  1.00  0.00     0.010 A 
ATOM      5  C   UNL     1      13.110  31.093  63.195  1.00  0.00     0.001 A 
ATOM      6  C   UNL     1      12.257  31.711  64.107  1.00  0.00     0.001 A 
ENDROOT
BRANCH   1   7
ATOM      7  C   UNL     1      12.276  32.859  59.972  1.00  0.00     0.072 C 
ATOM      8  O   UNL     1      11.558  32.194  59.178  1.00  0.00    -0.545 OA
ATOM      9  O   UNL     1      13.107  33.849  59.462  1.00  0.00    -0.545 OA
ENDBRANCH   1   7
BRANCH   2  10
ATOM     10  C   UNL     1      10.647  34.404  62.016  1.00  0.00     0.072 C 
ATOM     11  O   UNL     1      11.143  35.556  62.127  1.00  0.00    -0.545 OA
ATOM     12  O   UNL     1       9.363  34.268  61.503  1.00  0.00    -0.545 OA
ENDBRANCH   2  10
TORSDOF 2
ENDMDL
MODEL 3
REMARK VINA RESULT:    -4.191      1.618      2.240
REMARK INTER + INTRA:          -4.907
REMARK INTER:                  -4.734
REMARK INTRA:                  -0.173
REMARK UNBOUND:                -0.225
REMARK SMILES O=C([O-])c1ccccc1C(=O)[O-]
REMARK SMILES IDX 4 1 9 2 5 3 8 4 6 5 7 6 2 7 1 8 3 9 10 10 11 11 12 12
REMARK H PARENT
REMARK Flexibility Score: inf
ROOT
ATOM      1  C   UNL     1      10.615  32.599  61.971  1.00  0.00     0.006 A 
ATOM      2  C   UNL     1      11.916  32.125  62.297  1.00  0.00     0.006 A 
ATOM      3  C   UNL     1       9.684  32.807  63.005  1.00  0.00     0.010 A 
ATOM      4  C   UNL     1      12.258  31.939  63.649  1.00  0.00     0.010 A 
ATOM      5  C   UNL     1      10.037  32.594  64.338  1.00  0.00     0.001 A 
ATOM      6  C   UNL     1      11.325  32.173  64.660  1.00  0.00     0.001 A 
ENDROOT
BRANCH   1   7
ATOM      7  C   UNL     1      10.209  32.955  60.591  1.00  0.00     0.072 C 
ATOM      8  O   UNL     1      10.101  34.160  60.241  1.00  0.00    -0.545 OA
ATOM      9  O   UNL     1       9.879  31.956  59.682  1.00  0.00    -0.545 OA
ENDBRANCH   1   7
BRANCH   2  10
ATOM     10  C   UNL     1      12.912  31.747  61.266  1.00  0.00     0.072 C 
ATOM     11  O   UNL     1      13.061  30.538  60.944  1.00  0.00    -0.545 OA
ATOM     12  O   UNL     1      13.644  32.719  60.596  1.00  0.00    -0.545 OA
ENDBRANCH   2  10
TORSDOF 2
ENDMDL
MODEL 4
REMARK VINA RESULT:    -4.169      1.632      3.201
REMARK INTER + INTRA:          -4.882
REMARK INTER:                  -4.719
REMARK INTRA:                  -0.163
REMARK UNBOUND:                -0.225
REMARK SMILES O=C([O-])c1ccccc1C(=O)[O-]
REMARK SMILES IDX 4 1 9 2 5 3 8 4 6 5 7 6 2 7 1 8 3 9 10 10 11 11 12 12
REMARK H PARENT
REMARK Flexibility Score: inf
ROOT
ATOM      1  C   UNL     1      11.867  32.136  62.302  1.00  0.00     0.006 A 
ATOM      2  C   UNL     1      10.562  32.612  61.996  1.00  0.00     0.006 A 
ATOM      3  C   UNL     1      12.230  31.950  63.648  1.00  0.00     0.010 A 
ATOM      4  C   UNL     1       9.648  32.824  63.046  1.00  0.00     0.010 A 
ATOM      5  C   UNL     1      11.315  32.189  64.674  1.00  0.00     0.001 A 
ATOM      6  C   UNL     1      10.023  32.613  64.372  1.00  0.00     0.001 A 
ENDROOT
BRANCH   1   7
ATOM      7  C   UNL     1      12.849  31.753  61.261  1.00  0.00     0.072 C 
ATOM      8  O   UNL     1      13.038  30.544  60.965  1.00  0.00    -0.545 OA
ATOM      9  O   UNL     1      13.623  32.728  60.641  1.00  0.00    -0.545 OA
ENDBRANCH   1   7
BRANCH   2  10
ATOM     10  C   UNL     1      10.141  32.967  60.621  1.00  0.00     0.072 C 
ATOM     11  O   UNL     1      10.074  34.176  60.271  1.00  0.00    -0.545 OA
ATOM     12  O   UNL     1       9.880  31.978  59.681  1.00  0.00    -0.545 OA
ENDBRANCH   2  10
TORSDOF 2
ENDMDL
MODEL 5
REMARK VINA RESULT:    -3.987      8.751     10.337
REMARK INTER + INTRA:          -4.679
REMARK INTER:                  -4.451
REMARK INTRA:                  -0.228
REMARK UNBOUND:                -0.225
REMARK SMILES O=C([O-])c1ccccc1C(=O)[O-]
REMARK SMILES IDX 4 1 9 2 5 3 8 4 6 5 7 6 2 7 1 8 3 9 10 10 11 11 12 12
REMARK H PARENT
REMARK Flexibility Score: inf
ROOT
ATOM      1  C   UNL     1      19.150  32.655  55.423  1.00  0.00     0.006 A 
ATOM      2  C   UNL     1      19.283  32.476  54.019  1.00  0.00     0.006 A 
ATOM      3  C   UNL     1      19.789  31.753  56.293  1.00  0.00     0.010 A 
ATOM      4  C   UNL     1      20.104  31.439  53.537  1.00  0.00     0.010 A 
ATOM      5  C   UNL     1      20.579  30.718  55.793  1.00  0.00     0.001 A 
ATOM      6  C   UNL     1      20.746  30.569  54.418  1.00  0.00     0.001 A 
ENDROOT
BRANCH   1   7
ATOM      7  C   UNL     1      18.422  33.798  56.024  1.00  0.00     0.072 C 
ATOM      8  O   UNL     1      17.247  33.660  56.455  1.00  0.00    -0.545 OA
ATOM      9  O   UNL     1      19.009  35.057  56.058  1.00  0.00    -0.545 OA
ENDBRANCH   1   7
BRANCH   2  10
ATOM     10  C   UNL     1      18.536  33.291  53.033  1.00  0.00     0.072 C 
ATOM     11  O   UNL     1      17.364  32.967  52.702  1.00  0.00    -0.545 OA
ATOM     12  O   UNL     1      19.087  34.454  52.511  1.00  0.00    -0.545 OA
ENDBRANCH   2  10
TORSDOF 2
ENDMDL
MODEL 6
REMARK VINA RESULT:    -3.984      8.754     10.662
REMARK INTER + INTRA:          -4.675
REMARK INTER:                  -4.460
REMARK INTRA:                  -0.215
REMARK UNBOUND:                -0.225
REMARK SMILES O=C([O-])c1ccccc1C(=O)[O-]
REMARK SMILES IDX 4 1 9 2 5 3 8 4 6 5 7 6 2 7 1 8 3 9 10 10 11 11 12 12
REMARK H PARENT
REMARK Flexibility Score: inf
ROOT
ATOM      1  C   UNL     1      19.355  32.385  54.077  1.00  0.00     0.006 A 
ATOM      2  C   UNL     1      19.178  32.584  55.474  1.00  0.00     0.006 A 
ATOM      3  C   UNL     1      20.200  31.351  53.634  1.00  0.00     0.010 A 
ATOM      4  C   UNL     1      19.803  31.702  56.375  1.00  0.00     0.010 A 
ATOM      5  C   UNL     1      20.828  30.502  54.545  1.00  0.00     0.001 A 
ATOM      6  C   UNL     1      20.620  30.670  55.913  1.00  0.00     0.001 A 
ENDROOT
BRANCH   1   7
ATOM      7  C   UNL     1      18.630  33.174  53.053  1.00  0.00     0.072 C 
ATOM      8  O   UNL     1      17.561  32.744  52.544  1.00  0.00    -0.545 OA
ATOM      9  O   UNL     1      19.161  34.374  52.594  1.00  0.00    -0.545 OA
ENDBRANCH   1   7
BRANCH   2  10
ATOM     10  C   UNL     1      18.421  33.730  56.030  1.00  0.00     0.072 C 
ATOM     11  O   UNL     1      17.282  33.548  56.539  1.00  0.00    -0.545 OA
ATOM     12  O   UNL     1      18.978  35.002  56.060  1.00  0.00    -0.545 OA
ENDBRANCH   2  10
TORSDOF 2
ENDMDL
MODEL 7
REMARK VINA RESULT:    -3.915      8.610     10.396
REMARK INTER + INTRA:          -4.598
REMARK INTER:                  -4.379
REMARK INTRA:                  -0.219
REMARK UNBOUND:                -0.225
REMARK SMILES O=C([O-])c1ccccc1C(=O)[O-]
REMARK SMILES IDX 4 1 9 2 5 3 8 4 6 5 7 6 2 7 1 8 3 9 10 10 11 11 12 12
REMARK H PARENT
REMARK Flexibility Score: inf
ROOT
ATOM      1  C   UNL     1      18.361  33.444  54.690  1.00  0.00     0.006 A 
ATOM      2  C   UNL     1      19.316  32.393  54.772  1.00  0.00     0.006 A 
ATOM      3  C   UNL     1      17.685  33.661  53.475  1.00  0.00     0.010 A 
ATOM      4  C   UNL     1      19.513  31.559  53.656  1.00  0.00     0.010 A 
ATOM      5  C   UNL     1      17.913  32.835  52.374  1.00  0.00     0.001 A 
ATOM      6  C   UNL     1      18.816  31.779  52.469  1.00  0.00     0.001 A 
ENDROOT
BRANCH   1   7
ATOM      7  C   UNL     1      17.986  34.285  55.851  1.00  0.00     0.072 C 
ATOM      8  O   UNL     1      16.996  33.988  56.570  1.00  0.00    -0.545 OA
ATOM      9  O   UNL     1      18.689  35.453  56.121  1.00  0.00    -0.545 OA
ENDBRANCH   1   7
BRANCH   2  10
ATOM     10  C   UNL     1      20.172  32.181  55.963  1.00  0.00     0.072 C 
ATOM     11  O   UNL     1      19.860  31.311  56.820  1.00  0.00    -0.545 OA
ATOM     12  O   UNL     1      21.359  32.885  56.119  1.00  0.00    -0.545 OA
ENDBRANCH   2  10
TORSDOF 2
ENDMDL
MODEL 8
REMARK VINA RESULT:    -3.862      9.950     11.253
REMARK INTER + INTRA:          -4.539
REMARK INTER:                  -4.315
REMARK INTRA:                  -0.224
REMARK UNBOUND:                -0.225
REMARK SMILES O=C([O-])c1ccccc1C(=O)[O-]
REMARK SMILES IDX 4 1 9 2 5 3 8 4 6 5 7 6 2 7 1 8 3 9 10 10 11 11 12 12
REMARK H PARENT
REMARK Flexibility Score: inf
ROOT
ATOM      1  C   UNL     1      22.052  31.875  57.221  1.00  0.00     0.006 A 
ATOM      2  C   UNL     1      20.819  31.677  56.541  1.00  0.00     0.006 A 
ATOM      3  C   UNL     1      22.427  30.976  58.236  1.00  0.00     0.010 A 
ATOM      4  C   UNL     1      20.037  30.550  56.857  1.00  0.00     0.010 A 
ATOM      5  C   UNL     1      21.625  29.878  58.548  1.00  0.00     0.001 A 
ATOM      6  C   UNL     1      20.438  29.659  57.852  1.00  0.00     0.001 A 
ENDROOT
BRANCH   1   7
ATOM      7  C   UNL     1      23.006  32.952  56.863  1.00  0.00     0.072 C 
ATOM      8  O   UNL     1      23.974  32.725  56.091  1.00  0.00    -0.545 OA
ATOM      9  O   UNL     1      22.878  34.214  57.431  1.00  0.00    -0.545 OA
ENDBRANCH   1   7
BRANCH   2  10
ATOM     10  C   UNL     1      20.281  32.648  55.560  1.00  0.00     0.072 C 
ATOM     11  O   UNL     1      19.600  33.633  55.952  1.00  0.00    -0.545 OA
ATOM     12  O   UNL     1      20.574  32.526  54.207  1.00  0.00    -0.545 OA
ENDBRANCH   2  10
TORSDOF 2
ENDMDL
MODEL 9
REMARK VINA RESULT:    -3.846     10.012     11.279
REMARK INTER + INTRA:          -4.521
REMARK INTER:                  -4.302
REMARK INTRA:                  -0.220
REMARK UNBOUND:                -0.225
REMARK SMILES O=C([O-])c1ccccc1C(=O)[O-]
REMARK SMILES IDX 4 1 9 2 5 3 8 4 6 5 7 6 2 7 1 8 3 9 10 10 11 11 12 12
REMARK H PARENT
REMARK Flexibility Score: inf
ROOT
ATOM      1  C   UNL     1      20.889  31.791  56.517  1.00  0.00     0.006 A 
ATOM      2  C   UNL     1      22.112  31.893  57.236  1.00  0.00     0.006 A 
ATOM      3  C   UNL     1      20.037  30.699  56.767  1.00  0.00     0.010 A 
ATOM      4  C   UNL     1      22.408  30.933  58.222  1.00  0.00     0.010 A 
ATOM      5  C   UNL     1      20.361  29.747  57.734  1.00  0.00     0.001 A 
ATOM      6  C   UNL     1      21.538  29.871  58.468  1.00  0.00     0.001 A 
ENDROOT
BRANCH   1   7
ATOM      7  C   UNL     1      20.428  32.824  55.561  1.00  0.00     0.072 C 
ATOM      8  O   UNL     1      19.842  33.863  55.966  1.00  0.00    -0.545 OA
ATOM      9  O   UNL     1      20.581  32.626  54.194  1.00  0.00    -0.545 OA
ENDBRANCH   1   7
BRANCH   2  10
ATOM     10  C   UNL     1      23.130  32.928  56.940  1.00  0.00     0.072 C 
ATOM     11  O   UNL     1      24.039  32.700  56.098  1.00  0.00    -0.545 OA
ATOM     12  O   UNL     1      23.060  34.182  57.534  1.00  0.00    -0.545 OA
ENDBRANCH   2  10
TORSDOF 2
ENDMDL
