MODEL 1
REMARK VINA RESULT:    -5.129      0.000      0.000
REMARK INTER + INTRA:          -5.780
REMARK INTER:                  -5.578
REMARK INTRA:                  -0.201
REMARK UNBOUND:                -0.201
REMARK SMILES CC1=CC[C@@H](C(C)(C)O)CC1
REMARK SMILES IDX 6 1 7 2 8 3 5 4 1 5 2 6 3 7 11 8 4 9 10 10 9 11
REMARK H PARENT 9 12
REMARK Flexibility Score: inf
ROOT
ATOM      1  C   UNL     1       0.379  45.350  50.773  1.00  0.00     0.062 C 
ATOM      2  C   UNL     1      -0.713  46.406  51.081  1.00  0.00     0.042 C 
ATOM      3  C   UNL     1      -0.293  44.233  49.945  1.00  0.00     0.042 C 
ENDROOT
BRANCH   1   4
ATOM      4  C   UNL     1       1.573  45.984  49.969  1.00  0.00     0.024 C 
ATOM      5  C   UNL     1       4.337  47.831  47.253  1.00  0.00     0.039 C 
ATOM      6  C   UNL     1       3.084  47.352  47.931  1.00  0.00    -0.077 C 
ATOM      7  C   UNL     1       2.572  48.037  48.964  1.00  0.00    -0.028 C 
ATOM      8  C   UNL     1       2.376  46.101  47.470  1.00  0.00     0.031 C 
ATOM      9  C   UNL     1       1.372  47.496  49.692  1.00  0.00     0.034 C 
ATOM     10  C   UNL     1       1.928  45.211  48.651  1.00  0.00     0.011 C 
ENDBRANCH   1   4
BRANCH   1  11
ATOM     11  O   UNL     1       0.840  44.761  51.968  1.00  0.00    -0.390 OA
ATOM     12  H   UNL     1       0.069  44.361  52.445  1.00  0.00     0.211 HD
ENDBRANCH   1  11
TORSDOF 2
ENDMDL
MODEL 2
REMARK VINA RESULT:    -4.804      1.432      2.273
REMARK INTER + INTRA:          -5.427
REMARK INTER:                  -5.250
REMARK INTRA:                  -0.177
REMARK UNBOUND:                -0.201
REMARK SMILES CC1=CC[C@@H](C(C)(C)O)CC1
REMARK SMILES IDX 6 1 7 2 8 3 5 4 1 5 2 6 3 7 11 8 4 9 10 10 9 11
REMARK H PARENT 9 12
REMARK Flexibility Score: inf
ROOT
ATOM      1  C   UNL     1      -0.075  44.422  49.746  1.00  0.00     0.062 C 
ATOM      2  C   UNL     1       0.812  43.555  50.676  1.00  0.00     0.042 C 
ATOM      3  C   UNL     1      -1.125  45.116  50.640  1.00  0.00     0.042 C 
ENDROOT
BRANCH   1   4
ATOM      4  C   UNL     1       0.785  45.492  48.978  1.00  0.00     0.024 C 
ATOM      5  C   UNL     1       3.697  48.125  47.242  1.00  0.00     0.039 C 
ATOM      6  C   UNL     1       3.030  46.989  47.966  1.00  0.00    -0.077 C 
ATOM      7  C   UNL     1       2.559  45.937  47.282  1.00  0.00    -0.028 C 
ATOM      8  C   UNL     1       2.878  47.003  49.468  1.00  0.00     0.031 C 
ATOM      9  C   UNL     1       1.811  44.852  48.009  1.00  0.00     0.034 C 
ATOM     10  C   UNL     1       1.475  46.541  49.920  1.00  0.00     0.011 C 
ENDBRANCH   1   4
BRANCH   1  11
ATOM     11  O   UNL     1      -0.777  43.603  48.838  1.00  0.00    -0.390 OA
ATOM     12  H   UNL     1      -0.145  43.271  48.152  1.00  0.00     0.211 HD
ENDBRANCH   1  11
TORSDOF 2
ENDMDL
MODEL 3
REMARK VINA RESULT:    -4.723      2.090      4.493
REMARK INTER + INTRA:          -5.339
REMARK INTER:                  -5.205
REMARK INTRA:                  -0.134
REMARK UNBOUND:                -0.201
REMARK SMILES CC1=CC[C@@H](C(C)(C)O)CC1
REMARK SMILES IDX 6 1 7 2 8 3 5 4 1 5 2 6 3 7 11 8 4 9 10 10 9 11
REMARK H PARENT 9 12
REMARK Flexibility Score: inf
ROOT
ATOM      1  C   UNL     1       2.381  47.014  48.003  1.00  0.00     0.062 C 
ATOM      2  C   UNL     1       1.599  48.125  47.256  1.00  0.00     0.042 C 
ATOM      3  C   UNL     1       3.554  47.701  48.734  1.00  0.00     0.042 C 
ENDROOT
BRANCH   1   4
ATOM      4  C   UNL     1       1.457  46.264  49.031  1.00  0.00     0.024 C 
ATOM      5  C   UNL     1      -0.820  43.606  51.517  1.00  0.00     0.039 C 
ATOM      6  C   UNL     1       0.180  44.171  50.546  1.00  0.00    -0.077 C 
ATOM      7  C   UNL     1       1.313  44.731  50.994  1.00  0.00    -0.028 C 
ATOM      8  C   UNL     1      -0.065  44.122  49.057  1.00  0.00     0.031 C 
ATOM      9  C   UNL     1       2.258  45.376  50.018  1.00  0.00     0.034 C 
ATOM     10  C   UNL     1       0.293  45.453  48.359  1.00  0.00     0.011 C 
ENDBRANCH   1   4
BRANCH   1  11
ATOM     11  O   UNL     1       2.940  46.106  47.080  1.00  0.00    -0.390 OA
ATOM     12  H   UNL     1       3.736  45.684  47.490  1.00  0.00     0.211 HD
ENDBRANCH   1  11
TORSDOF 2
ENDMDL
MODEL 4
REMARK VINA RESULT:    -4.510     24.241     25.461
REMARK INTER + INTRA:          -5.106
REMARK INTER:                  -4.952
REMARK INTRA:                  -0.154
REMARK UNBOUND:                -0.201
REMARK SMILES CC1=CC[C@@H](C(C)(C)O)CC1
REMARK SMILES IDX 6 1 7 2 8 3 5 4 1 5 2 6 3 7 11 8 4 9 10 10 9 11
REMARK H PARENT 9 12
REMARK Flexibility Score: inf
ROOT
ATOM      1  C   UNL     1      13.225  28.739  37.724  1.00  0.00     0.062 C 
ATOM      2  C   UNL     1      12.513  30.092  37.983  1.00  0.00     0.042 C 
ATOM      3  C   UNL     1      12.527  28.086  36.513  1.00  0.00     0.042 C 
ENDROOT
BRANCH   1   4
ATOM      4  C   UNL     1      14.755  28.951  37.427  1.00  0.00     0.024 C 
ATOM      5  C   UNL     1      18.978  28.800  36.673  1.00  0.00     0.039 C 
ATOM      6  C   UNL     1      17.533  28.431  36.863  1.00  0.00    -0.077 C 
ATOM      7  C   UNL     1      16.660  28.587  35.858  1.00  0.00    -0.028 C 
ATOM      8  C   UNL     1      17.035  27.880  38.177  1.00  0.00     0.031 C 
ATOM      9  C   UNL     1      15.201  28.303  36.091  1.00  0.00     0.034 C 
ATOM     10  C   UNL     1      15.693  28.513  38.608  1.00  0.00     0.011 C 
ENDBRANCH   1   4
BRANCH   1  11
ATOM     11  O   UNL     1      13.046  27.875  38.824  1.00  0.00    -0.390 OA
ATOM     12  H   UNL     1      13.901  27.412  39.009  1.00  0.00     0.211 HD
ENDBRANCH   1  11
TORSDOF 2
ENDMDL
MODEL 5
REMARK VINA RESULT:    -4.303     24.360     25.568
REMARK INTER + INTRA:          -4.882
REMARK INTER:                  -4.713
REMARK INTRA:                  -0.169
REMARK UNBOUND:                -0.201
REMARK SMILES CC1=CC[C@@H](C(C)(C)O)CC1
REMARK SMILES IDX 6 1 7 2 8 3 5 4 1 5 2 6 3 7 11 8 4 9 10 10 9 11
REMARK H PARENT 9 12
REMARK Flexibility Score: inf
ROOT
ATOM      1  C   UNL     1      13.346  28.458  37.641  1.00  0.00     0.062 C 
ATOM      2  C   UNL     1      13.099  29.988  37.663  1.00  0.00     0.042 C 
ATOM      3  C   UNL     1      12.478  27.875  36.506  1.00  0.00     0.042 C 
ENDROOT
BRANCH   1   4
ATOM      4  C   UNL     1      14.865  28.131  37.393  1.00  0.00     0.024 C 
ATOM      5  C   UNL     1      19.125  27.936  36.903  1.00  0.00     0.039 C 
ATOM      6  C   UNL     1      17.734  28.370  37.275  1.00  0.00    -0.077 C 
ATOM      7  C   UNL     1      17.145  27.875  38.373  1.00  0.00    -0.028 C 
ATOM      8  C   UNL     1      16.976  29.366  36.432  1.00  0.00     0.031 C 
ATOM      9  C   UNL     1      15.720  28.245  38.681  1.00  0.00     0.034 C 
ATOM     10  C   UNL     1      15.503  28.952  36.217  1.00  0.00     0.011 C 
ENDBRANCH   1   4
BRANCH   1  11
ATOM     11  O   UNL     1      12.901  27.875  38.846  1.00  0.00    -0.390 OA
ATOM     12  H   UNL     1      12.210  28.460  39.248  1.00  0.00     0.211 HD
ENDBRANCH   1  11
TORSDOF 2
ENDMDL
MODEL 6
REMARK VINA RESULT:    -4.102     24.226     25.657
REMARK INTER + INTRA:          -4.663
REMARK INTER:                  -4.529
REMARK INTRA:                  -0.134
REMARK UNBOUND:                -0.201
REMARK SMILES CC1=CC[C@@H](C(C)(C)O)CC1
REMARK SMILES IDX 6 1 7 2 8 3 5 4 1 5 2 6 3 7 11 8 4 9 10 10 9 11
REMARK H PARENT 9 12
REMARK Flexibility Score: inf
ROOT
ATOM      1  C   UNL     1      17.041  28.514  37.086  1.00  0.00     0.062 C 
ATOM      2  C   UNL     1      17.894  27.875  38.211  1.00  0.00     0.042 C 
ATOM      3  C   UNL     1      17.497  27.877  35.755  1.00  0.00     0.042 C 
ENDROOT
BRANCH   1   4
ATOM      4  C   UNL     1      15.507  28.256  37.320  1.00  0.00     0.024 C 
ATOM      5  C   UNL     1      11.247  28.270  37.849  1.00  0.00     0.039 C 
ATOM      6  C   UNL     1      12.659  28.655  37.504  1.00  0.00    -0.077 C 
ATOM      7  C   UNL     1      13.208  28.243  36.352  1.00  0.00    -0.028 C 
ATOM      8  C   UNL     1      13.484  29.509  38.435  1.00  0.00     0.031 C 
ATOM      9  C   UNL     1      14.650  28.556  36.063  1.00  0.00     0.034 C 
ATOM     10  C   UNL     1      14.930  28.986  38.584  1.00  0.00     0.011 C 
ENDBRANCH   1   4
BRANCH   1  11
ATOM     11  O   UNL     1      17.306  29.896  36.998  1.00  0.00    -0.390 OA
ATOM     12  H   UNL     1      17.742  30.192  37.836  1.00  0.00     0.211 HD
ENDBRANCH   1  11
TORSDOF 2
ENDMDL
MODEL 7
REMARK VINA RESULT:    -3.708     24.821     26.271
REMARK INTER + INTRA:          -4.235
REMARK INTER:                  -4.077
REMARK INTRA:                  -0.158
REMARK UNBOUND:                -0.201
REMARK SMILES CC1=CC[C@@H](C(C)(C)O)CC1
REMARK SMILES IDX 6 1 7 2 8 3 5 4 1 5 2 6 3 7 11 8 4 9 10 10 9 11
REMARK H PARENT 9 12
REMARK Flexibility Score: inf
ROOT
ATOM      1  C   UNL     1      18.147  28.635  36.937  1.00  0.00     0.062 C 
ATOM      2  C   UNL     1      18.289  27.878  35.592  1.00  0.00     0.042 C 
ATOM      3  C   UNL     1      18.939  29.953  36.801  1.00  0.00     0.042 C 
ENDROOT
BRANCH   1   4
ATOM      4  C   UNL     1      16.638  28.933  37.265  1.00  0.00     0.024 C 
ATOM      5  C   UNL     1      12.399  29.063  37.929  1.00  0.00     0.039 C 
ATOM      6  C   UNL     1      13.804  28.596  37.666  1.00  0.00    -0.077 C 
ATOM      7  C   UNL     1      14.655  28.410  38.685  1.00  0.00    -0.028 C 
ATOM      8  C   UNL     1      14.286  28.327  36.261  1.00  0.00     0.031 C 
ATOM      9  C   UNL     1      16.083  28.035  38.401  1.00  0.00     0.034 C 
ATOM     10  C   UNL     1      15.700  28.896  36.007  1.00  0.00     0.011 C 
ENDBRANCH   1   4
BRANCH   1  11
ATOM     11  O   UNL     1      18.746  27.896  37.978  1.00  0.00    -0.390 OA
ATOM     12  H   UNL     1      19.422  28.465  38.426  1.00  0.00     0.211 HD
ENDBRANCH   1  11
TORSDOF 2
ENDMDL
MODEL 8
REMARK VINA RESULT:    -3.403      2.163      2.983
REMARK INTER + INTRA:          -3.903
REMARK INTER:                  -3.729
REMARK INTRA:                  -0.174
REMARK UNBOUND:                -0.201
REMARK SMILES CC1=CC[C@@H](C(C)(C)O)CC1
REMARK SMILES IDX 6 1 7 2 8 3 5 4 1 5 2 6 3 7 11 8 4 9 10 10 9 11
REMARK H PARENT 9 12
REMARK Flexibility Score: inf
ROOT
ATOM      1  C   UNL     1       1.177  44.465  50.608  1.00  0.00     0.062 C 
ATOM      2  C   UNL     1       0.183  43.729  51.541  1.00  0.00     0.042 C 
ATOM      3  C   UNL     1       1.872  43.387  49.748  1.00  0.00     0.042 C 
ENDROOT
BRANCH   1   4
ATOM      4  C   UNL     1       0.433  45.503  49.689  1.00  0.00     0.024 C 
ATOM      5  C   UNL     1      -1.125  48.125  46.669  1.00  0.00     0.039 C 
ATOM      6  C   UNL     1      -0.386  47.030  47.387  1.00  0.00    -0.077 C 
ATOM      7  C   UNL     1      -1.010  45.883  47.690  1.00  0.00    -0.028 C 
ATOM      8  C   UNL     1       1.063  47.192  47.778  1.00  0.00     0.031 C 
ATOM      9  C   UNL     1      -0.287  44.834  48.491  1.00  0.00     0.034 C 
ATOM     10  C   UNL     1       1.344  46.688  49.211  1.00  0.00     0.011 C 
ENDBRANCH   1   4
BRANCH   1  11
ATOM     11  O   UNL     1       2.180  45.101  51.367  1.00  0.00    -0.390 OA
ATOM     12  H   UNL     1       2.768  45.613  50.756  1.00  0.00     0.211 HD
ENDBRANCH   1  11
TORSDOF 2
ENDMDL
MODEL 9
REMARK VINA RESULT:    -3.081      2.560      3.705
REMARK INTER + INTRA:          -3.553
REMARK INTER:                  -3.384
REMARK INTRA:                  -0.169
REMARK UNBOUND:                -0.201
REMARK SMILES CC1=CC[C@@H](C(C)(C)O)CC1
REMARK SMILES IDX 6 1 7 2 8 3 5 4 1 5 2 6 3 7 11 8 4 9 10 10 9 11
REMARK H PARENT 9 12
REMARK Flexibility Score: inf
ROOT
ATOM      1  C   UNL     1      -0.213  47.248  48.438  1.00  0.00     0.062 C 
ATOM      2  C   UNL     1      -1.016  48.125  49.432  1.00  0.00     0.042 C 
ATOM      3  C   UNL     1       0.928  48.125  47.880  1.00  0.00     0.042 C 
ENDROOT
BRANCH   1   4
ATOM      4  C   UNL     1       0.373  45.973  49.150  1.00  0.00     0.024 C 
ATOM      5  C   UNL     1       2.490  42.524  50.580  1.00  0.00     0.039 C 
ATOM      6  C   UNL     1       2.112  43.788  49.858  1.00  0.00    -0.077 C 
ATOM      7  C   UNL     1       2.243  44.976  50.465  1.00  0.00    -0.028 C 
ATOM      8  C   UNL     1       1.584  43.750  48.445  1.00  0.00     0.031 C 
ATOM      9  C   UNL     1       1.773  46.222  49.766  1.00  0.00     0.034 C 
ATOM     10  C   UNL     1       0.374  44.690  48.246  1.00  0.00     0.011 C 
ENDBRANCH   1   4
BRANCH   1  11
ATOM     11  O   UNL     1      -1.026  46.879  47.346  1.00  0.00    -0.390 OA
ATOM     12  H   UNL     1      -0.445  46.571  46.605  1.00  0.00     0.211 HD
ENDBRANCH   1  11
TORSDOF 2
ENDMDL
