MODEL 1
REMARK VINA RESULT:    -3.159      0.000      0.000
REMARK INTER + INTRA:          -7.418
REMARK INTER:                  -5.744
REMARK INTRA:                  -1.674
REMARK UNBOUND:                -1.674
REMARK SMILES CCCCCCCCCCCCCCCC(=O)[O-]
REMARK SMILES IDX 9 1 10 2 11 3 12 4 13 5 14 6 15 7 16 8 17 9 18 10 8 11 7 12
REMARK SMILES IDX 6 13 5 14 4 15 3 16 2 17 1 18
REMARK H PARENT
REMARK Flexibility Score: inf
ROOT
ATOM      1  C   UNL     1     -15.790  10.357   7.203  1.00  0.00     0.000 C 
ENDROOT
BRANCH   1   2
ATOM      2  C   UNL     1     -15.618   9.626   8.547  1.00  0.00     0.000 C 
BRANCH   2   3
ATOM      3  C   UNL     1     -16.838   9.770   9.469  1.00  0.00     0.000 C 
BRANCH   3   4
ATOM      4  C   UNL     1     -16.464  10.497  10.767  1.00  0.00     0.000 C 
BRANCH   4   5
ATOM      5  C   UNL     1     -16.949   9.714  11.996  1.00  0.00     0.000 C 
BRANCH   5   6
ATOM      6  C   UNL     1     -15.803   9.012  12.741  1.00  0.00     0.006 C 
BRANCH   6   7
ATOM      7  C   UNL     1     -15.852   7.485  12.597  1.00  0.00     0.053 C 
BRANCH   7   8
ATOM      8  C   UNL     1     -14.783   7.015  11.662  1.00  0.00     0.041 C 
ATOM      9  O   UNL     1     -15.056   6.770  10.458  1.00  0.00    -0.550 OA
ATOM     10  O   UNL     1     -13.493   6.799  12.133  1.00  0.00    -0.550 OA
ENDBRANCH   7   8
ENDBRANCH   6   7
ENDBRANCH   5   6
ENDBRANCH   4   5
ENDBRANCH   3   4
ENDBRANCH   2   3
ENDBRANCH   1   2
BRANCH   1  11
ATOM     11  C   UNL     1     -16.849  11.475   7.198  1.00  0.00     0.000 C 
BRANCH  11  12
ATOM     12  C   UNL     1     -16.237  12.881   7.325  1.00  0.00    -0.000 C 
BRANCH  12  13
ATOM     13  C   UNL     1     -14.777  12.934   6.848  1.00  0.00    -0.000 C 
BRANCH  13  14
ATOM     14  C   UNL     1     -13.834  13.555   7.890  1.00  0.00    -0.000 C 
BRANCH  14  15
ATOM     15  C   UNL     1     -14.220  13.121   9.309  1.00  0.00    -0.000 C 
BRANCH  15  16
ATOM     16  C   UNL     1     -14.103  14.293  10.294  1.00  0.00    -0.000 C 
BRANCH  16  17
ATOM     17  C   UNL     1     -13.469  13.879  11.631  1.00  0.00    -0.003 C 
ATOM     18  C   UNL     1     -14.476  13.854  12.781  1.00  0.00     0.004 C 
ENDBRANCH  16  17
ENDBRANCH  15  16
ENDBRANCH  14  15
ENDBRANCH  13  14
ENDBRANCH  12  13
ENDBRANCH  11  12
ENDBRANCH   1  11
TORSDOF 14
ENDMDL
MODEL 2
REMARK VINA RESULT:    -3.083      2.594      6.390
REMARK INTER + INTRA:          -7.280
REMARK INTER:                  -6.551
REMARK INTRA:                  -0.729
REMARK UNBOUND:                -1.674
REMARK SMILES CCCCCCCCCCCCCCCC(=O)[O-]
REMARK SMILES IDX 9 1 10 2 11 3 12 4 13 5 14 6 15 7 16 8 17 9 18 10 8 11 7 12
REMARK SMILES IDX 6 13 5 14 4 15 3 16 2 17 1 18
REMARK H PARENT
REMARK Flexibility Score: inf
ROOT
ATOM      1  C   UNL     1     -15.259   9.881   8.325  1.00  0.00     0.000 C 
ENDROOT
BRANCH   1   2
ATOM      2  C   UNL     1     -16.007  10.723   7.275  1.00  0.00     0.000 C 
BRANCH   2   3
ATOM      3  C   UNL     1     -15.896  12.234   7.528  1.00  0.00     0.000 C 
BRANCH   3   4
ATOM      4  C   UNL     1     -14.579  12.789   6.972  1.00  0.00     0.000 C 
BRANCH   4   5
ATOM      5  C   UNL     1     -13.847  13.631   8.028  1.00  0.00     0.000 C 
BRANCH   5   6
ATOM      6  C   UNL     1     -14.412  13.426   9.443  1.00  0.00     0.006 C 
BRANCH   6   7
ATOM      7  C   UNL     1     -13.709  14.297  10.491  1.00  0.00     0.053 C 
BRANCH   7   8
ATOM      8  C   UNL     1     -13.796  13.661  11.842  1.00  0.00     0.041 C 
ATOM      9  O   UNL     1     -14.874  13.136  12.228  1.00  0.00    -0.550 OA
ATOM     10  O   UNL     1     -12.701  13.691  12.697  1.00  0.00    -0.550 OA
ENDBRANCH   7   8
ENDBRANCH   6   7
ENDBRANCH   5   6
ENDBRANCH   4   5
ENDBRANCH   3   4
ENDBRANCH   2   3
ENDBRANCH   1   2
BRANCH   1  11
ATOM     11  C   UNL     1     -15.934   8.547   8.694  1.00  0.00     0.000 C 
BRANCH  11  12
ATOM     12  C   UNL     1     -16.742   8.626  10.002  1.00  0.00    -0.000 C 
BRANCH  12  13
ATOM     13  C   UNL     1     -16.036   7.925  11.174  1.00  0.00    -0.000 C 
BRANCH  13  14
ATOM     14  C   UNL     1     -15.098   6.798  10.714  1.00  0.00    -0.000 C 
BRANCH  14  15
ATOM     15  C   UNL     1     -15.236   5.566  11.618  1.00  0.00    -0.000 C 
BRANCH  15  16
ATOM     16  C   UNL     1     -13.927   4.764  11.657  1.00  0.00    -0.000 C 
BRANCH  16  17
ATOM     17  C   UNL     1     -13.104   5.037  12.925  1.00  0.00    -0.003 C 
ATOM     18  C   UNL     1     -12.803   6.522  13.125  1.00  0.00     0.004 C 
ENDBRANCH  16  17
ENDBRANCH  15  16
ENDBRANCH  14  15
ENDBRANCH  13  14
ENDBRANCH  12  13
ENDBRANCH  11  12
ENDBRANCH   1  11
TORSDOF 14
ENDMDL
MODEL 3
REMARK VINA RESULT:    -3.030      1.267      1.921
REMARK INTER + INTRA:          -7.184
REMARK INTER:                  -5.990
REMARK INTRA:                  -1.193
REMARK UNBOUND:                -1.674
REMARK SMILES CCCCCCCCCCCCCCCC(=O)[O-]
REMARK SMILES IDX 9 1 10 2 11 3 12 4 13 5 14 6 15 7 16 8 17 9 18 10 8 11 7 12
REMARK SMILES IDX 6 13 5 14 4 15 3 16 2 17 1 18
REMARK H PARENT
REMARK Flexibility Score: inf
ROOT
ATOM      1  C   UNL     1     -16.810  11.093   8.048  1.00  0.00     0.000 C 
ENDROOT
BRANCH   1   2
ATOM      2  C   UNL     1     -15.764  10.046   7.624  1.00  0.00     0.000 C 
BRANCH   2   3
ATOM      3  C   UNL     1     -15.596   8.914   8.649  1.00  0.00     0.000 C 
BRANCH   3   4
ATOM      4  C   UNL     1     -16.509   9.131   9.862  1.00  0.00     0.000 C 
BRANCH   4   5
ATOM      5  C   UNL     1     -16.171   8.143  10.989  1.00  0.00     0.000 C 
BRANCH   5   6
ATOM      6  C   UNL     1     -15.575   6.827  10.463  1.00  0.00     0.006 C 
BRANCH   6   7
ATOM      7  C   UNL     1     -15.302   5.814  11.582  1.00  0.00     0.053 C 
BRANCH   7   8
ATOM      8  C   UNL     1     -13.830   5.644  11.784  1.00  0.00     0.041 C 
ATOM      9  O   UNL     1     -13.107   6.640  12.053  1.00  0.00    -0.550 OA
ATOM     10  O   UNL     1     -13.246   4.393  11.627  1.00  0.00    -0.550 OA
ENDBRANCH   7   8
ENDBRANCH   6   7
ENDBRANCH   5   6
ENDBRANCH   4   5
ENDBRANCH   3   4
ENDBRANCH   2   3
ENDBRANCH   1   2
BRANCH   1  11
ATOM     11  C   UNL     1     -16.409  12.558   7.794  1.00  0.00     0.000 C 
BRANCH  11  12
ATOM     12  C   UNL     1     -15.066  12.692   7.054  1.00  0.00    -0.000 C 
BRANCH  12  13
ATOM     13  C   UNL     1     -14.007  13.434   7.885  1.00  0.00    -0.000 C 
BRANCH  13  14
ATOM     14  C   UNL     1     -14.115  13.134   9.388  1.00  0.00    -0.000 C 
BRANCH  14  15
ATOM     15  C   UNL     1     -13.712  14.357  10.222  1.00  0.00    -0.000 C 
BRANCH  15  16
ATOM     16  C   UNL     1     -14.102  14.170  11.696  1.00  0.00    -0.000 C 
BRANCH  16  17
ATOM     17  C   UNL     1     -15.581  13.794  11.872  1.00  0.00    -0.003 C 
ATOM     18  C   UNL     1     -16.531  14.888  11.385  1.00  0.00     0.004 C 
ENDBRANCH  16  17
ENDBRANCH  15  16
ENDBRANCH  14  15
ENDBRANCH  13  14
ENDBRANCH  12  13
ENDBRANCH  11  12
ENDBRANCH   1  11
TORSDOF 14
ENDMDL
MODEL 4
REMARK VINA RESULT:    -2.973      2.890      5.891
REMARK INTER + INTRA:          -7.081
REMARK INTER:                  -5.571
REMARK INTRA:                  -1.509
REMARK UNBOUND:                -1.674
REMARK SMILES CCCCCCCCCCCCCCCC(=O)[O-]
REMARK SMILES IDX 9 1 10 2 11 3 12 4 13 5 14 6 15 7 16 8 17 9 18 10 8 11 7 12
REMARK SMILES IDX 6 13 5 14 4 15 3 16 2 17 1 18
REMARK H PARENT
REMARK Flexibility Score: inf
ROOT
ATOM      1  C   UNL     1     -16.022  10.274   7.247  1.00  0.00     0.000 C 
ENDROOT
BRANCH   1   2
ATOM      2  C   UNL     1     -15.561  11.739   7.148  1.00  0.00     0.000 C 
BRANCH   2   3
ATOM      3  C   UNL     1     -15.404  12.413   8.519  1.00  0.00     0.000 C 
BRANCH   3   4
ATOM      4  C   UNL     1     -16.756  12.907   9.047  1.00  0.00     0.000 C 
BRANCH   4   5
ATOM      5  C   UNL     1     -16.873  12.678  10.561  1.00  0.00     0.000 C 
BRANCH   5   6
ATOM      6  C   UNL     1     -15.538  12.266  11.202  1.00  0.00     0.006 C 
BRANCH   6   7
ATOM      7  C   UNL     1     -15.061  13.262  12.266  1.00  0.00     0.053 C 
BRANCH   7   8
ATOM      8  C   UNL     1     -13.751  13.865  11.866  1.00  0.00     0.041 C 
ATOM      9  O   UNL     1     -13.639  14.467  10.766  1.00  0.00    -0.550 OA
ATOM     10  O   UNL     1     -12.639  13.718  12.687  1.00  0.00    -0.550 OA
ENDBRANCH   7   8
ENDBRANCH   6   7
ENDBRANCH   5   6
ENDBRANCH   4   5
ENDBRANCH   3   4
ENDBRANCH   2   3
ENDBRANCH   1   2
BRANCH   1  11
ATOM     11  C   UNL     1     -15.286   9.426   8.301  1.00  0.00     0.000 C 
BRANCH  11  12
ATOM     12  C   UNL     1     -16.232   8.835   9.361  1.00  0.00    -0.000 C 
BRANCH  12  13
ATOM     13  C   UNL     1     -16.425   7.319   9.199  1.00  0.00    -0.000 C 
BRANCH  13  14
ATOM     14  C   UNL     1     -16.428   6.573  10.542  1.00  0.00    -0.000 C 
BRANCH  14  15
ATOM     15  C   UNL     1     -15.863   7.456  11.661  1.00  0.00    -0.000 C 
BRANCH  15  16
ATOM     16  C   UNL     1     -14.753   6.725  12.431  1.00  0.00    -0.000 C 
BRANCH  16  17
ATOM     17  C   UNL     1     -13.745   6.034  11.500  1.00  0.00    -0.003 C 
ATOM     18  C   UNL     1     -13.541   4.558  11.842  1.00  0.00     0.004 C 
ENDBRANCH  16  17
ENDBRANCH  15  16
ENDBRANCH  14  15
ENDBRANCH  13  14
ENDBRANCH  12  13
ENDBRANCH  11  12
ENDBRANCH   1  11
TORSDOF 14
ENDMDL
MODEL 5
REMARK VINA RESULT:    -2.884      3.065      6.581
REMARK INTER + INTRA:          -6.918
REMARK INTER:                  -5.669
REMARK INTRA:                  -1.250
REMARK UNBOUND:                -1.674
REMARK SMILES CCCCCCCCCCCCCCCC(=O)[O-]
REMARK SMILES IDX 9 1 10 2 11 3 12 4 13 5 14 6 15 7 16 8 17 9 18 10 8 11 7 12
REMARK SMILES IDX 6 13 5 14 4 15 3 16 2 17 1 18
REMARK H PARENT
REMARK Flexibility Score: inf
ROOT
ATOM      1  C   UNL     1     -16.434  10.552  10.212  1.00  0.00     0.000 C 
ENDROOT
BRANCH   1   2
ATOM      2  C   UNL     1     -16.669  10.958  11.678  1.00  0.00     0.000 C 
BRANCH   2   3
ATOM      3  C   UNL     1     -16.993  12.451  11.844  1.00  0.00     0.000 C 
BRANCH   3   4
ATOM      4  C   UNL     1     -16.463  13.264  10.657  1.00  0.00     0.000 C 
BRANCH   4   5
ATOM      5  C   UNL     1     -15.213  14.064  11.052  1.00  0.00     0.000 C 
BRANCH   5   6
ATOM      6  C   UNL     1     -14.154  14.097   9.938  1.00  0.00     0.006 C 
BRANCH   6   7
ATOM      7  C   UNL     1     -14.176  12.837   9.064  1.00  0.00     0.053 C 
BRANCH   7   8
ATOM      8  C   UNL     1     -14.237  13.209   7.616  1.00  0.00     0.041 C 
ATOM      9  O   UNL     1     -13.202  13.603   7.018  1.00  0.00    -0.550 OA
ATOM     10  O   UNL     1     -15.450  13.167   6.938  1.00  0.00    -0.550 OA
ENDBRANCH   7   8
ENDBRANCH   6   7
ENDBRANCH   5   6
ENDBRANCH   4   5
ENDBRANCH   3   4
ENDBRANCH   2   3
ENDBRANCH   1   2
BRANCH   1  11
ATOM     11  C   UNL     1     -17.082   9.220   9.790  1.00  0.00     0.000 C 
BRANCH  11  12
ATOM     12  C   UNL     1     -16.070   8.224   9.196  1.00  0.00    -0.000 C 
BRANCH  12  13
ATOM     13  C   UNL     1     -16.024   6.898   9.972  1.00  0.00    -0.000 C 
BRANCH  13  14
ATOM     14  C   UNL     1     -16.470   7.049  11.434  1.00  0.00    -0.000 C 
BRANCH  14  15
ATOM     15  C   UNL     1     -15.392   6.530  12.394  1.00  0.00    -0.000 C 
BRANCH  15  16
ATOM     16  C   UNL     1     -14.046   6.367  11.673  1.00  0.00    -0.000 C 
BRANCH  16  17
ATOM     17  C   UNL     1     -13.437   4.970  11.867  1.00  0.00    -0.003 C 
ATOM     18  C   UNL     1     -14.496   3.875  11.993  1.00  0.00     0.004 C 
ENDBRANCH  16  17
ENDBRANCH  15  16
ENDBRANCH  14  15
ENDBRANCH  13  14
ENDBRANCH  12  13
ENDBRANCH  11  12
ENDBRANCH   1  11
TORSDOF 14
ENDMDL
MODEL 6
REMARK VINA RESULT:    -2.806      1.428      2.767
REMARK INTER + INTRA:          -6.777
REMARK INTER:                  -5.207
REMARK INTRA:                  -1.570
REMARK UNBOUND:                -1.674
REMARK SMILES CCCCCCCCCCCCCCCC(=O)[O-]
REMARK SMILES IDX 9 1 10 2 11 3 12 4 13 5 14 6 15 7 16 8 17 9 18 10 8 11 7 12
REMARK SMILES IDX 6 13 5 14 4 15 3 16 2 17 1 18
REMARK H PARENT
REMARK Flexibility Score: inf
ROOT
ATOM      1  C   UNL     1     -15.711  12.500   7.943  1.00  0.00     0.000 C 
ENDROOT
BRANCH   1   2
ATOM      2  C   UNL     1     -15.565  11.201   7.129  1.00  0.00     0.000 C 
BRANCH   2   3
ATOM      3  C   UNL     1     -16.363  10.029   7.721  1.00  0.00     0.000 C 
BRANCH   3   4
ATOM      4  C   UNL     1     -15.445   9.066   8.483  1.00  0.00     0.000 C 
BRANCH   4   5
ATOM      5  C   UNL     1     -16.163   8.471   9.703  1.00  0.00     0.000 C 
BRANCH   5   6
ATOM      6  C   UNL     1     -15.505   7.175  10.203  1.00  0.00     0.006 C 
BRANCH   6   7
ATOM      7  C   UNL     1     -15.181   7.216  11.701  1.00  0.00     0.053 C 
BRANCH   7   8
ATOM      8  C   UNL     1     -13.993   6.358  12.003  1.00  0.00     0.041 C 
ATOM      9  O   UNL     1     -13.000   6.840  12.608  1.00  0.00    -0.550 OA
ATOM     10  O   UNL     1     -13.962   5.038  11.571  1.00  0.00    -0.550 OA
ENDBRANCH   7   8
ENDBRANCH   6   7
ENDBRANCH   5   6
ENDBRANCH   4   5
ENDBRANCH   3   4
ENDBRANCH   2   3
ENDBRANCH   1   2
BRANCH   1  11
ATOM     11  C   UNL     1     -17.113  12.750   8.529  1.00  0.00     0.000 C 
BRANCH  11  12
ATOM     12  C   UNL     1     -17.080  13.124  10.022  1.00  0.00    -0.000 C 
BRANCH  12  13
ATOM     13  C   UNL     1     -16.792  11.915  10.926  1.00  0.00    -0.000 C 
BRANCH  13  14
ATOM     14  C   UNL     1     -16.081  12.305  12.230  1.00  0.00    -0.000 C 
BRANCH  14  15
ATOM     15  C   UNL     1     -15.887  13.824  12.317  1.00  0.00    -0.000 C 
BRANCH  15  16
ATOM     16  C   UNL     1     -14.473  14.171  12.805  1.00  0.00    -0.000 C 
BRANCH  16  17
ATOM     17  C   UNL     1     -13.402  13.930  11.730  1.00  0.00    -0.003 C 
ATOM     18  C   UNL     1     -13.764  14.555  10.384  1.00  0.00     0.004 C 
ENDBRANCH  16  17
ENDBRANCH  15  16
ENDBRANCH  14  15
ENDBRANCH  13  14
ENDBRANCH  12  13
ENDBRANCH  11  12
ENDBRANCH   1  11
TORSDOF 14
ENDMDL
MODEL 7
REMARK VINA RESULT:    -2.735      3.036      6.289
REMARK INTER + INTRA:          -6.647
REMARK INTER:                  -5.835
REMARK INTRA:                  -0.812
REMARK UNBOUND:                -1.674
REMARK SMILES CCCCCCCCCCCCCCCC(=O)[O-]
REMARK SMILES IDX 9 1 10 2 11 3 12 4 13 5 14 6 15 7 16 8 17 9 18 10 8 11 7 12
REMARK SMILES IDX 6 13 5 14 4 15 3 16 2 17 1 18
REMARK H PARENT
REMARK Flexibility Score: inf
ROOT
ATOM      1  C   UNL     1     -16.522  11.001   7.704  1.00  0.00     0.000 C 
ENDROOT
BRANCH   1   2
ATOM      2  C   UNL     1     -15.175  11.720   7.899  1.00  0.00     0.000 C 
BRANCH   2   3
ATOM      3  C   UNL     1     -15.119  12.551   9.190  1.00  0.00     0.000 C 
BRANCH   3   4
ATOM      4  C   UNL     1     -14.047  13.643   9.096  1.00  0.00     0.000 C 
BRANCH   4   5
ATOM      5  C   UNL     1     -13.967  14.450  10.400  1.00  0.00     0.000 C 
BRANCH   5   6
ATOM      6  C   UNL     1     -13.642  13.573  11.620  1.00  0.00     0.006 C 
BRANCH   6   7
ATOM      7  C   UNL     1     -14.216  14.139  12.925  1.00  0.00     0.053 C 
BRANCH   7   8
ATOM      8  C   UNL     1     -15.680  14.408  12.777  1.00  0.00     0.041 C 
ATOM      9  O   UNL     1     -16.142  15.553  13.024  1.00  0.00    -0.550 OA
ATOM     10  O   UNL     1     -16.542  13.381  12.415  1.00  0.00    -0.550 OA
ENDBRANCH   7   8
ENDBRANCH   6   7
ENDBRANCH   5   6
ENDBRANCH   4   5
ENDBRANCH   3   4
ENDBRANCH   2   3
ENDBRANCH   1   2
BRANCH   1  11
ATOM     11  C   UNL     1     -16.834   9.904   8.738  1.00  0.00     0.000 C 
BRANCH  11  12
ATOM     12  C   UNL     1     -15.726   8.840   8.835  1.00  0.00    -0.000 C 
BRANCH  12  13
ATOM     13  C   UNL     1     -16.281   7.436   9.127  1.00  0.00    -0.000 C 
BRANCH  13  14
ATOM     14  C   UNL     1     -16.358   7.129  10.630  1.00  0.00    -0.000 C 
BRANCH  14  15
ATOM     15  C   UNL     1     -14.959   6.903  11.217  1.00  0.00    -0.000 C 
BRANCH  15  16
ATOM     16  C   UNL     1     -14.795   5.457  11.707  1.00  0.00    -0.000 C 
BRANCH  16  17
ATOM     17  C   UNL     1     -13.410   5.192  12.316  1.00  0.00    -0.003 C 
ATOM     18  C   UNL     1     -12.883   6.378  13.124  1.00  0.00     0.004 C 
ENDBRANCH  16  17
ENDBRANCH  15  16
ENDBRANCH  14  15
ENDBRANCH  13  14
ENDBRANCH  12  13
ENDBRANCH  11  12
ENDBRANCH   1  11
TORSDOF 14
ENDMDL
MODEL 8
REMARK VINA RESULT:    -2.735      1.356      2.881
REMARK INTER + INTRA:          -6.646
REMARK INTER:                  -5.335
REMARK INTRA:                  -1.312
REMARK UNBOUND:                -1.674
REMARK SMILES CCCCCCCCCCCCCCCC(=O)[O-]
REMARK SMILES IDX 9 1 10 2 11 3 12 4 13 5 14 6 15 7 16 8 17 9 18 10 8 11 7 12
REMARK SMILES IDX 6 13 5 14 4 15 3 16 2 17 1 18
REMARK H PARENT
REMARK Flexibility Score: inf
ROOT
ATOM      1  C   UNL     1     -15.220  12.225   7.268  1.00  0.00     0.000 C 
ENDROOT
BRANCH   1   2
ATOM      2  C   UNL     1     -16.118  10.978   7.179  1.00  0.00     0.000 C 
BRANCH   2   3
ATOM      3  C   UNL     1     -16.368  10.319   8.544  1.00  0.00     0.000 C 
BRANCH   3   4
ATOM      4  C   UNL     1     -15.696   8.942   8.621  1.00  0.00     0.000 C 
BRANCH   4   5
ATOM      5  C   UNL     1     -16.743   7.827   8.768  1.00  0.00     0.000 C 
BRANCH   5   6
ATOM      6  C   UNL     1     -16.354   6.787   9.831  1.00  0.00     0.006 C 
BRANCH   6   7
ATOM      7  C   UNL     1     -15.250   7.286  10.771  1.00  0.00     0.053 C 
BRANCH   7   8
ATOM      8  C   UNL     1     -14.602   6.135  11.473  1.00  0.00     0.041 C 
ATOM      9  O   UNL     1     -13.372   6.164  11.736  1.00  0.00    -0.550 OA
ATOM     10  O   UNL     1     -15.348   5.006  11.791  1.00  0.00    -0.550 OA
ENDBRANCH   7   8
ENDBRANCH   6   7
ENDBRANCH   5   6
ENDBRANCH   4   5
ENDBRANCH   3   4
ENDBRANCH   2   3
ENDBRANCH   1   2
BRANCH   1  11
ATOM     11  C   UNL     1     -15.413  13.081   8.533  1.00  0.00     0.000 C 
BRANCH  11  12
ATOM     12  C   UNL     1     -14.134  13.195   9.381  1.00  0.00    -0.000 C 
BRANCH  12  13
ATOM     13  C   UNL     1     -14.219  14.315  10.430  1.00  0.00    -0.000 C 
BRANCH  13  14
ATOM     14  C   UNL     1     -13.374  14.024  11.679  1.00  0.00    -0.000 C 
BRANCH  14  15
ATOM     15  C   UNL     1     -14.241  14.033  12.944  1.00  0.00    -0.000 C 
BRANCH  15  16
ATOM     16  C   UNL     1     -15.731  14.134  12.588  1.00  0.00    -0.000 C 
BRANCH  16  17
ATOM     17  C   UNL     1     -16.530  12.899  13.033  1.00  0.00    -0.003 C 
ATOM     18  C   UNL     1     -16.647  11.843  11.934  1.00  0.00     0.004 C 
ENDBRANCH  16  17
ENDBRANCH  15  16
ENDBRANCH  14  15
ENDBRANCH  13  14
ENDBRANCH  12  13
ENDBRANCH  11  12
ENDBRANCH   1  11
TORSDOF 14
ENDMDL
