MODEL 1
REMARK VINA RESULT:    -5.468      0.000      0.000
REMARK INTER + INTRA:          -5.628
REMARK INTER:                  -5.628
REMARK INTRA:                   0.000
REMARK UNBOUND:                 0.000
REMARK SMILES Cc1ccccc1O
REMARK SMILES IDX 1 1 2 2 3 3 4 4 5 5 6 6 7 7 8 8
REMARK H PARENT 8 9
REMARK Flexibility Score: inf
ROOT
ATOM      1  C   UNL     1     -10.534  -0.153  -9.765  1.00  0.00     0.048 C 
ATOM      2  C   UNL     1     -11.496   0.989  -9.589  1.00  0.00    -0.009 A 
ATOM      3  C   UNL     1     -12.879   0.753  -9.686  1.00  0.00     0.007 A 
ATOM      4  C   UNL     1     -13.789   1.800  -9.525  1.00  0.00     0.001 A 
ATOM      5  C   UNL     1     -13.330   3.092  -9.267  1.00  0.00     0.004 A 
ATOM      6  C   UNL     1     -11.959   3.341  -9.168  1.00  0.00     0.046 A 
ATOM      7  C   UNL     1     -11.036   2.301  -9.326  1.00  0.00     0.118 A 
ENDROOT
BRANCH   7   8
ATOM      8  O   UNL     1      -9.676   2.600  -9.218  1.00  0.00    -0.508 OA
ATOM      9  H   UNL     1      -9.317   3.546  -9.236  1.00  0.00     0.293 HD
ENDBRANCH   7   8
TORSDOF 1
ENDMDL
MODEL 2
REMARK VINA RESULT:    -5.261      1.724      2.831
REMARK INTER + INTRA:          -5.415
REMARK INTER:                  -5.415
REMARK INTRA:                   0.000
REMARK UNBOUND:                 0.000
REMARK SMILES Cc1ccccc1O
REMARK SMILES IDX 1 1 2 2 3 3 4 4 5 5 6 6 7 7 8 8
REMARK H PARENT 8 9
REMARK Flexibility Score: inf
ROOT
ATOM      1  C   UNL     1     -14.673   1.161  -9.409  1.00  0.00     0.048 C 
ATOM      2  C   UNL     1     -13.251   1.649  -9.398  1.00  0.00    -0.009 A 
ATOM      3  C   UNL     1     -12.209   0.755  -9.701  1.00  0.00     0.007 A 
ATOM      4  C   UNL     1     -10.880   1.187  -9.696  1.00  0.00     0.001 A 
ATOM      5  C   UNL     1     -10.578   2.515  -9.389  1.00  0.00     0.004 A 
ATOM      6  C   UNL     1     -11.604   3.413  -9.086  1.00  0.00     0.046 A 
ATOM      7  C   UNL     1     -12.939   2.993  -9.088  1.00  0.00     0.118 A 
ENDROOT
BRANCH   7   8
ATOM      8  O   UNL     1     -13.929   3.930  -8.779  1.00  0.00    -0.508 OA
ATOM      9  H   UNL     1     -13.732   4.805  -8.310  1.00  0.00     0.293 HD
ENDBRANCH   7   8
TORSDOF 1
ENDMDL
MODEL 3
REMARK VINA RESULT:    -5.057      1.751      2.440
REMARK INTER + INTRA:          -5.205
REMARK INTER:                  -5.205
REMARK INTRA:                   0.000
REMARK UNBOUND:                 0.000
REMARK SMILES Cc1ccccc1O
REMARK SMILES IDX 1 1 2 2 3 3 4 4 5 5 6 6 7 7 8 8
REMARK H PARENT 8 9
REMARK Flexibility Score: inf
ROOT
ATOM      1  C   UNL     1     -10.652  -0.395  -9.784  1.00  0.00     0.048 C 
ATOM      2  C   UNL     1     -11.305   0.951  -9.636  1.00  0.00    -0.009 A 
ATOM      3  C   UNL     1     -10.505   2.103  -9.535  1.00  0.00     0.007 A 
ATOM      4  C   UNL     1     -11.091   3.364  -9.396  1.00  0.00     0.001 A 
ATOM      5  C   UNL     1     -12.481   3.488  -9.358  1.00  0.00     0.004 A 
ATOM      6  C   UNL     1     -13.287   2.352  -9.457  1.00  0.00     0.046 A 
ATOM      7  C   UNL     1     -12.713   1.083  -9.597  1.00  0.00     0.118 A 
ENDROOT
BRANCH   7   8
ATOM      8  O   UNL     1     -13.562  -0.022  -9.692  1.00  0.00    -0.508 OA
ATOM      9  H   UNL     1     -14.292  -0.216  -9.018  1.00  0.00     0.293 HD
ENDBRANCH   7   8
TORSDOF 1
ENDMDL
MODEL 4
REMARK VINA RESULT:    -4.908      0.882      2.557
REMARK INTER + INTRA:          -5.052
REMARK INTER:                  -5.052
REMARK INTRA:                   0.000
REMARK UNBOUND:                 0.000
REMARK SMILES Cc1ccccc1O
REMARK SMILES IDX 1 1 2 2 3 3 4 4 5 5 6 6 7 7 8 8
REMARK H PARENT 8 9
REMARK Flexibility Score: inf
ROOT
ATOM      1  C   UNL     1     -12.751   3.740  -9.118  1.00  0.00     0.048 C 
ATOM      2  C   UNL     1     -12.489   2.284  -9.387  1.00  0.00    -0.009 A 
ATOM      3  C   UNL     1     -13.572   1.405  -9.568  1.00  0.00     0.007 A 
ATOM      4  C   UNL     1     -13.350   0.049  -9.819  1.00  0.00     0.001 A 
ATOM      5  C   UNL     1     -12.046  -0.444  -9.893  1.00  0.00     0.004 A 
ATOM      6  C   UNL     1     -10.962   0.417  -9.715  1.00  0.00     0.046 A 
ATOM      7  C   UNL     1     -11.170   1.778  -9.463  1.00  0.00     0.118 A 
ENDROOT
BRANCH   7   8
ATOM      8  O   UNL     1     -10.052   2.599  -9.293  1.00  0.00    -0.508 OA
ATOM      9  H   UNL     1     -10.042   3.393  -8.665  1.00  0.00     0.293 HD
ENDBRANCH   7   8
TORSDOF 1
ENDMDL
MODEL 5
REMARK VINA RESULT:    -4.560     17.448     17.927
REMARK INTER + INTRA:          -4.693
REMARK INTER:                  -4.693
REMARK INTRA:                   0.000
REMARK UNBOUND:                 0.000
REMARK SMILES Cc1ccccc1O
REMARK SMILES IDX 1 1 2 2 3 3 4 4 5 5 6 6 7 7 8 8
REMARK H PARENT 8 9
REMARK Flexibility Score: inf
ROOT
ATOM      1  C   UNL     1     -10.254   4.931   6.379  1.00  0.00     0.048 C 
ATOM      2  C   UNL     1     -10.903   4.332   7.596  1.00  0.00    -0.009 A 
ATOM      3  C   UNL     1     -10.996   5.089   8.777  1.00  0.00     0.007 A 
ATOM      4  C   UNL     1     -11.595   4.551   9.919  1.00  0.00     0.001 A 
ATOM      5  C   UNL     1     -12.108   3.253   9.894  1.00  0.00     0.004 A 
ATOM      6  C   UNL     1     -12.022   2.490   8.728  1.00  0.00     0.046 A 
ATOM      7  C   UNL     1     -11.425   3.017   7.577  1.00  0.00     0.118 A 
ENDROOT
BRANCH   7   8
ATOM      8  O   UNL     1     -11.363   2.213   6.436  1.00  0.00    -0.508 OA
ATOM      9  H   UNL     1     -10.494   1.984   5.969  1.00  0.00     0.293 HD
ENDBRANCH   7   8
TORSDOF 1
ENDMDL
MODEL 6
REMARK VINA RESULT:    -4.524     16.514     16.982
REMARK INTER + INTRA:          -4.656
REMARK INTER:                  -4.656
REMARK INTRA:                   0.000
REMARK UNBOUND:                 0.000
REMARK SMILES Cc1ccccc1O
REMARK SMILES IDX 1 1 2 2 3 3 4 4 5 5 6 6 7 7 8 8
REMARK H PARENT 8 9
REMARK Flexibility Score: inf
ROOT
ATOM      1  C   UNL     1      -9.573   5.925   6.353  1.00  0.00     0.048 C 
ATOM      2  C   UNL     1     -10.616   4.899   6.702  1.00  0.00    -0.009 A 
ATOM      3  C   UNL     1     -11.240   4.168   5.676  1.00  0.00     0.007 A 
ATOM      4  C   UNL     1     -12.212   3.211   5.978  1.00  0.00     0.001 A 
ATOM      5  C   UNL     1     -12.570   2.974   7.306  1.00  0.00     0.004 A 
ATOM      6  C   UNL     1     -11.958   3.693   8.335  1.00  0.00     0.046 A 
ATOM      7  C   UNL     1     -10.983   4.655   8.046  1.00  0.00     0.118 A 
ENDROOT
BRANCH   7   8
ATOM      8  O   UNL     1     -10.400   5.347   9.110  1.00  0.00    -0.508 OA
ATOM      9  H   UNL     1     -10.159   6.330   9.061  1.00  0.00     0.293 HD
ENDBRANCH   7   8
TORSDOF 1
ENDMDL
MODEL 7
REMARK VINA RESULT:    -4.465     15.517     16.041
REMARK INTER + INTRA:          -4.595
REMARK INTER:                  -4.595
REMARK INTRA:                   0.000
REMARK UNBOUND:                 0.000
REMARK SMILES Cc1ccccc1O
REMARK SMILES IDX 1 1 2 2 3 3 4 4 5 5 6 6 7 7 8 8
REMARK H PARENT 8 9
REMARK Flexibility Score: inf
ROOT
ATOM      1  C   UNL     1     -13.161   4.121   4.110  1.00  0.00     0.048 C 
ATOM      2  C   UNL     1     -12.498   4.083   5.459  1.00  0.00    -0.009 A 
ATOM      3  C   UNL     1     -12.383   5.267   6.209  1.00  0.00     0.007 A 
ATOM      4  C   UNL     1     -11.771   5.253   7.465  1.00  0.00     0.001 A 
ATOM      5  C   UNL     1     -11.267   4.060   7.984  1.00  0.00     0.004 A 
ATOM      6  C   UNL     1     -11.374   2.877   7.250  1.00  0.00     0.046 A 
ATOM      7  C   UNL     1     -11.986   2.876   5.991  1.00  0.00     0.118 A 
ENDROOT
BRANCH   7   8
ATOM      8  O   UNL     1     -12.069   1.667   5.295  1.00  0.00    -0.508 OA
ATOM      9  H   UNL     1     -11.455   1.431   4.526  1.00  0.00     0.293 HD
ENDBRANCH   7   8
TORSDOF 1
ENDMDL
MODEL 8
REMARK VINA RESULT:    -4.454     16.457     16.876
REMARK INTER + INTRA:          -4.584
REMARK INTER:                  -4.584
REMARK INTRA:                   0.000
REMARK UNBOUND:                 0.000
REMARK SMILES Cc1ccccc1O
REMARK SMILES IDX 1 1 2 2 3 3 4 4 5 5 6 6 7 7 8 8
REMARK H PARENT 8 9
REMARK Flexibility Score: inf
ROOT
ATOM      1  C   UNL     1     -12.059   2.785   8.898  1.00  0.00     0.048 C 
ATOM      2  C   UNL     1     -11.585   3.534   7.683  1.00  0.00    -0.009 A 
ATOM      3  C   UNL     1     -11.925   3.063   6.402  1.00  0.00     0.007 A 
ATOM      4  C   UNL     1     -11.495   3.744   5.259  1.00  0.00     0.001 A 
ATOM      5  C   UNL     1     -10.722   4.899   5.384  1.00  0.00     0.004 A 
ATOM      6  C   UNL     1     -10.377   5.377   6.650  1.00  0.00     0.046 A 
ATOM      7  C   UNL     1     -10.802   4.706   7.802  1.00  0.00     0.118 A 
ENDROOT
BRANCH   7   8
ATOM      8  O   UNL     1     -10.431   5.223   9.046  1.00  0.00    -0.508 OA
ATOM      9  H   UNL     1      -9.997   4.663   9.769  1.00  0.00     0.293 HD
ENDBRANCH   7   8
TORSDOF 1
ENDMDL
MODEL 9
REMARK VINA RESULT:    -4.411     15.774     16.283
REMARK INTER + INTRA:          -4.540
REMARK INTER:                  -4.540
REMARK INTRA:                   0.000
REMARK UNBOUND:                 0.000
REMARK SMILES Cc1ccccc1O
REMARK SMILES IDX 1 1 2 2 3 3 4 4 5 5 6 6 7 7 8 8
REMARK H PARENT 8 9
REMARK Flexibility Score: inf
ROOT
ATOM      1  C   UNL     1     -11.989   2.651   8.433  1.00  0.00     0.048 C 
ATOM      2  C   UNL     1     -11.467   3.500   7.307  1.00  0.00    -0.009 A 
ATOM      3  C   UNL     1     -10.741   4.669   7.600  1.00  0.00     0.007 A 
ATOM      4  C   UNL     1     -10.246   5.472   6.569  1.00  0.00     0.001 A 
ATOM      5  C   UNL     1     -10.471   5.118   5.238  1.00  0.00     0.004 A 
ATOM      6  C   UNL     1     -11.190   3.960   4.934  1.00  0.00     0.046 A 
ATOM      7  C   UNL     1     -11.690   3.146   5.956  1.00  0.00     0.118 A 
ENDROOT
BRANCH   7   8
ATOM      8  O   UNL     1     -12.403   1.999   5.601  1.00  0.00    -0.508 OA
ATOM      9  H   UNL     1     -13.413   1.943   5.640  1.00  0.00     0.293 HD
ENDBRANCH   7   8
TORSDOF 1
ENDMDL
