MODEL 1
REMARK VINA RESULT:    -3.690      0.000      0.000
REMARK INTER + INTRA:          -4.065
REMARK INTER:                  -4.014
REMARK INTRA:                  -0.051
REMARK UNBOUND:                -0.051
REMARK SMILES CCc1cccc(O)c1
REMARK SMILES IDX 3 1 9 2 7 3 6 4 5 5 4 6 2 7 1 8 8 9
REMARK H PARENT 8 10
REMARK Flexibility Score: inf
ROOT
ATOM      1  C   UNL     1      -5.587  84.547  -9.683  1.00  0.00    -0.045 A 
ATOM      2  C   UNL     1      -4.543  85.148  -8.961  1.00  0.00     0.049 A 
ATOM      3  C   UNL     1      -3.413  84.402  -8.595  1.00  0.00     0.115 A 
ATOM      4  C   UNL     1      -3.324  83.054  -8.957  1.00  0.00     0.046 A 
ATOM      5  C   UNL     1      -4.354  82.453  -9.686  1.00  0.00     0.004 A 
ATOM      6  C   UNL     1      -5.480  83.196 -10.052  1.00  0.00     0.004 A 
ENDROOT
BRANCH   1   7
ATOM      7  C   UNL     1      -6.784  85.357 -10.105  1.00  0.00     0.032 C 
ATOM      8  C   UNL     1      -6.387  86.804 -10.378  1.00  0.00     0.009 C 
ENDBRANCH   1   7
BRANCH   3   9
ATOM      9  O   UNL     1      -2.376  84.990  -7.875  1.00  0.00    -0.508 OA
ATOM     10  H   UNL     1      -1.411  84.713  -8.015  1.00  0.00     0.293 HD
ENDBRANCH   3   9
TORSDOF 2
ENDMDL
MODEL 2
REMARK VINA RESULT:    -3.668      2.310      3.382
REMARK INTER + INTRA:          -4.040
REMARK INTER:                  -3.971
REMARK INTRA:                  -0.069
REMARK UNBOUND:                -0.051
REMARK SMILES CCc1cccc(O)c1
REMARK SMILES IDX 3 1 9 2 7 3 6 4 5 5 4 6 2 7 1 8 8 9
REMARK H PARENT 8 10
REMARK Flexibility Score: inf
ROOT
ATOM      1  C   UNL     1      -3.410  84.820  -8.119  1.00  0.00    -0.045 A 
ATOM      2  C   UNL     1      -4.216  84.336  -9.164  1.00  0.00     0.049 A 
ATOM      3  C   UNL     1      -4.348  82.957  -9.376  1.00  0.00     0.115 A 
ATOM      4  C   UNL     1      -3.680  82.058  -8.538  1.00  0.00     0.046 A 
ATOM      5  C   UNL     1      -2.888  82.532  -7.489  1.00  0.00     0.004 A 
ATOM      6  C   UNL     1      -2.755  83.907  -7.276  1.00  0.00     0.004 A 
ENDROOT
BRANCH   1   7
ATOM      7  C   UNL     1      -3.295  86.300  -7.871  1.00  0.00     0.032 C 
ATOM      8  C   UNL     1      -1.875  86.670  -7.457  1.00  0.00     0.009 C 
ENDBRANCH   1   7
BRANCH   3   9
ATOM      9  O   UNL     1      -5.141  82.470 -10.413  1.00  0.00    -0.508 OA
ATOM     10  H   UNL     1      -5.903  83.016 -10.798  1.00  0.00     0.293 HD
ENDBRANCH   3   9
TORSDOF 2
ENDMDL
MODEL 3
REMARK VINA RESULT:    -3.627      1.271      3.493
REMARK INTER + INTRA:          -3.996
REMARK INTER:                  -3.946
REMARK INTRA:                  -0.050
REMARK UNBOUND:                -0.051
REMARK SMILES CCc1cccc(O)c1
REMARK SMILES IDX 3 1 9 2 7 3 6 4 5 5 4 6 2 7 1 8 8 9
REMARK H PARENT 8 10
REMARK Flexibility Score: inf
ROOT
ATOM      1  C   UNL     1      -3.718  82.907  -9.082  1.00  0.00    -0.045 A 
ATOM      2  C   UNL     1      -3.392  84.150  -8.515  1.00  0.00     0.049 A 
ATOM      3  C   UNL     1      -4.174  85.281  -8.788  1.00  0.00     0.115 A 
ATOM      4  C   UNL     1      -5.289  85.168  -9.625  1.00  0.00     0.046 A 
ATOM      5  C   UNL     1      -5.626  83.932 -10.183  1.00  0.00     0.004 A 
ATOM      6  C   UNL     1      -4.848  82.803  -9.910  1.00  0.00     0.004 A 
ENDROOT
BRANCH   1   7
ATOM      7  C   UNL     1      -2.897  81.686  -8.760  1.00  0.00     0.032 C 
ATOM      8  C   UNL     1      -3.015  81.331  -7.282  1.00  0.00     0.009 C 
ENDBRANCH   1   7
BRANCH   3   9
ATOM      9  O   UNL     1      -3.854  86.518  -8.234  1.00  0.00    -0.508 OA
ATOM     10  H   UNL     1      -4.240  87.379  -8.603  1.00  0.00     0.293 HD
ENDBRANCH   3   9
TORSDOF 2
ENDMDL
MODEL 4
REMARK VINA RESULT:    -3.556      2.033      3.723
REMARK INTER + INTRA:          -3.919
REMARK INTER:                  -3.846
REMARK INTRA:                  -0.073
REMARK UNBOUND:                -0.051
REMARK SMILES CCc1cccc(O)c1
REMARK SMILES IDX 3 1 9 2 7 3 6 4 5 5 4 6 2 7 1 8 8 9
REMARK H PARENT 8 10
REMARK Flexibility Score: inf
ROOT
ATOM      1  C   UNL     1      -3.575  84.997  -8.228  1.00  0.00    -0.045 A 
ATOM      2  C   UNL     1      -3.797  83.763  -8.863  1.00  0.00     0.049 A 
ATOM      3  C   UNL     1      -4.875  83.605  -9.746  1.00  0.00     0.115 A 
ATOM      4  C   UNL     1      -5.729  84.684 -10.000  1.00  0.00     0.046 A 
ATOM      5  C   UNL     1      -5.506  85.917  -9.382  1.00  0.00     0.004 A 
ATOM      6  C   UNL     1      -4.431  86.076  -8.502  1.00  0.00     0.004 A 
ENDROOT
BRANCH   1   7
ATOM      7  C   UNL     1      -2.398  85.176  -7.306  1.00  0.00     0.032 C 
ATOM      8  C   UNL     1      -1.875  86.607  -7.371  1.00  0.00     0.009 C 
ENDBRANCH   1   7
BRANCH   3   9
ATOM      9  O   UNL     1      -5.105  82.384 -10.375  1.00  0.00    -0.508 OA
ATOM     10  H   UNL     1      -4.994  81.505  -9.882  1.00  0.00     0.293 HD
ENDBRANCH   3   9
TORSDOF 2
ENDMDL
MODEL 5
REMARK VINA RESULT:    -3.554      2.327      2.855
REMARK INTER + INTRA:          -3.917
REMARK INTER:                  -3.865
REMARK INTRA:                  -0.052
REMARK UNBOUND:                -0.051
REMARK SMILES CCc1cccc(O)c1
REMARK SMILES IDX 3 1 9 2 7 3 6 4 5 5 4 6 2 7 1 8 8 9
REMARK H PARENT 8 10
REMARK Flexibility Score: inf
ROOT
ATOM      1  C   UNL     1      -6.288  83.324  -8.792  1.00  0.00    -0.045 A 
ATOM      2  C   UNL     1      -5.480  82.994  -9.893  1.00  0.00     0.049 A 
ATOM      3  C   UNL     1      -4.190  82.482  -9.697  1.00  0.00     0.115 A 
ATOM      4  C   UNL     1      -3.708  82.292  -8.397  1.00  0.00     0.046 A 
ATOM      5  C   UNL     1      -4.512  82.605  -7.298  1.00  0.00     0.004 A 
ATOM      6  C   UNL     1      -5.799  83.115  -7.492  1.00  0.00     0.004 A 
ENDROOT
BRANCH   1   7
ATOM      7  C   UNL     1      -7.686  83.841  -9.004  1.00  0.00     0.032 C 
ATOM      8  C   UNL     1      -8.661  82.689  -9.223  1.00  0.00     0.009 C 
ENDBRANCH   1   7
BRANCH   3   9
ATOM      9  O   UNL     1      -3.381  82.159 -10.784  1.00  0.00    -0.508 OA
ATOM     10  H   UNL     1      -3.405  82.698 -11.641  1.00  0.00     0.293 HD
ENDBRANCH   3   9
TORSDOF 2
ENDMDL
MODEL 6
REMARK VINA RESULT:    -3.527      2.469      4.196
REMARK INTER + INTRA:          -3.888
REMARK INTER:                  -3.830
REMARK INTRA:                  -0.058
REMARK UNBOUND:                -0.051
REMARK SMILES CCc1cccc(O)c1
REMARK SMILES IDX 3 1 9 2 7 3 6 4 5 5 4 6 2 7 1 8 8 9
REMARK H PARENT 8 10
REMARK Flexibility Score: inf
ROOT
ATOM      1  C   UNL     1      -5.118  83.568  -8.998  1.00  0.00    -0.045 A 
ATOM      2  C   UNL     1      -6.465  83.263  -9.254  1.00  0.00     0.049 A 
ATOM      3  C   UNL     1      -7.323  84.235  -9.787  1.00  0.00     0.115 A 
ATOM      4  C   UNL     1      -6.831  85.514 -10.073  1.00  0.00     0.046 A 
ATOM      5  C   UNL     1      -5.489  85.819  -9.833  1.00  0.00     0.004 A 
ATOM      6  C   UNL     1      -4.632  84.851  -9.302  1.00  0.00     0.004 A 
ENDROOT
BRANCH   1   7
ATOM      7  C   UNL     1      -4.189  82.513  -8.457  1.00  0.00     0.032 C 
ATOM      8  C   UNL     1      -3.304  81.954  -9.565  1.00  0.00     0.009 C 
ENDBRANCH   1   7
BRANCH   3   9
ATOM      9  O   UNL     1      -8.661  83.942 -10.038  1.00  0.00    -0.508 OA
ATOM     10  H   UNL     1      -9.148  84.334 -10.837  1.00  0.00     0.293 HD
ENDBRANCH   3   9
TORSDOF 2
ENDMDL
MODEL 7
REMARK VINA RESULT:    -3.523      1.370      2.171
REMARK INTER + INTRA:          -3.883
REMARK INTER:                  -3.831
REMARK INTRA:                  -0.051
REMARK UNBOUND:                -0.051
REMARK SMILES CCc1cccc(O)c1
REMARK SMILES IDX 3 1 9 2 7 3 6 4 5 5 4 6 2 7 1 8 8 9
REMARK H PARENT 8 10
REMARK Flexibility Score: inf
ROOT
ATOM      1  C   UNL     1      -4.559  85.067  -8.862  1.00  0.00    -0.045 A 
ATOM      2  C   UNL     1      -3.417  84.355  -8.459  1.00  0.00     0.049 A 
ATOM      3  C   UNL     1      -3.228  83.028  -8.869  1.00  0.00     0.115 A 
ATOM      4  C   UNL     1      -4.180  82.412  -9.689  1.00  0.00     0.046 A 
ATOM      5  C   UNL     1      -5.311  83.119 -10.104  1.00  0.00     0.004 A 
ATOM      6  C   UNL     1      -5.500  84.443  -9.697  1.00  0.00     0.004 A 
ENDROOT
BRANCH   1   7
ATOM      7  C   UNL     1      -4.744  86.504  -8.450  1.00  0.00     0.032 C 
ATOM      8  C   UNL     1      -3.541  86.995  -7.652  1.00  0.00     0.009 C 
ENDBRANCH   1   7
BRANCH   3   9
ATOM      9  O   UNL     1      -2.102  82.313  -8.469  1.00  0.00    -0.508 OA
ATOM     10  H   UNL     1      -1.706  82.425  -7.542  1.00  0.00     0.293 HD
ENDBRANCH   3   9
TORSDOF 2
ENDMDL
MODEL 8
REMARK VINA RESULT:    -3.483      6.949      7.910
REMARK INTER + INTRA:          -3.840
REMARK INTER:                  -3.790
REMARK INTRA:                  -0.050
REMARK UNBOUND:                -0.051
REMARK SMILES CCc1cccc(O)c1
REMARK SMILES IDX 3 1 9 2 7 3 6 4 5 5 4 6 2 7 1 8 8 9
REMARK H PARENT 8 10
REMARK Flexibility Score: inf
ROOT
ATOM      1  C   UNL     1      -6.239  89.612 -13.434  1.00  0.00    -0.045 A 
ATOM      2  C   UNL     1      -6.052  89.461 -14.818  1.00  0.00     0.049 A 
ATOM      3  C   UNL     1      -4.954  90.057 -15.453  1.00  0.00     0.115 A 
ATOM      4  C   UNL     1      -4.036  90.800 -14.703  1.00  0.00     0.046 A 
ATOM      5  C   UNL     1      -4.210  90.943 -13.324  1.00  0.00     0.004 A 
ATOM      6  C   UNL     1      -5.304  90.349 -12.688  1.00  0.00     0.004 A 
ENDROOT
BRANCH   1   7
ATOM      7  C   UNL     1      -7.400  88.943 -12.747  1.00  0.00     0.032 C 
ATOM      8  C   UNL     1      -8.504  88.616 -13.747  1.00  0.00     0.009 C 
ENDBRANCH   1   7
BRANCH   3   9
ATOM      9  O   UNL     1      -4.764  89.916 -16.826  1.00  0.00    -0.508 OA
ATOM     10  H   UNL     1      -4.944  90.681 -17.466  1.00  0.00     0.293 HD
ENDBRANCH   3   9
TORSDOF 2
ENDMDL
MODEL 9
REMARK VINA RESULT:    -3.454      2.066      3.470
REMARK INTER + INTRA:          -3.808
REMARK INTER:                  -3.736
REMARK INTRA:                  -0.073
REMARK UNBOUND:                -0.051
REMARK SMILES CCc1cccc(O)c1
REMARK SMILES IDX 3 1 9 2 7 3 6 4 5 5 4 6 2 7 1 8 8 9
REMARK H PARENT 8 10
REMARK Flexibility Score: inf
ROOT
ATOM      1  C   UNL     1      -3.773  85.014  -8.606  1.00  0.00    -0.045 A 
ATOM      2  C   UNL     1      -4.949  85.564  -9.141  1.00  0.00     0.049 A 
ATOM      3  C   UNL     1      -5.867  84.751  -9.821  1.00  0.00     0.115 A 
ATOM      4  C   UNL     1      -5.611  83.382  -9.961  1.00  0.00     0.046 A 
ATOM      5  C   UNL     1      -4.449  82.826  -9.420  1.00  0.00     0.004 A 
ATOM      6  C   UNL     1      -3.534  83.636  -8.740  1.00  0.00     0.004 A 
ENDROOT
BRANCH   1   7
ATOM      7  C   UNL     1      -2.805  85.882  -7.846  1.00  0.00     0.032 C 
ATOM      8  C   UNL     1      -2.163  85.103  -6.704  1.00  0.00     0.009 C 
ENDBRANCH   1   7
BRANCH   3   9
ATOM      9  O   UNL     1      -7.033  85.290 -10.359  1.00  0.00    -0.508 OA
ATOM     10  H   UNL     1      -7.754  84.699 -10.758  1.00  0.00     0.293 HD
ENDBRANCH   3   9
TORSDOF 2
ENDMDL
