MODEL 1
REMARK VINA RESULT:    -2.873      0.000      0.000
REMARK INTER + INTRA:          -3.714
REMARK INTER:                  -3.544
REMARK INTRA:                  -0.170
REMARK UNBOUND:                -0.170
REMARK SMILES CCCCC=CC(C)=O
REMARK SMILES IDX 4 1 3 2 2 3 1 4 5 5 6 6 7 7 9 8 8 9
REMARK H PARENT
REMARK Flexibility Score: inf
ROOT
ATOM      1  C   UNL     1      -9.625  -4.934  21.157  1.00  0.00     0.027 C 
ENDROOT
BRANCH   1   2
ATOM      2  C   UNL     1     -10.109  -4.875  22.618  1.00  0.00     0.004 C 
BRANCH   2   3
ATOM      3  C   UNL     1      -9.169  -5.572  23.618  1.00  0.00    -0.003 C 
ATOM      4  C   UNL     1      -9.855  -5.918  24.939  1.00  0.00     0.004 C 
ENDBRANCH   2   3
ENDBRANCH   1   2
BRANCH   1   5
ATOM      5  C   UNL     1     -10.750  -5.172  20.183  1.00  0.00    -0.023 C 
ATOM      6  C   UNL     1     -10.631  -5.684  18.947  1.00  0.00     0.042 C 
BRANCH   6   7
ATOM      7  C   UNL     1      -9.385  -6.177  18.316  1.00  0.00     0.152 C 
ATOM      8  O   UNL     1      -9.102  -7.403  18.279  1.00  0.00    -0.295 OA
ATOM      9  C   UNL     1      -8.478  -5.203  17.635  1.00  0.00     0.093 C 
ENDBRANCH   6   7
ENDBRANCH   1   5
TORSDOF 4
ENDMDL
MODEL 2
REMARK VINA RESULT:    -2.605     16.852     17.372
REMARK INTER + INTRA:          -3.384
REMARK INTER:                  -2.910
REMARK INTRA:                  -0.474
REMARK UNBOUND:                -0.170
REMARK SMILES CCCCC=CC(C)=O
REMARK SMILES IDX 4 1 3 2 2 3 1 4 5 5 6 6 7 7 9 8 8 9
REMARK H PARENT
REMARK Flexibility Score: inf
ROOT
ATOM      1  C   UNL     1     -11.125 -22.207  22.676  1.00  0.00     0.027 C 
ENDROOT
BRANCH   1   2
ATOM      2  C   UNL     1     -10.913 -21.540  24.048  1.00  0.00     0.004 C 
BRANCH   2   3
ATOM      3  C   UNL     1      -9.968 -22.317  24.983  1.00  0.00    -0.003 C 
ATOM      4  C   UNL     1      -8.528 -21.807  24.933  1.00  0.00     0.004 C 
ENDBRANCH   2   3
ENDBRANCH   1   2
BRANCH   1   5
ATOM      5  C   UNL     1     -10.118 -21.757  21.651  1.00  0.00    -0.023 C 
ATOM      6  C   UNL     1      -9.112 -22.495  21.153  1.00  0.00     0.042 C 
BRANCH   6   7
ATOM      7  C   UNL     1      -8.826 -23.915  21.462  1.00  0.00     0.152 C 
ATOM      8  O   UNL     1      -8.093 -24.246  22.431  1.00  0.00    -0.295 OA
ATOM      9  C   UNL     1      -9.488 -24.985  20.655  1.00  0.00     0.093 C 
ENDBRANCH   6   7
ENDBRANCH   1   5
TORSDOF 4
ENDMDL
MODEL 3
REMARK VINA RESULT:    -2.598     16.654     17.663
REMARK INTER + INTRA:          -3.375
REMARK INTER:                  -3.017
REMARK INTRA:                  -0.358
REMARK UNBOUND:                -0.170
REMARK SMILES CCCCC=CC(C)=O
REMARK SMILES IDX 4 1 3 2 2 3 1 4 5 5 6 6 7 7 9 8 8 9
REMARK H PARENT
REMARK Flexibility Score: inf
ROOT
ATOM      1  C   UNL     1      -8.814 -23.122  21.839  1.00  0.00     0.027 C 
ENDROOT
BRANCH   1   2
ATOM      2  C   UNL     1     -10.251 -23.121  21.285  1.00  0.00     0.004 C 
BRANCH   2   3
ATOM      3  C   UNL     1     -10.802 -21.717  20.975  1.00  0.00    -0.003 C 
ATOM      4  C   UNL     1     -10.798 -21.392  19.481  1.00  0.00     0.004 C 
ENDBRANCH   2   3
ENDBRANCH   1   2
BRANCH   1   5
ATOM      5  C   UNL     1      -8.657 -24.016  23.041  1.00  0.00    -0.023 C 
ATOM      6  C   UNL     1      -8.714 -23.629  24.327  1.00  0.00     0.042 C 
BRANCH   6   7
ATOM      7  C   UNL     1      -9.004 -22.264  24.822  1.00  0.00     0.152 C 
ATOM      8  O   UNL     1      -8.083 -21.471  25.152  1.00  0.00    -0.295 OA
ATOM      9  C   UNL     1     -10.420 -21.785  24.857  1.00  0.00     0.093 C 
ENDBRANCH   6   7
ENDBRANCH   1   5
TORSDOF 4
ENDMDL
MODEL 4
REMARK VINA RESULT:    -2.535     17.032     17.923
REMARK INTER + INTRA:          -3.297
REMARK INTER:                  -2.796
REMARK INTRA:                  -0.501
REMARK UNBOUND:                -0.170
REMARK SMILES CCCCC=CC(C)=O
REMARK SMILES IDX 4 1 3 2 2 3 1 4 5 5 6 6 7 7 9 8 8 9
REMARK H PARENT
REMARK Flexibility Score: inf
ROOT
ATOM      1  C   UNL     1      -9.549 -22.111  21.665  1.00  0.00     0.027 C 
ENDROOT
BRANCH   1   2
ATOM      2  C   UNL     1      -9.996 -23.270  20.754  1.00  0.00     0.004 C 
BRANCH   2   3
ATOM      3  C   UNL     1      -9.245 -24.590  21.005  1.00  0.00    -0.003 C 
ATOM      4  C   UNL     1      -7.756 -24.387  21.279  1.00  0.00     0.004 C 
ENDBRANCH   2   3
ENDBRANCH   1   2
BRANCH   1   5
ATOM      5  C   UNL     1     -10.510 -21.861  22.797  1.00  0.00    -0.023 C 
ATOM      6  C   UNL     1     -10.244 -21.999  24.107  1.00  0.00     0.042 C 
BRANCH   6   7
ATOM      7  C   UNL     1      -8.939 -22.365  24.705  1.00  0.00     0.152 C 
ATOM      8  O   UNL     1      -8.130 -21.490  25.111  1.00  0.00    -0.295 OA
ATOM      9  C   UNL     1      -8.607 -23.808  24.905  1.00  0.00     0.093 C 
ENDBRANCH   6   7
ENDBRANCH   1   5
TORSDOF 4
ENDMDL
MODEL 5
REMARK VINA RESULT:    -2.514     16.916     17.776
REMARK INTER + INTRA:          -3.272
REMARK INTER:                  -2.755
REMARK INTRA:                  -0.517
REMARK UNBOUND:                -0.170
REMARK SMILES CCCCC=CC(C)=O
REMARK SMILES IDX 4 1 3 2 2 3 1 4 5 5 6 6 7 7 9 8 8 9
REMARK H PARENT
REMARK Flexibility Score: inf
ROOT
ATOM      1  C   UNL     1     -10.999 -21.803  24.339  1.00  0.00     0.027 C 
ENDROOT
BRANCH   1   2
ATOM      2  C   UNL     1     -11.125 -21.161  22.944  1.00  0.00     0.004 C 
BRANCH   2   3
ATOM      3  C   UNL     1     -11.099 -22.173  21.784  1.00  0.00    -0.003 C 
ATOM      4  C   UNL     1     -10.171 -21.750  20.645  1.00  0.00     0.004 C 
ENDBRANCH   2   3
ENDBRANCH   1   2
BRANCH   1   5
ATOM      5  C   UNL     1      -9.594 -21.746  24.878  1.00  0.00    -0.023 C 
ATOM      6  C   UNL     1      -8.696 -22.745  24.852  1.00  0.00     0.042 C 
BRANCH   6   7
ATOM      7  C   UNL     1      -8.882 -24.079  24.236  1.00  0.00     0.152 C 
ATOM      8  O   UNL     1      -9.546 -24.984  24.807  1.00  0.00    -0.295 OA
ATOM      9  C   UNL     1      -8.337 -24.334  22.868  1.00  0.00     0.093 C 
ENDBRANCH   6   7
ENDBRANCH   1   5
TORSDOF 4
ENDMDL
MODEL 6
REMARK VINA RESULT:    -2.512     16.694     17.218
REMARK INTER + INTRA:          -3.269
REMARK INTER:                  -2.770
REMARK INTRA:                  -0.499
REMARK UNBOUND:                -0.170
REMARK SMILES CCCCC=CC(C)=O
REMARK SMILES IDX 4 1 3 2 2 3 1 4 5 5 6 6 7 7 9 8 8 9
REMARK H PARENT
REMARK Flexibility Score: inf
ROOT
ATOM      1  C   UNL     1      -8.698 -23.658  22.812  1.00  0.00     0.027 C 
ENDROOT
BRANCH   1   2
ATOM      2  C   UNL     1      -8.649 -23.487  24.342  1.00  0.00     0.004 C 
BRANCH   2   3
ATOM      3  C   UNL     1      -8.982 -22.063  24.824  1.00  0.00    -0.003 C 
ATOM      4  C   UNL     1     -10.366 -21.958  25.462  1.00  0.00     0.004 C 
ENDBRANCH   2   3
ENDBRANCH   1   2
BRANCH   1   5
ATOM      5  C   UNL     1     -10.039 -24.143  22.326  1.00  0.00    -0.023 C 
ATOM      6  C   UNL     1     -10.968 -23.402  21.699  1.00  0.00     0.042 C 
BRANCH   6   7
ATOM      7  C   UNL     1     -10.839 -21.981  21.303  1.00  0.00     0.152 C 
ATOM      8  O   UNL     1     -11.096 -21.045  22.106  1.00  0.00    -0.295 OA
ATOM      9  C   UNL     1     -10.314 -21.646  19.944  1.00  0.00     0.093 C 
ENDBRANCH   6   7
ENDBRANCH   1   5
TORSDOF 4
ENDMDL
MODEL 7
REMARK VINA RESULT:    -2.478     26.037     26.770
REMARK INTER + INTRA:          -3.227
REMARK INTER:                  -2.923
REMARK INTRA:                  -0.304
REMARK UNBOUND:                -0.170
REMARK SMILES CCCCC=CC(C)=O
REMARK SMILES IDX 4 1 3 2 2 3 1 4 5 5 6 6 7 7 9 8 8 9
REMARK H PARENT
REMARK Flexibility Score: inf
ROOT
ATOM      1  C   UNL     1       7.117 -24.877  10.020  1.00  0.00     0.027 C 
ENDROOT
BRANCH   1   2
ATOM      2  C   UNL     1       8.192 -24.688  11.107  1.00  0.00     0.004 C 
BRANCH   2   3
ATOM      3  C   UNL     1       7.627 -24.298  12.486  1.00  0.00    -0.003 C 
ATOM      4  C   UNL     1       8.379 -23.134  13.131  1.00  0.00     0.004 C 
ENDBRANCH   2   3
ENDBRANCH   1   2
BRANCH   1   5
ATOM      5  C   UNL     1       5.959 -23.928  10.180  1.00  0.00    -0.023 C 
ATOM      6  C   UNL     1       5.377 -23.218   9.198  1.00  0.00     0.042 C 
BRANCH   6   7
ATOM      7  C   UNL     1       5.713 -23.271   7.757  1.00  0.00     0.152 C 
ATOM      8  O   UNL     1       5.057 -23.983   6.951  1.00  0.00    -0.295 OA
ATOM      9  C   UNL     1       6.805 -22.399   7.229  1.00  0.00     0.093 C 
ENDBRANCH   6   7
ENDBRANCH   1   5
TORSDOF 4
ENDMDL
MODEL 8
REMARK VINA RESULT:    -2.411     16.830     17.477
REMARK INTER + INTRA:          -3.144
REMARK INTER:                  -2.664
REMARK INTRA:                  -0.480
REMARK UNBOUND:                -0.170
REMARK SMILES CCCCC=CC(C)=O
REMARK SMILES IDX 4 1 3 2 2 3 1 4 5 5 6 6 7 7 9 8 8 9
REMARK H PARENT
REMARK Flexibility Score: inf
ROOT
ATOM      1  C   UNL     1      -9.721 -21.800  24.772  1.00  0.00     0.027 C 
ENDROOT
BRANCH   1   2
ATOM      2  C   UNL     1     -10.205 -22.557  26.022  1.00  0.00     0.004 C 
BRANCH   2   3
ATOM      3  C   UNL     1      -9.925 -24.071  25.986  1.00  0.00    -0.003 C 
ATOM      4  C   UNL     1      -8.711 -24.432  25.132  1.00  0.00     0.004 C 
ENDBRANCH   2   3
ENDBRANCH   1   2
BRANCH   1   5
ATOM      5  C   UNL     1     -10.839 -21.494  23.811  1.00  0.00    -0.023 C 
ATOM      6  C   UNL     1     -10.877 -21.825  22.509  1.00  0.00     0.042 C 
BRANCH   6   7
ATOM      7  C   UNL     1      -9.860 -22.610  21.772  1.00  0.00     0.152 C 
ATOM      8  O   UNL     1      -8.847 -22.064  21.260  1.00  0.00    -0.295 OA
ATOM      9  C   UNL     1      -9.996 -24.097  21.701  1.00  0.00     0.093 C 
ENDBRANCH   6   7
ENDBRANCH   1   5
TORSDOF 4
ENDMDL
MODEL 9
REMARK VINA RESULT:    -2.404     18.189     19.972
REMARK INTER + INTRA:          -3.136
REMARK INTER:                  -2.919
REMARK INTRA:                  -0.217
REMARK UNBOUND:                -0.170
REMARK SMILES CCCCC=CC(C)=O
REMARK SMILES IDX 4 1 3 2 2 3 1 4 5 5 6 6 7 7 9 8 8 9
REMARK H PARENT
REMARK Flexibility Score: inf
ROOT
ATOM      1  C   UNL     1     -11.098 -20.196   7.886  1.00  0.00     0.027 C 
ENDROOT
BRANCH   1   2
ATOM      2  C   UNL     1     -10.931 -19.046   6.875  1.00  0.00     0.004 C 
BRANCH   2   3
ATOM      3  C   UNL     1      -9.682 -18.177   7.114  1.00  0.00    -0.003 C 
ATOM      4  C   UNL     1      -8.915 -18.572   8.375  1.00  0.00     0.004 C 
ENDBRANCH   2   3
ENDBRANCH   1   2
BRANCH   1   5
ATOM      5  C   UNL     1     -10.783 -21.542   7.288  1.00  0.00    -0.023 C 
ATOM      6  C   UNL     1     -10.134 -22.547   7.900  1.00  0.00     0.042 C 
BRANCH   6   7
ATOM      7  C   UNL     1      -9.654 -22.559   9.301  1.00  0.00     0.152 C 
ATOM      8  O   UNL     1      -8.805 -21.726   9.716  1.00  0.00    -0.295 OA
ATOM      9  C   UNL     1     -10.247 -23.532  10.268  1.00  0.00     0.093 C 
ENDBRANCH   6   7
ENDBRANCH   1   5
TORSDOF 4
ENDMDL
