MODEL 1
REMARK VINA RESULT:    -4.528      0.000      0.000
REMARK INTER + INTRA:          -5.174
REMARK INTER:                  -4.925
REMARK INTRA:                  -0.249
REMARK UNBOUND:                -0.249
REMARK SMILES O=C([O-])c1ccccc1O
REMARK SMILES IDX 4 1 9 2 5 3 8 4 6 5 7 6 2 7 1 8 3 9 10 10
REMARK H PARENT 10 11
REMARK Flexibility Score: inf
ROOT
ATOM      1  C   UNL     1     129.864 121.015 139.770  1.00  0.00     0.039 A 
ATOM      2  C   UNL     1     130.574 120.940 138.543  1.00  0.00     0.124 A 
ATOM      3  C   UNL     1     130.324 121.892 140.769  1.00  0.00     0.014 A 
ATOM      4  C   UNL     1     131.675 121.780 138.328  1.00  0.00     0.047 A 
ATOM      5  C   UNL     1     131.435 122.707 140.546  1.00  0.00     0.001 A 
ATOM      6  C   UNL     1     132.104 122.659 139.323  1.00  0.00     0.004 A 
ENDROOT
BRANCH   1   7
ATOM      7  C   UNL     1     128.636 120.233 140.034  1.00  0.00     0.075 C 
ATOM      8  O   UNL     1     127.770 120.065 139.137  1.00  0.00    -0.545 OA
ATOM      9  O   UNL     1     128.393 119.729 141.307  1.00  0.00    -0.545 OA
ENDBRANCH   1   7
BRANCH   2  10
ATOM     10  O   UNL     1     130.246 120.031 137.535  1.00  0.00    -0.507 OA
ATOM     11  H   UNL     1     129.296 119.803 137.276  1.00  0.00     0.293 HD
ENDBRANCH   2  10
TORSDOF 2
ENDMDL
MODEL 2
REMARK VINA RESULT:    -4.383      2.253      4.036
REMARK INTER + INTRA:          -5.016
REMARK INTER:                  -4.779
REMARK INTRA:                  -0.238
REMARK UNBOUND:                -0.249
REMARK SMILES O=C([O-])c1ccccc1O
REMARK SMILES IDX 4 1 9 2 5 3 8 4 6 5 7 6 2 7 1 8 3 9 10 10
REMARK H PARENT 10 11
REMARK Flexibility Score: inf
ROOT
ATOM      1  C   UNL     1     130.596 121.785 139.283  1.00  0.00     0.039 A 
ATOM      2  C   UNL     1     130.056 121.863 140.594  1.00  0.00     0.124 A 
ATOM      3  C   UNL     1     129.744 121.443 138.216  1.00  0.00     0.014 A 
ATOM      4  C   UNL     1     128.684 121.662 140.790  1.00  0.00     0.047 A 
ATOM      5  C   UNL     1     128.382 121.225 138.433  1.00  0.00     0.001 A 
ATOM      6  C   UNL     1     127.851 121.344 139.717  1.00  0.00     0.004 A 
ENDROOT
BRANCH   1   7
ATOM      7  C   UNL     1     132.014 122.080 138.981  1.00  0.00     0.075 C 
ATOM      8  O   UNL     1     132.722 121.262 138.337  1.00  0.00    -0.545 OA
ATOM      9  O   UNL     1     132.602 123.243 139.467  1.00  0.00    -0.545 OA
ENDBRANCH   1   7
BRANCH   2  10
ATOM     10  O   UNL     1     130.844 122.102 141.722  1.00  0.00    -0.507 OA
ATOM     11  H   UNL     1     130.580 122.735 142.464  1.00  0.00     0.293 HD
ENDBRANCH   2  10
TORSDOF 2
ENDMDL
MODEL 3
REMARK VINA RESULT:    -4.360      1.170      2.412
REMARK INTER + INTRA:          -4.992
REMARK INTER:                  -4.780
REMARK INTRA:                  -0.212
REMARK UNBOUND:                -0.249
REMARK SMILES O=C([O-])c1ccccc1O
REMARK SMILES IDX 4 1 9 2 5 3 8 4 6 5 7 6 2 7 1 8 3 9 10 10
REMARK H PARENT 10 11
REMARK Flexibility Score: inf
ROOT
ATOM      1  C   UNL     1     130.298 120.882 139.677  1.00  0.00     0.039 A 
ATOM      2  C   UNL     1     130.665 121.896 140.600  1.00  0.00     0.124 A 
ATOM      3  C   UNL     1     130.936 120.841 138.423  1.00  0.00     0.014 A 
ATOM      4  C   UNL     1     131.692 122.791 140.273  1.00  0.00     0.047 A 
ATOM      5  C   UNL     1     131.943 121.755 138.106  1.00  0.00     0.001 A 
ATOM      6  C   UNL     1     132.328 122.722 139.033  1.00  0.00     0.004 A 
ENDROOT
BRANCH   1   7
ATOM      7  C   UNL     1     129.293 119.842 139.986  1.00  0.00     0.075 C 
ATOM      8  O   UNL     1     128.603 119.900 141.038  1.00  0.00    -0.545 OA
ATOM      9  O   UNL     1     129.148 118.743 139.146  1.00  0.00    -0.545 OA
ENDBRANCH   1   7
BRANCH   2  10
ATOM     10  O   UNL     1     130.019 122.071 141.826  1.00  0.00    -0.507 OA
ATOM     11  H   UNL     1     129.850 121.319 142.480  1.00  0.00     0.293 HD
ENDBRANCH   2  10
TORSDOF 2
ENDMDL
MODEL 4
REMARK VINA RESULT:    -4.183      1.860      3.433
REMARK INTER + INTRA:          -4.799
REMARK INTER:                  -4.562
REMARK INTRA:                  -0.237
REMARK UNBOUND:                -0.249
REMARK SMILES O=C([O-])c1ccccc1O
REMARK SMILES IDX 4 1 9 2 5 3 8 4 6 5 7 6 2 7 1 8 3 9 10 10
REMARK H PARENT 10 11
REMARK Flexibility Score: inf
ROOT
ATOM      1  C   UNL     1     130.537 121.720 139.480  1.00  0.00     0.039 A 
ATOM      2  C   UNL     1     129.806 120.707 138.806  1.00  0.00     0.124 A 
ATOM      3  C   UNL     1     129.958 122.345 140.600  1.00  0.00     0.014 A 
ATOM      4  C   UNL     1     128.558 120.308 139.301  1.00  0.00     0.047 A 
ATOM      5  C   UNL     1     128.703 121.950 141.068  1.00  0.00     0.001 A 
ATOM      6  C   UNL     1     128.008 120.925 140.426  1.00  0.00     0.004 A 
ENDROOT
BRANCH   1   7
ATOM      7  C   UNL     1     131.901 122.127 139.078  1.00  0.00     0.075 C 
ATOM      8  O   UNL     1     132.637 121.354 138.410  1.00  0.00    -0.545 OA
ATOM      9  O   UNL     1     132.413 123.351 139.494  1.00  0.00    -0.545 OA
ENDBRANCH   1   7
BRANCH   2  10
ATOM     10  O   UNL     1     130.262 120.101 137.633  1.00  0.00    -0.507 OA
ATOM     11  H   UNL     1     129.716 119.440 137.098  1.00  0.00     0.293 HD
ENDBRANCH   2  10
TORSDOF 2
ENDMDL
MODEL 5
REMARK VINA RESULT:    -4.126      1.357      2.378
REMARK INTER + INTRA:          -4.737
REMARK INTER:                  -4.486
REMARK INTRA:                  -0.251
REMARK UNBOUND:                -0.249
REMARK SMILES O=C([O-])c1ccccc1O
REMARK SMILES IDX 4 1 9 2 5 3 8 4 6 5 7 6 2 7 1 8 3 9 10 10
REMARK H PARENT 10 11
REMARK Flexibility Score: inf
ROOT
ATOM      1  C   UNL     1     129.660 121.244 138.987  1.00  0.00     0.039 A 
ATOM      2  C   UNL     1     129.816 122.268 139.958  1.00  0.00     0.124 A 
ATOM      3  C   UNL     1     130.761 120.898 138.181  1.00  0.00     0.014 A 
ATOM      4  C   UNL     1     131.069 122.868 140.136  1.00  0.00     0.047 A 
ATOM      5  C   UNL     1     131.998 121.522 138.358  1.00  0.00     0.001 A 
ATOM      6  C   UNL     1     132.154 122.498 139.341  1.00  0.00     0.004 A 
ENDROOT
BRANCH   1   7
ATOM      7  C   UNL     1     128.397 120.495 138.806  1.00  0.00     0.075 C 
ATOM      8  O   UNL     1     128.406 119.269 138.524  1.00  0.00    -0.545 OA
ATOM      9  O   UNL     1     127.178 121.160 138.879  1.00  0.00    -0.545 OA
ENDBRANCH   1   7
BRANCH   2  10
ATOM     10  O   UNL     1     128.755 122.739 140.734  1.00  0.00    -0.507 OA
ATOM     11  H   UNL     1     128.031 123.349 140.378  1.00  0.00     0.293 HD
ENDBRANCH   2  10
TORSDOF 2
ENDMDL
MODEL 6
REMARK VINA RESULT:    -3.863      2.258      3.312
REMARK INTER + INTRA:          -4.451
REMARK INTER:                  -4.198
REMARK INTRA:                  -0.253
REMARK UNBOUND:                -0.249
REMARK SMILES O=C([O-])c1ccccc1O
REMARK SMILES IDX 4 1 9 2 5 3 8 4 6 5 7 6 2 7 1 8 3 9 10 10
REMARK H PARENT 10 11
REMARK Flexibility Score: inf
ROOT
ATOM      1  C   UNL     1     130.160 118.961 139.337  1.00  0.00     0.039 A 
ATOM      2  C   UNL     1     128.771 119.101 139.080  1.00  0.00     0.124 A 
ATOM      3  C   UNL     1     131.035 119.982 138.920  1.00  0.00     0.014 A 
ATOM      4  C   UNL     1     128.293 120.272 138.477  1.00  0.00     0.047 A 
ATOM      5  C   UNL     1     130.543 121.133 138.301  1.00  0.00     0.001 A 
ATOM      6  C   UNL     1     129.173 121.283 138.089  1.00  0.00     0.004 A 
ENDROOT
BRANCH   1   7
ATOM      7  C   UNL     1     130.730 117.801 140.056  1.00  0.00     0.075 C 
ATOM      8  O   UNL     1     131.820 117.286 139.693  1.00  0.00    -0.545 OA
ATOM      9  O   UNL     1     130.029 117.222 141.108  1.00  0.00    -0.545 OA
ENDBRANCH   1   7
BRANCH   2  10
ATOM     10  O   UNL     1     127.845 118.098 139.373  1.00  0.00    -0.507 OA
ATOM     11  H   UNL     1     128.088 117.121 139.459  1.00  0.00     0.293 HD
ENDBRANCH   2  10
TORSDOF 2
ENDMDL
MODEL 7
REMARK VINA RESULT:    -3.845      2.225      3.372
REMARK INTER + INTRA:          -4.432
REMARK INTER:                  -4.192
REMARK INTRA:                  -0.239
REMARK UNBOUND:                -0.249
REMARK SMILES O=C([O-])c1ccccc1O
REMARK SMILES IDX 4 1 9 2 5 3 8 4 6 5 7 6 2 7 1 8 3 9 10 10
REMARK H PARENT 10 11
REMARK Flexibility Score: inf
ROOT
ATOM      1  C   UNL     1     129.543 120.028 139.664  1.00  0.00     0.039 A 
ATOM      2  C   UNL     1     130.680 119.265 139.290  1.00  0.00     0.124 A 
ATOM      3  C   UNL     1     128.590 119.450 140.525  1.00  0.00     0.014 A 
ATOM      4  C   UNL     1     130.862 117.985 139.828  1.00  0.00     0.047 A 
ATOM      5  C   UNL     1     128.778 118.164 141.035  1.00  0.00     0.001 A 
ATOM      6  C   UNL     1     129.917 117.437 140.696  1.00  0.00     0.004 A 
ENDROOT
BRANCH   1   7
ATOM      7  C   UNL     1     129.328 121.422 139.217  1.00  0.00     0.075 C 
ATOM      8  O   UNL     1     129.352 121.719 137.994  1.00  0.00    -0.545 OA
ATOM      9  O   UNL     1     129.165 122.436 140.153  1.00  0.00    -0.545 OA
ENDBRANCH   1   7
BRANCH   2  10
ATOM     10  O   UNL     1     131.624 119.722 138.368  1.00  0.00    -0.507 OA
ATOM     11  H   UNL     1     131.948 119.174 137.583  1.00  0.00     0.293 HD
ENDBRANCH   2  10
TORSDOF 2
ENDMDL
MODEL 8
REMARK VINA RESULT:    -3.811      2.037      2.635
REMARK INTER + INTRA:          -4.395
REMARK INTER:                  -4.146
REMARK INTRA:                  -0.248
REMARK UNBOUND:                -0.249
REMARK SMILES O=C([O-])c1ccccc1O
REMARK SMILES IDX 4 1 9 2 5 3 8 4 6 5 7 6 2 7 1 8 3 9 10 10
REMARK H PARENT 10 11
REMARK Flexibility Score: inf
ROOT
ATOM      1  C   UNL     1     129.967 119.460 139.793  1.00  0.00     0.039 A 
ATOM      2  C   UNL     1     130.739 120.358 139.010  1.00  0.00     0.124 A 
ATOM      3  C   UNL     1     128.915 119.973 140.576  1.00  0.00     0.014 A 
ATOM      4  C   UNL     1     130.403 121.718 138.983  1.00  0.00     0.047 A 
ATOM      5  C   UNL     1     128.607 121.335 140.553  1.00  0.00     0.001 A 
ATOM      6  C   UNL     1     129.344 122.205 139.750  1.00  0.00     0.004 A 
ENDROOT
BRANCH   1   7
ATOM      7  C   UNL     1     130.196 117.999 139.798  1.00  0.00     0.075 C 
ATOM      8  O   UNL     1     131.357 117.527 139.919  1.00  0.00    -0.545 OA
ATOM      9  O   UNL     1     129.132 117.127 139.599  1.00  0.00    -0.545 OA
ENDBRANCH   1   7
BRANCH   2  10
ATOM     10  O   UNL     1     131.858 119.952 138.280  1.00  0.00    -0.507 OA
ATOM     11  H   UNL     1     132.154 118.989 138.202  1.00  0.00     0.293 HD
ENDBRANCH   2  10
TORSDOF 2
ENDMDL
MODEL 9
REMARK VINA RESULT:    -3.755      2.147      4.149
REMARK INTER + INTRA:          -4.334
REMARK INTER:                  -4.082
REMARK INTRA:                  -0.251
REMARK UNBOUND:                -0.249
REMARK SMILES O=C([O-])c1ccccc1O
REMARK SMILES IDX 4 1 9 2 5 3 8 4 6 5 7 6 2 7 1 8 3 9 10 10
REMARK H PARENT 10 11
REMARK Flexibility Score: inf
ROOT
ATOM      1  C   UNL     1     130.011 119.528 139.542  1.00  0.00     0.039 A 
ATOM      2  C   UNL     1     128.842 119.519 140.349  1.00  0.00     0.124 A 
ATOM      3  C   UNL     1     130.869 118.414 139.576  1.00  0.00     0.014 A 
ATOM      4  C   UNL     1     128.536 118.383 141.110  1.00  0.00     0.047 A 
ATOM      5  C   UNL     1     130.559 117.299 140.357  1.00  0.00     0.001 A 
ATOM      6  C   UNL     1     129.389 117.279 141.115  1.00  0.00     0.004 A 
ENDROOT
BRANCH   1   7
ATOM      7  C   UNL     1     130.351 120.648 138.637  1.00  0.00     0.075 C 
ATOM      8  O   UNL     1     131.547 121.005 138.471  1.00  0.00    -0.545 OA
ATOM      9  O   UNL     1     129.341 121.366 138.008  1.00  0.00    -0.545 OA
ENDBRANCH   1   7
BRANCH   2  10
ATOM     10  O   UNL     1     127.986 120.617 140.449  1.00  0.00    -0.507 OA
ATOM     11  H   UNL     1     128.230 121.546 140.134  1.00  0.00     0.293 HD
ENDBRANCH   2  10
TORSDOF 2
ENDMDL
