MODEL 1
REMARK VINA RESULT:    -4.804      0.000      0.000
REMARK INTER + INTRA:          -4.944
REMARK INTER:                  -4.944
REMARK INTRA:                   0.000
REMARK UNBOUND:                 0.000
REMARK SMILES O=c1ccc2cc(O)ccc2o1
REMARK SMILES IDX 9 1 10 2 11 3 5 4 4 5 3 6 2 7 1 8 12 9 6 10 7 11 8 12
REMARK H PARENT 8 13
REMARK Flexibility Score: inf
ROOT
ATOM      1  C   UNL     1       6.513 -18.124   8.624  1.00  0.00     0.050 A 
ATOM      2  C   UNL     1       7.683 -17.361   8.706  1.00  0.00     0.052 A 
ATOM      3  C   UNL     1       8.879 -17.852   8.170  1.00  0.00     0.138 A 
ATOM      4  C   UNL     1       8.900 -19.120   7.548  1.00  0.00     0.021 A 
ATOM      5  C   UNL     1      10.110 -19.583   7.023  1.00  0.00     0.019 A 
ATOM      6  C   UNL     1      11.250 -18.788   7.127  1.00  0.00     0.094 A 
ATOM      7  C   UNL     1      11.154 -17.543   7.757  1.00  0.00     0.336 A 
ATOM      8  O   UNL     1      12.173 -16.811   7.860  1.00  0.00    -0.246 OA
ATOM      9  O   UNL     1       9.991 -17.125   8.248  1.00  0.00    -0.423 OA
ATOM     10  C   UNL     1       7.724 -19.880   7.470  1.00  0.00     0.058 A 
ATOM     11  C   UNL     1       6.530 -19.381   8.009  1.00  0.00     0.116 A 
ENDROOT
BRANCH  11  12
ATOM     12  O   UNL     1       5.354 -20.125   7.938  1.00  0.00    -0.508 OA
ATOM     13  H   UNL     1       5.039 -20.536   7.066  1.00  0.00     0.293 HD
ENDBRANCH  11  12
TORSDOF 1
ENDMDL
MODEL 2
REMARK VINA RESULT:    -4.747      0.921      4.775
REMARK INTER + INTRA:          -4.886
REMARK INTER:                  -4.886
REMARK INTRA:                   0.000
REMARK UNBOUND:                 0.000
REMARK SMILES O=c1ccc2cc(O)ccc2o1
REMARK SMILES IDX 9 1 10 2 11 3 5 4 4 5 3 6 2 7 1 8 12 9 6 10 7 11 8 12
REMARK H PARENT 8 13
REMARK Flexibility Score: inf
ROOT
ATOM      1  C   UNL     1      11.435 -19.008   7.088  1.00  0.00     0.050 A 
ATOM      2  C   UNL     1      10.249 -19.752   7.107  1.00  0.00     0.052 A 
ATOM      3  C   UNL     1       9.076 -19.187   7.621  1.00  0.00     0.138 A 
ATOM      4  C   UNL     1       9.094 -17.865   8.118  1.00  0.00     0.021 A 
ATOM      5  C   UNL     1       7.907 -17.329   8.625  1.00  0.00     0.019 A 
ATOM      6  C   UNL     1       6.749 -18.106   8.624  1.00  0.00     0.094 A 
ATOM      7  C   UNL     1       6.807 -19.408   8.114  1.00  0.00     0.336 A 
ATOM      8  O   UNL     1       5.772 -20.125   8.105  1.00  0.00    -0.246 OA
ATOM      9  O   UNL     1       7.950 -19.894   7.638  1.00  0.00    -0.423 OA
ATOM     10  C   UNL     1      10.286 -17.125   8.097  1.00  0.00     0.058 A 
ATOM     11  C   UNL     1      11.457 -17.698   7.581  1.00  0.00     0.116 A 
ENDROOT
BRANCH  11  12
ATOM     12  O   UNL     1      12.648 -16.975   7.553  1.00  0.00    -0.508 OA
ATOM     13  H   UNL     1      13.210 -16.916   6.711  1.00  0.00     0.293 HD
ENDBRANCH  11  12
TORSDOF 1
ENDMDL
MODEL 3
REMARK VINA RESULT:    -4.309      1.540      1.925
REMARK INTER + INTRA:          -4.435
REMARK INTER:                  -4.435
REMARK INTRA:                   0.000
REMARK UNBOUND:                 0.000
REMARK SMILES O=c1ccc2cc(O)ccc2o1
REMARK SMILES IDX 9 1 10 2 11 3 5 4 4 5 3 6 2 7 1 8 12 9 6 10 7 11 8 12
REMARK H PARENT 8 13
REMARK Flexibility Score: inf
ROOT
ATOM      1  C   UNL     1       7.870 -18.304   6.793  1.00  0.00     0.050 A 
ATOM      2  C   UNL     1       8.924 -17.414   6.556  1.00  0.00     0.052 A 
ATOM      3  C   UNL     1      10.075 -17.464   7.350  1.00  0.00     0.138 A 
ATOM      4  C   UNL     1      10.169 -18.415   8.390  1.00  0.00     0.021 A 
ATOM      5  C   UNL     1      11.331 -18.440   9.167  1.00  0.00     0.019 A 
ATOM      6  C   UNL     1      12.356 -17.534   8.894  1.00  0.00     0.094 A 
ATOM      7  C   UNL     1      12.193 -16.620   7.847  1.00  0.00     0.336 A 
ATOM      8  O   UNL     1      13.107 -15.794   7.586  1.00  0.00    -0.246 OA
ATOM      9  O   UNL     1      11.076 -16.617   7.124  1.00  0.00    -0.423 OA
ATOM     10  C   UNL     1       9.109 -19.304   8.623  1.00  0.00     0.058 A 
ATOM     11  C   UNL     1       7.959 -19.248   7.823  1.00  0.00     0.116 A 
ENDROOT
BRANCH  11  12
ATOM     12  O   UNL     1       6.899 -20.125   8.042  1.00  0.00    -0.508 OA
ATOM     13  H   UNL     1       5.953 -19.893   7.758  1.00  0.00     0.293 HD
ENDBRANCH  11  12
TORSDOF 1
ENDMDL
MODEL 4
REMARK VINA RESULT:    -4.258      1.656      4.769
REMARK INTER + INTRA:          -4.383
REMARK INTER:                  -4.383
REMARK INTRA:                   0.000
REMARK UNBOUND:                 0.000
REMARK SMILES O=c1ccc2cc(O)ccc2o1
REMARK SMILES IDX 9 1 10 2 11 3 5 4 4 5 3 6 2 7 1 8 12 9 6 10 7 11 8 12
REMARK H PARENT 8 13
REMARK Flexibility Score: inf
ROOT
ATOM      1  C   UNL     1      12.371 -17.698   8.973  1.00  0.00     0.050 A 
ATOM      2  C   UNL     1      11.303 -18.568   9.216  1.00  0.00     0.052 A 
ATOM      3  C   UNL     1      10.152 -18.504   8.422  1.00  0.00     0.138 A 
ATOM      4  C   UNL     1      10.074 -17.559   7.375  1.00  0.00     0.021 A 
ATOM      5  C   UNL     1       8.912 -17.518   6.600  1.00  0.00     0.019 A 
ATOM      6  C   UNL     1       7.872 -18.405   6.878  1.00  0.00     0.094 A 
ATOM      7  C   UNL     1       8.020 -19.315   7.931  1.00  0.00     0.336 A 
ATOM      8  O   UNL     1       7.092 -20.123   8.198  1.00  0.00    -0.246 OA
ATOM      9  O   UNL     1       9.137 -19.332   8.654  1.00  0.00    -0.423 OA
ATOM     10  C   UNL     1      11.148 -16.689   7.137  1.00  0.00     0.058 A 
ATOM     11  C   UNL     1      12.298 -16.759   7.937  1.00  0.00     0.116 A 
ENDROOT
BRANCH  11  12
ATOM     12  O   UNL     1      13.373 -15.902   7.712  1.00  0.00    -0.508 OA
ATOM     13  H   UNL     1      13.867 -15.895   6.826  1.00  0.00     0.293 HD
ENDBRANCH  11  12
TORSDOF 1
ENDMDL
MODEL 5
REMARK VINA RESULT:    -4.007      1.228      2.096
REMARK INTER + INTRA:          -4.124
REMARK INTER:                  -4.124
REMARK INTRA:                   0.000
REMARK UNBOUND:                 0.000
REMARK SMILES O=c1ccc2cc(O)ccc2o1
REMARK SMILES IDX 9 1 10 2 11 3 5 4 4 5 3 6 2 7 1 8 12 9 6 10 7 11 8 12
REMARK H PARENT 8 13
REMARK Flexibility Score: inf
ROOT
ATOM      1  C   UNL     1       6.373 -20.092   7.420  1.00  0.00     0.050 A 
ATOM      2  C   UNL     1       7.689 -20.125   6.948  1.00  0.00     0.052 A 
ATOM      3  C   UNL     1       8.604 -19.148   7.355  1.00  0.00     0.138 A 
ATOM      4  C   UNL     1       8.194 -18.130   8.244  1.00  0.00     0.021 A 
ATOM      5  C   UNL     1       9.131 -17.167   8.632  1.00  0.00     0.019 A 
ATOM      6  C   UNL     1      10.432 -17.240   8.137  1.00  0.00     0.094 A 
ATOM      7  C   UNL     1      10.767 -18.278   7.260  1.00  0.00     0.336 A 
ATOM      8  O   UNL     1      11.937 -18.360   6.802  1.00  0.00    -0.246 OA
ATOM      9  O   UNL     1       9.856 -19.180   6.906  1.00  0.00    -0.423 OA
ATOM     10  C   UNL     1       6.873 -18.102   8.714  1.00  0.00     0.058 A 
ATOM     11  C   UNL     1       5.961 -19.084   8.301  1.00  0.00     0.116 A 
ENDROOT
BRANCH  11  12
ATOM     12  O   UNL     1       4.646 -19.070   8.759  1.00  0.00    -0.508 OA
ATOM     13  H   UNL     1       4.105 -18.213   8.787  1.00  0.00     0.293 HD
ENDBRANCH  11  12
TORSDOF 1
ENDMDL
MODEL 6
REMARK VINA RESULT:    -3.973      1.339      4.416
REMARK INTER + INTRA:          -4.089
REMARK INTER:                  -4.089
REMARK INTRA:                   0.000
REMARK UNBOUND:                 0.000
REMARK SMILES O=c1ccc2cc(O)ccc2o1
REMARK SMILES IDX 9 1 10 2 11 3 5 4 4 5 3 6 2 7 1 8 12 9 6 10 7 11 8 12
REMARK H PARENT 8 13
REMARK Flexibility Score: inf
ROOT
ATOM      1  C   UNL     1      10.042 -17.401   8.338  1.00  0.00     0.050 A 
ATOM      2  C   UNL     1       8.761 -17.435   8.900  1.00  0.00     0.052 A 
ATOM      3  C   UNL     1       7.811 -18.345   8.423  1.00  0.00     0.138 A 
ATOM      4  C   UNL     1       8.150 -19.228   7.375  1.00  0.00     0.021 A 
ATOM      5  C   UNL     1       7.179 -20.125   6.920  1.00  0.00     0.019 A 
ATOM      6  C   UNL     1       5.916 -20.124   7.510  1.00  0.00     0.094 A 
ATOM      7  C   UNL     1       5.651 -19.220   8.545  1.00  0.00     0.336 A 
ATOM      8  O   UNL     1       4.516 -19.204   9.090  1.00  0.00    -0.246 OA
ATOM      9  O   UNL     1       6.593 -18.376   8.958  1.00  0.00    -0.423 OA
ATOM     10  C   UNL     1       9.435 -19.189   6.815  1.00  0.00     0.058 A 
ATOM     11  C   UNL     1      10.382 -18.274   7.298  1.00  0.00     0.116 A 
ENDROOT
BRANCH  11  12
ATOM     12  O   UNL     1      11.663 -18.224   6.753  1.00  0.00    -0.508 OA
ATOM     13  H   UNL     1      11.900 -17.566   6.018  1.00  0.00     0.293 HD
ENDBRANCH  11  12
TORSDOF 1
ENDMDL
MODEL 7
REMARK VINA RESULT:    -3.877      1.808      2.522
REMARK INTER + INTRA:          -3.990
REMARK INTER:                  -3.990
REMARK INTRA:                   0.000
REMARK UNBOUND:                 0.000
REMARK SMILES O=c1ccc2cc(O)ccc2o1
REMARK SMILES IDX 9 1 10 2 11 3 5 4 4 5 3 6 2 7 1 8 12 9 6 10 7 11 8 12
REMARK H PARENT 8 13
REMARK Flexibility Score: inf
ROOT
ATOM      1  C   UNL     1       8.929 -20.125   8.373  1.00  0.00     0.050 A 
ATOM      2  C   UNL     1      10.165 -19.826   8.957  1.00  0.00     0.052 A 
ATOM      3  C   UNL     1      10.851 -18.664   8.587  1.00  0.00     0.138 A 
ATOM      4  C   UNL     1      10.292 -17.795   7.623  1.00  0.00     0.021 A 
ATOM      5  C   UNL     1      11.001 -16.643   7.274  1.00  0.00     0.019 A 
ATOM      6  C   UNL     1      12.229 -16.384   7.882  1.00  0.00     0.094 A 
ATOM      7  C   UNL     1      12.722 -17.290   8.829  1.00  0.00     0.336 A 
ATOM      8  O   UNL     1      13.829 -17.074   9.388  1.00  0.00    -0.246 OA
ATOM      9  O   UNL     1      12.026 -18.380   9.142  1.00  0.00    -0.423 OA
ATOM     10  C   UNL     1       9.053 -18.101   7.041  1.00  0.00     0.058 A 
ATOM     11  C   UNL     1       8.371 -19.268   7.417  1.00  0.00     0.116 A 
ENDROOT
BRANCH  11  12
ATOM     12  O   UNL     1       7.139 -19.584   6.848  1.00  0.00    -0.508 OA
ATOM     13  H   UNL     1       6.988 -20.466   6.372  1.00  0.00     0.293 HD
ENDBRANCH  11  12
TORSDOF 1
ENDMDL
MODEL 8
REMARK VINA RESULT:    -3.819      1.721      4.714
REMARK INTER + INTRA:          -3.930
REMARK INTER:                  -3.930
REMARK INTRA:                   0.000
REMARK UNBOUND:                 0.000
REMARK SMILES O=c1ccc2cc(O)ccc2o1
REMARK SMILES IDX 9 1 10 2 11 3 5 4 4 5 3 6 2 7 1 8 12 9 6 10 7 11 8 12
REMARK H PARENT 8 13
REMARK Flexibility Score: inf
ROOT
ATOM      1  C   UNL     1      11.986 -16.343   7.593  1.00  0.00     0.050 A 
ATOM      2  C   UNL     1      10.717 -16.699   7.123  1.00  0.00     0.052 A 
ATOM      3  C   UNL     1      10.091 -17.856   7.602  1.00  0.00     0.138 A 
ATOM      4  C   UNL     1      10.745 -18.660   8.562  1.00  0.00     0.021 A 
ATOM      5  C   UNL     1      10.094 -19.809   9.021  1.00  0.00     0.019 A 
ATOM      6  C   UNL     1       8.830 -20.125   8.525  1.00  0.00     0.094 A 
ATOM      7  C   UNL     1       8.244 -19.280   7.575  1.00  0.00     0.336 A 
ATOM      8  O   UNL     1       7.103 -19.549   7.115  1.00  0.00    -0.246 OA
ATOM      9  O   UNL     1       8.885 -18.193   7.154  1.00  0.00    -0.423 OA
ATOM     10  C   UNL     1      12.016 -18.298   9.029  1.00  0.00     0.058 A 
ATOM     11  C   UNL     1      12.637 -17.138   8.544  1.00  0.00     0.116 A 
ENDROOT
BRANCH  11  12
ATOM     12  O   UNL     1      13.900 -16.765   8.999  1.00  0.00    -0.508 OA
ATOM     13  H   UNL     1      14.598 -17.457   9.248  1.00  0.00     0.293 HD
ENDBRANCH  11  12
TORSDOF 1
ENDMDL
MODEL 9
REMARK VINA RESULT:    -2.726      2.069      2.544
REMARK INTER + INTRA:          -2.806
REMARK INTER:                  -2.806
REMARK INTRA:                   0.000
REMARK UNBOUND:                 0.000
REMARK SMILES O=c1ccc2cc(O)ccc2o1
REMARK SMILES IDX 9 1 10 2 11 3 5 4 4 5 3 6 2 7 1 8 12 9 6 10 7 11 8 12
REMARK H PARENT 8 13
REMARK Flexibility Score: inf
ROOT
ATOM      1  C   UNL     1       6.144 -20.125  10.156  1.00  0.00     0.050 A 
ATOM      2  C   UNL     1       7.513 -20.125   9.869  1.00  0.00     0.052 A 
ATOM      3  C   UNL     1       7.955 -19.889   8.563  1.00  0.00     0.138 A 
ATOM      4  C   UNL     1       7.014 -19.649   7.537  1.00  0.00     0.021 A 
ATOM      5  C   UNL     1       7.486 -19.417   6.242  1.00  0.00     0.019 A 
ATOM      6  C   UNL     1       8.860 -19.426   6.002  1.00  0.00     0.094 A 
ATOM      7  C   UNL     1       9.733 -19.670   7.068  1.00  0.00     0.336 A 
ATOM      8  O   UNL     1      10.977 -19.682   6.871  1.00  0.00    -0.246 OA
ATOM      9  O   UNL     1       9.257 -19.889   8.291  1.00  0.00    -0.423 OA
ATOM     10  C   UNL     1       5.643 -19.651   7.830  1.00  0.00     0.058 A 
ATOM     11  C   UNL     1       5.208 -19.889   9.142  1.00  0.00     0.116 A 
ENDROOT
BRANCH  11  12
ATOM     12  O   UNL     1       3.849 -19.893   9.449  1.00  0.00    -0.508 OA
ATOM     13  H   UNL     1       3.362 -19.042   9.707  1.00  0.00     0.293 HD
ENDBRANCH  11  12
TORSDOF 1
ENDMDL
