MODEL 1
REMARK VINA RESULT:    -2.749      0.000      0.000
REMARK INTER + INTRA:          -2.749
REMARK INTER:                  -2.749
REMARK INTRA:                   0.000
REMARK UNBOUND:                 0.000
REMARK SMILES O=C1CCCCC1
REMARK SMILES IDX 5 1 4 2 3 3 2 4 1 5 7 6 6 7
REMARK H PARENT
REMARK Flexibility Score: inf
ROOT
ATOM      1  C   UNL     1       5.727  24.807  17.782  1.00  0.00     0.001 C 
ATOM      2  C   UNL     1       4.774  25.114  16.616  1.00  0.00     0.008 C 
ATOM      3  C   UNL     1       4.654  23.920  15.661  1.00  0.00     0.075 C 
ATOM      4  C   UNL     1       6.018  23.431  15.262  1.00  0.00     0.132 C 
ATOM      5  O   UNL     1       6.252  23.134  14.100  1.00  0.00    -0.300 OA
ATOM      6  C   UNL     1       7.062  23.219  16.324  1.00  0.00     0.075 C 
ATOM      7  C   UNL     1       7.122  24.429  17.263  1.00  0.00     0.008 C 
ENDROOT
TORSDOF 0
ENDMDL
MODEL 2
REMARK VINA RESULT:    -2.671     13.773     14.497
REMARK INTER + INTRA:          -2.671
REMARK INTER:                  -2.671
REMARK INTRA:                   0.000
REMARK UNBOUND:                 0.000
REMARK SMILES O=C1CCCCC1
REMARK SMILES IDX 5 1 4 2 3 3 2 4 1 5 7 6 6 7
REMARK H PARENT
REMARK Flexibility Score: inf
ROOT
ATOM      1  C   UNL     1      -9.356  22.536  14.492  1.00  0.00     0.001 C 
ATOM      2  C   UNL     1      -8.032  23.272  14.240  1.00  0.00     0.008 C 
ATOM      3  C   UNL     1      -7.406  22.858  12.903  1.00  0.00     0.075 C 
ATOM      4  C   UNL     1      -7.335  21.360  12.800  1.00  0.00     0.132 C 
ATOM      5  O   UNL     1      -6.331  20.817  12.365  1.00  0.00    -0.300 OA
ATOM      6  C   UNL     1      -8.549  20.542  13.147  1.00  0.00     0.075 C 
ATOM      7  C   UNL     1      -9.148  21.013  14.478  1.00  0.00     0.008 C 
ENDROOT
TORSDOF 0
ENDMDL
MODEL 3
REMARK VINA RESULT:    -2.657     14.113     15.419
REMARK INTER + INTRA:          -2.657
REMARK INTER:                  -2.657
REMARK INTRA:                   0.000
REMARK UNBOUND:                 0.000
REMARK SMILES O=C1CCCCC1
REMARK SMILES IDX 5 1 4 2 3 3 2 4 1 5 7 6 6 7
REMARK H PARENT
REMARK Flexibility Score: inf
ROOT
ATOM      1  C   UNL     1     -10.223  21.255  11.674  1.00  0.00     0.001 C 
ATOM      2  C   UNL     1      -9.690  20.167  12.618  1.00  0.00     0.008 C 
ATOM      3  C   UNL     1      -8.439  20.639  13.368  1.00  0.00     0.075 C 
ATOM      4  C   UNL     1      -7.431  21.200  12.403  1.00  0.00     0.132 C 
ATOM      5  O   UNL     1      -6.248  20.922  12.516  1.00  0.00    -0.300 OA
ATOM      6  C   UNL     1      -7.884  22.182  11.358  1.00  0.00     0.075 C 
ATOM      7  C   UNL     1      -9.149  21.672  10.658  1.00  0.00     0.008 C 
ENDROOT
TORSDOF 0
ENDMDL
MODEL 4
REMARK VINA RESULT:    -2.649     13.771     14.979
REMARK INTER + INTRA:          -2.649
REMARK INTER:                  -2.649
REMARK INTRA:                   0.000
REMARK UNBOUND:                 0.000
REMARK SMILES O=C1CCCCC1
REMARK SMILES IDX 5 1 4 2 3 3 2 4 1 5 7 6 6 7
REMARK H PARENT
REMARK Flexibility Score: inf
ROOT
ATOM      1  C   UNL     1      -7.785  22.630  10.231  1.00  0.00     0.001 C 
ATOM      2  C   UNL     1      -9.062  21.809  10.472  1.00  0.00     0.008 C 
ATOM      3  C   UNL     1      -9.323  21.605  11.969  1.00  0.00     0.075 C 
ATOM      4  C   UNL     1      -8.089  21.084  12.650  1.00  0.00     0.132 C 
ATOM      5  O   UNL     1      -8.170  20.185  13.472  1.00  0.00    -0.300 OA
ATOM      6  C   UNL     1      -6.766  21.747  12.379  1.00  0.00     0.075 C 
ATOM      7  C   UNL     1      -6.567  21.948  10.872  1.00  0.00     0.008 C 
ENDROOT
TORSDOF 0
ENDMDL
MODEL 5
REMARK VINA RESULT:    -2.591     10.212     11.335
REMARK INTER + INTRA:          -2.591
REMARK INTER:                  -2.591
REMARK INTRA:                   0.000
REMARK UNBOUND:                 0.000
REMARK SMILES O=C1CCCCC1
REMARK SMILES IDX 5 1 4 2 3 3 2 4 1 5 7 6 6 7
REMARK H PARENT
REMARK Flexibility Score: inf
ROOT
ATOM      1  C   UNL     1       5.637  24.598   5.845  1.00  0.00     0.001 C 
ATOM      2  C   UNL     1       6.444  23.579   5.028  1.00  0.00     0.008 C 
ATOM      3  C   UNL     1       5.580  22.912   3.951  1.00  0.00     0.075 C 
ATOM      4  C   UNL     1       4.307  22.386   4.554  1.00  0.00     0.132 C 
ATOM      5  O   UNL     1       3.887  21.283   4.242  1.00  0.00    -0.300 OA
ATOM      6  C   UNL     1       3.508  23.271   5.471  1.00  0.00     0.075 C 
ATOM      7  C   UNL     1       4.423  23.930   6.509  1.00  0.00     0.008 C 
ENDROOT
TORSDOF 0
ENDMDL
MODEL 6
REMARK VINA RESULT:    -2.541     13.314     14.485
REMARK INTER + INTRA:          -2.541
REMARK INTER:                  -2.541
REMARK INTRA:                   0.000
REMARK UNBOUND:                 0.000
REMARK SMILES O=C1CCCCC1
REMARK SMILES IDX 5 1 4 2 3 3 2 4 1 5 7 6 6 7
REMARK H PARENT
REMARK Flexibility Score: inf
ROOT
ATOM      1  C   UNL     1      -9.136  21.471  11.285  1.00  0.00     0.001 C 
ATOM      2  C   UNL     1      -8.605  22.428  10.208  1.00  0.00     0.008 C 
ATOM      3  C   UNL     1      -7.113  22.198   9.939  1.00  0.00     0.075 C 
ATOM      4  C   UNL     1      -6.343  22.196  11.230  1.00  0.00     0.132 C 
ATOM      5  O   UNL     1      -5.276  22.784  11.313  1.00  0.00    -0.300 OA
ATOM      6  C   UNL     1      -6.854  21.384  12.389  1.00  0.00     0.075 C 
ATOM      7  C   UNL     1      -8.352  21.634  12.597  1.00  0.00     0.008 C 
ENDROOT
TORSDOF 0
ENDMDL
MODEL 7
REMARK VINA RESULT:    -2.537     10.055     11.202
REMARK INTER + INTRA:          -2.537
REMARK INTER:                  -2.537
REMARK INTRA:                   0.000
REMARK UNBOUND:                 0.000
REMARK SMILES O=C1CCCCC1
REMARK SMILES IDX 5 1 4 2 3 3 2 4 1 5 7 6 6 7
REMARK H PARENT
REMARK Flexibility Score: inf
ROOT
ATOM      1  C   UNL     1       5.147  22.601   4.249  1.00  0.00     0.001 C 
ATOM      2  C   UNL     1       6.182  23.652   4.677  1.00  0.00     0.008 C 
ATOM      3  C   UNL     1       5.933  24.133   6.111  1.00  0.00     0.075 C 
ATOM      4  C   UNL     1       4.496  24.541   6.284  1.00  0.00     0.132 C 
ATOM      5  O   UNL     1       4.214  25.562   6.893  1.00  0.00    -0.300 OA
ATOM      6  C   UNL     1       3.409  23.631   5.782  1.00  0.00     0.075 C 
ATOM      7  C   UNL     1       3.721  23.162   4.356  1.00  0.00     0.008 C 
ENDROOT
TORSDOF 0
ENDMDL
MODEL 8
REMARK VINA RESULT:    -2.530     10.492     11.342
REMARK INTER + INTRA:          -2.530
REMARK INTER:                  -2.530
REMARK INTRA:                   0.000
REMARK UNBOUND:                 0.000
REMARK SMILES O=C1CCCCC1
REMARK SMILES IDX 5 1 4 2 3 3 2 4 1 5 7 6 6 7
REMARK H PARENT
REMARK Flexibility Score: inf
ROOT
ATOM      1  C   UNL     1       4.330  22.430   4.019  1.00  0.00     0.001 C 
ATOM      2  C   UNL     1       3.190  22.484   5.047  1.00  0.00     0.008 C 
ATOM      3  C   UNL     1       2.881  23.926   5.466  1.00  0.00     0.075 C 
ATOM      4  C   UNL     1       4.142  24.637   5.870  1.00  0.00     0.132 C 
ATOM      5  O   UNL     1       4.159  25.347   6.863  1.00  0.00    -0.300 OA
ATOM      6  C   UNL     1       5.355  24.539   4.985  1.00  0.00     0.075 C 
ATOM      7  C   UNL     1       5.604  23.082   4.578  1.00  0.00     0.008 C 
ENDROOT
TORSDOF 0
ENDMDL
MODEL 9
REMARK VINA RESULT:    -2.439     20.676     21.732
REMARK INTER + INTRA:          -2.439
REMARK INTER:                  -2.439
REMARK INTRA:                   0.000
REMARK UNBOUND:                 0.000
REMARK SMILES O=C1CCCCC1
REMARK SMILES IDX 5 1 4 2 3 3 2 4 1 5 7 6 6 7
REMARK H PARENT
REMARK Flexibility Score: inf
ROOT
ATOM      1  C   UNL     1     -11.184  39.223  16.531  1.00  0.00     0.001 C 
ATOM      2  C   UNL     1     -10.233  38.985  15.349  1.00  0.00     0.008 C 
ATOM      3  C   UNL     1      -8.914  38.352  15.810  1.00  0.00     0.075 C 
ATOM      4  C   UNL     1      -8.331  39.132  16.955  1.00  0.00     0.132 C 
ATOM      5  O   UNL     1      -7.135  39.380  16.988  1.00  0.00    -0.300 OA
ATOM      6  C   UNL     1      -9.218  39.522  18.105  1.00  0.00     0.075 C 
ATOM      7  C   UNL     1     -10.529  40.125  17.589  1.00  0.00     0.008 C 
ENDROOT
TORSDOF 0
ENDMDL
