MODEL 1
REMARK VINA RESULT:    -4.783      0.000      0.000
REMARK INTER + INTRA:          -7.300
REMARK INTER:                  -7.019
REMARK INTRA:                  -0.280
REMARK UNBOUND:                -0.280
REMARK SMILES O=C([O-])CCCCCCCC(=O)[O-]
REMARK SMILES IDX 7 1 6 2 5 3 4 4 2 5 1 6 3 7 8 8 9 9 10 10 11 11 12 12 13 13
REMARK H PARENT
REMARK Flexibility Score: inf
ROOT
ATOM      1  C   UNL     1       5.866  41.753  45.403  1.00  0.00     0.000 C 
ENDROOT
BRANCH   1   2
ATOM      2  C   UNL     1       5.552  42.877  44.400  1.00  0.00     0.000 C 
BRANCH   2   3
ATOM      3  C   UNL     1       6.696  43.111  43.400  1.00  0.00     0.006 C 
BRANCH   3   4
ATOM      4  C   UNL     1       7.166  44.572  43.373  1.00  0.00     0.053 C 
BRANCH   4   5
ATOM      5  C   UNL     1       7.426  45.011  41.967  1.00  0.00     0.041 C 
ATOM      6  O   UNL     1       7.245  46.212  41.636  1.00  0.00    -0.550 OA
ATOM      7  O   UNL     1       7.819  44.084  41.011  1.00  0.00    -0.550 OA
ENDBRANCH   4   5
ENDBRANCH   3   4
ENDBRANCH   2   3
ENDBRANCH   1   2
BRANCH   1   8
ATOM      8  C   UNL     1       5.454  42.112  46.840  1.00  0.00     0.000 C 
BRANCH   8   9
ATOM      9  C   UNL     1       5.621  40.936  47.814  1.00  0.00     0.006 C 
BRANCH   9  10
ATOM     10  C   UNL     1       6.759  41.203  48.804  1.00  0.00     0.053 C 
BRANCH  10  11
ATOM     11  C   UNL     1       7.979  40.426  48.422  1.00  0.00     0.041 C 
ATOM     12  O   UNL     1       7.942  39.626  47.451  1.00  0.00    -0.550 OA
ATOM     13  O   UNL     1       9.143  40.548  49.170  1.00  0.00    -0.550 OA
ENDBRANCH  10  11
ENDBRANCH   9  10
ENDBRANCH   8   9
ENDBRANCH   1   8
TORSDOF 8
ENDMDL
MODEL 2
REMARK VINA RESULT:    -4.749      1.630      7.381
REMARK INTER + INTRA:          -7.250
REMARK INTER:                  -7.070
REMARK INTRA:                  -0.180
REMARK UNBOUND:                -0.280
REMARK SMILES O=C([O-])CCCCCCCC(=O)[O-]
REMARK SMILES IDX 7 1 6 2 5 3 4 4 2 5 1 6 3 7 8 8 9 9 10 10 11 11 12 12 13 13
REMARK H PARENT
REMARK Flexibility Score: inf
ROOT
ATOM      1  C   UNL     1       6.368  42.863  43.383  1.00  0.00     0.000 C 
ENDROOT
BRANCH   1   2
ATOM      2  C   UNL     1       5.352  42.800  44.535  1.00  0.00     0.000 C 
BRANCH   2   3
ATOM      3  C   UNL     1       5.857  41.964  45.722  1.00  0.00     0.006 C 
BRANCH   3   4
ATOM      4  C   UNL     1       4.960  42.094  46.960  1.00  0.00     0.053 C 
BRANCH   4   5
ATOM      5  C   UNL     1       5.693  41.649  48.186  1.00  0.00     0.041 C 
ATOM      6  O   UNL     1       6.496  40.682  48.126  1.00  0.00    -0.550 OA
ATOM      7  O   UNL     1       5.452  42.270  49.404  1.00  0.00    -0.550 OA
ENDBRANCH   4   5
ENDBRANCH   3   4
ENDBRANCH   2   3
ENDBRANCH   1   2
BRANCH   1   8
ATOM      8  C   UNL     1       7.027  44.246  43.252  1.00  0.00     0.000 C 
BRANCH   8   9
ATOM      9  C   UNL     1       7.632  44.484  41.860  1.00  0.00     0.006 C 
BRANCH   9  10
ATOM     10  C   UNL     1       8.488  45.754  41.845  1.00  0.00     0.053 C 
BRANCH  10  11
ATOM     11  C   UNL     1       7.750  46.875  41.186  1.00  0.00     0.041 C 
ATOM     12  O   UNL     1       6.974  47.605  41.858  1.00  0.00    -0.550 OA
ATOM     13  O   UNL     1       7.880  47.085  39.818  1.00  0.00    -0.550 OA
ENDBRANCH  10  11
ENDBRANCH   9  10
ENDBRANCH   8   9
ENDBRANCH   1   8
TORSDOF 8
ENDMDL
MODEL 3
REMARK VINA RESULT:    -4.729      9.720     10.874
REMARK INTER + INTRA:          -7.221
REMARK INTER:                  -6.550
REMARK INTRA:                  -0.672
REMARK UNBOUND:                -0.280
REMARK SMILES O=C([O-])CCCCCCCC(=O)[O-]
REMARK SMILES IDX 7 1 6 2 5 3 4 4 2 5 1 6 3 7 8 8 9 9 10 10 11 11 12 12 13 13
REMARK H PARENT
REMARK Flexibility Score: inf
ROOT
ATOM      1  C   UNL     1       9.825  34.275  44.796  1.00  0.00     0.000 C 
ENDROOT
BRANCH   1   2
ATOM      2  C   UNL     1      10.317  34.635  43.383  1.00  0.00     0.000 C 
BRANCH   2   3
ATOM      3  C   UNL     1      10.666  33.395  42.546  1.00  0.00     0.006 C 
BRANCH   3   4
ATOM      4  C   UNL     1      10.066  33.448  41.134  1.00  0.00     0.053 C 
BRANCH   4   5
ATOM      5  C   UNL     1       8.731  32.774  41.109  1.00  0.00     0.041 C 
ATOM      6  O   UNL     1       8.655  31.518  41.125  1.00  0.00    -0.550 OA
ATOM      7  O   UNL     1       7.571  33.533  41.019  1.00  0.00    -0.550 OA
ENDBRANCH   4   5
ENDBRANCH   3   4
ENDBRANCH   2   3
ENDBRANCH   1   2
BRANCH   1   8
ATOM      8  C   UNL     1       9.357  32.815  44.903  1.00  0.00     0.000 C 
BRANCH   8   9
ATOM      9  C   UNL     1       7.904  32.694  45.390  1.00  0.00     0.006 C 
BRANCH   9  10
ATOM     10  C   UNL     1       7.014  32.076  44.307  1.00  0.00     0.053 C 
BRANCH  10  11
ATOM     11  C   UNL     1       6.688  30.656  44.646  1.00  0.00     0.041 C 
ATOM     12  O   UNL     1       6.140  30.377  45.745  1.00  0.00    -0.550 OA
ATOM     13  O   UNL     1       7.034  29.635  43.770  1.00  0.00    -0.550 OA
ENDBRANCH  10  11
ENDBRANCH   9  10
ENDBRANCH   8   9
ENDBRANCH   1   8
TORSDOF 8
ENDMDL
MODEL 4
REMARK VINA RESULT:    -4.663      1.358      1.934
REMARK INTER + INTRA:          -7.123
REMARK INTER:                  -6.854
REMARK INTRA:                  -0.269
REMARK UNBOUND:                -0.280
REMARK SMILES O=C([O-])CCCCCCCC(=O)[O-]
REMARK SMILES IDX 7 1 6 2 5 3 4 4 2 5 1 6 3 7 8 8 9 9 10 10 11 11 12 12 13 13
REMARK H PARENT
REMARK Flexibility Score: inf
ROOT
ATOM      1  C   UNL     1       5.618  42.722  44.217  1.00  0.00     0.000 C 
ENDROOT
BRANCH   1   2
ATOM      2  C   UNL     1       6.466  43.961  43.883  1.00  0.00     0.000 C 
BRANCH   2   3
ATOM      3  C   UNL     1       7.636  43.638  42.940  1.00  0.00     0.006 C 
BRANCH   3   4
ATOM      4  C   UNL     1       7.512  44.346  41.584  1.00  0.00     0.053 C 
BRANCH   4   5
ATOM      5  C   UNL     1       7.943  45.774  41.699  1.00  0.00     0.041 C 
ATOM      6  O   UNL     1       7.084  46.694  41.722  1.00  0.00    -0.550 OA
ATOM      7  O   UNL     1       9.294  46.092  41.731  1.00  0.00    -0.550 OA
ENDBRANCH   4   5
ENDBRANCH   3   4
ENDBRANCH   2   3
ENDBRANCH   1   2
BRANCH   1   8
ATOM      8  C   UNL     1       5.999  42.092  45.568  1.00  0.00     0.000 C 
BRANCH   8   9
ATOM      9  C   UNL     1       4.813  42.024  46.543  1.00  0.00     0.006 C 
BRANCH   9  10
ATOM     10  C   UNL     1       5.292  42.122  47.994  1.00  0.00     0.053 C 
BRANCH  10  11
ATOM     11  C   UNL     1       6.141  40.942  48.346  1.00  0.00     0.041 C 
ATOM     12  O   UNL     1       7.264  41.109  48.890  1.00  0.00    -0.550 OA
ATOM     13  O   UNL     1       5.714  39.658  48.029  1.00  0.00    -0.550 OA
ENDBRANCH  10  11
ENDBRANCH   9  10
ENDBRANCH   8   9
ENDBRANCH   1   8
TORSDOF 8
ENDMDL
MODEL 5
REMARK VINA RESULT:    -4.648      1.855      2.906
REMARK INTER + INTRA:          -7.103
REMARK INTER:                  -6.839
REMARK INTRA:                  -0.264
REMARK UNBOUND:                -0.280
REMARK SMILES O=C([O-])CCCCCCCC(=O)[O-]
REMARK SMILES IDX 7 1 6 2 5 3 4 4 2 5 1 6 3 7 8 8 9 9 10 10 11 11 12 12 13 13
REMARK H PARENT
REMARK Flexibility Score: inf
ROOT
ATOM      1  C   UNL     1       6.584  43.047  43.499  1.00  0.00     0.000 C 
ENDROOT
BRANCH   1   2
ATOM      2  C   UNL     1       6.986  44.520  43.689  1.00  0.00     0.000 C 
BRANCH   2   3
ATOM      3  C   UNL     1       7.467  45.174  42.384  1.00  0.00     0.006 C 
BRANCH   3   4
ATOM      4  C   UNL     1       7.894  44.143  41.331  1.00  0.00     0.053 C 
BRANCH   4   5
ATOM      5  C   UNL     1       9.342  44.312  40.993  1.00  0.00     0.041 C 
ATOM      6  O   UNL     1       9.983  43.365  40.465  1.00  0.00    -0.550 OA
ATOM      7  O   UNL     1       9.995  45.496  41.305  1.00  0.00    -0.550 OA
ENDBRANCH   4   5
ENDBRANCH   3   4
ENDBRANCH   2   3
ENDBRANCH   1   2
BRANCH   1   8
ATOM      8  C   UNL     1       5.414  42.632  44.405  1.00  0.00     0.000 C 
BRANCH   8   9
ATOM      9  C   UNL     1       5.883  42.038  45.742  1.00  0.00     0.006 C 
BRANCH   9  10
ATOM     10  C   UNL     1       4.817  42.220  46.826  1.00  0.00     0.053 C 
BRANCH  10  11
ATOM     11  C   UNL     1       5.337  41.769  48.154  1.00  0.00     0.041 C 
ATOM     12  O   UNL     1       5.319  42.551  49.141  1.00  0.00    -0.550 OA
ATOM     13  O   UNL     1       5.888  40.501  48.290  1.00  0.00    -0.550 OA
ENDBRANCH  10  11
ENDBRANCH   9  10
ENDBRANCH   8   9
ENDBRANCH   1   8
TORSDOF 8
ENDMDL
MODEL 6
REMARK VINA RESULT:    -4.642      9.786     12.062
REMARK INTER + INTRA:          -7.093
REMARK INTER:                  -6.380
REMARK INTRA:                  -0.713
REMARK UNBOUND:                -0.280
REMARK SMILES O=C([O-])CCCCCCCC(=O)[O-]
REMARK SMILES IDX 7 1 6 2 5 3 4 4 2 5 1 6 3 7 8 8 9 9 10 10 11 11 12 12 13 13
REMARK H PARENT
REMARK Flexibility Score: inf
ROOT
ATOM      1  C   UNL     1       9.434  33.846  45.038  1.00  0.00     0.000 C 
ENDROOT
BRANCH   1   2
ATOM      2  C   UNL     1       8.970  32.386  44.901  1.00  0.00     0.000 C 
BRANCH   2   3
ATOM      3  C   UNL     1       7.471  32.271  44.582  1.00  0.00     0.006 C 
BRANCH   3   4
ATOM      4  C   UNL     1       7.068  30.856  44.143  1.00  0.00     0.053 C 
BRANCH   4   5
ATOM      5  C   UNL     1       5.959  30.339  45.004  1.00  0.00     0.041 C 
ATOM      6  O   UNL     1       5.009  29.692  44.490  1.00  0.00    -0.550 OA
ATOM      7  O   UNL     1       5.949  30.614  46.365  1.00  0.00    -0.550 OA
ENDBRANCH   4   5
ENDBRANCH   3   4
ENDBRANCH   2   3
ENDBRANCH   1   2
BRANCH   1   8
ATOM      8  C   UNL     1       9.962  34.424  43.715  1.00  0.00     0.000 C 
BRANCH   8   9
ATOM      9  C   UNL     1      10.641  33.363  42.836  1.00  0.00     0.006 C 
BRANCH   9  10
ATOM     10  C   UNL     1      10.180  33.481  41.380  1.00  0.00     0.053 C 
BRANCH  10  11
ATOM     11  C   UNL     1       8.879  32.770  41.183  1.00  0.00     0.041 C 
ATOM     12  O   UNL     1       8.854  31.515  41.069  1.00  0.00    -0.550 OA
ATOM     13  O   UNL     1       7.699  33.494  41.077  1.00  0.00    -0.550 OA
ENDBRANCH  10  11
ENDBRANCH   9  10
ENDBRANCH   8   9
ENDBRANCH   1   8
TORSDOF 8
ENDMDL
MODEL 7
REMARK VINA RESULT:    -4.624      1.788      6.688
REMARK INTER + INTRA:          -7.067
REMARK INTER:                  -6.758
REMARK INTRA:                  -0.309
REMARK UNBOUND:                -0.280
REMARK SMILES O=C([O-])CCCCCCCC(=O)[O-]
REMARK SMILES IDX 7 1 6 2 5 3 4 4 2 5 1 6 3 7 8 8 9 9 10 10 11 11 12 12 13 13
REMARK H PARENT
REMARK Flexibility Score: inf
ROOT
ATOM      1  C   UNL     1       6.419  43.008  43.364  1.00  0.00     0.000 C 
ENDROOT
BRANCH   1   2
ATOM      2  C   UNL     1       5.338  42.624  44.388  1.00  0.00     0.000 C 
BRANCH   2   3
ATOM      3  C   UNL     1       5.930  42.047  45.684  1.00  0.00     0.006 C 
BRANCH   3   4
ATOM      4  C   UNL     1       4.983  42.194  46.882  1.00  0.00     0.053 C 
BRANCH   4   5
ATOM      5  C   UNL     1       5.676  41.797  48.147  1.00  0.00     0.041 C 
ATOM      6  O   UNL     1       6.724  41.100  48.102  1.00  0.00    -0.550 OA
ATOM      7  O   UNL     1       5.138  42.154  49.376  1.00  0.00    -0.550 OA
ENDBRANCH   4   5
ENDBRANCH   3   4
ENDBRANCH   2   3
ENDBRANCH   1   2
BRANCH   1   8
ATOM      8  C   UNL     1       7.078  44.360  43.679  1.00  0.00     0.000 C 
BRANCH   8   9
ATOM      9  C   UNL     1       7.468  45.138  42.413  1.00  0.00     0.006 C 
BRANCH   9  10
ATOM     10  C   UNL     1       7.758  44.182  41.252  1.00  0.00     0.053 C 
BRANCH  10  11
ATOM     11  C   UNL     1       9.233  43.995  41.083  1.00  0.00     0.041 C 
ATOM     12  O   UNL     1       9.713  42.839  40.944  1.00  0.00    -0.550 OA
ATOM     13  O   UNL     1      10.082  45.093  41.129  1.00  0.00    -0.550 OA
ENDBRANCH  10  11
ENDBRANCH   9  10
ENDBRANCH   8   9
ENDBRANCH   1   8
TORSDOF 8
ENDMDL
MODEL 8
REMARK VINA RESULT:    -4.586      1.791      2.706
REMARK INTER + INTRA:          -7.011
REMARK INTER:                  -6.673
REMARK INTRA:                  -0.338
REMARK UNBOUND:                -0.280
REMARK SMILES O=C([O-])CCCCCCCC(=O)[O-]
REMARK SMILES IDX 7 1 6 2 5 3 4 4 2 5 1 6 3 7 8 8 9 9 10 10 11 11 12 12 13 13
REMARK H PARENT
REMARK Flexibility Score: inf
ROOT
ATOM      1  C   UNL     1       5.615  41.730  48.452  1.00  0.00     0.000 C 
ENDROOT
BRANCH   1   2
ATOM      2  C   UNL     1       4.906  42.059  47.127  1.00  0.00     0.000 C 
BRANCH   2   3
ATOM      3  C   UNL     1       5.850  41.975  45.917  1.00  0.00     0.006 C 
BRANCH   3   4
ATOM      4  C   UNL     1       5.270  42.655  44.669  1.00  0.00     0.053 C 
BRANCH   4   5
ATOM      5  C   UNL     1       6.370  43.097  43.757  1.00  0.00     0.041 C 
ATOM      6  O   UNL     1       6.767  44.291  43.777  1.00  0.00    -0.550 OA
ATOM      7  O   UNL     1       6.923  42.202  42.850  1.00  0.00    -0.550 OA
ENDBRANCH   4   5
ENDBRANCH   3   4
ENDBRANCH   2   3
ENDBRANCH   1   2
BRANCH   1   8
ATOM      8  C   UNL     1       6.491  40.471  48.357  1.00  0.00     0.000 C 
BRANCH   8   9
ATOM      9  C   UNL     1       7.964  40.748  48.695  1.00  0.00     0.006 C 
BRANCH   9  10
ATOM     10  C   UNL     1       8.842  39.542  48.349  1.00  0.00     0.053 C 
BRANCH  10  11
ATOM     11  C   UNL     1       9.489  39.731  47.014  1.00  0.00     0.041 C 
ATOM     12  O   UNL     1       8.798  39.687  45.962  1.00  0.00    -0.550 OA
ATOM     13  O   UNL     1      10.865  39.906  46.927  1.00  0.00    -0.550 OA
ENDBRANCH  10  11
ENDBRANCH   9  10
ENDBRANCH   8   9
ENDBRANCH   1   8
TORSDOF 8
ENDMDL
MODEL 9
REMARK VINA RESULT:    -4.562      1.488      6.704
REMARK INTER + INTRA:          -6.976
REMARK INTER:                  -6.669
REMARK INTRA:                  -0.307
REMARK UNBOUND:                -0.280
REMARK SMILES O=C([O-])CCCCCCCC(=O)[O-]
REMARK SMILES IDX 7 1 6 2 5 3 4 4 2 5 1 6 3 7 8 8 9 9 10 10 11 11 12 12 13 13
REMARK H PARENT
REMARK Flexibility Score: inf
ROOT
ATOM      1  C   UNL     1       6.368  41.544  44.682  1.00  0.00     0.000 C 
ENDROOT
BRANCH   1   2
ATOM      2  C   UNL     1       5.653  42.632  45.501  1.00  0.00     0.000 C 
BRANCH   2   3
ATOM      3  C   UNL     1       4.865  42.055  46.688  1.00  0.00     0.006 C 
BRANCH   3   4
ATOM      4  C   UNL     1       5.618  40.923  47.400  1.00  0.00     0.053 C 
BRANCH   4   5
ATOM      5  C   UNL     1       6.225  41.420  48.673  1.00  0.00     0.041 C 
ATOM      6  O   UNL     1       5.560  42.158  49.446  1.00  0.00    -0.550 OA
ATOM      7  O   UNL     1       7.543  41.110  48.982  1.00  0.00    -0.550 OA
ENDBRANCH   4   5
ENDBRANCH   3   4
ENDBRANCH   2   3
ENDBRANCH   1   2
BRANCH   1   8
ATOM      8  C   UNL     1       6.782  42.033  43.284  1.00  0.00     0.000 C 
BRANCH   8   9
ATOM      9  C   UNL     1       6.913  43.563  43.208  1.00  0.00     0.006 C 
BRANCH   9  10
ATOM     10  C   UNL     1       7.512  43.995  41.867  1.00  0.00     0.053 C 
BRANCH  10  11
ATOM     11  C   UNL     1       7.975  45.415  41.933  1.00  0.00     0.041 C 
ATOM     12  O   UNL     1       7.136  46.355  41.954  1.00  0.00    -0.550 OA
ATOM     13  O   UNL     1       9.333  45.706  41.923  1.00  0.00    -0.550 OA
ENDBRANCH  10  11
ENDBRANCH   9  10
ENDBRANCH   8   9
ENDBRANCH   1   8
TORSDOF 8
ENDMDL
