MODEL 1
REMARK VINA RESULT:    -5.334      0.000      0.000
REMARK INTER + INTRA:          -6.322
REMARK INTER:                  -6.425
REMARK INTRA:                   0.103
REMARK UNBOUND:                 0.103
REMARK SMILES O=c1c(O)c(-c2ccc(O)c(O)c2)oc2cc(O)cc(O)c12
REMARK SMILES IDX 5 1 3 2 2 3 1 4 22 5 20 6 19 7 17 8 16 9 15 10 14 11 6 12
REMARK SMILES IDX 7 13 8 14 9 15 13 16 11 17 10 18 12 20 4 22 21 24 18 26
REMARK H PARENT 10 19 12 21 4 23 21 25 18 27
REMARK Flexibility Score: inf
ROOT
ATOM      1  C   UNL     1     -44.903  27.926  -3.107  1.00  0.00     0.180 A 
ATOM      2  C   UNL     1     -46.010  27.517  -2.338  1.00  0.00     0.208 A 
ATOM      3  C   UNL     1     -45.978  27.707  -0.948  1.00  0.00     0.238 A 
ATOM      4  O   UNL     1     -46.968  27.355  -0.252  1.00  0.00    -0.285 OA
ATOM      5  C   UNL     1     -44.838  28.282  -0.349  1.00  0.00     0.111 A 
ATOM      6  C   UNL     1     -44.725  28.504   1.045  1.00  0.00     0.134 A 
ATOM      7  C   UNL     1     -43.553  29.073   1.564  1.00  0.00     0.093 A 
ATOM      8  C   UNL     1     -42.495  29.422   0.722  1.00  0.00     0.123 A 
ATOM      9  C   UNL     1     -42.602  29.205  -0.655  1.00  0.00     0.094 A 
ATOM     10  C   UNL     1     -43.762  28.641  -1.194  1.00  0.00     0.146 A 
ATOM     11  O   UNL     1     -43.839  28.451  -2.506  1.00  0.00    -0.452 OA
ENDROOT
BRANCH   1  12
ATOM     12  C   UNL     1     -44.869  27.777  -4.580  1.00  0.00     0.025 A 
ATOM     13  C   UNL     1     -43.744  27.247  -5.237  1.00  0.00     0.016 A 
ATOM     14  C   UNL     1     -43.745  27.094  -6.626  1.00  0.00     0.051 A 
ATOM     15  C   UNL     1     -44.871  27.455  -7.376  1.00  0.00     0.157 A 
ATOM     16  C   UNL     1     -46.003  28.119  -5.335  1.00  0.00     0.062 A 
ATOM     17  C   UNL     1     -46.003  27.966  -6.729  1.00  0.00     0.158 A 
BRANCH  15  18
ATOM     18  O   UNL     1     -44.874  27.306  -8.761  1.00  0.00    -0.504 OA
ATOM     19  H   UNL     1     -44.602  26.435  -9.202  1.00  0.00     0.293 HD
ENDBRANCH  15  18
BRANCH  17  20
ATOM     20  O   UNL     1     -47.125  28.319  -7.477  1.00  0.00    -0.504 OA
ATOM     21  H   UNL     1     -47.256  27.989  -8.426  1.00  0.00     0.293 HD
ENDBRANCH  17  20
ENDBRANCH   1  12
BRANCH   2  22
ATOM     22  O   UNL     1     -47.107  26.905  -2.951  1.00  0.00    -0.502 OA
ATOM     23  H   UNL     1     -47.020  26.362  -3.801  1.00  0.00     0.293 HD
ENDBRANCH   2  22
BRANCH   6  24
ATOM     24  O   UNL     1     -45.764  28.165   1.913  1.00  0.00    -0.507 OA
ATOM     25  H   UNL     1     -46.691  27.939   1.573  1.00  0.00     0.293 HD
ENDBRANCH   6  24
BRANCH   8  26
ATOM     26  O   UNL     1     -41.342  29.984   1.265  1.00  0.00    -0.508 OA
ATOM     27  H   UNL     1     -41.015  29.732   2.190  1.00  0.00     0.293 HD
ENDBRANCH   8  26
TORSDOF 6
ENDMDL
MODEL 2
REMARK VINA RESULT:    -4.553      1.165      2.813
REMARK INTER + INTRA:          -5.382
REMARK INTER:                  -5.232
REMARK INTRA:                  -0.150
REMARK UNBOUND:                 0.103
REMARK SMILES O=c1c(O)c(-c2ccc(O)c(O)c2)oc2cc(O)cc(O)c12
REMARK SMILES IDX 5 1 3 2 2 3 1 4 22 5 20 6 19 7 17 8 16 9 15 10 14 11 6 12
REMARK SMILES IDX 7 13 8 14 9 15 13 16 11 17 10 18 12 20 4 22 21 24 18 26
REMARK H PARENT 10 19 12 21 4 23 21 25 18 27
REMARK Flexibility Score: inf
ROOT
ATOM      1  C   UNL     1     -44.200  28.246  -3.262  1.00  0.00     0.180 A 
ATOM      2  C   UNL     1     -43.202  29.132  -2.811  1.00  0.00     0.208 A 
ATOM      3  C   UNL     1     -43.054  29.342  -1.431  1.00  0.00     0.238 A 
ATOM      4  O   UNL     1     -42.157  30.124  -1.016  1.00  0.00    -0.285 OA
ATOM      5  C   UNL     1     -43.915  28.682  -0.529  1.00  0.00     0.111 A 
ATOM      6  C   UNL     1     -43.835  28.842   0.875  1.00  0.00     0.134 A 
ATOM      7  C   UNL     1     -44.734  28.156   1.705  1.00  0.00     0.093 A 
ATOM      8  C   UNL     1     -45.709  27.318   1.161  1.00  0.00     0.123 A 
ATOM      9  C   UNL     1     -45.792  27.156  -0.226  1.00  0.00     0.094 A 
ATOM     10  C   UNL     1     -44.904  27.828  -1.071  1.00  0.00     0.146 A 
ATOM     11  O   UNL     1     -45.003  27.653  -2.383  1.00  0.00    -0.452 OA
ENDROOT
BRANCH   1  12
ATOM     12  C   UNL     1     -44.405  27.957  -4.700  1.00  0.00     0.025 A 
ATOM     13  C   UNL     1     -43.387  27.386  -5.484  1.00  0.00     0.016 A 
ATOM     14  C   UNL     1     -43.612  27.101  -6.834  1.00  0.00     0.051 A 
ATOM     15  C   UNL     1     -44.858  27.369  -7.414  1.00  0.00     0.157 A 
ATOM     16  C   UNL     1     -45.658  28.206  -5.282  1.00  0.00     0.062 A 
ATOM     17  C   UNL     1     -45.884  27.920  -6.637  1.00  0.00     0.158 A 
BRANCH  15  18
ATOM     18  O   UNL     1     -45.086  27.089  -8.760  1.00  0.00    -0.504 OA
ATOM     19  H   UNL     1     -45.564  26.244  -9.052  1.00  0.00     0.293 HD
ENDBRANCH  15  18
BRANCH  17  20
ATOM     20  O   UNL     1     -47.125  28.181  -7.215  1.00  0.00    -0.504 OA
ATOM     21  H   UNL     1     -47.515  27.578  -7.930  1.00  0.00     0.293 HD
ENDBRANCH  17  20
ENDBRANCH   1  12
BRANCH   2  22
ATOM     22  O   UNL     1     -42.395  29.811  -3.727  1.00  0.00    -0.502 OA
ATOM     23  H   UNL     1     -42.480  29.679  -4.727  1.00  0.00     0.293 HD
ENDBRANCH   2  22
BRANCH   6  24
ATOM     24  O   UNL     1     -42.873  29.673   1.450  1.00  0.00    -0.507 OA
ATOM     25  H   UNL     1     -41.882  29.534   1.288  1.00  0.00     0.293 HD
ENDBRANCH   6  24
BRANCH   8  26
ATOM     26  O   UNL     1     -46.591  26.650   2.007  1.00  0.00    -0.508 OA
ATOM     27  H   UNL     1     -46.536  25.647   2.145  1.00  0.00     0.293 HD
ENDBRANCH   8  26
TORSDOF 6
ENDMDL
MODEL 3
REMARK VINA RESULT:    -4.394      1.746      6.787
REMARK INTER + INTRA:          -5.190
REMARK INTER:                  -5.651
REMARK INTRA:                   0.461
REMARK UNBOUND:                 0.103
REMARK SMILES O=c1c(O)c(-c2ccc(O)c(O)c2)oc2cc(O)cc(O)c12
REMARK SMILES IDX 5 1 3 2 2 3 1 4 22 5 20 6 19 7 17 8 16 9 15 10 14 11 6 12
REMARK SMILES IDX 7 13 8 14 9 15 13 16 11 17 10 18 12 20 4 22 21 24 18 26
REMARK H PARENT 10 19 12 21 4 23 21 25 18 27
REMARK Flexibility Score: inf
ROOT
ATOM      1  C   UNL     1     -44.738  28.302  -3.472  1.00  0.00     0.180 A 
ATOM      2  C   UNL     1     -45.949  27.963  -4.108  1.00  0.00     0.208 A 
ATOM      3  C   UNL     1     -46.047  28.105  -5.501  1.00  0.00     0.238 A 
ATOM      4  O   UNL     1     -47.122  27.794  -6.081  1.00  0.00    -0.285 OA
ATOM      5  C   UNL     1     -44.947  28.602  -6.230  1.00  0.00     0.111 A 
ATOM      6  C   UNL     1     -44.966  28.779  -7.634  1.00  0.00     0.134 A 
ATOM      7  C   UNL     1     -43.832  29.287  -8.286  1.00  0.00     0.093 A 
ATOM      8  C   UNL     1     -42.685  29.621  -7.564  1.00  0.00     0.123 A 
ATOM      9  C   UNL     1     -42.661  29.447  -6.177  1.00  0.00     0.094 A 
ATOM     10  C   UNL     1     -43.779  28.941  -5.508  1.00  0.00     0.146 A 
ATOM     11  O   UNL     1     -43.727  28.781  -4.191  1.00  0.00    -0.452 OA
ENDROOT
BRANCH   1  12
ATOM     12  C   UNL     1     -44.550  28.161  -2.010  1.00  0.00     0.025 A 
ATOM     13  C   UNL     1     -45.567  27.645  -1.188  1.00  0.00     0.016 A 
ATOM     14  C   UNL     1     -45.357  27.499   0.186  1.00  0.00     0.051 A 
ATOM     15  C   UNL     1     -44.127  27.853   0.755  1.00  0.00     0.157 A 
ATOM     16  C   UNL     1     -43.312  28.496  -1.438  1.00  0.00     0.062 A 
ATOM     17  C   UNL     1     -43.102  28.350  -0.059  1.00  0.00     0.158 A 
BRANCH  15  18
ATOM     18  O   UNL     1     -43.915  27.711   2.125  1.00  0.00    -0.504 OA
ATOM     19  H   UNL     1     -43.421  28.416   2.660  1.00  0.00     0.293 HD
ENDBRANCH  15  18
BRANCH  17  20
ATOM     20  O   UNL     1     -41.877  28.696   0.508  1.00  0.00    -0.504 OA
ATOM     21  H   UNL     1     -41.261  29.372   0.070  1.00  0.00     0.293 HD
ENDBRANCH  17  20
ENDBRANCH   1  12
BRANCH   2  22
ATOM     22  O   UNL     1     -47.040  27.520  -3.356  1.00  0.00    -0.502 OA
ATOM     23  H   UNL     1     -47.149  26.552  -3.077  1.00  0.00     0.293 HD
ENDBRANCH   2  22
BRANCH   6  24
ATOM     24  O   UNL     1     -46.098  28.456  -8.384  1.00  0.00    -0.507 OA
ATOM     25  H   UNL     1     -46.180  27.571  -8.872  1.00  0.00     0.293 HD
ENDBRANCH   6  24
BRANCH   8  26
ATOM     26  O   UNL     1     -41.574  30.125  -8.236  1.00  0.00    -0.508 OA
ATOM     27  H   UNL     1     -41.612  30.360  -9.221  1.00  0.00     0.293 HD
ENDBRANCH   8  26
TORSDOF 6
ENDMDL
MODEL 4
REMARK VINA RESULT:    -3.690      2.159      7.217
REMARK INTER + INTRA:          -4.342
REMARK INTER:                  -4.820
REMARK INTRA:                   0.477
REMARK UNBOUND:                 0.103
REMARK SMILES O=c1c(O)c(-c2ccc(O)c(O)c2)oc2cc(O)cc(O)c12
REMARK SMILES IDX 5 1 3 2 2 3 1 4 22 5 20 6 19 7 17 8 16 9 15 10 14 11 6 12
REMARK SMILES IDX 7 13 8 14 9 15 13 16 11 17 10 18 12 20 4 22 21 24 18 26
REMARK H PARENT 10 19 12 21 4 23 21 25 18 27
REMARK Flexibility Score: inf
ROOT
ATOM      1  C   UNL     1     -45.627  28.342  -3.449  1.00  0.00     0.180 A 
ATOM      2  C   UNL     1     -44.651  27.377  -3.765  1.00  0.00     0.208 A 
ATOM      3  C   UNL     1     -44.329  27.153  -5.112  1.00  0.00     0.238 A 
ATOM      4  O   UNL     1     -43.449  26.299  -5.405  1.00  0.00    -0.285 OA
ATOM      5  C   UNL     1     -45.000  27.877  -6.119  1.00  0.00     0.111 A 
ATOM      6  C   UNL     1     -44.738  27.708  -7.500  1.00  0.00     0.134 A 
ATOM      7  C   UNL     1     -45.455  28.462  -8.441  1.00  0.00     0.093 A 
ATOM      8  C   UNL     1     -46.426  29.378  -8.030  1.00  0.00     0.123 A 
ATOM      9  C   UNL     1     -46.688  29.549  -6.667  1.00  0.00     0.094 A 
ATOM     10  C   UNL     1     -45.984  28.810  -5.713  1.00  0.00     0.146 A 
ATOM     11  O   UNL     1     -46.250  28.996  -4.426  1.00  0.00    -0.452 OA
ENDROOT
BRANCH   1  12
ATOM     12  C   UNL     1     -46.007  28.650  -2.051  1.00  0.00     0.025 A 
ATOM     13  C   UNL     1     -46.748  29.801  -1.730  1.00  0.00     0.016 A 
ATOM     14  C   UNL     1     -47.115  30.058  -0.407  1.00  0.00     0.051 A 
ATOM     15  C   UNL     1     -46.760  29.164   0.611  1.00  0.00     0.157 A 
ATOM     16  C   UNL     1     -45.671  27.747  -1.029  1.00  0.00     0.062 A 
ATOM     17  C   UNL     1     -46.038  28.005   0.299  1.00  0.00     0.158 A 
BRANCH  15  18
ATOM     18  O   UNL     1     -47.122  29.418   1.933  1.00  0.00    -0.504 OA
ATOM     19  H   UNL     1     -46.891  30.294   2.386  1.00  0.00     0.293 HD
ENDBRANCH  15  18
BRANCH  17  20
ATOM     20  O   UNL     1     -45.691  27.114   1.313  1.00  0.00    -0.504 OA
ATOM     21  H   UNL     1     -45.711  27.385   2.289  1.00  0.00     0.293 HD
ENDBRANCH  17  20
ENDBRANCH   1  12
BRANCH   2  22
ATOM     22  O   UNL     1     -44.036  26.637  -2.751  1.00  0.00    -0.502 OA
ATOM     23  H   UNL     1     -44.221  25.651  -2.611  1.00  0.00     0.293 HD
ENDBRANCH   2  22
BRANCH   6  24
ATOM     24  O   UNL     1     -43.775  26.801  -7.942  1.00  0.00    -0.507 OA
ATOM     25  H   UNL     1     -42.910  26.652  -7.436  1.00  0.00     0.293 HD
ENDBRANCH   6  24
BRANCH   8  26
ATOM     26  O   UNL     1     -47.124  30.113  -8.986  1.00  0.00    -0.508 OA
ATOM     27  H   UNL     1     -47.542  31.009  -8.764  1.00  0.00     0.293 HD
ENDBRANCH   8  26
TORSDOF 6
ENDMDL
MODEL 5
REMARK VINA RESULT:    -3.591      1.862      7.169
REMARK INTER + INTRA:          -4.223
REMARK INTER:                  -4.018
REMARK INTRA:                  -0.205
REMARK UNBOUND:                 0.103
REMARK SMILES O=c1c(O)c(-c2ccc(O)c(O)c2)oc2cc(O)cc(O)c12
REMARK SMILES IDX 5 1 3 2 2 3 1 4 22 5 20 6 19 7 17 8 16 9 15 10 14 11 6 12
REMARK SMILES IDX 7 13 8 14 9 15 13 16 11 17 10 18 12 20 4 22 21 24 18 26
REMARK H PARENT 10 19 12 21 4 23 21 25 18 27
REMARK Flexibility Score: inf
ROOT
ATOM      1  C   UNL     1     -44.676  28.522  -3.041  1.00  0.00     0.180 A 
ATOM      2  C   UNL     1     -43.528  29.310  -3.259  1.00  0.00     0.208 A 
ATOM      3  C   UNL     1     -43.013  29.414  -4.560  1.00  0.00     0.238 A 
ATOM      4  O   UNL     1     -41.993  30.125  -4.768  1.00  0.00    -0.285 OA
ATOM      5  C   UNL     1     -43.638  28.716  -5.615  1.00  0.00     0.111 A 
ATOM      6  C   UNL     1     -43.180  28.764  -6.953  1.00  0.00     0.134 A 
ATOM      7  C   UNL     1     -43.852  28.034  -7.945  1.00  0.00     0.093 A 
ATOM      8  C   UNL     1     -44.968  27.257  -7.625  1.00  0.00     0.123 A 
ATOM      9  C   UNL     1     -45.425  27.207  -6.304  1.00  0.00     0.094 A 
ATOM     10  C   UNL     1     -44.771  27.929  -5.302  1.00  0.00     0.146 A 
ATOM     11  O   UNL     1     -45.229  27.866  -4.057  1.00  0.00    -0.452 OA
ENDROOT
BRANCH   1  12
ATOM     12  C   UNL     1     -45.289  28.379  -1.701  1.00  0.00     0.025 A 
ATOM     13  C   UNL     1     -46.555  28.920  -1.414  1.00  0.00     0.016 A 
ATOM     14  C   UNL     1     -47.124  28.752  -0.149  1.00  0.00     0.051 A 
ATOM     15  C   UNL     1     -46.445  28.030   0.841  1.00  0.00     0.157 A 
ATOM     16  C   UNL     1     -44.622  27.640  -0.711  1.00  0.00     0.062 A 
ATOM     17  C   UNL     1     -45.193  27.471   0.559  1.00  0.00     0.158 A 
BRANCH  15  18
ATOM     18  O   UNL     1     -47.008  27.863   2.105  1.00  0.00    -0.504 OA
ATOM     19  H   UNL     1     -47.384  26.970   2.403  1.00  0.00     0.293 HD
ENDBRANCH  15  18
BRANCH  17  20
ATOM     20  O   UNL     1     -44.521  26.749   1.543  1.00  0.00    -0.504 OA
ATOM     21  H   UNL     1     -43.526  26.862   1.700  1.00  0.00     0.293 HD
ENDBRANCH  17  20
ENDBRANCH   1  12
BRANCH   2  22
ATOM     22  O   UNL     1     -42.899  29.952  -2.189  1.00  0.00    -0.502 OA
ATOM     23  H   UNL     1     -43.241  29.882  -1.238  1.00  0.00     0.293 HD
ENDBRANCH   2  22
BRANCH   6  24
ATOM     24  O   UNL     1     -42.067  29.529  -7.305  1.00  0.00    -0.507 OA
ATOM     25  H   UNL     1     -41.470  29.956  -6.606  1.00  0.00     0.293 HD
ENDBRANCH   6  24
BRANCH   8  26
ATOM     26  O   UNL     1     -45.616  26.541  -8.628  1.00  0.00    -0.508 OA
ATOM     27  H   UNL     1     -46.297  26.979  -9.237  1.00  0.00     0.293 HD
ENDBRANCH   8  26
TORSDOF 6
ENDMDL
MODEL 6
REMARK VINA RESULT:    -3.314      0.633      1.424
REMARK INTER + INTRA:          -3.890
REMARK INTER:                  -4.024
REMARK INTRA:                   0.134
REMARK UNBOUND:                 0.103
REMARK SMILES O=c1c(O)c(-c2ccc(O)c(O)c2)oc2cc(O)cc(O)c12
REMARK SMILES IDX 5 1 3 2 2 3 1 4 22 5 20 6 19 7 17 8 16 9 15 10 14 11 6 12
REMARK SMILES IDX 7 13 8 14 9 15 13 16 11 17 10 18 12 20 4 22 21 24 18 26
REMARK H PARENT 10 19 12 21 4 23 21 25 18 27
REMARK Flexibility Score: inf
ROOT
ATOM      1  C   UNL     1     -45.018  28.014  -2.980  1.00  0.00     0.180 A 
ATOM      2  C   UNL     1     -46.020  27.493  -2.138  1.00  0.00     0.208 A 
ATOM      3  C   UNL     1     -45.875  27.624  -0.749  1.00  0.00     0.238 A 
ATOM      4  O   UNL     1     -46.771  27.172   0.014  1.00  0.00    -0.285 OA
ATOM      5  C   UNL     1     -44.725  28.251  -0.224  1.00  0.00     0.111 A 
ATOM      6  C   UNL     1     -44.501  28.420   1.164  1.00  0.00     0.134 A 
ATOM      7  C   UNL     1     -43.327  29.047   1.606  1.00  0.00     0.093 A 
ATOM      8  C   UNL     1     -42.376  29.507   0.693  1.00  0.00     0.123 A 
ATOM      9  C   UNL     1     -42.593  29.344  -0.679  1.00  0.00     0.094 A 
ATOM     10  C   UNL     1     -43.757  28.723  -1.142  1.00  0.00     0.146 A 
ATOM     11  O   UNL     1     -43.941  28.585  -2.450  1.00  0.00    -0.452 OA
ENDROOT
BRANCH   1  12
ATOM     12  C   UNL     1     -45.108  27.932  -4.456  1.00  0.00     0.025 A 
ATOM     13  C   UNL     1     -46.334  28.097  -5.124  1.00  0.00     0.016 A 
ATOM     14  C   UNL     1     -46.391  28.040  -6.519  1.00  0.00     0.051 A 
ATOM     15  C   UNL     1     -45.225  27.831  -7.266  1.00  0.00     0.157 A 
ATOM     16  C   UNL     1     -43.939  27.743  -5.210  1.00  0.00     0.062 A 
ATOM     17  C   UNL     1     -43.996  27.685  -6.611  1.00  0.00     0.158 A 
BRANCH  15  18
ATOM     18  O   UNL     1     -45.278  27.770  -8.657  1.00  0.00    -0.504 OA
ATOM     19  H   UNL     1     -45.821  28.434  -9.196  1.00  0.00     0.293 HD
ENDBRANCH  15  18
BRANCH  17  20
ATOM     20  O   UNL     1     -42.835  27.482  -7.355  1.00  0.00    -0.504 OA
ATOM     21  H   UNL     1     -42.780  27.743  -8.333  1.00  0.00     0.293 HD
ENDBRANCH  17  20
ENDBRANCH   1  12
BRANCH   2  22
ATOM     22  O   UNL     1     -47.125  26.833  -2.682  1.00  0.00    -0.502 OA
ATOM     23  H   UNL     1     -47.983  27.317  -2.920  1.00  0.00     0.293 HD
ENDBRANCH   2  22
BRANCH   6  24
ATOM     24  O   UNL     1     -45.430  27.971   2.102  1.00  0.00    -0.507 OA
ATOM     25  H   UNL     1     -45.223  27.955   3.094  1.00  0.00     0.293 HD
ENDBRANCH   6  24
BRANCH   8  26
ATOM     26  O   UNL     1     -41.218  30.125   1.159  1.00  0.00    -0.508 OA
ATOM     27  H   UNL     1     -40.985  31.077   0.902  1.00  0.00     0.293 HD
ENDBRANCH   8  26
TORSDOF 6
ENDMDL
MODEL 7
REMARK VINA RESULT:    -2.833      1.808      3.633
REMARK INTER + INTRA:          -3.310
REMARK INTER:                  -3.151
REMARK INTRA:                  -0.159
REMARK UNBOUND:                 0.103
REMARK SMILES O=c1c(O)c(-c2ccc(O)c(O)c2)oc2cc(O)cc(O)c12
REMARK SMILES IDX 5 1 3 2 2 3 1 4 22 5 20 6 19 7 17 8 16 9 15 10 14 11 6 12
REMARK SMILES IDX 7 13 8 14 9 15 13 16 11 17 10 18 12 20 4 22 21 24 18 26
REMARK H PARENT 10 19 12 21 4 23 21 25 18 27
REMARK Flexibility Score: inf
ROOT
ATOM      1  C   UNL     1     -44.411  28.828  -5.010  1.00  0.00     0.180 A 
ATOM      2  C   UNL     1     -43.239  29.450  -4.536  1.00  0.00     0.208 A 
ATOM      3  C   UNL     1     -42.956  29.406  -3.162  1.00  0.00     0.238 A 
ATOM      4  O   UNL     1     -41.905  29.950  -2.728  1.00  0.00    -0.285 OA
ATOM      5  C   UNL     1     -43.854  28.762  -2.285  1.00  0.00     0.111 A 
ATOM      6  C   UNL     1     -43.645  28.677  -0.888  1.00  0.00     0.134 A 
ATOM      7  C   UNL     1     -44.591  28.026  -0.082  1.00  0.00     0.093 A 
ATOM      8  C   UNL     1     -45.739  27.462  -0.643  1.00  0.00     0.123 A 
ATOM      9  C   UNL     1     -45.950  27.543  -2.023  1.00  0.00     0.094 A 
ATOM     10  C   UNL     1     -45.019  28.185  -2.844  1.00  0.00     0.146 A 
ATOM     11  O   UNL     1     -45.242  28.243  -4.152  1.00  0.00    -0.452 OA
ENDROOT
BRANCH   1  12
ATOM     12  C   UNL     1     -44.769  28.814  -6.447  1.00  0.00     0.025 A 
ATOM     13  C   UNL     1     -45.051  30.003  -7.143  1.00  0.00     0.016 A 
ATOM     14  C   UNL     1     -45.362  29.967  -8.504  1.00  0.00     0.051 A 
ATOM     15  C   UNL     1     -45.384  28.747  -9.192  1.00  0.00     0.157 A 
ATOM     16  C   UNL     1     -44.773  27.596  -7.146  1.00  0.00     0.062 A 
ATOM     17  C   UNL     1     -45.087  27.560  -8.512  1.00  0.00     0.158 A 
BRANCH  15  18
ATOM     18  O   UNL     1     -45.698  28.707 -10.549  1.00  0.00    -0.504 OA
ATOM     19  H   UNL     1     -45.883  27.831 -11.025  1.00  0.00     0.293 HD
ENDBRANCH  15  18
BRANCH  17  20
ATOM     20  O   UNL     1     -45.104  26.347  -9.200  1.00  0.00    -0.504 OA
ATOM     21  H   UNL     1     -45.195  25.463  -8.714  1.00  0.00     0.293 HD
ENDBRANCH  17  20
ENDBRANCH   1  12
BRANCH   2  22
ATOM     22  O   UNL     1     -42.392  30.123  -5.418  1.00  0.00    -0.502 OA
ATOM     23  H   UNL     1     -42.713  30.490  -6.306  1.00  0.00     0.293 HD
ENDBRANCH   2  22
BRANCH   6  24
ATOM     24  O   UNL     1     -42.509  29.231  -0.296  1.00  0.00    -0.507 OA
ATOM     25  H   UNL     1     -41.820  29.740  -0.838  1.00  0.00     0.293 HD
ENDBRANCH   6  24
BRANCH   8  26
ATOM     26  O   UNL     1     -46.662  26.823   0.181  1.00  0.00    -0.508 OA
ATOM     27  H   UNL     1     -47.512  26.415  -0.192  1.00  0.00     0.293 HD
ENDBRANCH   8  26
TORSDOF 6
ENDMDL
MODEL 8
REMARK VINA RESULT:    -2.570      1.862      2.185
REMARK INTER + INTRA:          -2.993
REMARK INTER:                  -2.689
REMARK INTRA:                  -0.304
REMARK UNBOUND:                 0.103
REMARK SMILES O=c1c(O)c(-c2ccc(O)c(O)c2)oc2cc(O)cc(O)c12
REMARK SMILES IDX 5 1 3 2 2 3 1 4 22 5 20 6 19 7 17 8 16 9 15 10 14 11 6 12
REMARK SMILES IDX 7 13 8 14 9 15 13 16 11 17 10 18 12 20 4 22 21 24 18 26
REMARK H PARENT 10 19 12 21 4 23 21 25 18 27
REMARK Flexibility Score: inf
ROOT
ATOM      1  C   UNL     1     -44.324  28.733  -3.605  1.00  0.00     0.180 A 
ATOM      2  C   UNL     1     -45.617  29.229  -3.347  1.00  0.00     0.208 A 
ATOM      3  C   UNL     1     -45.974  29.537  -2.025  1.00  0.00     0.238 A 
ATOM      4  O   UNL     1     -47.124  29.992  -1.784  1.00  0.00    -0.285 OA
ATOM      5  C   UNL     1     -45.045  29.325  -0.985  1.00  0.00     0.111 A 
ATOM      6  C   UNL     1     -45.328  29.605   0.374  1.00  0.00     0.134 A 
ATOM      7  C   UNL     1     -44.352  29.358   1.351  1.00  0.00     0.093 A 
ATOM      8  C   UNL     1     -43.105  28.837   0.999  1.00  0.00     0.123 A 
ATOM      9  C   UNL     1     -42.821  28.559  -0.341  1.00  0.00     0.094 A 
ATOM     10  C   UNL     1     -43.778  28.800  -1.332  1.00  0.00     0.146 A 
ATOM     11  O   UNL     1     -43.480  28.531  -2.597  1.00  0.00    -0.452 OA
ENDROOT
BRANCH   1  12
ATOM     12  C   UNL     1     -43.866  28.404  -4.974  1.00  0.00     0.025 A 
ATOM     13  C   UNL     1     -44.197  27.181  -5.584  1.00  0.00     0.016 A 
ATOM     14  C   UNL     1     -43.774  26.903  -6.886  1.00  0.00     0.051 A 
ATOM     15  C   UNL     1     -43.026  27.846  -7.602  1.00  0.00     0.157 A 
ATOM     16  C   UNL     1     -43.132  29.354  -5.704  1.00  0.00     0.062 A 
ATOM     17  C   UNL     1     -42.706  29.074  -7.011  1.00  0.00     0.158 A 
BRANCH  15  18
ATOM     18  O   UNL     1     -42.599  27.571  -8.900  1.00  0.00    -0.504 OA
ATOM     19  H   UNL     1     -41.792  26.984  -9.079  1.00  0.00     0.293 HD
ENDBRANCH  15  18
BRANCH  17  20
ATOM     20  O   UNL     1     -41.967  30.014  -7.727  1.00  0.00    -0.504 OA
ATOM     21  H   UNL     1     -41.603  29.811  -8.651  1.00  0.00     0.293 HD
ENDBRANCH  17  20
ENDBRANCH   1  12
BRANCH   2  22
ATOM     22  O   UNL     1     -46.534  29.384  -4.389  1.00  0.00    -0.502 OA
ATOM     23  H   UNL     1     -46.246  29.474  -5.356  1.00  0.00     0.293 HD
ENDBRANCH   2  22
BRANCH   6  24
ATOM     24  O   UNL     1     -46.564  30.125   0.758  1.00  0.00    -0.507 OA
ATOM     25  H   UNL     1     -46.639  30.908   1.397  1.00  0.00     0.293 HD
ENDBRANCH   6  24
BRANCH   8  26
ATOM     26  O   UNL     1     -42.156  28.600   1.990  1.00  0.00    -0.508 OA
ATOM     27  H   UNL     1     -41.480  27.850   1.908  1.00  0.00     0.293 HD
ENDBRANCH   8  26
TORSDOF 6
ENDMDL
