MODEL 1
REMARK VINA RESULT:    -3.734      0.000      0.000
REMARK INTER + INTRA:          -5.829
REMARK INTER:                  -5.261
REMARK INTRA:                  -0.568
REMARK UNBOUND:                -0.568
REMARK SMILES CCCCCCCCC(=O)[O-]
REMARK SMILES IDX 6 1 7 2 8 3 9 4 10 5 11 6 5 7 4 8 3 9 2 10 1 11
REMARK H PARENT
REMARK Flexibility Score: inf
ROOT
ATOM      1  C   UNL     1      -4.763  -8.348 -16.550  1.00  0.00     0.000 C 
ENDROOT
BRANCH   1   2
ATOM      2  C   UNL     1      -5.494  -8.344 -15.192  1.00  0.00     0.006 C 
BRANCH   2   3
ATOM      3  C   UNL     1      -5.319  -9.634 -14.374  1.00  0.00     0.053 C 
BRANCH   3   4
ATOM      4  C   UNL     1      -6.626 -10.156 -13.861  1.00  0.00     0.041 C 
ATOM      5  O   UNL     1      -7.691  -9.924 -14.491  1.00  0.00    -0.550 OA
ATOM      6  O   UNL     1      -6.663 -10.927 -12.707  1.00  0.00    -0.550 OA
ENDBRANCH   3   4
ENDBRANCH   2   3
ENDBRANCH   1   2
BRANCH   1   7
ATOM      7  C   UNL     1      -4.368  -6.956 -17.082  1.00  0.00     0.000 C 
BRANCH   7   8
ATOM      8  C   UNL     1      -2.864  -6.765 -17.362  1.00  0.00    -0.000 C 
BRANCH   8   9
ATOM      9  C   UNL     1      -1.950  -7.846 -16.759  1.00  0.00    -0.000 C 
BRANCH   9  10
ATOM     10  C   UNL     1      -1.074  -7.317 -15.614  1.00  0.00    -0.003 C 
ATOM     11  C   UNL     1      -1.469  -7.949 -14.283  1.00  0.00     0.004 C 
ENDBRANCH   9  10
ENDBRANCH   8   9
ENDBRANCH   7   8
ENDBRANCH   1   7
TORSDOF 7
ENDMDL
MODEL 2
REMARK VINA RESULT:    -3.730      1.381      1.473
REMARK INTER + INTRA:          -5.824
REMARK INTER:                  -5.319
REMARK INTRA:                  -0.506
REMARK UNBOUND:                -0.568
REMARK SMILES CCCCCCCCC(=O)[O-]
REMARK SMILES IDX 6 1 7 2 8 3 9 4 10 5 11 6 5 7 4 8 3 9 2 10 1 11
REMARK H PARENT
REMARK Flexibility Score: inf
ROOT
ATOM      1  C   UNL     1      -5.029  -7.280 -16.398  1.00  0.00     0.000 C 
ENDROOT
BRANCH   1   2
ATOM      2  C   UNL     1      -4.940  -8.376 -15.317  1.00  0.00     0.006 C 
BRANCH   2   3
ATOM      3  C   UNL     1      -6.253  -9.138 -15.077  1.00  0.00     0.053 C 
BRANCH   3   4
ATOM      4  C   UNL     1      -6.255 -10.478 -15.746  1.00  0.00     0.041 C 
ATOM      5  O   UNL     1      -5.802 -10.604 -16.914  1.00  0.00    -0.550 OA
ATOM      6  O   UNL     1      -6.723 -11.595 -15.066  1.00  0.00    -0.550 OA
ENDBRANCH   3   4
ENDBRANCH   2   3
ENDBRANCH   1   2
BRANCH   1   7
ATOM      7  C   UNL     1      -4.044  -7.441 -17.573  1.00  0.00     0.000 C 
BRANCH   7   8
ATOM      8  C   UNL     1      -2.684  -6.738 -17.389  1.00  0.00    -0.000 C 
BRANCH   8   9
ATOM      9  C   UNL     1      -1.559  -7.635 -16.843  1.00  0.00    -0.000 C 
BRANCH   9  10
ATOM     10  C   UNL     1      -0.880  -7.050 -15.596  1.00  0.00    -0.003 C 
ATOM     11  C   UNL     1      -1.284  -7.815 -14.340  1.00  0.00     0.004 C 
ENDBRANCH   9  10
ENDBRANCH   8   9
ENDBRANCH   7   8
ENDBRANCH   1   7
TORSDOF 7
ENDMDL
MODEL 3
REMARK VINA RESULT:    -3.729      3.396      4.763
REMARK INTER + INTRA:          -5.823
REMARK INTER:                  -5.000
REMARK INTRA:                  -0.823
REMARK UNBOUND:                -0.568
REMARK SMILES CCCCCCCCC(=O)[O-]
REMARK SMILES IDX 6 1 7 2 8 3 9 4 10 5 11 6 5 7 4 8 3 9 2 10 1 11
REMARK H PARENT
REMARK Flexibility Score: inf
ROOT
ATOM      1  C   UNL     1      -4.327  -9.543 -14.820  1.00  0.00     0.000 C 
ENDROOT
BRANCH   1   2
ATOM      2  C   UNL     1      -2.809  -9.587 -15.089  1.00  0.00     0.006 C 
BRANCH   2   3
ATOM      3  C   UNL     1      -2.036  -8.367 -14.564  1.00  0.00     0.053 C 
BRANCH   3   4
ATOM      4  C   UNL     1      -1.280  -7.669 -15.653  1.00  0.00     0.041 C 
ATOM      5  O   UNL     1      -0.697  -6.578 -15.420  1.00  0.00    -0.550 OA
ATOM      6  O   UNL     1      -1.190  -8.242 -16.914  1.00  0.00    -0.550 OA
ENDBRANCH   3   4
ENDBRANCH   2   3
ENDBRANCH   1   2
BRANCH   1   7
ATOM      7  C   UNL     1      -4.956  -8.136 -14.862  1.00  0.00     0.000 C 
BRANCH   7   8
ATOM      8  C   UNL     1      -5.491  -7.698 -16.240  1.00  0.00    -0.000 C 
BRANCH   8   9
ATOM      9  C   UNL     1      -4.518  -6.847 -17.074  1.00  0.00    -0.000 C 
BRANCH   9  10
ATOM     10  C   UNL     1      -4.253  -7.436 -18.468  1.00  0.00    -0.003 C 
ATOM     11  C   UNL     1      -4.566  -8.928 -18.503  1.00  0.00     0.004 C 
ENDBRANCH   9  10
ENDBRANCH   8   9
ENDBRANCH   7   8
ENDBRANCH   1   7
TORSDOF 7
ENDMDL
MODEL 4
REMARK VINA RESULT:    -3.726      3.089      5.016
REMARK INTER + INTRA:          -5.818
REMARK INTER:                  -5.163
REMARK INTRA:                  -0.655
REMARK UNBOUND:                -0.568
REMARK SMILES CCCCCCCCC(=O)[O-]
REMARK SMILES IDX 6 1 7 2 8 3 9 4 10 5 11 6 5 7 4 8 3 9 2 10 1 11
REMARK H PARENT
REMARK Flexibility Score: inf
ROOT
ATOM      1  C   UNL     1      -5.252  -7.487 -16.128  1.00  0.00     0.000 C 
ENDROOT
BRANCH   1   2
ATOM      2  C   UNL     1      -4.246  -6.906 -17.142  1.00  0.00     0.006 C 
BRANCH   2   3
ATOM      3  C   UNL     1      -4.382  -7.471 -18.565  1.00  0.00     0.053 C 
BRANCH   3   4
ATOM      4  C   UNL     1      -4.214  -8.959 -18.596  1.00  0.00     0.041 C 
ATOM      5  O   UNL     1      -3.145  -9.485 -18.187  1.00  0.00    -0.550 OA
ATOM      6  O   UNL     1      -5.251  -9.767 -19.043  1.00  0.00    -0.550 OA
ENDBRANCH   3   4
ENDBRANCH   2   3
ENDBRANCH   1   2
BRANCH   1   7
ATOM      7  C   UNL     1      -4.620  -8.266 -14.957  1.00  0.00     0.000 C 
BRANCH   7   8
ATOM      8  C   UNL     1      -4.862  -9.789 -14.976  1.00  0.00    -0.000 C 
BRANCH   8   9
ATOM      9  C   UNL     1      -6.232 -10.220 -15.528  1.00  0.00    -0.000 C 
BRANCH   9  10
ATOM     10  C   UNL     1      -7.344 -10.173 -14.471  1.00  0.00    -0.003 C 
ATOM     11  C   UNL     1      -6.853 -10.712 -13.131  1.00  0.00     0.004 C 
ENDBRANCH   9  10
ENDBRANCH   8   9
ENDBRANCH   7   8
ENDBRANCH   1   7
TORSDOF 7
ENDMDL
MODEL 5
REMARK VINA RESULT:    -3.696      2.889      3.971
REMARK INTER + INTRA:          -5.776
REMARK INTER:                  -4.980
REMARK INTRA:                  -0.796
REMARK UNBOUND:                -0.568
REMARK SMILES CCCCCCCCC(=O)[O-]
REMARK SMILES IDX 6 1 7 2 8 3 9 4 10 5 11 6 5 7 4 8 3 9 2 10 1 11
REMARK H PARENT
REMARK Flexibility Score: inf
ROOT
ATOM      1  C   UNL     1      -5.220  -7.651 -16.151  1.00  0.00     0.000 C 
ENDROOT
BRANCH   1   2
ATOM      2  C   UNL     1      -4.285  -6.882 -17.106  1.00  0.00     0.006 C 
BRANCH   2   3
ATOM      3  C   UNL     1      -4.352  -7.348 -18.570  1.00  0.00     0.053 C 
BRANCH   3   4
ATOM      4  C   UNL     1      -4.059  -8.810 -18.707  1.00  0.00     0.041 C 
ATOM      5  O   UNL     1      -4.977  -9.613 -19.022  1.00  0.00    -0.550 OA
ATOM      6  O   UNL     1      -2.766  -9.282 -18.523  1.00  0.00    -0.550 OA
ENDBRANCH   3   4
ENDBRANCH   2   3
ENDBRANCH   1   2
BRANCH   1   7
ATOM      7  C   UNL     1      -4.546  -8.189 -14.872  1.00  0.00     0.000 C 
BRANCH   7   8
ATOM      8  C   UNL     1      -3.769  -9.509 -15.048  1.00  0.00    -0.000 C 
BRANCH   8   9
ATOM      9  C   UNL     1      -2.237  -9.366 -15.036  1.00  0.00    -0.000 C 
BRANCH   9  10
ATOM     10  C   UNL     1      -1.767  -8.018 -14.470  1.00  0.00    -0.003 C 
ATOM     11  C   UNL     1      -0.878  -7.282 -15.467  1.00  0.00     0.004 C 
ENDBRANCH   9  10
ENDBRANCH   8   9
ENDBRANCH   7   8
ENDBRANCH   1   7
TORSDOF 7
ENDMDL
MODEL 6
REMARK VINA RESULT:    -3.683      1.222      2.577
REMARK INTER + INTRA:          -5.758
REMARK INTER:                  -5.020
REMARK INTRA:                  -0.738
REMARK UNBOUND:                -0.568
REMARK SMILES CCCCCCCCC(=O)[O-]
REMARK SMILES IDX 6 1 7 2 8 3 9 4 10 5 11 6 5 7 4 8 3 9 2 10 1 11
REMARK H PARENT
REMARK Flexibility Score: inf
ROOT
ATOM      1  C   UNL     1      -3.725  -9.198 -14.880  1.00  0.00     0.000 C 
ENDROOT
BRANCH   1   2
ATOM      2  C   UNL     1      -5.019  -8.385 -14.677  1.00  0.00     0.006 C 
BRANCH   2   3
ATOM      3  C   UNL     1      -6.285  -9.059 -15.231  1.00  0.00     0.053 C 
BRANCH   3   4
ATOM      4  C   UNL     1      -6.643 -10.296 -14.466  1.00  0.00     0.041 C 
ATOM      5  O   UNL     1      -6.706 -10.268 -13.209  1.00  0.00    -0.550 OA
ATOM      6  O   UNL     1      -6.942 -11.471 -15.144  1.00  0.00    -0.550 OA
ENDBRANCH   3   4
ENDBRANCH   2   3
ENDBRANCH   1   2
BRANCH   1   7
ATOM      7  C   UNL     1      -2.495  -8.371 -15.305  1.00  0.00     0.000 C 
BRANCH   7   8
ATOM      8  C   UNL     1      -2.317  -8.197 -16.827  1.00  0.00    -0.000 C 
BRANCH   8   9
ATOM      9  C   UNL     1      -2.810  -6.852 -17.388  1.00  0.00    -0.000 C 
BRANCH   9  10
ATOM     10  C   UNL     1      -4.228  -6.933 -17.972  1.00  0.00    -0.003 C 
ATOM     11  C   UNL     1      -4.515  -8.322 -18.531  1.00  0.00     0.004 C 
ENDBRANCH   9  10
ENDBRANCH   8   9
ENDBRANCH   7   8
ENDBRANCH   1   7
TORSDOF 7
ENDMDL
MODEL 7
REMARK VINA RESULT:    -3.681      1.752      2.819
REMARK INTER + INTRA:          -5.754
REMARK INTER:                  -5.091
REMARK INTRA:                  -0.664
REMARK UNBOUND:                -0.568
REMARK SMILES CCCCCCCCC(=O)[O-]
REMARK SMILES IDX 6 1 7 2 8 3 9 4 10 5 11 6 5 7 4 8 3 9 2 10 1 11
REMARK H PARENT
REMARK Flexibility Score: inf
ROOT
ATOM      1  C   UNL     1      -3.865  -7.983 -15.791  1.00  0.00     0.000 C 
ENDROOT
BRANCH   1   2
ATOM      2  C   UNL     1      -4.538  -9.077 -14.937  1.00  0.00     0.006 C 
BRANCH   2   3
ATOM      3  C   UNL     1      -6.019  -8.813 -14.622  1.00  0.00     0.053 C 
BRANCH   3   4
ATOM      4  C   UNL     1      -6.862 -10.034 -14.825  1.00  0.00     0.041 C 
ATOM      5  O   UNL     1      -7.956 -10.158 -14.213  1.00  0.00    -0.550 OA
ATOM      6  O   UNL     1      -6.457 -11.019 -15.716  1.00  0.00    -0.550 OA
ENDBRANCH   3   4
ENDBRANCH   2   3
ENDBRANCH   1   2
BRANCH   1   7
ATOM      7  C   UNL     1      -4.814  -7.212 -16.730  1.00  0.00     0.000 C 
BRANCH   7   8
ATOM      8  C   UNL     1      -4.404  -7.207 -18.216  1.00  0.00    -0.000 C 
BRANCH   8   9
ATOM      9  C   UNL     1      -3.711  -8.492 -18.702  1.00  0.00    -0.000 C 
BRANCH   9  10
ATOM     10  C   UNL     1      -4.690  -9.657 -18.908  1.00  0.00    -0.003 C 
ATOM     11  C   UNL     1      -4.133 -10.953 -18.325  1.00  0.00     0.004 C 
ENDBRANCH   9  10
ENDBRANCH   8   9
ENDBRANCH   7   8
ENDBRANCH   1   7
TORSDOF 7
ENDMDL
MODEL 8
REMARK VINA RESULT:    -3.675      1.255      2.084
REMARK INTER + INTRA:          -5.747
REMARK INTER:                  -5.104
REMARK INTRA:                  -0.643
REMARK UNBOUND:                -0.568
REMARK SMILES CCCCCCCCC(=O)[O-]
REMARK SMILES IDX 6 1 7 2 8 3 9 4 10 5 11 6 5 7 4 8 3 9 2 10 1 11
REMARK H PARENT
REMARK Flexibility Score: inf
ROOT
ATOM      1  C   UNL     1      -3.666  -6.943 -17.763  1.00  0.00     0.000 C 
ENDROOT
BRANCH   1   2
ATOM      2  C   UNL     1      -4.737  -7.300 -16.713  1.00  0.00     0.006 C 
BRANCH   2   3
ATOM      3  C   UNL     1      -5.093  -8.794 -16.652  1.00  0.00     0.053 C 
BRANCH   3   4
ATOM      4  C   UNL     1      -5.810  -9.149 -15.386  1.00  0.00     0.041 C 
ATOM      5  O   UNL     1      -5.820  -8.345 -14.417  1.00  0.00    -0.550 OA
ATOM      6  O   UNL     1      -6.497 -10.352 -15.289  1.00  0.00    -0.550 OA
ENDBRANCH   3   4
ENDBRANCH   2   3
ENDBRANCH   1   2
BRANCH   1   7
ATOM      7  C   UNL     1      -2.310  -6.490 -17.185  1.00  0.00     0.000 C 
BRANCH   7   8
ATOM      8  C   UNL     1      -1.369  -7.632 -16.751  1.00  0.00    -0.000 C 
BRANCH   8   9
ATOM      9  C   UNL     1      -0.628  -7.393 -15.424  1.00  0.00    -0.000 C 
BRANCH   9  10
ATOM     10  C   UNL     1      -1.389  -7.941 -14.208  1.00  0.00    -0.003 C 
ATOM     11  C   UNL     1      -2.093  -9.251 -14.545  1.00  0.00     0.004 C 
ENDBRANCH   9  10
ENDBRANCH   8   9
ENDBRANCH   7   8
ENDBRANCH   1   7
TORSDOF 7
ENDMDL
MODEL 9
REMARK VINA RESULT:    -3.610      3.209      5.132
REMARK INTER + INTRA:          -5.655
REMARK INTER:                  -5.237
REMARK INTRA:                  -0.417
REMARK UNBOUND:                -0.568
REMARK SMILES CCCCCCCCC(=O)[O-]
REMARK SMILES IDX 6 1 7 2 8 3 9 4 10 5 11 6 5 7 4 8 3 9 2 10 1 11
REMARK H PARENT
REMARK Flexibility Score: inf
ROOT
ATOM      1  C   UNL     1      -3.959  -7.452 -17.753  1.00  0.00     0.000 C 
ENDROOT
BRANCH   1   2
ATOM      2  C   UNL     1      -2.578  -6.799 -17.542  1.00  0.00     0.006 C 
BRANCH   2   3
ATOM      3  C   UNL     1      -1.500  -7.755 -17.006  1.00  0.00     0.053 C 
BRANCH   3   4
ATOM      4  C   UNL     1      -1.101  -7.421 -15.601  1.00  0.00     0.041 C 
ATOM      5  O   UNL     1      -0.596  -6.299 -15.336  1.00  0.00    -0.550 OA
ATOM      6  O   UNL     1      -1.321  -8.336 -14.580  1.00  0.00    -0.550 OA
ENDBRANCH   3   4
ENDBRANCH   2   3
ENDBRANCH   1   2
BRANCH   1   7
ATOM      7  C   UNL     1      -4.957  -7.255 -16.595  1.00  0.00     0.000 C 
BRANCH   7   8
ATOM      8  C   UNL     1      -4.838  -8.278 -15.447  1.00  0.00    -0.000 C 
BRANCH   8   9
ATOM      9  C   UNL     1      -6.179  -8.808 -14.909  1.00  0.00    -0.000 C 
BRANCH   9  10
ATOM     10  C   UNL     1      -6.292 -10.337 -14.991  1.00  0.00    -0.003 C 
ATOM     11  C   UNL     1      -5.851 -10.849 -16.359  1.00  0.00     0.004 C 
ENDBRANCH   9  10
ENDBRANCH   8   9
ENDBRANCH   7   8
ENDBRANCH   1   7
TORSDOF 7
ENDMDL
