MODEL 1
REMARK VINA RESULT:    -4.838      0.000      0.000
REMARK INTER + INTRA:          -9.990
REMARK INTER:                  -8.798
REMARK INTRA:                  -1.192
REMARK UNBOUND:                -1.192
REMARK SMILES CCCCCCCCCCCCCC[C@@H](C)C(=O)[O-]
REMARK SMILES IDX 9 1 10 2 11 3 12 4 13 5 14 6 15 7 16 8 17 9 18 10 19 11 8 12
REMARK SMILES IDX 7 13 6 14 5 15 4 16 3 17 2 18 1 19
REMARK H PARENT
REMARK Flexibility Score: inf
ROOT
ATOM      1  C   UNL     1      -5.049  -2.437   5.683  1.00  0.00     0.000 C 
ENDROOT
BRANCH   1   2
ATOM      2  C   UNL     1      -4.881  -3.199   4.356  1.00  0.00     0.000 C 
BRANCH   2   3
ATOM      3  C   UNL     1      -4.641  -2.267   3.159  1.00  0.00     0.000 C 
BRANCH   3   4
ATOM      4  C   UNL     1      -5.256  -2.852   1.878  1.00  0.00     0.000 C 
BRANCH   4   5
ATOM      5  C   UNL     1      -5.228  -4.389   1.853  1.00  0.00     0.001 C 
BRANCH   5   6
ATOM      6  C   UNL     1      -4.758  -4.950   0.499  1.00  0.00     0.009 C 
BRANCH   6   7
ATOM      7  C   UNL     1      -5.929  -5.459  -0.372  1.00  0.00     0.032 C 
ATOM      8  C   UNL     1      -7.275  -5.406   0.365  1.00  0.00     0.014 C 
BRANCH   7   9
ATOM      9  C   UNL     1      -6.015  -4.650  -1.638  1.00  0.00     0.044 C 
ATOM     10  O   UNL     1      -5.926  -5.212  -2.763  1.00  0.00    -0.550 OA
ATOM     11  O   UNL     1      -6.193  -3.275  -1.573  1.00  0.00    -0.550 OA
ENDBRANCH   7   9
ENDBRANCH   6   7
ENDBRANCH   5   6
ENDBRANCH   4   5
ENDBRANCH   3   4
ENDBRANCH   2   3
ENDBRANCH   1   2
BRANCH   1  12
ATOM     12  C   UNL     1      -3.746  -1.864   6.279  1.00  0.00     0.000 C 
BRANCH  12  13
ATOM     13  C   UNL     1      -3.505  -0.369   6.001  1.00  0.00    -0.000 C 
BRANCH  13  14
ATOM     14  C   UNL     1      -2.367  -0.125   4.999  1.00  0.00    -0.000 C 
BRANCH  14  15
ATOM     15  C   UNL     1      -1.449   1.007   5.476  1.00  0.00    -0.000 C 
BRANCH  15  16
ATOM     16  C   UNL     1      -0.594   0.554   6.670  1.00  0.00    -0.000 C 
BRANCH  16  17
ATOM     17  C   UNL     1       0.210  -0.721   6.372  1.00  0.00    -0.000 C 
BRANCH  17  18
ATOM     18  C   UNL     1       0.590  -1.492   7.644  1.00  0.00    -0.003 C 
ATOM     19  C   UNL     1      -0.652  -1.999   8.372  1.00  0.00     0.004 C 
ENDBRANCH  17  18
ENDBRANCH  16  17
ENDBRANCH  15  16
ENDBRANCH  14  15
ENDBRANCH  13  14
ENDBRANCH  12  13
ENDBRANCH   1  12
TORSDOF 14
ENDMDL
MODEL 2
REMARK VINA RESULT:    -4.728      1.451      2.875
REMARK INTER + INTRA:          -9.789
REMARK INTER:                  -8.319
REMARK INTRA:                  -1.470
REMARK UNBOUND:                -1.192
REMARK SMILES CCCCCCCCCCCCCC[C@@H](C)C(=O)[O-]
REMARK SMILES IDX 9 1 10 2 11 3 12 4 13 5 14 6 15 7 16 8 17 9 18 10 19 11 8 12
REMARK SMILES IDX 7 13 6 14 5 15 4 16 3 17 2 18 1 19
REMARK H PARENT
REMARK Flexibility Score: inf
ROOT
ATOM      1  C   UNL     1      -5.803  -5.151   4.727  1.00  0.00     0.000 C 
ENDROOT
BRANCH   1   2
ATOM      2  C   UNL     1      -5.648  -5.545   3.247  1.00  0.00     0.000 C 
BRANCH   2   3
ATOM      3  C   UNL     1      -6.889  -5.211   2.407  1.00  0.00     0.000 C 
BRANCH   3   4
ATOM      4  C   UNL     1      -6.545  -5.183   0.909  1.00  0.00     0.000 C 
BRANCH   4   5
ATOM      5  C   UNL     1      -5.044  -4.974   0.647  1.00  0.00     0.001 C 
BRANCH   5   6
ATOM      6  C   UNL     1      -4.692  -3.503   0.366  1.00  0.00     0.009 C 
BRANCH   6   7
ATOM      7  C   UNL     1      -5.930  -2.656  -0.007  1.00  0.00     0.032 C 
ATOM      8  C   UNL     1      -6.024  -1.362   0.813  1.00  0.00     0.014 C 
BRANCH   7   9
ATOM      9  C   UNL     1      -5.900  -2.323  -1.475  1.00  0.00     0.044 C 
ATOM     10  O   UNL     1      -5.387  -1.243  -1.875  1.00  0.00    -0.550 OA
ATOM     11  O   UNL     1      -6.439  -3.208  -2.398  1.00  0.00    -0.550 OA
ENDBRANCH   7   9
ENDBRANCH   6   7
ENDBRANCH   5   6
ENDBRANCH   4   5
ENDBRANCH   3   4
ENDBRANCH   2   3
ENDBRANCH   1   2
BRANCH   1  12
ATOM     12  C   UNL     1      -5.344  -3.719   5.074  1.00  0.00     0.000 C 
BRANCH  12  13
ATOM     13  C   UNL     1      -4.737  -2.927   3.902  1.00  0.00    -0.000 C 
BRANCH  13  14
ATOM     14  C   UNL     1      -4.363  -1.488   4.285  1.00  0.00    -0.000 C 
BRANCH  14  15
ATOM     15  C   UNL     1      -3.693  -1.442   5.663  1.00  0.00    -0.000 C 
BRANCH  15  16
ATOM     16  C   UNL     1      -3.177  -0.029   5.977  1.00  0.00    -0.000 C 
BRANCH  16  17
ATOM     17  C   UNL     1      -1.874   0.303   5.234  1.00  0.00    -0.000 C 
BRANCH  17  18
ATOM     18  C   UNL     1      -0.759   0.777   6.177  1.00  0.00    -0.003 C 
ATOM     19  C   UNL     1      -0.805   0.026   7.504  1.00  0.00     0.004 C 
ENDBRANCH  17  18
ENDBRANCH  16  17
ENDBRANCH  15  16
ENDBRANCH  14  15
ENDBRANCH  13  14
ENDBRANCH  12  13
ENDBRANCH   1  12
TORSDOF 14
ENDMDL
MODEL 3
REMARK VINA RESULT:    -4.692      2.739      4.136
REMARK INTER + INTRA:          -9.724
REMARK INTER:                  -9.131
REMARK INTRA:                  -0.592
REMARK UNBOUND:                -1.192
REMARK SMILES CCCCCCCCCCCCCC[C@@H](C)C(=O)[O-]
REMARK SMILES IDX 9 1 10 2 11 3 12 4 13 5 14 6 15 7 16 8 17 9 18 10 19 11 8 12
REMARK SMILES IDX 7 13 6 14 5 15 4 16 3 17 2 18 1 19
REMARK H PARENT
REMARK Flexibility Score: inf
ROOT
ATOM      1  C   UNL     1      -2.047   0.056   4.989  1.00  0.00     0.000 C 
ENDROOT
BRANCH   1   2
ATOM      2  C   UNL     1      -3.294  -0.514   5.688  1.00  0.00     0.000 C 
BRANCH   2   3
ATOM      3  C   UNL     1      -4.041  -1.545   4.830  1.00  0.00     0.000 C 
BRANCH   3   4
ATOM      4  C   UNL     1      -4.487  -2.745   5.681  1.00  0.00     0.000 C 
BRANCH   4   5
ATOM      5  C   UNL     1      -4.851  -3.974   4.831  1.00  0.00     0.001 C 
BRANCH   5   6
ATOM      6  C   UNL     1      -5.648  -3.604   3.567  1.00  0.00     0.009 C 
BRANCH   6   7
ATOM      7  C   UNL     1      -5.681  -4.749   2.530  1.00  0.00     0.032 C 
ATOM      8  C   UNL     1      -7.111  -5.131   2.124  1.00  0.00     0.014 C 
BRANCH   7   9
ATOM      9  C   UNL     1      -4.896  -4.356   1.307  1.00  0.00     0.044 C 
ATOM     10  O   UNL     1      -4.682  -3.141   1.048  1.00  0.00    -0.550 OA
ATOM     11  O   UNL     1      -4.402  -5.335   0.456  1.00  0.00    -0.550 OA
ENDBRANCH   7   9
ENDBRANCH   6   7
ENDBRANCH   5   6
ENDBRANCH   4   5
ENDBRANCH   3   4
ENDBRANCH   2   3
ENDBRANCH   1   2
BRANCH   1  12
ATOM     12  C   UNL     1      -0.901   0.477   5.933  1.00  0.00     0.000 C 
BRANCH  12  13
ATOM     13  C   UNL     1      -0.284  -0.667   6.758  1.00  0.00    -0.000 C 
BRANCH  13  14
ATOM     14  C   UNL     1       1.126  -1.050   6.285  1.00  0.00    -0.000 C 
BRANCH  14  15
ATOM     15  C   UNL     1       1.202  -1.079   4.754  1.00  0.00    -0.000 C 
BRANCH  15  16
ATOM     16  C   UNL     1       2.411  -1.901   4.280  1.00  0.00    -0.000 C 
BRANCH  16  17
ATOM     17  C   UNL     1       2.901  -1.483   2.884  1.00  0.00    -0.000 C 
BRANCH  17  18
ATOM     18  C   UNL     1       4.410  -1.203   2.845  1.00  0.00    -0.003 C 
ATOM     19  C   UNL     1       5.144  -2.260   2.026  1.00  0.00     0.004 C 
ENDBRANCH  17  18
ENDBRANCH  16  17
ENDBRANCH  15  16
ENDBRANCH  14  15
ENDBRANCH  13  14
ENDBRANCH  12  13
ENDBRANCH   1  12
TORSDOF 14
ENDMDL
MODEL 4
REMARK VINA RESULT:    -4.682      1.505      2.216
REMARK INTER + INTRA:          -9.706
REMARK INTER:                  -9.007
REMARK INTRA:                  -0.699
REMARK UNBOUND:                -1.192
REMARK SMILES CCCCCCCCCCCCCC[C@@H](C)C(=O)[O-]
REMARK SMILES IDX 9 1 10 2 11 3 12 4 13 5 14 6 15 7 16 8 17 9 18 10 19 11 8 12
REMARK SMILES IDX 7 13 6 14 5 15 4 16 3 17 2 18 1 19
REMARK H PARENT
REMARK Flexibility Score: inf
ROOT
ATOM      1  C   UNL     1      -4.118  -1.488   4.512  1.00  0.00     0.000 C 
ENDROOT
BRANCH   1   2
ATOM      2  C   UNL     1      -4.726  -2.790   5.064  1.00  0.00     0.000 C 
BRANCH   2   3
ATOM      3  C   UNL     1      -5.029  -3.820   3.967  1.00  0.00     0.000 C 
BRANCH   3   4
ATOM      4  C   UNL     1      -4.958  -3.174   2.575  1.00  0.00     0.000 C 
BRANCH   4   5
ATOM      5  C   UNL     1      -5.903  -3.839   1.561  1.00  0.00     0.001 C 
BRANCH   5   6
ATOM      6  C   UNL     1      -5.159  -4.750   0.568  1.00  0.00     0.009 C 
BRANCH   6   7
ATOM      7  C   UNL     1      -6.121  -5.582  -0.310  1.00  0.00     0.032 C 
ATOM      8  C   UNL     1      -7.592  -5.380   0.078  1.00  0.00     0.014 C 
BRANCH   7   9
ATOM      9  C   UNL     1      -5.927  -5.228  -1.760  1.00  0.00     0.044 C 
ATOM     10  O   UNL     1      -6.354  -4.133  -2.213  1.00  0.00    -0.550 OA
ATOM     11  O   UNL     1      -5.272  -6.111  -2.608  1.00  0.00    -0.550 OA
ENDBRANCH   7   9
ENDBRANCH   6   7
ENDBRANCH   5   6
ENDBRANCH   4   5
ENDBRANCH   3   4
ENDBRANCH   2   3
ENDBRANCH   1   2
BRANCH   1  12
ATOM     12  C   UNL     1      -3.301  -0.663   5.529  1.00  0.00     0.000 C 
BRANCH  12  13
ATOM     13  C   UNL     1      -1.964  -0.114   4.998  1.00  0.00    -0.000 C 
BRANCH  13  14
ATOM     14  C   UNL     1      -1.065   0.444   6.111  1.00  0.00    -0.000 C 
BRANCH  14  15
ATOM     15  C   UNL     1      -0.100  -0.630   6.627  1.00  0.00    -0.000 C 
BRANCH  15  16
ATOM     16  C   UNL     1       1.089  -0.806   5.669  1.00  0.00    -0.000 C 
BRANCH  16  17
ATOM     17  C   UNL     1       1.848  -2.122   5.903  1.00  0.00    -0.000 C 
BRANCH  17  18
ATOM     18  C   UNL     1       2.808  -2.464   4.755  1.00  0.00    -0.003 C 
ATOM     19  C   UNL     1       2.210  -2.077   3.405  1.00  0.00     0.004 C 
ENDBRANCH  17  18
ENDBRANCH  16  17
ENDBRANCH  15  16
ENDBRANCH  14  15
ENDBRANCH  13  14
ENDBRANCH  12  13
ENDBRANCH   1  12
TORSDOF 14
ENDMDL
MODEL 5
REMARK VINA RESULT:    -4.664      1.225      2.533
REMARK INTER + INTRA:          -9.672
REMARK INTER:                  -8.621
REMARK INTRA:                  -1.051
REMARK UNBOUND:                -1.192
REMARK SMILES CCCCCCCCCCCCCC[C@@H](C)C(=O)[O-]
REMARK SMILES IDX 9 1 10 2 11 3 12 4 13 5 14 6 15 7 16 8 17 9 18 10 19 11 8 12
REMARK SMILES IDX 7 13 6 14 5 15 4 16 3 17 2 18 1 19
REMARK H PARENT
REMARK Flexibility Score: inf
ROOT
ATOM      1  C   UNL     1      -5.167  -2.182   2.546  1.00  0.00     0.000 C 
ENDROOT
BRANCH   1   2
ATOM      2  C   UNL     1      -5.610  -2.904   1.260  1.00  0.00     0.000 C 
BRANCH   2   3
ATOM      3  C   UNL     1      -4.485  -3.731   0.623  1.00  0.00     0.000 C 
BRANCH   3   4
ATOM      4  C   UNL     1      -4.964  -5.157   0.309  1.00  0.00     0.000 C 
BRANCH   4   5
ATOM      5  C   UNL     1      -6.497  -5.285   0.314  1.00  0.00     0.001 C 
BRANCH   5   6
ATOM      6  C   UNL     1      -7.060  -5.707  -1.054  1.00  0.00     0.009 C 
BRANCH   6   7
ATOM      7  C   UNL     1      -6.105  -5.369  -2.220  1.00  0.00     0.032 C 
ATOM      8  C   UNL     1      -5.982  -6.518  -3.231  1.00  0.00     0.014 C 
BRANCH   7   9
ATOM      9  C   UNL     1      -6.577  -4.125  -2.925  1.00  0.00     0.044 C 
ATOM     10  O   UNL     1      -7.084  -3.174  -2.272  1.00  0.00    -0.550 OA
ATOM     11  O   UNL     1      -6.453  -4.020  -4.304  1.00  0.00    -0.550 OA
ENDBRANCH   7   9
ENDBRANCH   6   7
ENDBRANCH   5   6
ENDBRANCH   4   5
ENDBRANCH   3   4
ENDBRANCH   2   3
ENDBRANCH   1   2
BRANCH   1  12
ATOM     12  C   UNL     1      -5.191  -3.047   3.824  1.00  0.00     0.000 C 
BRANCH  12  13
ATOM     13  C   UNL     1      -4.351  -2.505   4.993  1.00  0.00    -0.000 C 
BRANCH  13  14
ATOM     14  C   UNL     1      -3.963  -1.030   4.816  1.00  0.00    -0.000 C 
BRANCH  14  15
ATOM     15  C   UNL     1      -2.961  -0.592   5.891  1.00  0.00    -0.000 C 
BRANCH  15  16
ATOM     16  C   UNL     1      -1.972   0.443   5.332  1.00  0.00    -0.000 C 
BRANCH  16  17
ATOM     17  C   UNL     1      -0.508   0.084   5.631  1.00  0.00    -0.000 C 
BRANCH  17  18
ATOM     18  C   UNL     1      -0.354  -0.762   6.902  1.00  0.00    -0.003 C 
ATOM     19  C   UNL     1       0.383   0.013   7.992  1.00  0.00     0.004 C 
ENDBRANCH  17  18
ENDBRANCH  16  17
ENDBRANCH  15  16
ENDBRANCH  14  15
ENDBRANCH  13  14
ENDBRANCH  12  13
ENDBRANCH   1  12
TORSDOF 14
ENDMDL
MODEL 6
REMARK VINA RESULT:    -4.542      4.039      8.100
REMARK INTER + INTRA:          -9.452
REMARK INTER:                  -7.524
REMARK INTRA:                  -1.928
REMARK UNBOUND:                -1.192
REMARK SMILES CCCCCCCCCCCCCC[C@@H](C)C(=O)[O-]
REMARK SMILES IDX 9 1 10 2 11 3 12 4 13 5 14 6 15 7 16 8 17 9 18 10 19 11 8 12
REMARK SMILES IDX 7 13 6 14 5 15 4 16 3 17 2 18 1 19
REMARK H PARENT
REMARK Flexibility Score: inf
ROOT
ATOM      1  C   UNL     1      -5.579  -5.350   3.361  1.00  0.00     0.000 C 
ENDROOT
BRANCH   1   2
ATOM      2  C   UNL     1      -5.188  -4.182   4.284  1.00  0.00     0.000 C 
BRANCH   2   3
ATOM      3  C   UNL     1      -6.069  -2.941   4.083  1.00  0.00     0.000 C 
BRANCH   3   4
ATOM      4  C   UNL     1      -5.230  -1.656   4.153  1.00  0.00     0.000 C 
BRANCH   4   5
ATOM      5  C   UNL     1      -4.019  -1.787   5.093  1.00  0.00     0.001 C 
BRANCH   5   6
ATOM      6  C   UNL     1      -3.630  -0.449   5.745  1.00  0.00     0.009 C 
BRANCH   6   7
ATOM      7  C   UNL     1      -2.100  -0.239   5.804  1.00  0.00     0.032 C 
ATOM      8  C   UNL     1      -1.671   1.117   5.226  1.00  0.00     0.014 C 
BRANCH   7   9
ATOM      9  C   UNL     1      -1.620  -0.357   7.225  1.00  0.00     0.044 C 
ATOM     10  O   UNL     1      -2.445  -0.416   8.176  1.00  0.00    -0.550 OA
ATOM     11  O   UNL     1      -0.259  -0.402   7.496  1.00  0.00    -0.550 OA
ENDBRANCH   7   9
ENDBRANCH   6   7
ENDBRANCH   5   6
ENDBRANCH   4   5
ENDBRANCH   3   4
ENDBRANCH   2   3
ENDBRANCH   1   2
BRANCH   1  12
ATOM     12  C   UNL     1      -6.674  -5.026   2.323  1.00  0.00     0.000 C 
BRANCH  12  13
ATOM     13  C   UNL     1      -6.264  -5.238   0.855  1.00  0.00    -0.000 C 
BRANCH  13  14
ATOM     14  C   UNL     1      -4.814  -4.816   0.574  1.00  0.00    -0.000 C 
BRANCH  14  15
ATOM     15  C   UNL     1      -4.660  -3.293   0.651  1.00  0.00    -0.000 C 
BRANCH  15  16
ATOM     16  C   UNL     1      -5.606  -2.594  -0.337  1.00  0.00    -0.000 C 
BRANCH  16  17
ATOM     17  C   UNL     1      -6.027  -1.193   0.136  1.00  0.00    -0.000 C 
BRANCH  17  18
ATOM     18  C   UNL     1      -7.240  -1.225   1.076  1.00  0.00    -0.003 C 
ATOM     19  C   UNL     1      -8.347  -2.113   0.515  1.00  0.00     0.004 C 
ENDBRANCH  17  18
ENDBRANCH  16  17
ENDBRANCH  15  16
ENDBRANCH  14  15
ENDBRANCH  13  14
ENDBRANCH  12  13
ENDBRANCH   1  12
TORSDOF 14
ENDMDL
MODEL 7
REMARK VINA RESULT:    -4.532      4.057      8.359
REMARK INTER + INTRA:          -9.434
REMARK INTER:                  -7.963
REMARK INTRA:                  -1.471
REMARK UNBOUND:                -1.192
REMARK SMILES CCCCCCCCCCCCCC[C@@H](C)C(=O)[O-]
REMARK SMILES IDX 9 1 10 2 11 3 12 4 13 5 14 6 15 7 16 8 17 9 18 10 19 11 8 12
REMARK SMILES IDX 7 13 6 14 5 15 4 16 3 17 2 18 1 19
REMARK H PARENT
REMARK Flexibility Score: inf
ROOT
ATOM      1  C   UNL     1      -3.726  -1.892   6.649  1.00  0.00     0.000 C 
ENDROOT
BRANCH   1   2
ATOM      2  C   UNL     1      -3.778  -0.590   5.831  1.00  0.00     0.000 C 
BRANCH   2   3
ATOM      3  C   UNL     1      -2.569  -0.421   4.900  1.00  0.00     0.000 C 
BRANCH   3   4
ATOM      4  C   UNL     1      -1.842   0.904   5.181  1.00  0.00     0.000 C 
BRANCH   4   5
ATOM      5  C   UNL     1      -0.731   0.762   6.235  1.00  0.00     0.001 C 
BRANCH   5   6
ATOM      6  C   UNL     1       0.098  -0.522   6.051  1.00  0.00     0.009 C 
BRANCH   6   7
ATOM      7  C   UNL     1       0.687  -1.044   7.380  1.00  0.00     0.032 C 
ATOM      8  C   UNL     1      -0.323  -1.876   8.183  1.00  0.00     0.014 C 
BRANCH   7   9
ATOM      9  C   UNL     1       1.917  -1.868   7.107  1.00  0.00     0.044 C 
ATOM     10  O   UNL     1       2.063  -2.452   6.000  1.00  0.00    -0.550 OA
ATOM     11  O   UNL     1       2.901  -1.988   8.079  1.00  0.00    -0.550 OA
ENDBRANCH   7   9
ENDBRANCH   6   7
ENDBRANCH   5   6
ENDBRANCH   4   5
ENDBRANCH   3   4
ENDBRANCH   2   3
ENDBRANCH   1   2
BRANCH   1  12
ATOM     12  C   UNL     1      -4.474  -3.088   6.025  1.00  0.00     0.000 C 
BRANCH  12  13
ATOM     13  C   UNL     1      -5.433  -2.729   4.875  1.00  0.00    -0.000 C 
BRANCH  13  14
ATOM     14  C   UNL     1      -4.991  -3.313   3.526  1.00  0.00    -0.000 C 
BRANCH  14  15
ATOM     15  C   UNL     1      -4.954  -2.227   2.443  1.00  0.00    -0.000 C 
BRANCH  15  16
ATOM     16  C   UNL     1      -5.351  -2.801   1.075  1.00  0.00    -0.000 C 
BRANCH  16  17
ATOM     17  C   UNL     1      -4.604  -4.102   0.739  1.00  0.00    -0.000 C 
BRANCH  17  18
ATOM     18  C   UNL     1      -5.523  -5.174   0.138  1.00  0.00    -0.003 C 
ATOM     19  C   UNL     1      -6.894  -5.163   0.808  1.00  0.00     0.004 C 
ENDBRANCH  17  18
ENDBRANCH  16  17
ENDBRANCH  15  16
ENDBRANCH  14  15
ENDBRANCH  13  14
ENDBRANCH  12  13
ENDBRANCH   1  12
TORSDOF 14
ENDMDL
MODEL 8
REMARK VINA RESULT:    -4.520      3.259      5.879
REMARK INTER + INTRA:          -9.410
REMARK INTER:                  -6.724
REMARK INTRA:                  -2.686
REMARK UNBOUND:                -1.192
REMARK SMILES CCCCCCCCCCCCCC[C@@H](C)C(=O)[O-]
REMARK SMILES IDX 9 1 10 2 11 3 12 4 13 5 14 6 15 7 16 8 17 9 18 10 19 11 8 12
REMARK SMILES IDX 7 13 6 14 5 15 4 16 3 17 2 18 1 19
REMARK H PARENT
REMARK Flexibility Score: inf
ROOT
ATOM      1  C   UNL     1      -7.428  -5.461   0.322  1.00  0.00     0.000 C 
ENDROOT
BRANCH   1   2
ATOM      2  C   UNL     1      -8.460  -4.328   0.179  1.00  0.00     0.000 C 
BRANCH   2   3
ATOM      3  C   UNL     1      -8.800  -3.657   1.517  1.00  0.00     0.000 C 
BRANCH   3   4
ATOM      4  C   UNL     1      -8.604  -2.136   1.432  1.00  0.00     0.000 C 
BRANCH   4   5
ATOM      5  C   UNL     1      -8.018  -1.686   0.084  1.00  0.00     0.001 C 
BRANCH   5   6
ATOM      6  C   UNL     1      -7.094  -0.462   0.219  1.00  0.00     0.009 C 
BRANCH   6   7
ATOM      7  C   UNL     1      -5.873  -0.533  -0.725  1.00  0.00     0.032 C 
ATOM      8  C   UNL     1      -5.950  -1.718  -1.697  1.00  0.00     0.014 C 
BRANCH   7   9
ATOM      9  C   UNL     1      -5.750   0.751  -1.501  1.00  0.00     0.044 C 
ATOM     10  O   UNL     1      -4.783   0.932  -2.289  1.00  0.00    -0.550 OA
ATOM     11  O   UNL     1      -6.708   1.745  -1.353  1.00  0.00    -0.550 OA
ENDBRANCH   7   9
ENDBRANCH   6   7
ENDBRANCH   5   6
ENDBRANCH   4   5
ENDBRANCH   3   4
ENDBRANCH   2   3
ENDBRANCH   1   2
BRANCH   1  12
ATOM     12  C   UNL     1      -6.212  -5.362  -0.623  1.00  0.00     0.000 C 
BRANCH  12  13
ATOM     13  C   UNL     1      -4.863  -5.115   0.076  1.00  0.00    -0.000 C 
BRANCH  13  14
ATOM     14  C   UNL     1      -5.021  -4.593   1.512  1.00  0.00    -0.000 C 
BRANCH  14  15
ATOM     15  C   UNL     1      -4.763  -3.083   1.579  1.00  0.00    -0.000 C 
BRANCH  15  16
ATOM     16  C   UNL     1      -5.242  -2.504   2.919  1.00  0.00    -0.000 C 
BRANCH  16  17
ATOM     17  C   UNL     1      -5.777  -3.583   3.874  1.00  0.00    -0.000 C 
BRANCH  17  18
ATOM     18  C   UNL     1      -4.860  -3.812   5.083  1.00  0.00    -0.003 C 
ATOM     19  C   UNL     1      -4.384  -2.486   5.670  1.00  0.00     0.004 C 
ENDBRANCH  17  18
ENDBRANCH  16  17
ENDBRANCH  15  16
ENDBRANCH  14  15
ENDBRANCH  13  14
ENDBRANCH  12  13
ENDBRANCH   1  12
TORSDOF 14
ENDMDL
MODEL 9
REMARK VINA RESULT:    -4.481      1.845      3.670
REMARK INTER + INTRA:          -9.340
REMARK INTER:                  -7.856
REMARK INTRA:                  -1.484
REMARK UNBOUND:                -1.192
REMARK SMILES CCCCCCCCCCCCCC[C@@H](C)C(=O)[O-]
REMARK SMILES IDX 9 1 10 2 11 3 12 4 13 5 14 6 15 7 16 8 17 9 18 10 19 11 8 12
REMARK SMILES IDX 7 13 6 14 5 15 4 16 3 17 2 18 1 19
REMARK H PARENT
REMARK Flexibility Score: inf
ROOT
ATOM      1  C   UNL     1      -4.580  -3.320   1.090  1.00  0.00     0.000 C 
ENDROOT
BRANCH   1   2
ATOM      2  C   UNL     1      -4.730  -4.848   0.976  1.00  0.00     0.000 C 
BRANCH   2   3
ATOM      3  C   UNL     1      -5.526  -5.278  -0.264  1.00  0.00     0.000 C 
BRANCH   3   4
ATOM      4  C   UNL     1      -7.029  -5.345   0.047  1.00  0.00     0.000 C 
BRANCH   4   5
ATOM      5  C   UNL     1      -7.864  -4.416  -0.850  1.00  0.00     0.001 C 
BRANCH   5   6
ATOM      6  C   UNL     1      -6.996  -3.431  -1.653  1.00  0.00     0.009 C 
BRANCH   6   7
ATOM      7  C   UNL     1      -7.388  -1.957  -1.407  1.00  0.00     0.032 C 
ATOM      8  C   UNL     1      -8.197  -1.772  -0.116  1.00  0.00     0.014 C 
BRANCH   7   9
ATOM      9  C   UNL     1      -6.151  -1.100  -1.355  1.00  0.00     0.044 C 
ATOM     10  O   UNL     1      -5.933  -0.351  -0.365  1.00  0.00    -0.550 OA
ATOM     11  O   UNL     1      -5.241  -1.131  -2.403  1.00  0.00    -0.550 OA
ENDBRANCH   7   9
ENDBRANCH   6   7
ENDBRANCH   5   6
ENDBRANCH   4   5
ENDBRANCH   3   4
ENDBRANCH   2   3
ENDBRANCH   1   2
BRANCH   1  12
ATOM     12  C   UNL     1      -5.405  -2.664   2.217  1.00  0.00     0.000 C 
BRANCH  12  13
ATOM     13  C   UNL     1      -4.820  -2.822   3.631  1.00  0.00    -0.000 C 
BRANCH  13  14
ATOM     14  C   UNL     1      -4.105  -1.556   4.126  1.00  0.00    -0.000 C 
BRANCH  14  15
ATOM     15  C   UNL     1      -3.828  -1.636   5.632  1.00  0.00    -0.000 C 
BRANCH  15  16
ATOM     16  C   UNL     1      -3.089  -0.380   6.122  1.00  0.00    -0.000 C 
BRANCH  16  17
ATOM     17  C   UNL     1      -2.128   0.190   5.067  1.00  0.00    -0.000 C 
BRANCH  17  18
ATOM     18  C   UNL     1      -0.652   0.009   5.451  1.00  0.00    -0.003 C 
ATOM     19  C   UNL     1      -0.495  -0.169   6.958  1.00  0.00     0.004 C 
ENDBRANCH  17  18
ENDBRANCH  16  17
ENDBRANCH  15  16
ENDBRANCH  14  15
ENDBRANCH  13  14
ENDBRANCH  12  13
ENDBRANCH   1  12
TORSDOF 14
ENDMDL
