MODEL 1
REMARK VINA RESULT:    -5.436      0.000      0.000
REMARK INTER + INTRA:         -12.275
REMARK INTER:                  -9.884
REMARK INTRA:                  -2.391
REMARK UNBOUND:                -2.391
REMARK SMILES CCCCCCCCCCCCCC[C@H](C)C(=O)[O-]
REMARK SMILES IDX 9 1 10 2 11 3 12 4 13 5 14 6 15 7 16 8 17 9 18 10 19 11 8 12
REMARK SMILES IDX 7 13 6 14 5 15 4 16 3 17 2 18 1 19
REMARK H PARENT
REMARK Flexibility Score: inf
ROOT
ATOM      1  C   UNL     1      52.894  14.838  -1.021  1.00  0.00     0.000 C 
ENDROOT
BRANCH   1   2
ATOM      2  C   UNL     1      53.441  15.993  -1.874  1.00  0.00     0.000 C 
BRANCH   2   3
ATOM      3  C   UNL     1      52.382  17.075  -2.159  1.00  0.00     0.000 C 
BRANCH   3   4
ATOM      4  C   UNL     1      52.222  18.071  -0.996  1.00  0.00     0.000 C 
BRANCH   4   5
ATOM      5  C   UNL     1      50.855  17.990  -0.288  1.00  0.00     0.001 C 
BRANCH   5   6
ATOM      6  C   UNL     1      50.197  19.372  -0.068  1.00  0.00     0.009 C 
BRANCH   6   7
ATOM      7  C   UNL     1      49.104  19.706  -1.110  1.00  0.00     0.032 C 
ATOM      8  C   UNL     1      48.941  18.598  -2.159  1.00  0.00     0.014 C 
BRANCH   7   9
ATOM      9  C   UNL     1      49.423  21.010  -1.791  1.00  0.00     0.044 C 
ATOM     10  O   UNL     1      48.541  21.901  -1.912  1.00  0.00    -0.550 OA
ATOM     11  O   UNL     1      50.699  21.236  -2.292  1.00  0.00    -0.550 OA
ENDBRANCH   7   9
ENDBRANCH   6   7
ENDBRANCH   5   6
ENDBRANCH   4   5
ENDBRANCH   3   4
ENDBRANCH   2   3
ENDBRANCH   1   2
BRANCH   1  12
ATOM     12  C   UNL     1      53.998  14.113  -0.230  1.00  0.00     0.000 C 
BRANCH  12  13
ATOM     13  C   UNL     1      53.995  14.487   1.261  1.00  0.00    -0.000 C 
BRANCH  13  14
ATOM     14  C   UNL     1      52.759  15.312   1.658  1.00  0.00    -0.000 C 
BRANCH  14  15
ATOM     15  C   UNL     1      53.127  16.673   2.273  1.00  0.00    -0.000 C 
BRANCH  15  16
ATOM     16  C   UNL     1      54.646  16.912   2.316  1.00  0.00    -0.000 C 
BRANCH  16  17
ATOM     17  C   UNL     1      55.103  17.983   1.310  1.00  0.00    -0.000 C 
BRANCH  17  18
ATOM     18  C   UNL     1      55.992  17.408   0.197  1.00  0.00    -0.003 C 
ATOM     19  C   UNL     1      57.089  16.519   0.778  1.00  0.00     0.004 C 
ENDBRANCH  17  18
ENDBRANCH  16  17
ENDBRANCH  15  16
ENDBRANCH  14  15
ENDBRANCH  13  14
ENDBRANCH  12  13
ENDBRANCH   1  12
TORSDOF 14
ENDMDL
MODEL 2
REMARK VINA RESULT:    -5.432      1.283      3.444
REMARK INTER + INTRA:         -12.269
REMARK INTER:                  -9.791
REMARK INTRA:                  -2.478
REMARK UNBOUND:                -2.391
REMARK SMILES CCCCCCCCCCCCCC[C@H](C)C(=O)[O-]
REMARK SMILES IDX 9 1 10 2 11 3 12 4 13 5 14 6 15 7 16 8 17 9 18 10 19 11 8 12
REMARK SMILES IDX 7 13 6 14 5 15 4 16 3 17 2 18 1 19
REMARK H PARENT
REMARK Flexibility Score: inf
ROOT
ATOM      1  C   UNL     1      55.079  17.945   1.426  1.00  0.00     0.000 C 
ENDROOT
BRANCH   1   2
ATOM      2  C   UNL     1      54.414  17.118   2.537  1.00  0.00     0.000 C 
BRANCH   2   3
ATOM      3  C   UNL     1      52.956  17.541   2.801  1.00  0.00     0.000 C 
BRANCH   3   4
ATOM      4  C   UNL     1      51.975  16.974   1.758  1.00  0.00     0.000 C 
BRANCH   4   5
ATOM      5  C   UNL     1      50.757  17.881   1.489  1.00  0.00     0.001 C 
BRANCH   5   6
ATOM      6  C   UNL     1      50.925  18.772   0.236  1.00  0.00     0.009 C 
BRANCH   6   7
ATOM      7  C   UNL     1      49.755  18.650  -0.767  1.00  0.00     0.032 C 
ATOM      8  C   UNL     1      50.241  18.500  -2.214  1.00  0.00     0.014 C 
BRANCH   7   9
ATOM      9  C   UNL     1      48.853  19.850  -0.653  1.00  0.00     0.044 C 
ATOM     10  O   UNL     1      48.248  20.096   0.424  1.00  0.00    -0.550 OA
ATOM     11  O   UNL     1      48.682  20.694  -1.743  1.00  0.00    -0.550 OA
ENDBRANCH   7   9
ENDBRANCH   6   7
ENDBRANCH   5   6
ENDBRANCH   4   5
ENDBRANCH   3   4
ENDBRANCH   2   3
ENDBRANCH   1   2
BRANCH   1  12
ATOM     12  C   UNL     1      55.972  17.092   0.508  1.00  0.00     0.000 C 
BRANCH  12  13
ATOM     13  C   UNL     1      55.549  17.175  -0.968  1.00  0.00    -0.000 C 
BRANCH  13  14
ATOM     14  C   UNL     1      54.077  17.591  -1.135  1.00  0.00    -0.000 C 
BRANCH  14  15
ATOM     15  C   UNL     1      53.228  16.505  -1.818  1.00  0.00    -0.000 C 
BRANCH  15  16
ATOM     16  C   UNL     1      53.750  15.084  -1.542  1.00  0.00    -0.000 C 
BRANCH  16  17
ATOM     17  C   UNL     1      53.169  14.484  -0.250  1.00  0.00    -0.000 C 
BRANCH  17  18
ATOM     18  C   UNL     1      54.253  13.911   0.675  1.00  0.00    -0.003 C 
ATOM     19  C   UNL     1      55.459  13.430  -0.128  1.00  0.00     0.004 C 
ENDBRANCH  17  18
ENDBRANCH  16  17
ENDBRANCH  15  16
ENDBRANCH  14  15
ENDBRANCH  13  14
ENDBRANCH  12  13
ENDBRANCH   1  12
TORSDOF 14
ENDMDL
MODEL 3
REMARK VINA RESULT:    -5.425      1.171      3.382
REMARK INTER + INTRA:         -12.255
REMARK INTER:                  -9.933
REMARK INTRA:                  -2.323
REMARK UNBOUND:                -2.391
REMARK SMILES CCCCCCCCCCCCCC[C@H](C)C(=O)[O-]
REMARK SMILES IDX 9 1 10 2 11 3 12 4 13 5 14 6 15 7 16 8 17 9 18 10 19 11 8 12
REMARK SMILES IDX 7 13 6 14 5 15 4 16 3 17 2 18 1 19
REMARK H PARENT
REMARK Flexibility Score: inf
ROOT
ATOM      1  C   UNL     1      54.355  17.267   2.604  1.00  0.00     0.000 C 
ENDROOT
BRANCH   1   2
ATOM      2  C   UNL     1      53.534  16.084   2.067  1.00  0.00     0.000 C 
BRANCH   2   3
ATOM      3  C   UNL     1      52.035  16.415   1.932  1.00  0.00     0.000 C 
BRANCH   3   4
ATOM      4  C   UNL     1      51.755  17.928   1.978  1.00  0.00     0.000 C 
BRANCH   4   5
ATOM      5  C   UNL     1      50.465  18.347   1.243  1.00  0.00     0.001 C 
BRANCH   5   6
ATOM      6  C   UNL     1      50.734  19.121  -0.069  1.00  0.00     0.009 C 
BRANCH   6   7
ATOM      7  C   UNL     1      49.610  18.960  -1.118  1.00  0.00     0.032 C 
ATOM      8  C   UNL     1      50.156  18.597  -2.505  1.00  0.00     0.014 C 
BRANCH   7   9
ATOM      9  C   UNL     1      48.802  20.227  -1.204  1.00  0.00     0.044 C 
ATOM     10  O   UNL     1      49.218  21.207  -1.878  1.00  0.00    -0.550 OA
ATOM     11  O   UNL     1      47.587  20.321  -0.536  1.00  0.00    -0.550 OA
ENDBRANCH   7   9
ENDBRANCH   6   7
ENDBRANCH   5   6
ENDBRANCH   4   5
ENDBRANCH   3   4
ENDBRANCH   2   3
ENDBRANCH   1   2
BRANCH   1  12
ATOM     12  C   UNL     1      55.254  17.900   1.527  1.00  0.00     0.000 C 
BRANCH  12  13
ATOM     13  C   UNL     1      55.909  16.850   0.616  1.00  0.00    -0.000 C 
BRANCH  13  14
ATOM     14  C   UNL     1      55.651  17.123  -0.877  1.00  0.00    -0.000 C 
BRANCH  14  15
ATOM     15  C   UNL     1      54.345  17.899  -1.119  1.00  0.00    -0.000 C 
BRANCH  15  16
ATOM     16  C   UNL     1      53.160  16.975  -1.449  1.00  0.00    -0.000 C 
BRANCH  16  17
ATOM     17  C   UNL     1      53.612  15.597  -1.962  1.00  0.00    -0.000 C 
BRANCH  17  18
ATOM     18  C   UNL     1      53.084  14.442  -1.097  1.00  0.00    -0.003 C 
ATOM     19  C   UNL     1      54.233  13.680  -0.441  1.00  0.00     0.004 C 
ENDBRANCH  17  18
ENDBRANCH  16  17
ENDBRANCH  15  16
ENDBRANCH  14  15
ENDBRANCH  13  14
ENDBRANCH  12  13
ENDBRANCH   1  12
TORSDOF 14
ENDMDL
MODEL 4
REMARK VINA RESULT:    -5.424      5.015      7.911
REMARK INTER + INTRA:         -12.255
REMARK INTER:                  -9.931
REMARK INTRA:                  -2.324
REMARK UNBOUND:                -2.391
REMARK SMILES CCCCCCCCCCCCCC[C@H](C)C(=O)[O-]
REMARK SMILES IDX 9 1 10 2 11 3 12 4 13 5 14 6 15 7 16 8 17 9 18 10 19 11 8 12
REMARK SMILES IDX 7 13 6 14 5 15 4 16 3 17 2 18 1 19
REMARK H PARENT
REMARK Flexibility Score: inf
ROOT
ATOM      1  C   UNL     1      52.831  14.998   1.678  1.00  0.00     0.000 C 
ENDROOT
BRANCH   1   2
ATOM      2  C   UNL     1      54.162  14.269   1.436  1.00  0.00     0.000 C 
BRANCH   2   3
ATOM      3  C   UNL     1      54.310  13.770  -0.014  1.00  0.00     0.000 C 
BRANCH   3   4
ATOM      4  C   UNL     1      55.537  12.860  -0.207  1.00  0.00     0.000 C 
BRANCH   4   5
ATOM      5  C   UNL     1      56.749  13.254   0.661  1.00  0.00     0.001 C 
BRANCH   5   6
ATOM      6  C   UNL     1      58.097  13.148  -0.088  1.00  0.00     0.009 C 
BRANCH   6   7
ATOM      7  C   UNL     1      59.110  14.246   0.311  1.00  0.00     0.032 C 
ATOM      8  C   UNL     1      59.194  15.368  -0.732  1.00  0.00     0.014 C 
BRANCH   7   9
ATOM      9  C   UNL     1      60.472  13.639   0.516  1.00  0.00     0.044 C 
ATOM     10  O   UNL     1      60.755  12.518   0.015  1.00  0.00    -0.550 OA
ATOM     11  O   UNL     1      61.428  14.316   1.264  1.00  0.00    -0.550 OA
ENDBRANCH   7   9
ENDBRANCH   6   7
ENDBRANCH   5   6
ENDBRANCH   4   5
ENDBRANCH   3   4
ENDBRANCH   2   3
ENDBRANCH   1   2
BRANCH   1  12
ATOM     12  C   UNL     1      53.017  16.508   1.910  1.00  0.00     0.000 C 
BRANCH  12  13
ATOM     13  C   UNL     1      54.410  16.851   2.464  1.00  0.00    -0.000 C 
BRANCH  13  14
ATOM     14  C   UNL     1      55.160  17.864   1.581  1.00  0.00    -0.000 C 
BRANCH  14  15
ATOM     15  C   UNL     1      56.266  17.210   0.737  1.00  0.00    -0.000 C 
BRANCH  15  16
ATOM     16  C   UNL     1      55.831  16.959  -0.718  1.00  0.00    -0.000 C 
BRANCH  16  17
ATOM     17  C   UNL     1      54.522  17.685  -1.074  1.00  0.00    -0.000 C 
BRANCH  17  18
ATOM     18  C   UNL     1      53.451  16.733  -1.628  1.00  0.00    -0.003 C 
ATOM     19  C   UNL     1      52.101  17.436  -1.741  1.00  0.00     0.004 C 
ENDBRANCH  17  18
ENDBRANCH  16  17
ENDBRANCH  15  16
ENDBRANCH  14  15
ENDBRANCH  13  14
ENDBRANCH  12  13
ENDBRANCH   1  12
TORSDOF 14
ENDMDL
MODEL 5
REMARK VINA RESULT:    -5.388      5.335      8.268
REMARK INTER + INTRA:         -12.188
REMARK INTER:                 -10.112
REMARK INTRA:                  -2.076
REMARK UNBOUND:                -2.391
REMARK SMILES CCCCCCCCCCCCCC[C@H](C)C(=O)[O-]
REMARK SMILES IDX 9 1 10 2 11 3 12 4 13 5 14 6 15 7 16 8 17 9 18 10 19 11 8 12
REMARK SMILES IDX 7 13 6 14 5 15 4 16 3 17 2 18 1 19
REMARK H PARENT
REMARK Flexibility Score: inf
ROOT
ATOM      1  C   UNL     1      52.663  15.303   1.835  1.00  0.00     0.000 C 
ENDROOT
BRANCH   1   2
ATOM      2  C   UNL     1      53.907  14.491   1.440  1.00  0.00     0.000 C 
BRANCH   2   3
ATOM      3  C   UNL     1      53.861  14.010  -0.022  1.00  0.00     0.000 C 
BRANCH   3   4
ATOM      4  C   UNL     1      55.006  13.038  -0.364  1.00  0.00     0.000 C 
BRANCH   4   5
ATOM      5  C   UNL     1      56.335  13.366   0.345  1.00  0.00     0.001 C 
BRANCH   5   6
ATOM      6  C   UNL     1      57.028  12.123   0.951  1.00  0.00     0.009 C 
BRANCH   6   7
ATOM      7  C   UNL     1      58.118  11.520   0.035  1.00  0.00     0.032 C 
ATOM      8  C   UNL     1      57.525  10.796  -1.180  1.00  0.00     0.014 C 
BRANCH   7   9
ATOM      9  C   UNL     1      58.983  10.571   0.822  1.00  0.00     0.044 C 
ATOM     10  O   UNL     1      58.545  10.026   1.870  1.00  0.00    -0.550 OA
ATOM     11  O   UNL     1      60.274  10.292   0.393  1.00  0.00    -0.550 OA
ENDBRANCH   7   9
ENDBRANCH   6   7
ENDBRANCH   5   6
ENDBRANCH   4   5
ENDBRANCH   3   4
ENDBRANCH   2   3
ENDBRANCH   1   2
BRANCH   1  12
ATOM     12  C   UNL     1      52.981  16.788   2.088  1.00  0.00     0.000 C 
BRANCH  12  13
ATOM     13  C   UNL     1      54.448  17.015   2.491  1.00  0.00    -0.000 C 
BRANCH  13  14
ATOM     14  C   UNL     1      55.190  17.940   1.511  1.00  0.00    -0.000 C 
BRANCH  14  15
ATOM     15  C   UNL     1      56.150  17.175   0.585  1.00  0.00    -0.000 C 
BRANCH  15  16
ATOM     16  C   UNL     1      55.654  17.124  -0.871  1.00  0.00    -0.000 C 
BRANCH  16  17
ATOM     17  C   UNL     1      54.361  17.931  -1.081  1.00  0.00    -0.000 C 
BRANCH  17  18
ATOM     18  C   UNL     1      53.204  17.066  -1.604  1.00  0.00    -0.003 C 
ATOM     19  C   UNL     1      51.863  17.764  -1.399  1.00  0.00     0.004 C 
ENDBRANCH  17  18
ENDBRANCH  16  17
ENDBRANCH  15  16
ENDBRANCH  14  15
ENDBRANCH  13  14
ENDBRANCH  12  13
ENDBRANCH   1  12
TORSDOF 14
ENDMDL
MODEL 6
REMARK VINA RESULT:    -5.270      4.940      7.739
REMARK INTER + INTRA:         -11.974
REMARK INTER:                  -9.827
REMARK INTRA:                  -2.147
REMARK UNBOUND:                -2.391
REMARK SMILES CCCCCCCCCCCCCC[C@H](C)C(=O)[O-]
REMARK SMILES IDX 9 1 10 2 11 3 12 4 13 5 14 6 15 7 16 8 17 9 18 10 19 11 8 12
REMARK SMILES IDX 7 13 6 14 5 15 4 16 3 17 2 18 1 19
REMARK H PARENT
REMARK Flexibility Score: inf
ROOT
ATOM      1  C   UNL     1      53.774  17.850  -1.210  1.00  0.00     0.000 C 
ENDROOT
BRANCH   1   2
ATOM      2  C   UNL     1      55.200  17.376  -0.888  1.00  0.00     0.000 C 
BRANCH   2   3
ATOM      3  C   UNL     1      55.703  17.890   0.475  1.00  0.00     0.000 C 
BRANCH   3   4
ATOM      4  C   UNL     1      56.735  16.947   1.121  1.00  0.00     0.000 C 
BRANCH   4   5
ATOM      5  C   UNL     1      57.338  15.918   0.144  1.00  0.00     0.001 C 
BRANCH   5   6
ATOM      6  C   UNL     1      58.884  15.927   0.123  1.00  0.00     0.009 C 
BRANCH   6   7
ATOM      7  C   UNL     1      59.507  14.512   0.099  1.00  0.00     0.032 C 
ATOM      8  C   UNL     1      58.501  13.425   0.497  1.00  0.00     0.014 C 
BRANCH   7   9
ATOM      9  C   UNL     1      60.701  14.461   1.015  1.00  0.00     0.044 C 
ATOM     10  O   UNL     1      61.637  13.645   0.801  1.00  0.00    -0.550 OA
ATOM     11  O   UNL     1      60.775  15.317   2.106  1.00  0.00    -0.550 OA
ENDBRANCH   7   9
ENDBRANCH   6   7
ENDBRANCH   5   6
ENDBRANCH   4   5
ENDBRANCH   3   4
ENDBRANCH   2   3
ENDBRANCH   1   2
BRANCH   1  12
ATOM     12  C   UNL     1      52.807  16.682  -1.473  1.00  0.00     0.000 C 
BRANCH  12  13
ATOM     13  C   UNL     1      53.542  15.370  -1.794  1.00  0.00    -0.000 C 
BRANCH  13  14
ATOM     14  C   UNL     1      53.256  14.267  -0.760  1.00  0.00    -0.000 C 
BRANCH  14  15
ATOM     15  C   UNL     1      54.330  14.192   0.339  1.00  0.00    -0.000 C 
BRANCH  15  16
ATOM     16  C   UNL     1      53.750  14.403   1.749  1.00  0.00    -0.000 C 
BRANCH  16  17
ATOM     17  C   UNL     1      52.648  15.475   1.778  1.00  0.00    -0.000 C 
BRANCH  17  18
ATOM     18  C   UNL     1      53.148  16.821   2.324  1.00  0.00    -0.003 C 
ATOM     19  C   UNL     1      52.048  17.878   2.267  1.00  0.00     0.004 C 
ENDBRANCH  17  18
ENDBRANCH  16  17
ENDBRANCH  15  16
ENDBRANCH  14  15
ENDBRANCH  13  14
ENDBRANCH  12  13
ENDBRANCH   1  12
TORSDOF 14
ENDMDL
MODEL 7
REMARK VINA RESULT:    -5.248      4.560      7.092
REMARK INTER + INTRA:         -11.935
REMARK INTER:                  -9.622
REMARK INTRA:                  -2.313
REMARK UNBOUND:                -2.391
REMARK SMILES CCCCCCCCCCCCCC[C@H](C)C(=O)[O-]
REMARK SMILES IDX 9 1 10 2 11 3 12 4 13 5 14 6 15 7 16 8 17 9 18 10 19 11 8 12
REMARK SMILES IDX 7 13 6 14 5 15 4 16 3 17 2 18 1 19
REMARK H PARENT
REMARK Flexibility Score: inf
ROOT
ATOM      1  C   UNL     1      54.363  17.881  -1.131  1.00  0.00     0.000 C 
ENDROOT
BRANCH   1   2
ATOM      2  C   UNL     1      53.192  16.918  -1.383  1.00  0.00     0.000 C 
BRANCH   2   3
ATOM      3  C   UNL     1      53.660  15.497  -1.749  1.00  0.00     0.000 C 
BRANCH   3   4
ATOM      4  C   UNL     1      53.391  14.476  -0.629  1.00  0.00     0.000 C 
BRANCH   4   5
ATOM      5  C   UNL     1      54.523  13.447  -0.437  1.00  0.00     0.001 C 
BRANCH   5   6
ATOM      6  C   UNL     1      55.251  13.585   0.920  1.00  0.00     0.009 C 
BRANCH   6   7
ATOM      7  C   UNL     1      56.750  13.212   0.854  1.00  0.00     0.032 C 
ATOM      8  C   UNL     1      57.454  13.838  -0.356  1.00  0.00     0.014 C 
BRANCH   7   9
ATOM      9  C   UNL     1      56.906  11.715   0.816  1.00  0.00     0.044 C 
ATOM     10  O   UNL     1      57.063  11.060   1.881  1.00  0.00    -0.550 OA
ATOM     11  O   UNL     1      56.879  11.046  -0.402  1.00  0.00    -0.550 OA
ENDBRANCH   7   9
ENDBRANCH   6   7
ENDBRANCH   5   6
ENDBRANCH   4   5
ENDBRANCH   3   4
ENDBRANCH   2   3
ENDBRANCH   1   2
BRANCH   1  12
ATOM     12  C   UNL     1      55.703  17.147  -0.944  1.00  0.00     0.000 C 
BRANCH  12  13
ATOM     13  C   UNL     1      56.146  17.099   0.528  1.00  0.00    -0.000 C 
BRANCH  13  14
ATOM     14  C   UNL     1      55.214  17.906   1.449  1.00  0.00    -0.000 C 
BRANCH  14  15
ATOM     15  C   UNL     1      54.465  17.019   2.459  1.00  0.00    -0.000 C 
BRANCH  15  16
ATOM     16  C   UNL     1      52.947  16.992   2.210  1.00  0.00    -0.000 C 
BRANCH  16  17
ATOM     17  C   UNL     1      52.174  17.895   3.186  1.00  0.00    -0.000 C 
BRANCH  17  18
ATOM     18  C   UNL     1      50.989  18.608   2.518  1.00  0.00    -0.003 C 
ATOM     19  C   UNL     1      50.854  18.194   1.056  1.00  0.00     0.004 C 
ENDBRANCH  17  18
ENDBRANCH  16  17
ENDBRANCH  15  16
ENDBRANCH  14  15
ENDBRANCH  13  14
ENDBRANCH  12  13
ENDBRANCH   1  12
TORSDOF 14
ENDMDL
MODEL 8
REMARK VINA RESULT:    -5.199      2.083      3.139
REMARK INTER + INTRA:         -11.844
REMARK INTER:                  -9.822
REMARK INTRA:                  -2.022
REMARK UNBOUND:                -2.391
REMARK SMILES CCCCCCCCCCCCCC[C@H](C)C(=O)[O-]
REMARK SMILES IDX 9 1 10 2 11 3 12 4 13 5 14 6 15 7 16 8 17 9 18 10 19 11 8 12
REMARK SMILES IDX 7 13 6 14 5 15 4 16 3 17 2 18 1 19
REMARK H PARENT
REMARK Flexibility Score: inf
ROOT
ATOM      1  C   UNL     1      52.536  16.658  -1.957  1.00  0.00     0.000 C 
ENDROOT
BRANCH   1   2
ATOM      2  C   UNL     1      52.890  18.009  -1.316  1.00  0.00     0.000 C 
BRANCH   2   3
ATOM      3  C   UNL     1      51.718  19.008  -1.349  1.00  0.00     0.000 C 
BRANCH   3   4
ATOM      4  C   UNL     1      50.345  18.312  -1.370  1.00  0.00     0.000 C 
BRANCH   4   5
ATOM      5  C   UNL     1      49.459  18.640  -0.151  1.00  0.00     0.001 C 
BRANCH   5   6
ATOM      6  C   UNL     1      50.224  19.363   0.982  1.00  0.00     0.009 C 
BRANCH   6   7
ATOM      7  C   UNL     1      49.575  19.182   2.374  1.00  0.00     0.032 C 
ATOM      8  C   UNL     1      49.090  17.746   2.609  1.00  0.00     0.014 C 
BRANCH   7   9
ATOM      9  C   UNL     1      48.426  20.141   2.534  1.00  0.00     0.044 C 
ATOM     10  O   UNL     1      48.595  21.253   3.102  1.00  0.00    -0.550 OA
ATOM     11  O   UNL     1      47.168  19.801   2.054  1.00  0.00    -0.550 OA
ENDBRANCH   7   9
ENDBRANCH   6   7
ENDBRANCH   5   6
ENDBRANCH   4   5
ENDBRANCH   3   4
ENDBRANCH   2   3
ENDBRANCH   1   2
BRANCH   1  12
ATOM     12  C   UNL     1      53.644  15.606  -1.771  1.00  0.00     0.000 C 
BRANCH  12  13
ATOM     13  C   UNL     1      53.187  14.418  -0.909  1.00  0.00    -0.000 C 
BRANCH  13  14
ATOM     14  C   UNL     1      54.243  14.006   0.132  1.00  0.00    -0.000 C 
BRANCH  14  15
ATOM     15  C   UNL     1      53.927  14.538   1.540  1.00  0.00    -0.000 C 
BRANCH  15  16
ATOM     16  C   UNL     1      52.638  15.376   1.581  1.00  0.00    -0.000 C 
BRANCH  16  17
ATOM     17  C   UNL     1      52.886  16.815   2.065  1.00  0.00    -0.000 C 
BRANCH  17  18
ATOM     18  C   UNL     1      54.330  17.038   2.540  1.00  0.00    -0.003 C 
ATOM     19  C   UNL     1      55.112  17.880   1.537  1.00  0.00     0.004 C 
ENDBRANCH  17  18
ENDBRANCH  16  17
ENDBRANCH  15  16
ENDBRANCH  14  15
ENDBRANCH  13  14
ENDBRANCH  12  13
ENDBRANCH   1  12
TORSDOF 14
ENDMDL
MODEL 9
REMARK VINA RESULT:    -5.106      4.376      6.992
REMARK INTER + INTRA:         -11.677
REMARK INTER:                  -9.893
REMARK INTRA:                  -1.783
REMARK UNBOUND:                -2.391
REMARK SMILES CCCCCCCCCCCCCC[C@H](C)C(=O)[O-]
REMARK SMILES IDX 9 1 10 2 11 3 12 4 13 5 14 6 15 7 16 8 17 9 18 10 19 11 8 12
REMARK SMILES IDX 7 13 6 14 5 15 4 16 3 17 2 18 1 19
REMARK H PARENT
REMARK Flexibility Score: inf
ROOT
ATOM      1  C   UNL     1      52.277  18.377  -1.292  1.00  0.00     0.000 C 
ENDROOT
BRANCH   1   2
ATOM      2  C   UNL     1      52.138  16.940  -1.816  1.00  0.00     0.000 C 
BRANCH   2   3
ATOM      3  C   UNL     1      53.455  16.145  -1.729  1.00  0.00     0.000 C 
BRANCH   3   4
ATOM      4  C   UNL     1      53.236  14.674  -1.332  1.00  0.00     0.000 C 
BRANCH   4   5
ATOM      5  C   UNL     1      54.035  14.238  -0.087  1.00  0.00     0.001 C 
BRANCH   5   6
ATOM      6  C   UNL     1      54.960  13.026  -0.347  1.00  0.00     0.009 C 
BRANCH   6   7
ATOM      7  C   UNL     1      56.190  12.979   0.589  1.00  0.00     0.032 C 
ATOM      8  C   UNL     1      57.202  14.089   0.277  1.00  0.00     0.014 C 
BRANCH   7   9
ATOM      9  C   UNL     1      56.860  11.635   0.489  1.00  0.00     0.044 C 
ATOM     10  O   UNL     1      57.256  11.039   1.527  1.00  0.00    -0.550 OA
ATOM     11  O   UNL     1      57.046  11.043  -0.754  1.00  0.00    -0.550 OA
ENDBRANCH   7   9
ENDBRANCH   6   7
ENDBRANCH   5   6
ENDBRANCH   4   5
ENDBRANCH   3   4
ENDBRANCH   2   3
ENDBRANCH   1   2
BRANCH   1  12
ATOM     12  C   UNL     1      50.945  19.148  -1.318  1.00  0.00     0.000 C 
BRANCH  12  13
ATOM     13  C   UNL     1      49.937  18.617  -0.286  1.00  0.00    -0.000 C 
BRANCH  13  14
ATOM     14  C   UNL     1      50.360  18.924   1.161  1.00  0.00    -0.000 C 
BRANCH  14  15
ATOM     15  C   UNL     1      50.877  17.680   1.904  1.00  0.00    -0.000 C 
BRANCH  15  16
ATOM     16  C   UNL     1      52.255  17.906   2.550  1.00  0.00    -0.000 C 
BRANCH  16  17
ATOM     17  C   UNL     1      53.327  16.949   2.001  1.00  0.00    -0.000 C 
BRANCH  17  18
ATOM     18  C   UNL     1      54.755  17.405   2.337  1.00  0.00    -0.003 C 
ATOM     19  C   UNL     1      55.630  17.429   1.088  1.00  0.00     0.004 C 
ENDBRANCH  17  18
ENDBRANCH  16  17
ENDBRANCH  15  16
ENDBRANCH  14  15
ENDBRANCH  13  14
ENDBRANCH  12  13
ENDBRANCH   1  12
TORSDOF 14
ENDMDL
