MODEL 1
REMARK VINA RESULT:    -6.537      0.000      0.000
REMARK INTER + INTRA:          -7.871
REMARK INTER:                  -7.492
REMARK INTRA:                  -0.379
REMARK UNBOUND:                -0.379
REMARK SMILES O=C1C[C@@H](c2ccc(O)cc2)Oc2cc(O)cc(O)c21
REMARK SMILES IDX 3 1 4 2 12 3 13 4 14 5 15 6 17 7 18 8 20 9 2 10 1 11 5 12
REMARK SMILES IDX 6 13 11 14 7 15 10 16 8 17 9 18 19 20 16 22
REMARK H PARENT 9 19 19 21 16 23
REMARK Flexibility Score: inf
ROOT
ATOM      1  C   UNL     1       8.198  -6.085  -9.201  1.00  0.00     0.131 C 
ATOM      2  C   UNL     1       8.086  -7.623  -9.370  1.00  0.00     0.211 C 
ATOM      3  O   UNL     1       8.017  -8.445  -8.166  1.00  0.00    -0.484 OA
ATOM      4  C   UNL     1       7.705  -7.883  -6.903  1.00  0.00     0.138 A 
ATOM      5  C   UNL     1       7.479  -8.624  -5.691  1.00  0.00     0.093 A 
ATOM      6  C   UNL     1       7.525  -7.886  -4.461  1.00  0.00     0.123 A 
ATOM      7  C   UNL     1       8.163  -6.629  -4.451  1.00  0.00     0.093 A 
ATOM      8  C   UNL     1       8.153  -5.866  -5.617  1.00  0.00     0.133 A 
ATOM      9  C   UNL     1       7.759  -6.480  -6.815  1.00  0.00     0.102 A 
ATOM     10  C   UNL     1       7.429  -5.735  -7.999  1.00  0.00     0.174 C 
ATOM     11  O   UNL     1       6.369  -5.051  -8.082  1.00  0.00    -0.294 OA
ENDROOT
BRANCH   2  12
ATOM     12  C   UNL     1       8.960  -8.199 -10.505  1.00  0.00    -0.007 A 
ATOM     13  C   UNL     1       8.974  -7.691 -11.814  1.00  0.00     0.011 A 
ATOM     14  C   UNL     1      10.056  -9.003 -10.093  1.00  0.00     0.011 A 
ATOM     15  C   UNL     1      10.169  -7.658 -12.552  1.00  0.00     0.046 A 
ATOM     16  C   UNL     1      11.318  -8.723 -10.680  1.00  0.00     0.046 A 
ATOM     17  C   UNL     1      11.362  -7.924 -11.849  1.00  0.00     0.115 A 
BRANCH  17  18
ATOM     18  O   UNL     1      12.546  -7.285 -12.211  1.00  0.00    -0.508 OA
ATOM     19  H   UNL     1      13.377  -7.419 -11.636  1.00  0.00     0.293 HD
ENDBRANCH  17  18
ENDBRANCH   2  12
BRANCH   8  20
ATOM     20  O   UNL     1       8.581  -4.536  -5.579  1.00  0.00    -0.507 OA
ATOM     21  H   UNL     1       8.018  -3.786  -5.898  1.00  0.00     0.293 HD
ENDBRANCH   8  20
BRANCH   6  22
ATOM     22  O   UNL     1       6.874  -8.317  -3.303  1.00  0.00    -0.508 OA
ATOM     23  H   UNL     1       6.101  -8.986  -3.382  1.00  0.00     0.293 HD
ENDBRANCH   6  22
TORSDOF 4
ENDMDL
MODEL 2
REMARK VINA RESULT:    -6.349     11.814     13.965
REMARK INTER + INTRA:          -7.656
REMARK INTER:                  -7.275
REMARK INTRA:                  -0.381
REMARK UNBOUND:                -0.379
REMARK SMILES O=C1C[C@@H](c2ccc(O)cc2)Oc2cc(O)cc(O)c21
REMARK SMILES IDX 3 1 4 2 12 3 13 4 14 5 15 6 17 7 18 8 20 9 2 10 1 11 5 12
REMARK SMILES IDX 6 13 11 14 7 15 10 16 8 17 9 18 19 20 16 22
REMARK H PARENT 9 19 19 21 16 23
REMARK Flexibility Score: inf
ROOT
ATOM      1  C   UNL     1      21.828  -2.756  -6.472  1.00  0.00     0.131 C 
ATOM      2  C   UNL     1      22.575  -2.864  -7.827  1.00  0.00     0.211 C 
ATOM      3  O   UNL     1      21.780  -2.980  -9.046  1.00  0.00    -0.484 OA
ATOM      4  C   UNL     1      20.401  -2.652  -9.063  1.00  0.00     0.138 A 
ATOM      5  C   UNL     1      19.568  -2.600 -10.235  1.00  0.00     0.093 A 
ATOM      6  C   UNL     1      18.150  -2.598 -10.024  1.00  0.00     0.123 A 
ATOM      7  C   UNL     1      17.651  -3.043  -8.782  1.00  0.00     0.093 A 
ATOM      8  C   UNL     1      18.435  -2.861  -7.644  1.00  0.00     0.133 A 
ATOM      9  C   UNL     1      19.781  -2.502  -7.809  1.00  0.00     0.102 A 
ATOM     10  C   UNL     1      20.592  -2.005  -6.731  1.00  0.00     0.174 C 
ATOM     11  O   UNL     1      20.417  -0.852  -6.242  1.00  0.00    -0.294 OA
ENDROOT
BRANCH   2  12
ATOM     12  C   UNL     1      23.835  -3.756  -7.784  1.00  0.00    -0.007 A 
ATOM     13  C   UNL     1      24.522  -4.080  -6.602  1.00  0.00     0.011 A 
ATOM     14  C   UNL     1      24.052  -4.576  -8.923  1.00  0.00     0.011 A 
ATOM     15  C   UNL     1      25.095  -5.352  -6.438  1.00  0.00     0.046 A 
ATOM     16  C   UNL     1      24.352  -5.943  -8.686  1.00  0.00     0.046 A 
ATOM     17  C   UNL     1      24.746  -6.337  -7.384  1.00  0.00     0.115 A 
BRANCH  17  18
ATOM     18  O   UNL     1      24.643  -7.673  -7.000  1.00  0.00    -0.508 OA
ATOM     19  H   UNL     1      24.043  -8.298  -7.536  1.00  0.00     0.293 HD
ENDBRANCH  17  18
ENDBRANCH   2  12
BRANCH   8  20
ATOM     20  O   UNL     1      17.885  -3.088  -6.379  1.00  0.00    -0.507 OA
ATOM     21  H   UNL     1      17.197  -3.781  -6.213  1.00  0.00     0.293 HD
ENDBRANCH   8  20
BRANCH   6  22
ATOM     22  O   UNL     1      17.252  -2.078 -10.959  1.00  0.00    -0.508 OA
ATOM     23  H   UNL     1      16.858  -2.699 -11.673  1.00  0.00     0.293 HD
ENDBRANCH   6  22
TORSDOF 4
ENDMDL
MODEL 3
REMARK VINA RESULT:    -6.326      2.424      3.293
REMARK INTER + INTRA:          -7.629
REMARK INTER:                  -7.293
REMARK INTRA:                  -0.336
REMARK UNBOUND:                -0.379
REMARK SMILES O=C1C[C@@H](c2ccc(O)cc2)Oc2cc(O)cc(O)c21
REMARK SMILES IDX 3 1 4 2 12 3 13 4 14 5 15 6 17 7 18 8 20 9 2 10 1 11 5 12
REMARK SMILES IDX 6 13 11 14 7 15 10 16 8 17 9 18 19 20 16 22
REMARK H PARENT 9 19 19 21 16 23
REMARK Flexibility Score: inf
ROOT
ATOM      1  C   UNL     1      10.252  -5.542 -10.730  1.00  0.00     0.131 C 
ATOM      2  C   UNL     1      10.980  -6.883 -10.454  1.00  0.00     0.211 C 
ATOM      3  O   UNL     1      10.550  -7.678  -9.306  1.00  0.00    -0.484 OA
ATOM      4  C   UNL     1       9.306  -7.445  -8.670  1.00  0.00     0.138 A 
ATOM      5  C   UNL     1       8.735  -8.257  -7.628  1.00  0.00     0.093 A 
ATOM      6  C   UNL     1       7.659  -7.681  -6.874  1.00  0.00     0.123 A 
ATOM      7  C   UNL     1       7.490  -6.282  -6.896  1.00  0.00     0.093 A 
ATOM      8  C   UNL     1       7.873  -5.582  -8.040  1.00  0.00     0.133 A 
ATOM      9  C   UNL     1       8.652  -6.243  -9.000  1.00  0.00     0.102 A 
ATOM     10  C   UNL     1       8.851  -5.731 -10.328  1.00  0.00     0.174 C 
ATOM     11  O   UNL     1       7.923  -5.727 -11.187  1.00  0.00    -0.294 OA
ENDROOT
BRANCH   2  12
ATOM     12  C   UNL     1      12.507  -6.830 -10.675  1.00  0.00    -0.007 A 
ATOM     13  C   UNL     1      13.180  -7.579 -11.655  1.00  0.00     0.011 A 
ATOM     14  C   UNL     1      13.172  -5.700 -10.130  1.00  0.00     0.011 A 
ATOM     15  C   UNL     1      14.282  -7.034 -12.334  1.00  0.00     0.046 A 
ATOM     16  C   UNL     1      14.078  -5.013 -10.981  1.00  0.00     0.046 A 
ATOM     17  C   UNL     1      14.521  -5.655 -12.163  1.00  0.00     0.115 A 
BRANCH  17  18
ATOM     18  O   UNL     1      15.049  -4.900 -13.208  1.00  0.00    -0.508 OA
ATOM     19  H   UNL     1      14.428  -4.302 -13.752  1.00  0.00     0.293 HD
ENDBRANCH  17  18
ENDBRANCH   2  12
BRANCH   8  20
ATOM     20  O   UNL     1       7.521  -4.237  -8.180  1.00  0.00    -0.507 OA
ATOM     21  H   UNL     1       6.742  -3.838  -7.714  1.00  0.00     0.293 HD
ENDBRANCH   8  20
BRANCH   6  22
ATOM     22  O   UNL     1       6.712  -8.460  -6.203  1.00  0.00    -0.508 OA
ATOM     23  H   UNL     1       5.730  -8.413  -6.492  1.00  0.00     0.293 HD
ENDBRANCH   6  22
TORSDOF 4
ENDMDL
MODEL 4
REMARK VINA RESULT:    -5.799     11.150     12.921
REMARK INTER + INTRA:          -7.025
REMARK INTER:                  -6.642
REMARK INTRA:                  -0.383
REMARK UNBOUND:                -0.379
REMARK SMILES O=C1C[C@@H](c2ccc(O)cc2)Oc2cc(O)cc(O)c21
REMARK SMILES IDX 3 1 4 2 12 3 13 4 14 5 15 6 17 7 18 8 20 9 2 10 1 11 5 12
REMARK SMILES IDX 6 13 11 14 7 15 10 16 8 17 9 18 19 20 16 22
REMARK H PARENT 9 19 19 21 16 23
REMARK Flexibility Score: inf
ROOT
ATOM      1  C   UNL     1       9.323   3.480 -15.882  1.00  0.00     0.131 C 
ATOM      2  C   UNL     1       8.205   3.474 -16.957  1.00  0.00     0.211 C 
ATOM      3  O   UNL     1       7.238   2.380 -16.940  1.00  0.00    -0.484 OA
ATOM      4  C   UNL     1       7.082   1.548 -15.803  1.00  0.00     0.138 A 
ATOM      5  C   UNL     1       6.069   0.540 -15.637  1.00  0.00     0.093 A 
ATOM      6  C   UNL     1       6.278  -0.424 -14.595  1.00  0.00     0.123 A 
ATOM      7  C   UNL     1       7.580  -0.594 -14.082  1.00  0.00     0.093 A 
ATOM      8  C   UNL     1       8.444   0.501 -14.079  1.00  0.00     0.133 A 
ATOM      9  C   UNL     1       8.090   1.635 -14.824  1.00  0.00     0.102 A 
ATOM     10  C   UNL     1       8.739   2.907 -14.661  1.00  0.00     0.174 C 
ATOM     11  O   UNL     1       8.564   3.617 -13.630  1.00  0.00    -0.294 OA
ENDROOT
BRANCH   2  12
ATOM     12  C   UNL     1       8.678   3.904 -18.362  1.00  0.00    -0.007 A 
ATOM     13  C   UNL     1       9.801   4.716 -18.593  1.00  0.00     0.011 A 
ATOM     14  C   UNL     1       8.187   3.127 -19.445  1.00  0.00     0.011 A 
ATOM     15  C   UNL     1      10.623   4.493 -19.710  1.00  0.00     0.046 A 
ATOM     16  C   UNL     1       9.136   2.686 -20.404  1.00  0.00     0.046 A 
ATOM     17  C   UNL     1      10.412   3.299 -20.430  1.00  0.00     0.115 A 
BRANCH  17  18
ATOM     18  O   UNL     1      11.485   2.647 -21.036  1.00  0.00    -0.508 OA
ATOM     19  H   UNL     1      11.920   1.859 -20.558  1.00  0.00     0.293 HD
ENDBRANCH  17  18
ENDBRANCH   2  12
BRANCH   8  20
ATOM     20  O   UNL     1       9.654   0.427 -13.384  1.00  0.00    -0.507 OA
ATOM     21  H   UNL     1      10.476   0.885 -13.695  1.00  0.00     0.293 HD
ENDBRANCH   8  20
BRANCH   6  22
ATOM     22  O   UNL     1       5.226  -1.126 -14.000  1.00  0.00    -0.508 OA
ATOM     23  H   UNL     1       4.578  -1.653 -14.593  1.00  0.00     0.293 HD
ENDBRANCH   6  22
TORSDOF 4
ENDMDL
MODEL 5
REMARK VINA RESULT:    -5.796      3.049      5.152
REMARK INTER + INTRA:          -7.022
REMARK INTER:                  -6.749
REMARK INTRA:                  -0.273
REMARK UNBOUND:                -0.379
REMARK SMILES O=C1C[C@@H](c2ccc(O)cc2)Oc2cc(O)cc(O)c21
REMARK SMILES IDX 3 1 4 2 12 3 13 4 14 5 15 6 17 7 18 8 20 9 2 10 1 11 5 12
REMARK SMILES IDX 6 13 11 14 7 15 10 16 8 17 9 18 19 20 16 22
REMARK H PARENT 9 19 19 21 16 23
REMARK Flexibility Score: inf
ROOT
ATOM      1  C   UNL     1      10.652  -6.152  -9.475  1.00  0.00     0.131 C 
ATOM      2  C   UNL     1      11.224  -6.284 -10.911  1.00  0.00     0.211 C 
ATOM      3  O   UNL     1      10.497  -7.113 -11.868  1.00  0.00    -0.484 OA
ATOM      4  C   UNL     1       9.153  -7.500 -11.641  1.00  0.00     0.138 A 
ATOM      5  C   UNL     1       8.313  -8.194 -12.581  1.00  0.00     0.093 A 
ATOM      6  C   UNL     1       7.123  -8.803 -12.060  1.00  0.00     0.123 A 
ATOM      7  C   UNL     1       7.039  -9.046 -10.674  1.00  0.00     0.093 A 
ATOM      8  C   UNL     1       7.714  -8.190  -9.804  1.00  0.00     0.133 A 
ATOM      9  C   UNL     1       8.659  -7.303 -10.339  1.00  0.00     0.102 A 
ATOM     10  C   UNL     1       9.189  -6.191  -9.598  1.00  0.00     0.174 C 
ATOM     11  O   UNL     1       8.487  -5.173  -9.330  1.00  0.00    -0.294 OA
ENDROOT
BRANCH   2  12
ATOM     12  C   UNL     1      12.761  -6.415 -10.969  1.00  0.00    -0.007 A 
ATOM     13  C   UNL     1      13.438  -7.273 -11.852  1.00  0.00     0.011 A 
ATOM     14  C   UNL     1      13.496  -5.348 -10.387  1.00  0.00     0.011 A 
ATOM     15  C   UNL     1      14.661  -6.885 -12.423  1.00  0.00     0.046 A 
ATOM     16  C   UNL     1      14.559  -4.803 -11.154  1.00  0.00     0.046 A 
ATOM     17  C   UNL     1      15.042  -5.537 -12.265  1.00  0.00     0.115 A 
BRANCH  17  18
ATOM     18  O   UNL     1      15.760  -4.889 -13.268  1.00  0.00    -0.508 OA
ATOM     19  H   UNL     1      16.371  -4.112 -13.017  1.00  0.00     0.293 HD
ENDBRANCH  17  18
ENDBRANCH   2  12
BRANCH   8  20
ATOM     20  O   UNL     1       7.477  -8.270  -8.430  1.00  0.00    -0.507 OA
ATOM     21  H   UNL     1       6.578  -8.448  -8.053  1.00  0.00     0.293 HD
ENDBRANCH   8  20
BRANCH   6  22
ATOM     22  O   UNL     1       6.006  -9.070 -12.856  1.00  0.00    -0.508 OA
ATOM     23  H   UNL     1       5.250  -9.649 -12.479  1.00  0.00     0.293 HD
ENDBRANCH   6  22
TORSDOF 4
ENDMDL
MODEL 6
REMARK VINA RESULT:    -5.526     19.496     22.081
REMARK INTER + INTRA:          -6.712
REMARK INTER:                  -6.333
REMARK INTRA:                  -0.379
REMARK UNBOUND:                -0.379
REMARK SMILES O=C1C[C@@H](c2ccc(O)cc2)Oc2cc(O)cc(O)c21
REMARK SMILES IDX 3 1 4 2 12 3 13 4 14 5 15 6 17 7 18 8 20 9 2 10 1 11 5 12
REMARK SMILES IDX 6 13 11 14 7 15 10 16 8 17 9 18 19 20 16 22
REMARK H PARENT 9 19 19 21 16 23
REMARK Flexibility Score: inf
ROOT
ATOM      1  C   UNL     1      21.004   8.474 -17.304  1.00  0.00     0.131 C 
ATOM      2  C   UNL     1      21.081   8.995 -18.763  1.00  0.00     0.211 C 
ATOM      3  O   UNL     1      19.853   9.013 -19.554  1.00  0.00    -0.484 OA
ATOM      4  C   UNL     1      18.579   8.908 -18.943  1.00  0.00     0.138 A 
ATOM      5  C   UNL     1      17.315   9.055 -19.615  1.00  0.00     0.093 A 
ATOM      6  C   UNL     1      16.153   8.575 -18.923  1.00  0.00     0.123 A 
ATOM      7  C   UNL     1      16.326   7.658 -17.867  1.00  0.00     0.093 A 
ATOM      8  C   UNL     1      17.498   7.720 -17.114  1.00  0.00     0.133 A 
ATOM      9  C   UNL     1      18.564   8.493 -17.599  1.00  0.00     0.102 A 
ATOM     10  C   UNL     1      19.688   8.866 -16.784  1.00  0.00     0.174 C 
ATOM     11  O   UNL     1      19.584   9.719 -15.856  1.00  0.00    -0.294 OA
ENDROOT
BRANCH   2  12
ATOM     12  C   UNL     1      22.343   8.543 -19.530  1.00  0.00    -0.007 A 
ATOM     13  C   UNL     1      23.640   8.587 -18.992  1.00  0.00     0.011 A 
ATOM     14  C   UNL     1      22.117   7.702 -20.651  1.00  0.00     0.011 A 
ATOM     15  C   UNL     1      24.571   7.580 -19.297  1.00  0.00     0.046 A 
ATOM     16  C   UNL     1      22.913   6.531 -20.749  1.00  0.00     0.046 A 
ATOM     17  C   UNL     1      24.079   6.432 -19.951  1.00  0.00     0.115 A 
BRANCH  17  18
ATOM     18  O   UNL     1      24.643   5.184 -19.694  1.00  0.00    -0.508 OA
ATOM     19  H   UNL     1      25.566   4.970 -20.070  1.00  0.00     0.293 HD
ENDBRANCH  17  18
ENDBRANCH   2  12
BRANCH   8  20
ATOM     20  O   UNL     1      17.605   6.980 -15.934  1.00  0.00    -0.507 OA
ATOM     21  H   UNL     1      17.510   7.389 -15.037  1.00  0.00     0.293 HD
ENDBRANCH   8  20
BRANCH   6  22
ATOM     22  O   UNL     1      14.869   9.058 -19.188  1.00  0.00    -0.508 OA
ATOM     23  H   UNL     1      14.072   8.418 -19.128  1.00  0.00     0.293 HD
ENDBRANCH   6  22
TORSDOF 4
ENDMDL
MODEL 7
REMARK VINA RESULT:    -5.495     12.310     15.280
REMARK INTER + INTRA:          -6.677
REMARK INTER:                  -6.371
REMARK INTRA:                  -0.306
REMARK UNBOUND:                -0.379
REMARK SMILES O=C1C[C@@H](c2ccc(O)cc2)Oc2cc(O)cc(O)c21
REMARK SMILES IDX 3 1 4 2 12 3 13 4 14 5 15 6 17 7 18 8 20 9 2 10 1 11 5 12
REMARK SMILES IDX 6 13 11 14 7 15 10 16 8 17 9 18 19 20 16 22
REMARK H PARENT 9 19 19 21 16 23
REMARK Flexibility Score: inf
ROOT
ATOM      1  C   UNL     1      14.068   4.443 -16.081  1.00  0.00     0.131 C 
ATOM      2  C   UNL     1      13.633   2.954 -16.042  1.00  0.00     0.211 C 
ATOM      3  O   UNL     1      12.679   2.488 -17.044  1.00  0.00    -0.484 OA
ATOM      4  C   UNL     1      12.419   3.234 -18.221  1.00  0.00     0.138 A 
ATOM      5  C   UNL     1      11.608   2.797 -19.326  1.00  0.00     0.093 A 
ATOM      6  C   UNL     1      11.178   3.803 -20.253  1.00  0.00     0.123 A 
ATOM      7  C   UNL     1      11.208   5.153 -19.847  1.00  0.00     0.093 A 
ATOM      8  C   UNL     1      12.174   5.551 -18.923  1.00  0.00     0.133 A 
ATOM      9  C   UNL     1      12.889   4.560 -18.235  1.00  0.00     0.102 A 
ATOM     10  C   UNL     1      14.090   4.839 -17.495  1.00  0.00     0.174 C 
ATOM     11  O   UNL     1      15.178   5.123 -18.074  1.00  0.00    -0.294 OA
ENDROOT
BRANCH   2  12
ATOM     12  C   UNL     1      13.406   2.400 -14.619  1.00  0.00    -0.007 A 
ATOM     13  C   UNL     1      12.569   3.008 -13.668  1.00  0.00     0.011 A 
ATOM     14  C   UNL     1      13.749   1.036 -14.424  1.00  0.00     0.011 A 
ATOM     15  C   UNL     1      11.808   2.225 -12.786  1.00  0.00     0.046 A 
ATOM     16  C   UNL     1      12.793   0.219 -13.765  1.00  0.00     0.046 A 
ATOM     17  C   UNL     1      11.739   0.843 -13.055  1.00  0.00     0.115 A 
BRANCH  17  18
ATOM     18  O   UNL     1      10.579   0.128 -12.761  1.00  0.00    -0.508 OA
ATOM     19  H   UNL     1      10.655  -0.755 -12.258  1.00  0.00     0.293 HD
ENDBRANCH  17  18
ENDBRANCH   2  12
BRANCH   8  20
ATOM     20  O   UNL     1      12.372   6.911 -18.668  1.00  0.00    -0.507 OA
ATOM     21  H   UNL     1      12.994   7.237 -17.970  1.00  0.00     0.293 HD
ENDBRANCH   8  20
BRANCH   6  22
ATOM     22  O   UNL     1      10.828   3.508 -21.573  1.00  0.00    -0.508 OA
ATOM     23  H   UNL     1      11.264   2.707 -22.039  1.00  0.00     0.293 HD
ENDBRANCH   6  22
TORSDOF 4
ENDMDL
MODEL 8
REMARK VINA RESULT:    -5.462     15.424     17.965
REMARK INTER + INTRA:          -6.639
REMARK INTER:                  -6.301
REMARK INTRA:                  -0.338
REMARK UNBOUND:                -0.379
REMARK SMILES O=C1C[C@@H](c2ccc(O)cc2)Oc2cc(O)cc(O)c21
REMARK SMILES IDX 3 1 4 2 12 3 13 4 14 5 15 6 17 7 18 8 20 9 2 10 1 11 5 12
REMARK SMILES IDX 6 13 11 14 7 15 10 16 8 17 9 18 19 20 16 22
REMARK H PARENT 9 19 19 21 16 23
REMARK Flexibility Score: inf
ROOT
ATOM      1  C   UNL     1      13.699   5.800 -16.439  1.00  0.00     0.131 C 
ATOM      2  C   UNL     1      13.455   6.940 -17.462  1.00  0.00     0.211 C 
ATOM      3  O   UNL     1      12.797   6.607 -18.722  1.00  0.00    -0.484 OA
ATOM      4  C   UNL     1      12.084   5.394 -18.886  1.00  0.00     0.138 A 
ATOM      5  C   UNL     1      11.290   5.038 -20.033  1.00  0.00     0.093 A 
ATOM      6  C   UNL     1      10.939   3.655 -20.174  1.00  0.00     0.123 A 
ATOM      7  C   UNL     1      11.684   2.691 -19.464  1.00  0.00     0.093 A 
ATOM      8  C   UNL     1      12.248   3.053 -18.241  1.00  0.00     0.133 A 
ATOM      9  C   UNL     1      12.289   4.412 -17.899  1.00  0.00     0.102 A 
ATOM     10  C   UNL     1      12.567   4.871 -16.565  1.00  0.00     0.174 C 
ATOM     11  O   UNL     1      11.734   4.731 -15.625  1.00  0.00    -0.294 OA
ENDROOT
BRANCH   2  12
ATOM     12  C   UNL     1      14.624   7.942 -17.582  1.00  0.00    -0.007 A 
ATOM     13  C   UNL     1      15.965   7.610 -17.326  1.00  0.00     0.011 A 
ATOM     14  C   UNL     1      14.363   9.108 -18.349  1.00  0.00     0.011 A 
ATOM     15  C   UNL     1      16.996   8.174 -18.094  1.00  0.00     0.046 A 
ATOM     16  C   UNL     1      15.331   9.467 -19.324  1.00  0.00     0.046 A 
ATOM     17  C   UNL     1      16.617   8.877 -19.256  1.00  0.00     0.115 A 
BRANCH  17  18
ATOM     18  O   UNL     1      17.436   8.862 -20.384  1.00  0.00    -0.508 OA
ATOM     19  H   UNL     1      17.450   8.033 -20.976  1.00  0.00     0.293 HD
ENDBRANCH  17  18
ENDBRANCH   2  12
BRANCH   8  20
ATOM     20  O   UNL     1      12.802   2.071 -17.415  1.00  0.00    -0.507 OA
ATOM     21  H   UNL     1      13.754   1.802 -17.470  1.00  0.00     0.293 HD
ENDBRANCH   8  20
BRANCH   6  22
ATOM     22  O   UNL     1       9.825   3.234 -20.905  1.00  0.00    -0.508 OA
ATOM     23  H   UNL     1       9.966   2.700 -21.768  1.00  0.00     0.293 HD
ENDBRANCH   6  22
TORSDOF 4
ENDMDL
MODEL 9
REMARK VINA RESULT:    -5.424     11.130     13.182
REMARK INTER + INTRA:          -6.596
REMARK INTER:                  -6.217
REMARK INTRA:                  -0.379
REMARK UNBOUND:                -0.379
REMARK SMILES O=C1C[C@@H](c2ccc(O)cc2)Oc2cc(O)cc(O)c21
REMARK SMILES IDX 3 1 4 2 12 3 13 4 14 5 15 6 17 7 18 8 20 9 2 10 1 11 5 12
REMARK SMILES IDX 6 13 11 14 7 15 10 16 8 17 9 18 19 20 16 22
REMARK H PARENT 9 19 19 21 16 23
REMARK Flexibility Score: inf
ROOT
ATOM      1  C   UNL     1      20.011  -0.888  -9.233  1.00  0.00     0.131 C 
ATOM      2  C   UNL     1      19.017  -1.319  -8.124  1.00  0.00     0.211 C 
ATOM      3  O   UNL     1      19.503  -2.203  -7.068  1.00  0.00    -0.484 OA
ATOM      4  C   UNL     1      20.889  -2.385  -6.836  1.00  0.00     0.138 A 
ATOM      5  C   UNL     1      21.464  -3.119  -5.740  1.00  0.00     0.093 A 
ATOM      6  C   UNL     1      22.844  -3.489  -5.861  1.00  0.00     0.123 A 
ATOM      7  C   UNL     1      23.434  -3.491  -7.142  1.00  0.00     0.093 A 
ATOM      8  C   UNL     1      22.961  -2.591  -8.095  1.00  0.00     0.133 A 
ATOM      9  C   UNL     1      21.755  -1.920  -7.843  1.00  0.00     0.102 A 
ATOM     10  C   UNL     1      21.330  -0.773  -8.596  1.00  0.00     0.174 C 
ATOM     11  O   UNL     1      21.899   0.350  -8.478  1.00  0.00    -0.294 OA
ENDROOT
BRANCH   2  12
ATOM     12  C   UNL     1      17.596  -1.639  -8.639  1.00  0.00    -0.007 A 
ATOM     13  C   UNL     1      16.812  -0.737  -9.376  1.00  0.00     0.011 A 
ATOM     14  C   UNL     1      17.255  -3.016  -8.696  1.00  0.00     0.011 A 
ATOM     15  C   UNL     1      15.978  -1.198 -10.408  1.00  0.00     0.046 A 
ATOM     16  C   UNL     1      16.664  -3.484  -9.899  1.00  0.00     0.046 A 
ATOM     17  C   UNL     1      16.146  -2.537 -10.816  1.00  0.00     0.115 A 
BRANCH  17  18
ATOM     18  O   UNL     1      15.950  -2.894 -12.149  1.00  0.00    -0.508 OA
ATOM     19  H   UNL     1      16.762  -3.053 -12.744  1.00  0.00     0.293 HD
ENDBRANCH  17  18
ENDBRANCH   2  12
BRANCH   8  20
ATOM     20  O   UNL     1      23.662  -2.416  -9.292  1.00  0.00    -0.507 OA
ATOM     21  H   UNL     1      23.559  -1.609  -9.857  1.00  0.00     0.293 HD
ENDBRANCH   8  20
BRANCH   6  22
ATOM     22  O   UNL     1      23.652  -3.749  -4.751  1.00  0.00    -0.508 OA
ATOM     23  H   UNL     1      23.324  -3.478  -3.819  1.00  0.00     0.293 HD
ENDBRANCH   6  22
TORSDOF 4
ENDMDL
