MODEL 1
REMARK VINA RESULT:    -3.260      0.000      0.000
REMARK INTER + INTRA:          -3.953
REMARK INTER:                  -3.832
REMARK INTRA:                  -0.121
REMARK UNBOUND:                -0.121
REMARK SMILES O=C([O-])CCC(=O)[O-]
REMARK SMILES IDX 4 1 2 2 1 3 3 4 5 5 6 6 7 7 8 8
REMARK H PARENT
REMARK Flexibility Score: inf
ROOT
ATOM      1  C   UNL     1     -10.453 -25.228  27.668  1.00  0.00     0.059 C 
ENDROOT
BRANCH   1   2
ATOM      2  C   UNL     1      -9.518 -26.395  27.574  1.00  0.00     0.042 C 
ATOM      3  O   UNL     1      -9.733 -27.315  26.743  1.00  0.00    -0.550 OA
ATOM      4  O   UNL     1      -8.386 -26.445  28.379  1.00  0.00    -0.550 OA
ENDBRANCH   1   2
BRANCH   1   5
ATOM      5  C   UNL     1     -10.148 -24.174  26.599  1.00  0.00     0.059 C 
BRANCH   5   6
ATOM      6  C   UNL     1     -11.251 -24.077  25.590  1.00  0.00     0.042 C 
ATOM      7  O   UNL     1     -11.658 -25.109  24.994  1.00  0.00    -0.550 OA
ATOM      8  O   UNL     1     -11.858 -22.853  25.339  1.00  0.00    -0.550 OA
ENDBRANCH   5   6
ENDBRANCH   1   5
TORSDOF 3
ENDMDL
MODEL 2
REMARK VINA RESULT:    -3.209      1.275      4.137
REMARK INTER + INTRA:          -3.893
REMARK INTER:                  -3.807
REMARK INTRA:                  -0.086
REMARK UNBOUND:                -0.121
REMARK SMILES O=C([O-])CCC(=O)[O-]
REMARK SMILES IDX 4 1 2 2 1 3 3 4 5 5 6 6 7 7 8 8
REMARK H PARENT
REMARK Flexibility Score: inf
ROOT
ATOM      1  C   UNL     1     -10.608 -25.859  27.560  1.00  0.00     0.059 C 
ENDROOT
BRANCH   1   2
ATOM      2  C   UNL     1     -10.626 -24.944  26.374  1.00  0.00     0.042 C 
ATOM      3  O   UNL     1     -10.001 -23.852  26.406  1.00  0.00    -0.550 OA
ATOM      4  O   UNL     1     -11.300 -25.317  25.218  1.00  0.00    -0.550 OA
ENDBRANCH   1   2
BRANCH   1   5
ATOM      5  C   UNL     1      -9.233 -25.881  28.235  1.00  0.00     0.059 C 
BRANCH   5   6
ATOM      6  C   UNL     1      -8.470 -27.123  27.891  1.00  0.00     0.042 C 
ATOM      7  O   UNL     1      -8.962 -27.973  27.102  1.00  0.00    -0.550 OA
ATOM      8  O   UNL     1      -7.197 -27.323  28.410  1.00  0.00    -0.550 OA
ENDBRANCH   5   6
ENDBRANCH   1   5
TORSDOF 3
ENDMDL
MODEL 3
REMARK VINA RESULT:    -3.202      0.195      3.947
REMARK INTER + INTRA:          -3.885
REMARK INTER:                  -3.776
REMARK INTRA:                  -0.110
REMARK UNBOUND:                -0.121
REMARK SMILES O=C([O-])CCC(=O)[O-]
REMARK SMILES IDX 4 1 2 2 1 3 3 4 5 5 6 6 7 7 8 8
REMARK H PARENT
REMARK Flexibility Score: inf
ROOT
ATOM      1  C   UNL     1     -10.181 -24.245  26.789  1.00  0.00     0.059 C 
ENDROOT
BRANCH   1   2
ATOM      2  C   UNL     1     -11.148 -24.170  25.648  1.00  0.00     0.042 C 
ATOM      3  O   UNL     1     -11.403 -25.195  24.963  1.00  0.00    -0.550 OA
ATOM      4  O   UNL     1     -11.800 -22.976  25.367  1.00  0.00    -0.550 OA
ENDBRANCH   1   2
BRANCH   1   5
ATOM      5  C   UNL     1     -10.495 -25.423  27.717  1.00  0.00     0.059 C 
BRANCH   5   6
ATOM      6  C   UNL     1      -9.470 -26.509  27.595  1.00  0.00     0.042 C 
ATOM      7  O   UNL     1      -8.414 -26.465  28.280  1.00  0.00    -0.550 OA
ATOM      8  O   UNL     1      -9.701 -27.591  26.755  1.00  0.00    -0.550 OA
ENDBRANCH   5   6
ENDBRANCH   1   5
TORSDOF 3
ENDMDL
MODEL 4
REMARK VINA RESULT:    -3.167      1.592      2.475
REMARK INTER + INTRA:          -3.844
REMARK INTER:                  -3.717
REMARK INTRA:                  -0.127
REMARK UNBOUND:                -0.121
REMARK SMILES O=C([O-])CCC(=O)[O-]
REMARK SMILES IDX 4 1 2 2 1 3 3 4 5 5 6 6 7 7 8 8
REMARK H PARENT
REMARK Flexibility Score: inf
ROOT
ATOM      1  C   UNL     1      -9.568 -26.725  28.670  1.00  0.00     0.059 C 
ENDROOT
BRANCH   1   2
ATOM      2  C   UNL     1      -8.197 -27.218  28.323  1.00  0.00     0.042 C 
ATOM      3  O   UNL     1      -7.220 -26.956  29.072  1.00  0.00    -0.550 OA
ATOM      4  O   UNL     1      -8.006 -28.002  27.192  1.00  0.00    -0.550 OA
ENDBRANCH   1   2
BRANCH   1   5
ATOM      5  C   UNL     1      -9.734 -25.239  28.335  1.00  0.00     0.059 C 
BRANCH   5   6
ATOM      6  C   UNL     1     -10.241 -25.042  26.939  1.00  0.00     0.042 C 
ATOM      7  O   UNL     1     -10.077 -23.939  26.354  1.00  0.00    -0.550 OA
ATOM      8  O   UNL     1     -10.859 -26.091  26.269  1.00  0.00    -0.550 OA
ENDBRANCH   5   6
ENDBRANCH   1   5
TORSDOF 3
ENDMDL
MODEL 5
REMARK VINA RESULT:    -3.162      1.453      2.184
REMARK INTER + INTRA:          -3.837
REMARK INTER:                  -3.716
REMARK INTRA:                  -0.121
REMARK UNBOUND:                -0.121
REMARK SMILES O=C([O-])CCC(=O)[O-]
REMARK SMILES IDX 4 1 2 2 1 3 3 4 5 5 6 6 7 7 8 8
REMARK H PARENT
REMARK Flexibility Score: inf
ROOT
ATOM      1  C   UNL     1     -10.087 -25.282  28.636  1.00  0.00     0.059 C 
ENDROOT
BRANCH   1   2
ATOM      2  C   UNL     1      -8.757 -25.818  29.068  1.00  0.00     0.042 C 
ATOM      3  O   UNL     1      -8.201 -25.375  30.107  1.00  0.00    -0.550 OA
ATOM      4  O   UNL     1      -8.149 -26.835  28.343  1.00  0.00    -0.550 OA
ENDBRANCH   1   2
BRANCH   1   5
ATOM      5  C   UNL     1     -10.052 -24.786  27.187  1.00  0.00     0.059 C 
BRANCH   5   6
ATOM      6  C   UNL     1     -10.842 -25.678  26.280  1.00  0.00     0.042 C 
ATOM      7  O   UNL     1     -11.277 -26.784  26.698  1.00  0.00    -0.550 OA
ATOM      8  O   UNL     1     -11.133 -25.271  24.984  1.00  0.00    -0.550 OA
ENDBRANCH   5   6
ENDBRANCH   1   5
TORSDOF 3
ENDMDL
MODEL 6
REMARK VINA RESULT:    -3.118      4.224      5.675
REMARK INTER + INTRA:          -3.786
REMARK INTER:                  -3.687
REMARK INTRA:                  -0.100
REMARK UNBOUND:                -0.121
REMARK SMILES O=C([O-])CCC(=O)[O-]
REMARK SMILES IDX 4 1 2 2 1 3 3 4 5 5 6 6 7 7 8 8
REMARK H PARENT
REMARK Flexibility Score: inf
ROOT
ATOM      1  C   UNL     1      -8.092 -26.432  29.714  1.00  0.00     0.059 C 
ENDROOT
BRANCH   1   2
ATOM      2  C   UNL     1      -7.407 -27.218  28.638  1.00  0.00     0.042 C 
ATOM      3  O   UNL     1      -6.177 -27.472  28.723  1.00  0.00    -0.550 OA
ATOM      4  O   UNL     1      -8.138 -27.703  27.560  1.00  0.00    -0.550 OA
ENDBRANCH   1   2
BRANCH   1   5
ATOM      5  C   UNL     1      -7.259 -26.392  30.999  1.00  0.00     0.059 C 
BRANCH   5   6
ATOM      6  C   UNL     1      -6.677 -25.032  31.236  1.00  0.00     0.042 C 
ATOM      7  O   UNL     1      -5.433 -24.852  31.162  1.00  0.00    -0.550 OA
ATOM      8  O   UNL     1      -7.513 -23.954  31.500  1.00  0.00    -0.550 OA
ENDBRANCH   5   6
ENDBRANCH   1   5
TORSDOF 3
ENDMDL
MODEL 7
REMARK VINA RESULT:    -3.108      4.225      5.611
REMARK INTER + INTRA:          -3.774
REMARK INTER:                  -3.672
REMARK INTRA:                  -0.102
REMARK UNBOUND:                -0.121
REMARK SMILES O=C([O-])CCC(=O)[O-]
REMARK SMILES IDX 4 1 2 2 1 3 3 4 5 5 6 6 7 7 8 8
REMARK H PARENT
REMARK Flexibility Score: inf
ROOT
ATOM      1  C   UNL     1      -7.293 -26.445  31.028  1.00  0.00     0.059 C 
ENDROOT
BRANCH   1   2
ATOM      2  C   UNL     1      -6.763 -25.075  31.320  1.00  0.00     0.042 C 
ATOM      3  O   UNL     1      -5.532 -24.834  31.210  1.00  0.00    -0.550 OA
ATOM      4  O   UNL     1      -7.635 -24.053  31.675  1.00  0.00    -0.550 OA
ENDBRANCH   1   2
BRANCH   1   5
ATOM      5  C   UNL     1      -8.113 -26.468  29.734  1.00  0.00     0.059 C 
BRANCH   5   6
ATOM      6  C   UNL     1      -7.399 -27.206  28.642  1.00  0.00     0.042 C 
ATOM      7  O   UNL     1      -6.168 -27.450  28.742  1.00  0.00    -0.550 OA
ATOM      8  O   UNL     1      -8.103 -27.660  27.534  1.00  0.00    -0.550 OA
ENDBRANCH   5   6
ENDBRANCH   1   5
TORSDOF 3
ENDMDL
MODEL 8
REMARK VINA RESULT:    -3.099      3.487      4.919
REMARK INTER + INTRA:          -3.764
REMARK INTER:                  -3.646
REMARK INTRA:                  -0.117
REMARK UNBOUND:                -0.121
REMARK SMILES O=C([O-])CCC(=O)[O-]
REMARK SMILES IDX 4 1 2 2 1 3 3 4 5 5 6 6 7 7 8 8
REMARK H PARENT
REMARK Flexibility Score: inf
ROOT
ATOM      1  C   UNL     1      -9.072 -26.915  29.558  1.00  0.00     0.059 C 
ENDROOT
BRANCH   1   2
ATOM      2  C   UNL     1      -8.386 -27.278  28.277  1.00  0.00     0.042 C 
ATOM      3  O   UNL     1      -7.135 -27.406  28.241  1.00  0.00    -0.550 OA
ATOM      4  O   UNL     1      -9.135 -27.513  27.130  1.00  0.00    -0.550 OA
ENDBRANCH   1   2
BRANCH   1   5
ATOM      5  C   UNL     1      -9.112 -25.398  29.766  1.00  0.00     0.059 C 
BRANCH   5   6
ATOM      6  C   UNL     1      -8.190 -24.968  30.866  1.00  0.00     0.042 C 
ATOM      7  O   UNL     1      -8.444 -23.936  31.541  1.00  0.00    -0.550 OA
ATOM      8  O   UNL     1      -7.070 -25.731  31.173  1.00  0.00    -0.550 OA
ENDBRANCH   5   6
ENDBRANCH   1   5
TORSDOF 3
ENDMDL
MODEL 9
REMARK VINA RESULT:    -3.009      3.002      5.041
REMARK INTER + INTRA:          -3.658
REMARK INTER:                  -3.508
REMARK INTRA:                  -0.149
REMARK UNBOUND:                -0.121
REMARK SMILES O=C([O-])CCC(=O)[O-]
REMARK SMILES IDX 4 1 2 2 1 3 3 4 5 5 6 6 7 7 8 8
REMARK H PARENT
REMARK Flexibility Score: inf
ROOT
ATOM      1  C   UNL     1      -7.681 -27.232  28.769  1.00  0.00     0.059 C 
ENDROOT
BRANCH   1   2
ATOM      2  C   UNL     1      -8.814 -26.767  27.907  1.00  0.00     0.042 C 
ATOM      3  O   UNL     1      -9.426 -27.582  27.169  1.00  0.00    -0.550 OA
ATOM      4  O   UNL     1      -9.218 -25.438  27.949  1.00  0.00    -0.550 OA
ENDBRANCH   1   2
BRANCH   1   5
ATOM      5  C   UNL     1      -7.769 -26.643  30.181  1.00  0.00     0.059 C 
BRANCH   5   6
ATOM      6  C   UNL     1      -8.805 -27.342  31.006  1.00  0.00     0.042 C 
ATOM      7  O   UNL     1      -8.537 -28.438  31.567  1.00  0.00    -0.550 OA
ATOM      8  O   UNL     1     -10.055 -26.764  31.190  1.00  0.00    -0.550 OA
ENDBRANCH   5   6
ENDBRANCH   1   5
TORSDOF 3
ENDMDL
