MODEL 1
REMARK VINA RESULT:    -6.329      0.000      0.000
REMARK INTER + INTRA:          -7.542
REMARK INTER:                  -7.440
REMARK INTRA:                  -0.103
REMARK UNBOUND:                -0.103
REMARK SMILES O=c1c(O)c(-c2ccc(O)c(O)c2)oc2cc(O)ccc12
REMARK SMILES IDX 5 1 3 2 2 3 1 4 21 5 15 6 14 7 16 8 17 9 19 10 20 11 6 12
REMARK SMILES IDX 7 13 8 14 9 15 13 16 11 17 10 18 12 20 4 22 18 24
REMARK H PARENT 10 19 12 21 4 23 18 25
REMARK Flexibility Score: inf
ROOT
ATOM      1  C   UNL     1     -11.644 -16.383  31.851  1.00  0.00     0.180 A 
ATOM      2  C   UNL     1     -11.290 -17.742  31.723  1.00  0.00     0.208 A 
ATOM      3  C   UNL     1     -11.579 -18.406  30.521  1.00  0.00     0.235 A 
ATOM      4  O   UNL     1     -11.282 -19.625  30.387  1.00  0.00    -0.285 OA
ATOM      5  C   UNL     1     -12.191 -17.702  29.473  1.00  0.00     0.069 A 
ATOM      6  C   UNL     1     -12.492 -16.337  29.670  1.00  0.00     0.142 A 
ATOM      7  O   UNL     1     -12.210 -15.748  30.827  1.00  0.00    -0.452 OA
ATOM      8  C   UNL     1     -13.094 -15.597  28.645  1.00  0.00     0.094 A 
ATOM      9  C   UNL     1     -13.401 -16.205  27.424  1.00  0.00     0.119 A 
ATOM     10  C   UNL     1     -13.105 -17.560  27.224  1.00  0.00     0.047 A 
ATOM     11  C   UNL     1     -12.503 -18.307  28.242  1.00  0.00     0.020 A 
ENDROOT
BRANCH   1  12
ATOM     12  C   UNL     1     -11.390 -15.617  33.092  1.00  0.00     0.025 A 
ATOM     13  C   UNL     1     -10.088 -15.457  33.600  1.00  0.00     0.016 A 
ATOM     14  C   UNL     1      -9.875 -14.749  34.786  1.00  0.00     0.051 A 
ATOM     15  C   UNL     1     -10.958 -14.204  35.487  1.00  0.00     0.157 A 
ATOM     16  C   UNL     1     -12.473 -15.086  33.810  1.00  0.00     0.062 A 
ATOM     17  C   UNL     1     -12.259 -14.375  35.000  1.00  0.00     0.158 A 
BRANCH  15  18
ATOM     18  O   UNL     1     -10.750 -13.496  36.670  1.00  0.00    -0.504 OA
ATOM     19  H   UNL     1     -10.087 -12.730  36.719  1.00  0.00     0.293 HD
ENDBRANCH  15  18
BRANCH  17  20
ATOM     20  O   UNL     1     -13.337 -13.837  35.704  1.00  0.00    -0.504 OA
ATOM     21  H   UNL     1     -14.275 -14.206  35.601  1.00  0.00     0.293 HD
ENDBRANCH  17  20
ENDBRANCH   1  12
BRANCH   2  22
ATOM     22  O   UNL     1     -10.637 -18.404  32.766  1.00  0.00    -0.502 OA
ATOM     23  H   UNL     1     -11.036 -18.477  33.695  1.00  0.00     0.293 HD
ENDBRANCH   2  22
BRANCH   9  24
ATOM     24  O   UNL     1     -14.000 -15.454  26.415  1.00  0.00    -0.508 OA
ATOM     25  H   UNL     1     -14.974 -15.179  26.467  1.00  0.00     0.293 HD
ENDBRANCH   9  24
TORSDOF 5
ENDMDL
MODEL 2
REMARK VINA RESULT:    -6.224      0.821      1.547
REMARK INTER + INTRA:          -7.418
REMARK INTER:                  -7.551
REMARK INTRA:                   0.133
REMARK UNBOUND:                -0.103
REMARK SMILES O=c1c(O)c(-c2ccc(O)c(O)c2)oc2cc(O)ccc12
REMARK SMILES IDX 5 1 3 2 2 3 1 4 21 5 15 6 14 7 16 8 17 9 19 10 20 11 6 12
REMARK SMILES IDX 7 13 8 14 9 15 13 16 11 17 10 18 12 20 4 22 18 24
REMARK H PARENT 10 19 12 21 4 23 18 25
REMARK Flexibility Score: inf
ROOT
ATOM      1  C   UNL     1     -11.939 -16.035  32.059  1.00  0.00     0.180 A 
ATOM      2  C   UNL     1     -11.151 -17.197  31.930  1.00  0.00     0.208 A 
ATOM      3  C   UNL     1     -11.093 -17.841  30.685  1.00  0.00     0.235 A 
ATOM      4  O   UNL     1     -10.403 -18.888  30.548  1.00  0.00    -0.285 OA
ATOM      5  C   UNL     1     -11.801 -17.306  29.598  1.00  0.00     0.069 A 
ATOM      6  C   UNL     1     -12.549 -16.126  29.801  1.00  0.00     0.142 A 
ATOM      7  O   UNL     1     -12.584 -15.552  30.999  1.00  0.00    -0.452 OA
ATOM      8  C   UNL     1     -13.261 -15.556  28.739  1.00  0.00     0.094 A 
ATOM      9  C   UNL     1     -13.237 -16.151  27.475  1.00  0.00     0.119 A 
ATOM     10  C   UNL     1     -12.497 -17.324  27.268  1.00  0.00     0.047 A 
ATOM     11  C   UNL     1     -11.782 -17.900  28.323  1.00  0.00     0.020 A 
ENDROOT
BRANCH   1  12
ATOM     12  C   UNL     1     -12.067 -15.308  33.343  1.00  0.00     0.025 A 
ATOM     13  C   UNL     1     -13.306 -14.804  33.778  1.00  0.00     0.016 A 
ATOM     14  C   UNL     1     -13.398 -14.100  34.982  1.00  0.00     0.051 A 
ATOM     15  C   UNL     1     -12.254 -13.880  35.760  1.00  0.00     0.157 A 
ATOM     16  C   UNL     1     -10.920 -15.065  34.117  1.00  0.00     0.062 A 
ATOM     17  C   UNL     1     -11.013 -14.360  35.325  1.00  0.00     0.158 A 
BRANCH  15  18
ATOM     18  O   UNL     1     -12.342 -13.180  36.962  1.00  0.00    -0.504 OA
ATOM     19  H   UNL     1     -13.115 -12.553  37.155  1.00  0.00     0.293 HD
ENDBRANCH  15  18
BRANCH  17  20
ATOM     20  O   UNL     1      -9.875 -14.133  36.098  1.00  0.00    -0.504 OA
ATOM     21  H   UNL     1      -9.922 -13.635  36.979  1.00  0.00     0.293 HD
ENDBRANCH  17  20
ENDBRANCH   1  12
BRANCH   2  22
ATOM     22  O   UNL     1     -10.418 -17.678  33.018  1.00  0.00    -0.502 OA
ATOM     23  H   UNL     1     -10.340 -18.667  33.223  1.00  0.00     0.293 HD
ENDBRANCH   2  22
BRANCH   9  24
ATOM     24  O   UNL     1     -13.951 -15.570  26.429  1.00  0.00    -0.508 OA
ATOM     25  H   UNL     1     -14.321 -14.630  26.499  1.00  0.00     0.293 HD
ENDBRANCH   9  24
TORSDOF 5
ENDMDL
MODEL 3
REMARK VINA RESULT:    -5.331      1.881      6.949
REMARK INTER + INTRA:          -6.369
REMARK INTER:                  -6.328
REMARK INTRA:                  -0.041
REMARK UNBOUND:                -0.103
REMARK SMILES O=c1c(O)c(-c2ccc(O)c(O)c2)oc2cc(O)ccc12
REMARK SMILES IDX 5 1 3 2 2 3 1 4 21 5 15 6 14 7 16 8 17 9 19 10 20 11 6 12
REMARK SMILES IDX 7 13 8 14 9 15 13 16 11 17 10 18 12 20 4 22 18 24
REMARK H PARENT 10 19 12 21 4 23 18 25
REMARK Flexibility Score: inf
ROOT
ATOM      1  C   UNL     1     -12.467 -15.768  31.363  1.00  0.00     0.180 A 
ATOM      2  C   UNL     1     -13.781 -15.331  31.630  1.00  0.00     0.208 A 
ATOM      3  C   UNL     1     -14.071 -14.792  32.892  1.00  0.00     0.235 A 
ATOM      4  O   UNL     1     -15.242 -14.405  33.159  1.00  0.00    -0.285 OA
ATOM      5  C   UNL     1     -13.049 -14.683  33.848  1.00  0.00     0.069 A 
ATOM      6  C   UNL     1     -11.754 -15.121  33.496  1.00  0.00     0.142 A 
ATOM      7  O   UNL     1     -11.523 -15.633  32.292  1.00  0.00    -0.452 OA
ATOM      8  C   UNL     1     -10.706 -15.019  34.418  1.00  0.00     0.094 A 
ATOM      9  C   UNL     1     -10.935 -14.487  35.690  1.00  0.00     0.119 A 
ATOM     10  C   UNL     1     -12.219 -14.052  36.044  1.00  0.00     0.047 A 
ATOM     11  C   UNL     1     -13.273 -14.148  35.130  1.00  0.00     0.020 A 
ENDROOT
BRANCH   1  12
ATOM     12  C   UNL     1     -12.084 -16.364  30.062  1.00  0.00     0.025 A 
ATOM     13  C   UNL     1     -11.055 -15.811  29.278  1.00  0.00     0.016 A 
ATOM     14  C   UNL     1     -10.727 -16.377  28.044  1.00  0.00     0.051 A 
ATOM     15  C   UNL     1     -11.429 -17.493  27.569  1.00  0.00     0.157 A 
ATOM     16  C   UNL     1     -12.798 -17.469  29.572  1.00  0.00     0.062 A 
ATOM     17  C   UNL     1     -12.468 -18.037  28.333  1.00  0.00     0.158 A 
BRANCH  15  18
ATOM     18  O   UNL     1     -11.104 -18.061  26.339  1.00  0.00    -0.504 OA
ATOM     19  H   UNL     1     -11.811 -18.474  25.742  1.00  0.00     0.293 HD
ENDBRANCH  15  18
BRANCH  17  20
ATOM     20  O   UNL     1     -13.170 -19.143  27.855  1.00  0.00    -0.504 OA
ATOM     21  H   UNL     1     -12.894 -19.621  27.006  1.00  0.00     0.293 HD
ENDBRANCH  17  20
ENDBRANCH   1  12
BRANCH   2  22
ATOM     22  O   UNL     1     -14.766 -15.407  30.641  1.00  0.00    -0.502 OA
ATOM     23  H   UNL     1     -14.677 -16.014  29.835  1.00  0.00     0.293 HD
ENDBRANCH   2  22
BRANCH   9  24
ATOM     24  O   UNL     1      -9.880 -14.393  36.595  1.00  0.00    -0.508 OA
ATOM     25  H   UNL     1      -9.554 -15.200  37.114  1.00  0.00     0.293 HD
ENDBRANCH   9  24
TORSDOF 5
ENDMDL
MODEL 4
REMARK VINA RESULT:    -5.102      1.638      2.442
REMARK INTER + INTRA:          -6.100
REMARK INTER:                  -5.944
REMARK INTRA:                  -0.156
REMARK UNBOUND:                -0.103
REMARK SMILES O=c1c(O)c(-c2ccc(O)c(O)c2)oc2cc(O)ccc12
REMARK SMILES IDX 5 1 3 2 2 3 1 4 21 5 15 6 14 7 16 8 17 9 19 10 20 11 6 12
REMARK SMILES IDX 7 13 8 14 9 15 13 16 11 17 10 18 12 20 4 22 18 24
REMARK H PARENT 10 19 12 21 4 23 18 25
REMARK Flexibility Score: inf
ROOT
ATOM      1  C   UNL     1     -11.456 -16.253  31.800  1.00  0.00     0.180 A 
ATOM      2  C   UNL     1     -10.748 -15.845  30.651  1.00  0.00     0.208 A 
ATOM      3  C   UNL     1     -10.958 -16.534  29.446  1.00  0.00     0.235 A 
ATOM      4  O   UNL     1     -10.328 -16.194  28.408  1.00  0.00    -0.285 OA
ATOM      5  C   UNL     1     -11.878 -17.593  29.409  1.00  0.00     0.069 A 
ATOM      6  C   UNL     1     -12.564 -17.926  30.596  1.00  0.00     0.142 A 
ATOM      7  O   UNL     1     -12.330 -17.254  31.718  1.00  0.00    -0.452 OA
ATOM      8  C   UNL     1     -13.497 -18.970  30.597  1.00  0.00     0.094 A 
ATOM      9  C   UNL     1     -13.751 -19.689  29.425  1.00  0.00     0.119 A 
ATOM     10  C   UNL     1     -13.070 -19.363  28.244  1.00  0.00     0.047 A 
ATOM     11  C   UNL     1     -12.137 -18.321  28.233  1.00  0.00     0.020 A 
ENDROOT
BRANCH   1  12
ATOM     12  C   UNL     1     -11.276 -15.590  33.112  1.00  0.00     0.025 A 
ATOM     13  C   UNL     1     -10.031 -15.589  33.767  1.00  0.00     0.016 A 
ATOM     14  C   UNL     1      -9.892 -14.977  35.016  1.00  0.00     0.051 A 
ATOM     15  C   UNL     1     -10.994 -14.371  35.632  1.00  0.00     0.157 A 
ATOM     16  C   UNL     1     -12.382 -14.999  33.745  1.00  0.00     0.062 A 
ATOM     17  C   UNL     1     -12.241 -14.385  34.998  1.00  0.00     0.158 A 
BRANCH  15  18
ATOM     18  O   UNL     1     -10.858 -13.759  36.877  1.00  0.00    -0.504 OA
ATOM     19  H   UNL     1     -10.949 -14.284  37.739  1.00  0.00     0.293 HD
ENDBRANCH  15  18
BRANCH  17  20
ATOM     20  O   UNL     1     -13.338 -13.788  35.617  1.00  0.00    -0.504 OA
ATOM     21  H   UNL     1     -13.318 -13.526  36.595  1.00  0.00     0.293 HD
ENDBRANCH  17  20
ENDBRANCH   1  12
BRANCH   2  22
ATOM     22  O   UNL     1      -9.875 -14.755  30.708  1.00  0.00    -0.502 OA
ATOM     23  H   UNL     1     -10.087 -13.920  31.241  1.00  0.00     0.293 HD
ENDBRANCH   2  22
BRANCH   9  24
ATOM     24  O   UNL     1     -14.682 -20.725  29.444  1.00  0.00    -0.508 OA
ATOM     25  H   UNL     1     -15.672 -20.546  29.567  1.00  0.00     0.293 HD
ENDBRANCH   9  24
TORSDOF 5
ENDMDL
MODEL 5
REMARK VINA RESULT:    -4.764      1.710      3.602
REMARK INTER + INTRA:          -5.702
REMARK INTER:                  -5.556
REMARK INTRA:                  -0.146
REMARK UNBOUND:                -0.103
REMARK SMILES O=c1c(O)c(-c2ccc(O)c(O)c2)oc2cc(O)ccc12
REMARK SMILES IDX 5 1 3 2 2 3 1 4 21 5 15 6 14 7 16 8 17 9 19 10 20 11 6 12
REMARK SMILES IDX 7 13 8 14 9 15 13 16 11 17 10 18 12 20 4 22 18 24
REMARK H PARENT 10 19 12 21 4 23 18 25
REMARK Flexibility Score: inf
ROOT
ATOM      1  C   UNL     1     -12.760 -16.208  32.353  1.00  0.00     0.180 A 
ATOM      2  C   UNL     1     -13.089 -15.740  31.063  1.00  0.00     0.208 A 
ATOM      3  C   UNL     1     -13.188 -16.666  30.013  1.00  0.00     0.235 A 
ATOM      4  O   UNL     1     -13.470 -16.271  28.849  1.00  0.00    -0.285 OA
ATOM      5  C   UNL     1     -12.980 -18.030  30.273  1.00  0.00     0.069 A 
ATOM      6  C   UNL     1     -12.678 -18.421  31.595  1.00  0.00     0.142 A 
ATOM      7  O   UNL     1     -12.585 -17.512  32.559  1.00  0.00    -0.452 OA
ATOM      8  C   UNL     1     -12.473 -19.772  31.896  1.00  0.00     0.094 A 
ATOM      9  C   UNL     1     -12.564 -20.740  30.891  1.00  0.00     0.119 A 
ATOM     10  C   UNL     1     -12.862 -20.356  29.576  1.00  0.00     0.047 A 
ATOM     11  C   UNL     1     -13.069 -19.008  29.266  1.00  0.00     0.020 A 
ENDROOT
BRANCH   1  12
ATOM     12  C   UNL     1     -12.618 -15.294  33.509  1.00  0.00     0.025 A 
ATOM     13  C   UNL     1     -13.707 -14.541  33.984  1.00  0.00     0.016 A 
ATOM     14  C   UNL     1     -13.544 -13.667  35.063  1.00  0.00     0.051 A 
ATOM     15  C   UNL     1     -12.290 -13.523  35.671  1.00  0.00     0.157 A 
ATOM     16  C   UNL     1     -11.360 -15.129  34.110  1.00  0.00     0.062 A 
ATOM     17  C   UNL     1     -11.196 -14.253  35.192  1.00  0.00     0.158 A 
BRANCH  15  18
ATOM     18  O   UNL     1     -12.124 -12.654  36.748  1.00  0.00    -0.504 OA
ATOM     19  H   UNL     1     -12.047 -12.997  37.699  1.00  0.00     0.293 HD
ENDBRANCH  15  18
BRANCH  17  20
ATOM     20  O   UNL     1      -9.948 -14.102  35.795  1.00  0.00    -0.504 OA
ATOM     21  H   UNL     1      -9.835 -13.588  36.661  1.00  0.00     0.293 HD
ENDBRANCH  17  20
ENDBRANCH   1  12
BRANCH   2  22
ATOM     22  O   UNL     1     -13.339 -14.383  30.846  1.00  0.00    -0.502 OA
ATOM     23  H   UNL     1     -12.713 -13.658  31.177  1.00  0.00     0.293 HD
ENDBRANCH   2  22
BRANCH   9  24
ATOM     24  O   UNL     1     -12.357 -22.080  31.208  1.00  0.00    -0.508 OA
ATOM     25  H   UNL     1     -12.343 -22.798  30.493  1.00  0.00     0.293 HD
ENDBRANCH   9  24
TORSDOF 5
ENDMDL
MODEL 6
REMARK VINA RESULT:    -4.531      2.557      3.691
REMARK INTER + INTRA:          -5.428
REMARK INTER:                  -5.843
REMARK INTRA:                   0.415
REMARK UNBOUND:                -0.103
REMARK SMILES O=c1c(O)c(-c2ccc(O)c(O)c2)oc2cc(O)ccc12
REMARK SMILES IDX 5 1 3 2 2 3 1 4 21 5 15 6 14 7 16 8 17 9 19 10 20 11 6 12
REMARK SMILES IDX 7 13 8 14 9 15 13 16 11 17 10 18 12 20 4 22 18 24
REMARK H PARENT 10 19 12 21 4 23 18 25
REMARK Flexibility Score: inf
ROOT
ATOM      1  C   UNL     1     -12.143 -15.119  33.817  1.00  0.00     0.180 A 
ATOM      2  C   UNL     1     -13.514 -15.296  33.540  1.00  0.00     0.208 A 
ATOM      3  C   UNL     1     -13.900 -16.317  32.658  1.00  0.00     0.235 A 
ATOM      4  O   UNL     1     -15.120 -16.488  32.386  1.00  0.00    -0.285 OA
ATOM      5  C   UNL     1     -12.920 -17.146  32.090  1.00  0.00     0.069 A 
ATOM      6  C   UNL     1     -11.570 -16.920  32.435  1.00  0.00     0.142 A 
ATOM      7  O   UNL     1     -11.246 -15.937  33.268  1.00  0.00    -0.452 OA
ATOM      8  C   UNL     1     -10.564 -17.731  31.898  1.00  0.00     0.094 A 
ATOM      9  C   UNL     1     -10.889 -18.767  31.017  1.00  0.00     0.119 A 
ATOM     10  C   UNL     1     -12.228 -18.994  30.670  1.00  0.00     0.047 A 
ATOM     11  C   UNL     1     -13.240 -18.189  31.203  1.00  0.00     0.020 A 
ENDROOT
BRANCH   1  12
ATOM     12  C   UNL     1     -11.653 -14.054  34.722  1.00  0.00     0.025 A 
ATOM     13  C   UNL     1     -10.320 -13.607  34.672  1.00  0.00     0.016 A 
ATOM     14  C   UNL     1      -9.875 -12.617  35.551  1.00  0.00     0.051 A 
ATOM     15  C   UNL     1     -10.748 -12.070  36.500  1.00  0.00     0.157 A 
ATOM     16  C   UNL     1     -12.518 -13.518  35.689  1.00  0.00     0.062 A 
ATOM     17  C   UNL     1     -12.071 -12.524  36.572  1.00  0.00     0.158 A 
BRANCH  15  18
ATOM     18  O   UNL     1     -10.308 -11.082  37.378  1.00  0.00    -0.504 OA
ATOM     19  H   UNL     1     -10.528 -10.103  37.229  1.00  0.00     0.293 HD
ENDBRANCH  15  18
BRANCH  17  20
ATOM     20  O   UNL     1     -12.936 -11.984  37.522  1.00  0.00    -0.504 OA
ATOM     21  H   UNL     1     -12.606 -11.352  38.242  1.00  0.00     0.293 HD
ENDBRANCH  17  20
ENDBRANCH   1  12
BRANCH   2  22
ATOM     22  O   UNL     1     -14.471 -14.487  34.158  1.00  0.00    -0.502 OA
ATOM     23  H   UNL     1     -14.930 -13.725  33.673  1.00  0.00     0.293 HD
ENDBRANCH   2  22
BRANCH   9  24
ATOM     24  O   UNL     1      -9.875 -19.564  30.492  1.00  0.00    -0.508 OA
ATOM     25  H   UNL     1      -9.802 -19.741  29.497  1.00  0.00     0.293 HD
ENDBRANCH   9  24
TORSDOF 5
ENDMDL
MODEL 7
REMARK VINA RESULT:    -4.428      2.087      7.019
REMARK INTER + INTRA:          -5.307
REMARK INTER:                  -5.157
REMARK INTRA:                  -0.150
REMARK UNBOUND:                -0.103
REMARK SMILES O=c1c(O)c(-c2ccc(O)c(O)c2)oc2cc(O)ccc12
REMARK SMILES IDX 5 1 3 2 2 3 1 4 21 5 15 6 14 7 16 8 17 9 19 10 20 11 6 12
REMARK SMILES IDX 7 13 8 14 9 15 13 16 11 17 10 18 12 20 4 22 18 24
REMARK H PARENT 10 19 12 21 4 23 18 25
REMARK Flexibility Score: inf
ROOT
ATOM      1  C   UNL     1     -13.057 -16.280  32.428  1.00  0.00     0.180 A 
ATOM      2  C   UNL     1     -14.245 -15.527  32.517  1.00  0.00     0.208 A 
ATOM      3  C   UNL     1     -14.337 -14.519  33.489  1.00  0.00     0.235 A 
ATOM      4  O   UNL     1     -15.395 -13.840  33.595  1.00  0.00    -0.285 OA
ATOM      5  C   UNL     1     -13.243 -14.273  34.333  1.00  0.00     0.069 A 
ATOM      6  C   UNL     1     -12.079 -15.054  34.165  1.00  0.00     0.142 A 
ATOM      7  O   UNL     1     -12.036 -16.004  33.238  1.00  0.00    -0.452 OA
ATOM      8  C   UNL     1     -10.963 -14.832  34.980  1.00  0.00     0.094 A 
ATOM      9  C   UNL     1     -10.995 -13.839  35.964  1.00  0.00     0.119 A 
ATOM     10  C   UNL     1     -12.148 -13.061  36.134  1.00  0.00     0.047 A 
ATOM     11  C   UNL     1     -13.268 -13.275  35.324  1.00  0.00     0.020 A 
ENDROOT
BRANCH   1  12
ATOM     12  C   UNL     1     -12.888 -17.372  31.442  1.00  0.00     0.025 A 
ATOM     13  C   UNL     1     -12.903 -17.117  30.058  1.00  0.00     0.016 A 
ATOM     14  C   UNL     1     -12.766 -18.167  29.146  1.00  0.00     0.051 A 
ATOM     15  C   UNL     1     -12.624 -19.484  29.601  1.00  0.00     0.157 A 
ATOM     16  C   UNL     1     -12.768 -18.697  31.891  1.00  0.00     0.062 A 
ATOM     17  C   UNL     1     -12.629 -19.750  30.975  1.00  0.00     0.158 A 
BRANCH  15  18
ATOM     18  O   UNL     1     -12.486 -20.533  28.694  1.00  0.00    -0.504 OA
ATOM     19  H   UNL     1     -12.863 -20.475  27.755  1.00  0.00     0.293 HD
ENDBRANCH  15  18
BRANCH  17  20
ATOM     20  O   UNL     1     -12.496 -21.063  31.425  1.00  0.00    -0.504 OA
ATOM     21  H   UNL     1     -13.230 -21.747  31.289  1.00  0.00     0.293 HD
ENDBRANCH  17  20
ENDBRANCH   1  12
BRANCH   2  22
ATOM     22  O   UNL     1     -15.300 -15.763  31.631  1.00  0.00    -0.502 OA
ATOM     23  H   UNL     1     -15.165 -16.226  30.740  1.00  0.00     0.293 HD
ENDBRANCH   2  22
BRANCH   9  24
ATOM     24  O   UNL     1      -9.875 -13.631  36.766  1.00  0.00    -0.508 OA
ATOM     25  H   UNL     1      -9.950 -13.574  37.775  1.00  0.00     0.293 HD
ENDBRANCH   9  24
TORSDOF 5
ENDMDL
MODEL 8
REMARK VINA RESULT:    -3.728      1.452      6.659
REMARK INTER + INTRA:          -4.485
REMARK INTER:                  -4.546
REMARK INTRA:                   0.061
REMARK UNBOUND:                -0.103
REMARK SMILES O=c1c(O)c(-c2ccc(O)c(O)c2)oc2cc(O)ccc12
REMARK SMILES IDX 5 1 3 2 2 3 1 4 21 5 15 6 14 7 16 8 17 9 19 10 20 11 6 12
REMARK SMILES IDX 7 13 8 14 9 15 13 16 11 17 10 18 12 20 4 22 18 24
REMARK H PARENT 10 19 12 21 4 23 18 25
REMARK Flexibility Score: inf
ROOT
ATOM      1  C   UNL     1     -12.290 -15.915  31.434  1.00  0.00     0.180 A 
ATOM      2  C   UNL     1     -11.194 -16.562  32.040  1.00  0.00     0.208 A 
ATOM      3  C   UNL     1     -10.863 -16.235  33.364  1.00  0.00     0.235 A 
ATOM      4  O   UNL     1      -9.879 -16.793  33.924  1.00  0.00    -0.285 OA
ATOM      5  C   UNL     1     -11.638 -15.292  34.057  1.00  0.00     0.069 A 
ATOM      6  C   UNL     1     -12.734 -14.706  33.389  1.00  0.00     0.142 A 
ATOM      7  O   UNL     1     -13.009 -15.037  32.132  1.00  0.00    -0.452 OA
ATOM      8  C   UNL     1     -13.537 -13.769  34.049  1.00  0.00     0.094 A 
ATOM      9  C   UNL     1     -13.258 -13.408  35.370  1.00  0.00     0.119 A 
ATOM     10  C   UNL     1     -12.170 -13.987  36.038  1.00  0.00     0.047 A 
ATOM     11  C   UNL     1     -11.362 -14.924  35.387  1.00  0.00     0.020 A 
ENDROOT
BRANCH   1  12
ATOM     12  C   UNL     1     -12.693 -16.190  30.036  1.00  0.00     0.025 A 
ATOM     13  C   UNL     1     -12.971 -15.146  29.136  1.00  0.00     0.016 A 
ATOM     14  C   UNL     1     -13.371 -15.430  27.827  1.00  0.00     0.051 A 
ATOM     15  C   UNL     1     -13.513 -16.758  27.405  1.00  0.00     0.157 A 
ATOM     16  C   UNL     1     -12.857 -17.519  29.613  1.00  0.00     0.062 A 
ATOM     17  C   UNL     1     -13.259 -17.804  28.300  1.00  0.00     0.158 A 
BRANCH  15  18
ATOM     18  O   UNL     1     -13.911 -17.045  26.100  1.00  0.00    -0.504 OA
ATOM     19  H   UNL     1     -13.664 -16.440  25.326  1.00  0.00     0.293 HD
ENDBRANCH  15  18
BRANCH  17  20
ATOM     20  O   UNL     1     -13.408 -19.125  27.879  1.00  0.00    -0.504 OA
ATOM     21  H   UNL     1     -14.321 -19.525  27.701  1.00  0.00     0.293 HD
ENDBRANCH  17  20
ENDBRANCH   1  12
BRANCH   2  22
ATOM     22  O   UNL     1     -10.471 -17.532  31.341  1.00  0.00    -0.502 OA
ATOM     23  H   UNL     1      -9.467 -17.631  31.436  1.00  0.00     0.293 HD
ENDBRANCH   2  22
BRANCH   9  24
ATOM     24  O   UNL     1     -14.068 -12.473  36.012  1.00  0.00    -0.508 OA
ATOM     25  H   UNL     1     -13.708 -11.880  36.751  1.00  0.00     0.293 HD
ENDBRANCH   9  24
TORSDOF 5
ENDMDL
