MODEL 1
REMARK VINA RESULT:    -5.945      0.000      0.000
REMARK INTER + INTRA:          -7.955
REMARK INTER:                  -7.509
REMARK INTRA:                  -0.446
REMARK UNBOUND:                -0.446
REMARK SMILES CC(C)=CCCC(C)=CCO
REMARK SMILES IDX 7 1 9 2 8 3 6 4 5 5 4 6 1 7 2 8 3 9 10 10 11 11
REMARK H PARENT 11 12
REMARK Flexibility Score: inf
ROOT
ATOM      1  C   UNL     1      29.865  20.261  51.284  1.00  0.00    -0.075 C 
ATOM      2  C   UNL     1      29.699  20.561  52.591  1.00  0.00    -0.000 C 
ATOM      3  C   UNL     1      30.267  21.316  50.279  1.00  0.00     0.039 C 
ENDROOT
BRANCH   1   4
ATOM      4  C   UNL     1      29.642  18.838  50.814  1.00  0.00     0.034 C 
BRANCH   4   5
ATOM      5  C   UNL     1      30.928  18.210  50.260  1.00  0.00     0.032 C 
BRANCH   5   6
ATOM      6  C   UNL     1      30.869  18.041  48.760  1.00  0.00    -0.028 C 
ATOM      7  C   UNL     1      31.655  18.155  46.436  1.00  0.00     0.039 C 
ATOM      8  C   UNL     1      31.835  18.440  47.904  1.00  0.00    -0.080 C 
ATOM      9  C   UNL     1      33.070  19.173  48.375  1.00  0.00     0.039 C 
ENDBRANCH   5   6
ENDBRANCH   4   5
ENDBRANCH   1   4
BRANCH   2  10
ATOM     10  C   UNL     1      29.902  21.943  53.151  1.00  0.00     0.183 C 
BRANCH  10  11
ATOM     11  O   UNL     1      30.871  21.901  54.162  1.00  0.00    -0.392 OA
ATOM     12  H   UNL     1      31.533  21.217  53.880  1.00  0.00     0.210 HD
ENDBRANCH  10  11
ENDBRANCH   2  10
TORSDOF 5
ENDMDL
MODEL 2
REMARK VINA RESULT:    -5.931      3.381      5.683
REMARK INTER + INTRA:          -7.937
REMARK INTER:                  -7.338
REMARK INTRA:                  -0.598
REMARK UNBOUND:                -0.446
REMARK SMILES CC(C)=CCCC(C)=CCO
REMARK SMILES IDX 7 1 9 2 8 3 6 4 5 5 4 6 1 7 2 8 3 9 10 10 11 11
REMARK H PARENT 11 12
REMARK Flexibility Score: inf
ROOT
ATOM      1  C   UNL     1      32.713  18.961  47.912  1.00  0.00    -0.075 C 
ATOM      2  C   UNL     1      31.988  17.925  47.436  1.00  0.00    -0.000 C 
ATOM      3  C   UNL     1      33.125  20.109  47.020  1.00  0.00     0.039 C 
ENDROOT
BRANCH   1   4
ATOM      4  C   UNL     1      33.122  18.973  49.371  1.00  0.00     0.034 C 
BRANCH   4   5
ATOM      5  C   UNL     1      31.912  18.840  50.306  1.00  0.00     0.032 C 
BRANCH   5   6
ATOM      6  C   UNL     1      31.630  20.127  51.045  1.00  0.00    -0.028 C 
ATOM      7  C   UNL     1      30.509  22.256  51.537  1.00  0.00     0.039 C 
ATOM      8  C   UNL     1      30.712  21.043  50.667  1.00  0.00    -0.080 C 
ATOM      9  C   UNL     1      29.907  20.895  49.397  1.00  0.00     0.039 C 
ENDBRANCH   5   6
ENDBRANCH   4   5
ENDBRANCH   1   4
BRANCH   2  10
ATOM     10  C   UNL     1      31.531  17.827  46.006  1.00  0.00     0.183 C 
BRANCH  10  11
ATOM     11  O   UNL     1      32.451  17.069  45.270  1.00  0.00    -0.392 OA
ATOM     12  H   UNL     1      33.252  17.644  45.156  1.00  0.00     0.210 HD
ENDBRANCH  10  11
ENDBRANCH   2  10
TORSDOF 5
ENDMDL
MODEL 3
REMARK VINA RESULT:    -5.751      2.757      4.384
REMARK INTER + INTRA:          -7.709
REMARK INTER:                  -7.078
REMARK INTRA:                  -0.632
REMARK UNBOUND:                -0.446
REMARK SMILES CC(C)=CCCC(C)=CCO
REMARK SMILES IDX 7 1 9 2 8 3 6 4 5 5 4 6 1 7 2 8 3 9 10 10 11 11
REMARK H PARENT 11 12
REMARK Flexibility Score: inf
ROOT
ATOM      1  C   UNL     1      31.985  18.472  48.446  1.00  0.00    -0.075 C 
ATOM      2  C   UNL     1      30.744  18.173  48.888  1.00  0.00    -0.000 C 
ATOM      3  C   UNL     1      33.060  18.960  49.389  1.00  0.00     0.039 C 
ENDROOT
BRANCH   1   4
ATOM      4  C   UNL     1      32.307  18.318  46.973  1.00  0.00     0.034 C 
BRANCH   4   5
ATOM      5  C   UNL     1      31.304  19.068  46.086  1.00  0.00     0.032 C 
BRANCH   5   6
ATOM      6  C   UNL     1      31.718  20.503  45.861  1.00  0.00    -0.028 C 
ATOM      7  C   UNL     1      31.684  22.941  46.151  1.00  0.00     0.039 C 
ATOM      8  C   UNL     1      31.123  21.572  46.433  1.00  0.00    -0.080 C 
ATOM      9  C   UNL     1      29.910  21.433  47.323  1.00  0.00     0.039 C 
ENDBRANCH   5   6
ENDBRANCH   4   5
ENDBRANCH   1   4
BRANCH   2  10
ATOM     10  C   UNL     1      30.332  18.290  50.330  1.00  0.00     0.183 C 
BRANCH  10  11
ATOM     11  O   UNL     1      28.954  18.067  50.444  1.00  0.00    -0.392 OA
ATOM     12  H   UNL     1      28.663  18.556  51.257  1.00  0.00     0.210 HD
ENDBRANCH  10  11
ENDBRANCH   2  10
TORSDOF 5
ENDMDL
MODEL 4
REMARK VINA RESULT:    -5.725      2.685      5.318
REMARK INTER + INTRA:          -7.676
REMARK INTER:                  -7.300
REMARK INTRA:                  -0.376
REMARK UNBOUND:                -0.446
REMARK SMILES CC(C)=CCCC(C)=CCO
REMARK SMILES IDX 7 1 9 2 8 3 6 4 5 5 4 6 1 7 2 8 3 9 10 10 11 11
REMARK H PARENT 11 12
REMARK Flexibility Score: inf
ROOT
ATOM      1  C   UNL     1      31.932  18.471  49.212  1.00  0.00    -0.075 C 
ATOM      2  C   UNL     1      31.181  18.086  48.157  1.00  0.00    -0.000 C 
ATOM      3  C   UNL     1      33.273  19.141  49.021  1.00  0.00     0.039 C 
ENDROOT
BRANCH   1   4
ATOM      4  C   UNL     1      31.422  18.225  50.617  1.00  0.00     0.034 C 
BRANCH   4   5
ATOM      5  C   UNL     1      29.949  18.629  50.771  1.00  0.00     0.032 C 
BRANCH   5   6
ATOM      6  C   UNL     1      29.785  20.128  50.849  1.00  0.00    -0.028 C 
ATOM      7  C   UNL     1      29.770  22.353  51.889  1.00  0.00     0.039 C 
ATOM      8  C   UNL     1      29.912  20.856  51.980  1.00  0.00    -0.080 C 
ATOM      9  C   UNL     1      30.171  20.213  53.322  1.00  0.00     0.039 C 
ENDBRANCH   5   6
ENDBRANCH   4   5
ENDBRANCH   1   4
BRANCH   2  10
ATOM     10  C   UNL     1      31.601  18.293  46.727  1.00  0.00     0.183 C 
BRANCH  10  11
ATOM     11  O   UNL     1      30.698  19.156  46.093  1.00  0.00    -0.392 OA
ATOM     12  H   UNL     1      30.510  18.753  45.206  1.00  0.00     0.210 HD
ENDBRANCH  10  11
ENDBRANCH   2  10
TORSDOF 5
ENDMDL
MODEL 5
REMARK VINA RESULT:    -5.698      2.660      4.442
REMARK INTER + INTRA:          -7.642
REMARK INTER:                  -7.337
REMARK INTRA:                  -0.306
REMARK UNBOUND:                -0.446
REMARK SMILES CC(C)=CCCC(C)=CCO
REMARK SMILES IDX 7 1 9 2 8 3 6 4 5 5 4 6 1 7 2 8 3 9 10 10 11 11
REMARK H PARENT 11 12
REMARK Flexibility Score: inf
ROOT
ATOM      1  C   UNL     1      32.037  18.425  48.476  1.00  0.00    -0.075 C 
ATOM      2  C   UNL     1      30.787  18.183  48.931  1.00  0.00    -0.000 C 
ATOM      3  C   UNL     1      33.106  18.995  49.380  1.00  0.00     0.039 C 
ENDROOT
BRANCH   1   4
ATOM      4  C   UNL     1      32.374  18.122  47.031  1.00  0.00     0.034 C 
BRANCH   4   5
ATOM      5  C   UNL     1      32.590  19.403  46.213  1.00  0.00     0.032 C 
BRANCH   5   6
ATOM      6  C   UNL     1      31.456  19.647  45.244  1.00  0.00    -0.028 C 
ATOM      7  C   UNL     1      30.198  19.474  43.142  1.00  0.00     0.039 C 
ATOM      8  C   UNL     1      31.423  19.193  43.972  1.00  0.00    -0.080 C 
ATOM      9  C   UNL     1      32.579  18.436  43.361  1.00  0.00     0.039 C 
ENDBRANCH   5   6
ENDBRANCH   4   5
ENDBRANCH   1   4
BRANCH   2  10
ATOM     10  C   UNL     1      30.360  18.446  50.349  1.00  0.00     0.183 C 
BRANCH  10  11
ATOM     11  O   UNL     1      29.016  18.088  50.509  1.00  0.00    -0.392 OA
ATOM     12  H   UNL     1      28.843  18.100  51.486  1.00  0.00     0.210 HD
ENDBRANCH  10  11
ENDBRANCH   2  10
TORSDOF 5
ENDMDL
MODEL 6
REMARK VINA RESULT:    -5.665      1.294      1.529
REMARK INTER + INTRA:          -7.601
REMARK INTER:                  -7.116
REMARK INTRA:                  -0.484
REMARK UNBOUND:                -0.446
REMARK SMILES CC(C)=CCCC(C)=CCO
REMARK SMILES IDX 7 1 9 2 8 3 6 4 5 5 4 6 1 7 2 8 3 9 10 10 11 11
REMARK H PARENT 11 12
REMARK Flexibility Score: inf
ROOT
ATOM      1  C   UNL     1      31.134  19.968  50.841  1.00  0.00    -0.075 C 
ATOM      2  C   UNL     1      31.608  20.553  51.963  1.00  0.00    -0.000 C 
ATOM      3  C   UNL     1      30.107  20.654  49.969  1.00  0.00     0.039 C 
ENDROOT
BRANCH   1   4
ATOM      4  C   UNL     1      31.639  18.595  50.449  1.00  0.00     0.034 C 
BRANCH   4   5
ATOM      5  C   UNL     1      32.781  18.676  49.426  1.00  0.00     0.032 C 
BRANCH   5   6
ATOM      6  C   UNL     1      32.411  18.016  48.119  1.00  0.00    -0.028 C 
ATOM      7  C   UNL     1      31.936  17.864  45.714  1.00  0.00     0.039 C 
ATOM      8  C   UNL     1      32.256  18.669  46.946  1.00  0.00    -0.080 C 
ATOM      9  C   UNL     1      32.377  20.172  46.844  1.00  0.00     0.039 C 
ENDBRANCH   5   6
ENDBRANCH   4   5
ENDBRANCH   1   4
BRANCH   2  10
ATOM     10  C   UNL     1      31.171  21.915  52.430  1.00  0.00     0.183 C 
BRANCH  10  11
ATOM     11  O   UNL     1      31.023  21.908  53.823  1.00  0.00    -0.392 OA
ATOM     12  H   UNL     1      30.842  22.848  54.084  1.00  0.00     0.210 HD
ENDBRANCH  10  11
ENDBRANCH   2  10
TORSDOF 5
ENDMDL
MODEL 7
REMARK VINA RESULT:    -5.643      5.133      7.537
REMARK INTER + INTRA:          -7.574
REMARK INTER:                  -6.955
REMARK INTRA:                  -0.619
REMARK UNBOUND:                -0.446
REMARK SMILES CC(C)=CCCC(C)=CCO
REMARK SMILES IDX 7 1 9 2 8 3 6 4 5 5 4 6 1 7 2 8 3 9 10 10 11 11
REMARK H PARENT 11 12
REMARK Flexibility Score: inf
ROOT
ATOM      1  C   UNL     1      30.631  20.831  43.807  1.00  0.00    -0.075 C 
ATOM      2  C   UNL     1      31.561  19.851  43.780  1.00  0.00    -0.000 C 
ATOM      3  C   UNL     1      29.201  20.571  43.392  1.00  0.00     0.039 C 
ENDROOT
BRANCH   1   4
ATOM      4  C   UNL     1      31.028  22.221  44.261  1.00  0.00     0.034 C 
BRANCH   4   5
ATOM      5  C   UNL     1      30.113  22.741  45.378  1.00  0.00     0.032 C 
BRANCH   5   6
ATOM      6  C   UNL     1      30.356  22.022  46.684  1.00  0.00    -0.028 C 
ATOM      7  C   UNL     1      29.832  20.604  48.619  1.00  0.00     0.039 C 
ATOM      8  C   UNL     1      29.423  21.310  47.353  1.00  0.00    -0.080 C 
ATOM      9  C   UNL     1      27.991  21.222  46.880  1.00  0.00     0.039 C 
ENDBRANCH   5   6
ENDBRANCH   4   5
ENDBRANCH   1   4
BRANCH   2  10
ATOM     10  C   UNL     1      31.260  18.441  43.349  1.00  0.00     0.183 C 
BRANCH  10  11
ATOM     11  O   UNL     1      32.446  17.807  42.957  1.00  0.00    -0.392 OA
ATOM     12  H   UNL     1      32.308  17.523  42.017  1.00  0.00     0.210 HD
ENDBRANCH  10  11
ENDBRANCH   2  10
TORSDOF 5
ENDMDL
MODEL 8
REMARK VINA RESULT:    -5.617      3.911      6.444
REMARK INTER + INTRA:          -7.540
REMARK INTER:                  -7.127
REMARK INTRA:                  -0.413
REMARK UNBOUND:                -0.446
REMARK SMILES CC(C)=CCCC(C)=CCO
REMARK SMILES IDX 7 1 9 2 8 3 6 4 5 5 4 6 1 7 2 8 3 9 10 10 11 11
REMARK H PARENT 11 12
REMARK Flexibility Score: inf
ROOT
ATOM      1  C   UNL     1      32.029  18.408  46.177  1.00  0.00    -0.075 C 
ATOM      2  C   UNL     1      31.930  17.543  45.143  1.00  0.00    -0.000 C 
ATOM      3  C   UNL     1      31.926  19.901  45.965  1.00  0.00     0.039 C 
ENDROOT
BRANCH   1   4
ATOM      4  C   UNL     1      32.249  17.872  47.576  1.00  0.00     0.034 C 
BRANCH   4   5
ATOM      5  C   UNL     1      31.081  18.217  48.511  1.00  0.00     0.032 C 
BRANCH   5   6
ATOM      6  C   UNL     1      31.558  18.873  49.785  1.00  0.00    -0.028 C 
ATOM      7  C   UNL     1      31.620  20.540  51.588  1.00  0.00     0.039 C 
ATOM      8  C   UNL     1      31.079  20.037  50.275  1.00  0.00    -0.080 C 
ATOM      9  C   UNL     1      30.039  20.849  49.538  1.00  0.00     0.039 C 
ENDBRANCH   5   6
ENDBRANCH   4   5
ENDBRANCH   1   4
BRANCH   2  10
ATOM     10  C   UNL     1      31.706  17.979  43.721  1.00  0.00     0.183 C 
BRANCH  10  11
ATOM     11  O   UNL     1      32.920  17.939  43.022  1.00  0.00    -0.392 OA
ATOM     12  H   UNL     1      33.344  18.826  43.157  1.00  0.00     0.210 HD
ENDBRANCH  10  11
ENDBRANCH   2  10
TORSDOF 5
ENDMDL
MODEL 9
REMARK VINA RESULT:    -5.539      2.984      3.623
REMARK INTER + INTRA:          -7.443
REMARK INTER:                  -7.093
REMARK INTRA:                  -0.350
REMARK UNBOUND:                -0.446
REMARK SMILES CC(C)=CCCC(C)=CCO
REMARK SMILES IDX 7 1 9 2 8 3 6 4 5 5 4 6 1 7 2 8 3 9 10 10 11 11
REMARK H PARENT 11 12
REMARK Flexibility Score: inf
ROOT
ATOM      1  C   UNL     1      30.629  20.810  50.143  1.00  0.00    -0.075 C 
ATOM      2  C   UNL     1      30.594  21.688  51.169  1.00  0.00    -0.000 C 
ATOM      3  C   UNL     1      31.622  19.671  50.114  1.00  0.00     0.039 C 
ENDROOT
BRANCH   1   4
ATOM      4  C   UNL     1      29.654  20.971  48.994  1.00  0.00     0.034 C 
BRANCH   4   5
ATOM      5  C   UNL     1      30.294  20.613  47.646  1.00  0.00     0.032 C 
BRANCH   5   6
ATOM      6  C   UNL     1      30.997  21.797  47.027  1.00  0.00    -0.028 C 
ATOM      7  C   UNL     1      31.225  23.877  45.740  1.00  0.00     0.039 C 
ATOM      8  C   UNL     1      30.400  22.720  46.242  1.00  0.00    -0.080 C 
ATOM      9  C   UNL     1      28.946  22.614  45.843  1.00  0.00     0.039 C 
ENDBRANCH   5   6
ENDBRANCH   4   5
ENDBRANCH   1   4
BRANCH   2  10
ATOM     10  C   UNL     1      31.518  21.607  52.354  1.00  0.00     0.183 C 
BRANCH  10  11
ATOM     11  O   UNL     1      30.797  21.859  53.529  1.00  0.00    -0.392 OA
ATOM     12  H   UNL     1      29.859  21.598  53.337  1.00  0.00     0.210 HD
ENDBRANCH  10  11
ENDBRANCH   2  10
TORSDOF 5
ENDMDL
