MODEL 1
REMARK VINA RESULT:    11.892      0.000      0.000
REMARK INTER + INTRA:          17.716
REMARK INTER:                  18.149
REMARK INTRA:                  -0.433
REMARK UNBOUND:                -0.433
REMARK SMILES CCCCCCCCCCC(=O)[O-]
REMARK SMILES IDX 7 1 8 2 9 3 10 4 11 5 12 6 13 7 6 8 5 9 4 10 3 11 2 12 1 13
REMARK H PARENT
REMARK Flexibility Score: inf
ROOT
ATOM      1  C   UNL     1      -3.712  -9.090  24.707  1.00  0.00     0.000 C 
ENDROOT
BRANCH   1   2
ATOM      2  C   UNL     1      -5.048  -8.760  25.397  1.00  0.00     0.000 C 
BRANCH   2   3
ATOM      3  C   UNL     1      -6.165  -9.802  25.196  1.00  0.00     0.006 C 
BRANCH   3   4
ATOM      4  C   UNL     1      -6.052 -10.599  23.883  1.00  0.00     0.053 C 
BRANCH   4   5
ATOM      5  C   UNL     1      -6.543 -12.010  24.020  1.00  0.00     0.041 C 
ATOM      6  O   UNL     1      -6.824 -12.687  22.996  1.00  0.00    -0.550 OA
ATOM      7  O   UNL     1      -6.729 -12.564  25.280  1.00  0.00    -0.550 OA
ENDBRANCH   4   5
ENDBRANCH   3   4
ENDBRANCH   2   3
ENDBRANCH   1   2
BRANCH   1   8
ATOM      8  C   UNL     1      -3.103  -7.886  23.973  1.00  0.00     0.000 C 
BRANCH   8   9
ATOM      9  C   UNL     1      -1.630  -8.145  23.628  1.00  0.00    -0.000 C 
BRANCH   9  10
ATOM     10  C   UNL     1      -0.800  -8.593  24.845  1.00  0.00    -0.000 C 
BRANCH  10  11
ATOM     11  C   UNL     1       0.022  -7.478  25.522  1.00  0.00    -0.000 C 
BRANCH  11  12
ATOM     12  C   UNL     1       0.688  -7.879  26.850  1.00  0.00    -0.003 C 
ATOM     13  C   UNL     1       0.622  -9.382  27.119  1.00  0.00     0.004 C 
ENDBRANCH  11  12
ENDBRANCH  10  11
ENDBRANCH   9  10
ENDBRANCH   8   9
ENDBRANCH   1   8
TORSDOF 9
ENDMDL
MODEL 2
REMARK VINA RESULT:    12.322     14.727     16.142
REMARK INTER + INTRA:          18.372
REMARK INTER:                  18.763
REMARK INTRA:                  -0.391
REMARK UNBOUND:                -0.433
REMARK SMILES CCCCCCCCCCC(=O)[O-]
REMARK SMILES IDX 7 1 8 2 9 3 10 4 11 5 12 6 13 7 6 8 5 9 4 10 3 11 2 12 1 13
REMARK H PARENT
REMARK Flexibility Score: inf
ROOT
ATOM      1  C   UNL     1       5.059 -16.780  14.061  1.00  0.00     0.000 C 
ENDROOT
BRANCH   1   2
ATOM      2  C   UNL     1       4.802 -17.521  15.385  1.00  0.00     0.000 C 
BRANCH   2   3
ATOM      3  C   UNL     1       5.125 -16.719  16.660  1.00  0.00     0.006 C 
BRANCH   3   4
ATOM      4  C   UNL     1       4.567 -17.343  17.953  1.00  0.00     0.053 C 
BRANCH   4   5
ATOM      5  C   UNL     1       3.992 -16.320  18.887  1.00  0.00     0.041 C 
ATOM      6  O   UNL     1       4.383 -15.124  18.838  1.00  0.00    -0.550 OA
ATOM      7  O   UNL     1       3.052 -16.695  19.839  1.00  0.00    -0.550 OA
ENDBRANCH   4   5
ENDBRANCH   3   4
ENDBRANCH   2   3
ENDBRANCH   1   2
BRANCH   1   8
ATOM      8  C   UNL     1       4.839 -17.665  12.826  1.00  0.00     0.000 C 
BRANCH   8   9
ATOM      9  C   UNL     1       4.262 -19.030  13.226  1.00  0.00    -0.000 C 
BRANCH   9  10
ATOM     10  C   UNL     1       4.377 -20.080  12.106  1.00  0.00    -0.000 C 
BRANCH  10  11
ATOM     11  C   UNL     1       3.079 -20.339  11.316  1.00  0.00    -0.000 C 
BRANCH  11  12
ATOM     12  C   UNL     1       1.783 -19.962  12.056  1.00  0.00    -0.003 C 
ATOM     13  C   UNL     1       0.669 -20.990  11.865  1.00  0.00     0.004 C 
ENDBRANCH  11  12
ENDBRANCH  10  11
ENDBRANCH   9  10
ENDBRANCH   8   9
ENDBRANCH   1   8
TORSDOF 9
ENDMDL
MODEL 3
REMARK VINA RESULT:    12.566      3.646      6.596
REMARK INTER + INTRA:          18.744
REMARK INTER:                  18.709
REMARK INTRA:                   0.035
REMARK UNBOUND:                -0.433
REMARK SMILES CCCCCCCCCCC(=O)[O-]
REMARK SMILES IDX 7 1 8 2 9 3 10 4 11 5 12 6 13 7 6 8 5 9 4 10 3 11 2 12 1 13
REMARK H PARENT
REMARK Flexibility Score: inf
ROOT
ATOM      1  C   UNL     1      -3.230  -7.905  23.820  1.00  0.00     0.000 C 
ENDROOT
BRANCH   1   2
ATOM      2  C   UNL     1      -1.740  -8.109  23.495  1.00  0.00     0.000 C 
BRANCH   2   3
ATOM      3  C   UNL     1      -1.028  -9.190  24.330  1.00  0.00     0.006 C 
BRANCH   3   4
ATOM      4  C   UNL     1      -1.017  -8.908  25.844  1.00  0.00     0.053 C 
BRANCH   4   5
ATOM      5  C   UNL     1       0.293  -8.351  26.319  1.00  0.00     0.041 C 
ATOM      6  O   UNL     1       1.059  -9.050  27.033  1.00  0.00    -0.550 OA
ATOM      7  O   UNL     1       0.649  -7.046  26.006  1.00  0.00    -0.550 OA
ENDBRANCH   4   5
ENDBRANCH   3   4
ENDBRANCH   2   3
ENDBRANCH   1   2
BRANCH   1   8
ATOM      8  C   UNL     1      -3.794  -8.985  24.755  1.00  0.00     0.000 C 
BRANCH   8   9
ATOM      9  C   UNL     1      -5.234  -8.654  25.168  1.00  0.00    -0.000 C 
BRANCH   9  10
ATOM     10  C   UNL     1      -6.211  -9.817  24.914  1.00  0.00    -0.000 C 
BRANCH  10  11
ATOM     11  C   UNL     1      -5.826 -10.754  23.751  1.00  0.00    -0.000 C 
BRANCH  11  12
ATOM     12  C   UNL     1      -6.560 -12.106  23.737  1.00  0.00    -0.003 C 
ATOM     13  C   UNL     1      -6.755 -12.692  25.134  1.00  0.00     0.004 C 
ENDBRANCH  11  12
ENDBRANCH  10  11
ENDBRANCH   9  10
ENDBRANCH   8   9
ENDBRANCH   1   8
TORSDOF 9
ENDMDL
MODEL 4
REMARK VINA RESULT:    13.122      1.871      3.768
REMARK INTER + INTRA:          19.593
REMARK INTER:                  20.072
REMARK INTRA:                  -0.479
REMARK UNBOUND:                -0.433
REMARK SMILES CCCCCCCCCCC(=O)[O-]
REMARK SMILES IDX 7 1 8 2 9 3 10 4 11 5 12 6 13 7 6 8 5 9 4 10 3 11 2 12 1 13
REMARK H PARENT
REMARK Flexibility Score: inf
ROOT
ATOM      1  C   UNL     1      -3.963  -8.424  24.518  1.00  0.00     0.000 C 
ENDROOT
BRANCH   1   2
ATOM      2  C   UNL     1      -4.980  -8.961  25.540  1.00  0.00     0.000 C 
BRANCH   2   3
ATOM      3  C   UNL     1      -6.168  -9.738  24.940  1.00  0.00     0.006 C 
BRANCH   3   4
ATOM      4  C   UNL     1      -5.765 -10.774  23.874  1.00  0.00     0.053 C 
BRANCH   4   5
ATOM      5  C   UNL     1      -6.573 -12.035  23.961  1.00  0.00     0.041 C 
ATOM      6  O   UNL     1      -6.557 -12.729  25.011  1.00  0.00    -0.550 OA
ATOM      7  O   UNL     1      -7.314 -12.465  22.867  1.00  0.00    -0.550 OA
ENDBRANCH   4   5
ENDBRANCH   3   4
ENDBRANCH   2   3
ENDBRANCH   1   2
BRANCH   1   8
ATOM      8  C   UNL     1      -2.567  -9.044  24.679  1.00  0.00     0.000 C 
BRANCH   8   9
ATOM      9  C   UNL     1      -1.561  -8.378  23.731  1.00  0.00    -0.000 C 
BRANCH   9  10
ATOM     10  C   UNL     1      -2.188  -7.252  22.887  1.00  0.00    -0.000 C 
BRANCH  10  11
ATOM     11  C   UNL     1      -2.254  -7.530  21.372  1.00  0.00    -0.000 C 
BRANCH  11  12
ATOM     12  C   UNL     1      -3.503  -6.976  20.665  1.00  0.00    -0.003 C 
ATOM     13  C   UNL     1      -3.562  -7.345  19.183  1.00  0.00     0.004 C 
ENDBRANCH  11  12
ENDBRANCH  10  11
ENDBRANCH   9  10
ENDBRANCH   8   9
ENDBRANCH   1   8
TORSDOF 9
ENDMDL
MODEL 5
REMARK VINA RESULT:    13.139      3.528      5.335
REMARK INTER + INTRA:          19.619
REMARK INTER:                  19.895
REMARK INTRA:                  -0.276
REMARK UNBOUND:                -0.433
REMARK SMILES CCCCCCCCCCC(=O)[O-]
REMARK SMILES IDX 7 1 8 2 9 3 10 4 11 5 12 6 13 7 6 8 5 9 4 10 3 11 2 12 1 13
REMARK H PARENT
REMARK Flexibility Score: inf
ROOT
ATOM      1  C   UNL     1      -6.138 -13.277  24.640  1.00  0.00     0.000 C 
ENDROOT
BRANCH   1   2
ATOM      2  C   UNL     1      -5.582 -13.903  25.931  1.00  0.00     0.000 C 
BRANCH   2   3
ATOM      3  C   UNL     1      -4.610 -15.080  25.725  1.00  0.00     0.006 C 
BRANCH   3   4
ATOM      4  C   UNL     1      -5.118 -16.420  26.290  1.00  0.00     0.053 C 
BRANCH   4   5
ATOM      5  C   UNL     1      -4.932 -17.558  25.331  1.00  0.00     0.041 C 
ATOM      6  O   UNL     1      -4.480 -17.348  24.174  1.00  0.00    -0.550 OA
ATOM      7  O   UNL     1      -5.295 -18.847  25.700  1.00  0.00    -0.550 OA
ENDBRANCH   4   5
ENDBRANCH   3   4
ENDBRANCH   2   3
ENDBRANCH   1   2
BRANCH   1   8
ATOM      8  C   UNL     1      -6.655 -11.845  24.842  1.00  0.00     0.000 C 
BRANCH   8   9
ATOM      9  C   UNL     1      -5.829 -10.845  24.020  1.00  0.00    -0.000 C 
BRANCH   9  10
ATOM     10  C   UNL     1      -5.845  -9.425  24.616  1.00  0.00    -0.000 C 
BRANCH  10  11
ATOM     11  C   UNL     1      -4.500  -8.944  25.196  1.00  0.00    -0.000 C 
BRANCH  11  12
ATOM     12  C   UNL     1      -3.526  -8.345  24.166  1.00  0.00    -0.003 C 
ATOM     13  C   UNL     1      -2.069  -8.715  24.438  1.00  0.00     0.004 C 
ENDBRANCH  11  12
ENDBRANCH  10  11
ENDBRANCH   9  10
ENDBRANCH   8   9
ENDBRANCH   1   8
TORSDOF 9
ENDMDL
MODEL 6
REMARK VINA RESULT:    13.204      4.631      6.697
REMARK INTER + INTRA:          19.718
REMARK INTER:                  19.929
REMARK INTRA:                  -0.211
REMARK UNBOUND:                -0.433
REMARK SMILES CCCCCCCCCCC(=O)[O-]
REMARK SMILES IDX 7 1 8 2 9 3 10 4 11 5 12 6 13 7 6 8 5 9 4 10 3 11 2 12 1 13
REMARK H PARENT
REMARK Flexibility Score: inf
ROOT
ATOM      1  C   UNL     1      -2.619  -7.524  23.338  1.00  0.00     0.000 C 
ENDROOT
BRANCH   1   2
ATOM      2  C   UNL     1      -2.360  -9.003  23.672  1.00  0.00     0.000 C 
BRANCH   2   3
ATOM      3  C   UNL     1      -1.128  -9.270  24.559  1.00  0.00     0.006 C 
BRANCH   3   4
ATOM      4  C   UNL     1      -1.099  -8.442  25.858  1.00  0.00     0.053 C 
BRANCH   4   5
ATOM      5  C   UNL     1       0.295  -8.212  26.364  1.00  0.00     0.041 C 
ATOM      6  O   UNL     1       0.889  -7.129  26.118  1.00  0.00    -0.550 OA
ATOM      7  O   UNL     1       0.953  -9.209  27.073  1.00  0.00    -0.550 OA
ENDBRANCH   4   5
ENDBRANCH   3   4
ENDBRANCH   2   3
ENDBRANCH   1   2
BRANCH   1   8
ATOM      8  C   UNL     1      -2.477  -7.213  21.841  1.00  0.00     0.000 C 
BRANCH   8   9
ATOM      9  C   UNL     1      -3.839  -6.875  21.221  1.00  0.00    -0.000 C 
BRANCH   9  10
ATOM     10  C   UNL     1      -3.928  -7.251  19.730  1.00  0.00    -0.000 C 
BRANCH  10  11
ATOM     11  C   UNL     1      -2.578  -7.562  19.053  1.00  0.00    -0.000 C 
BRANCH  11  12
ATOM     12  C   UNL     1      -2.138  -9.034  19.131  1.00  0.00    -0.003 C 
ATOM     13  C   UNL     1      -2.631  -9.866  17.948  1.00  0.00     0.004 C 
ENDBRANCH  11  12
ENDBRANCH  10  11
ENDBRANCH   9  10
ENDBRANCH   8   9
ENDBRANCH   1   8
TORSDOF 9
ENDMDL
MODEL 7
REMARK VINA RESULT:    13.292      3.778      6.011
REMARK INTER + INTRA:          19.852
REMARK INTER:                  20.241
REMARK INTRA:                  -0.389
REMARK UNBOUND:                -0.433
REMARK SMILES CCCCCCCCCCC(=O)[O-]
REMARK SMILES IDX 7 1 8 2 9 3 10 4 11 5 12 6 13 7 6 8 5 9 4 10 3 11 2 12 1 13
REMARK H PARENT
REMARK Flexibility Score: inf
ROOT
ATOM      1  C   UNL     1      -5.335 -13.958  25.202  1.00  0.00     0.000 C 
ENDROOT
BRANCH   1   2
ATOM      2  C   UNL     1      -5.150 -14.734  26.518  1.00  0.00     0.000 C 
BRANCH   2   3
ATOM      3  C   UNL     1      -4.992 -16.259  26.366  1.00  0.00     0.006 C 
BRANCH   3   4
ATOM      4  C   UNL     1      -4.271 -16.690  25.074  1.00  0.00     0.053 C 
BRANCH   4   5
ATOM      5  C   UNL     1      -4.976 -17.807  24.365  1.00  0.00     0.041 C 
ATOM      6  O   UNL     1      -5.135 -17.768  23.116  1.00  0.00    -0.550 OA
ATOM      7  O   UNL     1      -5.494 -18.875  25.088  1.00  0.00    -0.550 OA
ENDBRANCH   4   5
ENDBRANCH   3   4
ENDBRANCH   2   3
ENDBRANCH   1   2
BRANCH   1   8
ATOM      8  C   UNL     1      -6.418 -12.874  25.293  1.00  0.00     0.000 C 
BRANCH   8   9
ATOM      9  C   UNL     1      -6.557 -12.127  23.959  1.00  0.00    -0.000 C 
BRANCH   9  10
ATOM     10  C   UNL     1      -5.726 -10.832  23.909  1.00  0.00    -0.000 C 
BRANCH  10  11
ATOM     11  C   UNL     1      -6.163  -9.735  24.900  1.00  0.00    -0.000 C 
BRANCH  11  12
ATOM     12  C   UNL     1      -5.011  -8.934  25.531  1.00  0.00    -0.003 C 
ATOM     13  C   UNL     1      -3.831  -8.740  24.580  1.00  0.00     0.004 C 
ENDBRANCH  11  12
ENDBRANCH  10  11
ENDBRANCH   9  10
ENDBRANCH   8   9
ENDBRANCH   1   8
TORSDOF 9
ENDMDL
MODEL 8
REMARK VINA RESULT:    13.589      4.045      6.577
REMARK INTER + INTRA:          20.306
REMARK INTER:                  20.573
REMARK INTRA:                  -0.267
REMARK UNBOUND:                -0.433
REMARK SMILES CCCCCCCCCCC(=O)[O-]
REMARK SMILES IDX 7 1 8 2 9 3 10 4 11 5 12 6 13 7 6 8 5 9 4 10 3 11 2 12 1 13
REMARK H PARENT
REMARK Flexibility Score: inf
ROOT
ATOM      1  C   UNL     1      -2.155  -8.584  24.125  1.00  0.00     0.000 C 
ENDROOT
BRANCH   1   2
ATOM      2  C   UNL     1      -0.675  -8.270  24.409  1.00  0.00     0.000 C 
BRANCH   2   3
ATOM      3  C   UNL     1      -0.425  -7.046  25.311  1.00  0.00     0.006 C 
BRANCH   3   4
ATOM      4  C   UNL     1       0.477  -7.335  26.526  1.00  0.00     0.053 C 
BRANCH   4   5
ATOM      5  C   UNL     1       0.709  -8.802  26.736  1.00  0.00     0.041 C 
ATOM      6  O   UNL     1      -0.234  -9.548  27.109  1.00  0.00    -0.550 OA
ATOM      7  O   UNL     1       1.978  -9.339  26.558  1.00  0.00    -0.550 OA
ENDBRANCH   4   5
ENDBRANCH   3   4
ENDBRANCH   2   3
ENDBRANCH   1   2
BRANCH   1   8
ATOM      8  C   UNL     1      -3.031  -7.325  24.050  1.00  0.00     0.000 C 
BRANCH   8   9
ATOM      9  C   UNL     1      -3.805  -7.275  22.726  1.00  0.00    -0.000 C 
BRANCH   9  10
ATOM     10  C   UNL     1      -2.884  -7.141  21.500  1.00  0.00    -0.000 C 
BRANCH  10  11
ATOM     11  C   UNL     1      -3.609  -6.913  20.158  1.00  0.00    -0.000 C 
BRANCH  11  12
ATOM     12  C   UNL     1      -2.981  -7.632  18.951  1.00  0.00    -0.003 C 
ATOM     13  C   UNL     1      -1.984  -8.716  19.357  1.00  0.00     0.004 C 
ENDBRANCH  11  12
ENDBRANCH  10  11
ENDBRANCH   9  10
ENDBRANCH   8   9
ENDBRANCH   1   8
TORSDOF 9
ENDMDL
