MODEL 1
REMARK VINA RESULT:    -4.838      0.000      0.000
REMARK INTER + INTRA:          -7.510
REMARK INTER:                  -7.101
REMARK INTRA:                  -0.410
REMARK UNBOUND:                -0.410
REMARK SMILES O=C([O-])CCCCCCCC(=O)[O-]
REMARK SMILES IDX 7 1 6 2 5 3 4 4 2 5 1 6 3 7 8 8 9 9 10 10 11 11 12 12 13 13
REMARK H PARENT
REMARK Flexibility Score: inf
ROOT
ATOM      1  C   UNL     1     105.541 313.436 191.732  1.00  0.00     0.000 C 
ENDROOT
BRANCH   1   2
ATOM      2  C   UNL     1     104.191 312.819 192.129  1.00  0.00     0.000 C 
BRANCH   2   3
ATOM      3  C   UNL     1     104.349 311.553 192.987  1.00  0.00     0.006 C 
BRANCH   3   4
ATOM      4  C   UNL     1     103.737 311.707 194.386  1.00  0.00     0.053 C 
BRANCH   4   5
ATOM      5  C   UNL     1     104.809 311.965 195.399  1.00  0.00     0.041 C 
ATOM      6  O   UNL     1     106.010 311.703 195.131  1.00  0.00    -0.550 OA
ATOM      7  O   UNL     1     104.485 312.541 196.621  1.00  0.00    -0.550 OA
ENDBRANCH   4   5
ENDBRANCH   3   4
ENDBRANCH   2   3
ENDBRANCH   1   2
BRANCH   1   8
ATOM      8  C   UNL     1     105.368 314.448 190.593  1.00  0.00     0.000 C 
BRANCH   8   9
ATOM      9  C   UNL     1     103.882 314.659 190.266  1.00  0.00     0.006 C 
BRANCH   9  10
ATOM     10  C   UNL     1     103.639 314.850 188.764  1.00  0.00     0.053 C 
BRANCH  10  11
ATOM     11  C   UNL     1     104.313 316.085 188.245  1.00  0.00     0.041 C 
ATOM     12  O   UNL     1     105.125 316.009 187.286  1.00  0.00    -0.550 OA
ATOM     13  O   UNL     1     104.067 317.313 188.844  1.00  0.00    -0.550 OA
ENDBRANCH  10  11
ENDBRANCH   9  10
ENDBRANCH   8   9
ENDBRANCH   1   8
TORSDOF 8
ENDMDL
MODEL 2
REMARK VINA RESULT:    -4.836      2.655      3.537
REMARK INTER + INTRA:          -7.507
REMARK INTER:                  -6.910
REMARK INTRA:                  -0.597
REMARK UNBOUND:                -0.410
REMARK SMILES O=C([O-])CCCCCCCC(=O)[O-]
REMARK SMILES IDX 7 1 6 2 5 3 4 4 2 5 1 6 3 7 8 8 9 9 10 10 11 11 12 12 13 13
REMARK H PARENT
REMARK Flexibility Score: inf
ROOT
ATOM      1  C   UNL     1     105.280 311.237 193.382  1.00  0.00     0.000 C 
ENDROOT
BRANCH   1   2
ATOM      2  C   UNL     1     105.743 311.842 194.716  1.00  0.00     0.000 C 
BRANCH   2   3
ATOM      3  C   UNL     1     104.590 312.478 195.510  1.00  0.00     0.006 C 
BRANCH   3   4
ATOM      4  C   UNL     1     103.993 311.523 196.552  1.00  0.00     0.053 C 
BRANCH   4   5
ATOM      5  C   UNL     1     103.796 312.231 197.856  1.00  0.00     0.041 C 
ATOM      6  O   UNL     1     103.450 311.588 198.880  1.00  0.00    -0.550 OA
ATOM      7  O   UNL     1     104.044 313.595 197.949  1.00  0.00    -0.550 OA
ENDBRANCH   4   5
ENDBRANCH   3   4
ENDBRANCH   2   3
ENDBRANCH   1   2
BRANCH   1   8
ATOM      8  C   UNL     1     103.979 311.895 192.904  1.00  0.00     0.000 C 
BRANCH   8   9
ATOM      9  C   UNL     1     104.262 312.967 191.842  1.00  0.00     0.006 C 
BRANCH   9  10
ATOM     10  C   UNL     1     103.870 314.372 192.316  1.00  0.00     0.053 C 
BRANCH  10  11
ATOM     11  C   UNL     1     105.070 315.253 192.493  1.00  0.00     0.041 C 
ATOM     12  O   UNL     1     105.745 315.199 193.555  1.00  0.00    -0.550 OA
ATOM     13  O   UNL     1     105.421 316.156 191.499  1.00  0.00    -0.550 OA
ENDBRANCH  10  11
ENDBRANCH   9  10
ENDBRANCH   8   9
ENDBRANCH   1   8
TORSDOF 8
ENDMDL
MODEL 3
REMARK VINA RESULT:    -4.811     19.452     21.178
REMARK INTER + INTRA:          -7.470
REMARK INTER:                  -7.092
REMARK INTRA:                  -0.378
REMARK UNBOUND:                -0.410
REMARK SMILES O=C([O-])CCCCCCCC(=O)[O-]
REMARK SMILES IDX 7 1 6 2 5 3 4 4 2 5 1 6 3 7 8 8 9 9 10 10 11 11 12 12 13 13
REMARK H PARENT
REMARK Flexibility Score: inf
ROOT
ATOM      1  C   UNL     1      88.041 325.482 193.148  1.00  0.00     0.000 C 
ENDROOT
BRANCH   1   2
ATOM      2  C   UNL     1      86.782 324.611 193.021  1.00  0.00     0.000 C 
BRANCH   2   3
ATOM      3  C   UNL     1      86.757 323.791 191.721  1.00  0.00     0.006 C 
BRANCH   3   4
ATOM      4  C   UNL     1      88.100 323.820 190.979  1.00  0.00     0.053 C 
BRANCH   4   5
ATOM      5  C   UNL     1      88.008 323.042 189.704  1.00  0.00     0.041 C 
ATOM      6  O   UNL     1      86.941 322.449 189.399  1.00  0.00    -0.550 OA
ATOM      7  O   UNL     1      89.087 323.014 188.829  1.00  0.00    -0.550 OA
ENDBRANCH   4   5
ENDBRANCH   3   4
ENDBRANCH   2   3
ENDBRANCH   1   2
BRANCH   1   8
ATOM      8  C   UNL     1      87.801 326.655 194.106  1.00  0.00     0.000 C 
BRANCH   8   9
ATOM      9  C   UNL     1      86.443 326.523 194.810  1.00  0.00     0.006 C 
BRANCH   9  10
ATOM     10  C   UNL     1      86.573 326.577 196.338  1.00  0.00     0.053 C 
BRANCH  10  11
ATOM     11  C   UNL     1      87.834 325.921 196.811  1.00  0.00     0.041 C 
ATOM     12  O   UNL     1      87.978 324.674 196.709  1.00  0.00    -0.550 OA
ATOM     13  O   UNL     1      88.837 326.683 197.397  1.00  0.00    -0.550 OA
ENDBRANCH  10  11
ENDBRANCH   9  10
ENDBRANCH   8   9
ENDBRANCH   1   8
TORSDOF 8
ENDMDL
MODEL 4
REMARK VINA RESULT:    -4.809      1.918      6.938
REMARK INTER + INTRA:          -7.468
REMARK INTER:                  -7.071
REMARK INTRA:                  -0.397
REMARK UNBOUND:                -0.410
REMARK SMILES O=C([O-])CCCCCCCC(=O)[O-]
REMARK SMILES IDX 7 1 6 2 5 3 4 4 2 5 1 6 3 7 8 8 9 9 10 10 11 11 12 12 13 13
REMARK H PARENT
REMARK Flexibility Score: inf
ROOT
ATOM      1  C   UNL     1     103.945 311.428 193.285  1.00  0.00     0.000 C 
ENDROOT
BRANCH   1   2
ATOM      2  C   UNL     1     105.384 311.909 193.044  1.00  0.00     0.000 C 
BRANCH   2   3
ATOM      3  C   UNL     1     105.449 313.146 192.134  1.00  0.00     0.006 C 
BRANCH   3   4
ATOM      4  C   UNL     1     104.143 313.384 191.364  1.00  0.00     0.053 C 
BRANCH   4   5
ATOM      5  C   UNL     1     104.371 314.334 190.231  1.00  0.00     0.041 C 
ATOM      6  O   UNL     1     103.435 314.610 189.437  1.00  0.00    -0.550 OA
ATOM      7  O   UNL     1     105.605 314.954 190.083  1.00  0.00    -0.550 OA
ENDBRANCH   4   5
ENDBRANCH   3   4
ENDBRANCH   2   3
ENDBRANCH   1   2
BRANCH   1   8
ATOM      8  C   UNL     1     103.452 311.849 194.675  1.00  0.00     0.000 C 
BRANCH   8   9
ATOM      9  C   UNL     1     104.624 311.975 195.660  1.00  0.00     0.006 C 
BRANCH   9  10
ATOM     10  C   UNL     1     104.185 311.773 197.115  1.00  0.00     0.053 C 
BRANCH  10  11
ATOM     11  C   UNL     1     103.726 313.056 197.740  1.00  0.00     0.041 C 
ATOM     12  O   UNL     1     104.145 314.160 197.303  1.00  0.00    -0.550 OA
ATOM     13  O   UNL     1     102.861 313.030 198.826  1.00  0.00    -0.550 OA
ENDBRANCH  10  11
ENDBRANCH   9  10
ENDBRANCH   8   9
ENDBRANCH   1   8
TORSDOF 8
ENDMDL
MODEL 5
REMARK VINA RESULT:    -4.807      1.561      2.215
REMARK INTER + INTRA:          -7.465
REMARK INTER:                  -7.064
REMARK INTRA:                  -0.401
REMARK UNBOUND:                -0.410
REMARK SMILES O=C([O-])CCCCCCCC(=O)[O-]
REMARK SMILES IDX 7 1 6 2 5 3 4 4 2 5 1 6 3 7 8 8 9 9 10 10 11 11 12 12 13 13
REMARK H PARENT
REMARK Flexibility Score: inf
ROOT
ATOM      1  C   UNL     1     105.354 311.886 193.153  1.00  0.00     0.000 C 
ENDROOT
BRANCH   1   2
ATOM      2  C   UNL     1     103.888 311.503 193.410  1.00  0.00     0.000 C 
BRANCH   2   3
ATOM      3  C   UNL     1     103.503 311.599 194.895  1.00  0.00     0.006 C 
BRANCH   3   4
ATOM      4  C   UNL     1     104.654 312.106 195.773  1.00  0.00     0.053 C 
BRANCH   4   5
ATOM      5  C   UNL     1     104.142 312.521 197.116  1.00  0.00     0.041 C 
ATOM      6  O   UNL     1     103.721 311.656 197.928  1.00  0.00    -0.550 OA
ATOM      7  O   UNL     1     104.177 313.858 197.490  1.00  0.00    -0.550 OA
ENDBRANCH   4   5
ENDBRANCH   3   4
ENDBRANCH   2   3
ENDBRANCH   1   2
BRANCH   1   8
ATOM      8  C   UNL     1     105.452 313.021 192.127  1.00  0.00     0.000 C 
BRANCH   8   9
ATOM      9  C   UNL     1     104.104 313.247 191.426  1.00  0.00     0.006 C 
BRANCH   9  10
ATOM     10  C   UNL     1     103.909 314.708 191.000  1.00  0.00     0.053 C 
BRANCH  10  11
ATOM     11  C   UNL     1     103.973 314.865 189.511  1.00  0.00     0.041 C 
ATOM     12  O   UNL     1     104.934 315.481 188.978  1.00  0.00    -0.550 OA
ATOM     13  O   UNL     1     102.953 314.360 188.715  1.00  0.00    -0.550 OA
ENDBRANCH  10  11
ENDBRANCH   9  10
ENDBRANCH   8   9
ENDBRANCH   1   8
TORSDOF 8
ENDMDL
MODEL 6
REMARK VINA RESULT:    -4.803     19.545     20.616
REMARK INTER + INTRA:          -7.458
REMARK INTER:                  -6.807
REMARK INTRA:                  -0.651
REMARK UNBOUND:                -0.410
REMARK SMILES O=C([O-])CCCCCCCC(=O)[O-]
REMARK SMILES IDX 7 1 6 2 5 3 4 4 2 5 1 6 3 7 8 8 9 9 10 10 11 11 12 12 13 13
REMARK H PARENT
REMARK Flexibility Score: inf
ROOT
ATOM      1  C   UNL     1      86.695 326.334 194.151  1.00  0.00     0.000 C 
ENDROOT
BRANCH   1   2
ATOM      2  C   UNL     1      88.175 326.747 194.183  1.00  0.00     0.000 C 
BRANCH   2   3
ATOM      3  C   UNL     1      88.851 326.423 195.525  1.00  0.00     0.006 C 
BRANCH   3   4
ATOM      4  C   UNL     1      87.846 326.007 196.608  1.00  0.00     0.053 C 
BRANCH   4   5
ATOM      5  C   UNL     1      88.547 325.780 197.910  1.00  0.00     0.041 C 
ATOM      6  O   UNL     1      88.990 326.756 198.570  1.00  0.00    -0.550 OA
ATOM      7  O   UNL     1      88.666 324.493 198.418  1.00  0.00    -0.550 OA
ENDBRANCH   4   5
ENDBRANCH   3   4
ENDBRANCH   2   3
ENDBRANCH   1   2
BRANCH   1   8
ATOM      8  C   UNL     1      86.488 325.107 193.256  1.00  0.00     0.000 C 
BRANCH   8   9
ATOM      9  C   UNL     1      87.775 324.756 192.495  1.00  0.00     0.006 C 
BRANCH   9  10
ATOM     10  C   UNL     1      88.138 323.271 192.622  1.00  0.00     0.053 C 
BRANCH  10  11
ATOM     11  C   UNL     1      88.045 322.795 194.040  1.00  0.00     0.041 C 
ATOM     12  O   UNL     1      88.952 323.079 194.866  1.00  0.00    -0.550 OA
ATOM     13  O   UNL     1      86.971 322.010 194.440  1.00  0.00    -0.550 OA
ENDBRANCH  10  11
ENDBRANCH   9  10
ENDBRANCH   8   9
ENDBRANCH   1   8
TORSDOF 8
ENDMDL
MODEL 7
REMARK VINA RESULT:    -4.801     19.240     20.308
REMARK INTER + INTRA:          -7.456
REMARK INTER:                  -6.950
REMARK INTRA:                  -0.506
REMARK UNBOUND:                -0.410
REMARK SMILES O=C([O-])CCCCCCCC(=O)[O-]
REMARK SMILES IDX 7 1 6 2 5 3 4 4 2 5 1 6 3 7 8 8 9 9 10 10 11 11 12 12 13 13
REMARK H PARENT
REMARK Flexibility Score: inf
ROOT
ATOM      1  C   UNL     1      86.673 325.806 194.174  1.00  0.00     0.000 C 
ENDROOT
BRANCH   1   2
ATOM      2  C   UNL     1      87.985 326.598 194.061  1.00  0.00     0.000 C 
BRANCH   2   3
ATOM      3  C   UNL     1      88.861 326.474 195.318  1.00  0.00     0.006 C 
BRANCH   3   4
ATOM      4  C   UNL     1      88.717 325.111 196.007  1.00  0.00     0.053 C 
BRANCH   4   5
ATOM      5  C   UNL     1      88.443 325.291 197.467  1.00  0.00     0.041 C 
ATOM      6  O   UNL     1      88.198 326.435 197.930  1.00  0.00    -0.550 OA
ATOM      7  O   UNL     1      88.410 324.186 198.308  1.00  0.00    -0.550 OA
ENDBRANCH   4   5
ENDBRANCH   3   4
ENDBRANCH   2   3
ENDBRANCH   1   2
BRANCH   1   8
ATOM      8  C   UNL     1      86.539 324.801 193.024  1.00  0.00     0.000 C 
BRANCH   8   9
ATOM      9  C   UNL     1      87.818 324.762 192.174  1.00  0.00     0.006 C 
BRANCH   9  10
ATOM     10  C   UNL     1      88.158 323.344 191.700  1.00  0.00     0.053 C 
BRANCH  10  11
ATOM     11  C   UNL     1      87.948 323.187 190.224  1.00  0.00     0.041 C 
ATOM     12  O   UNL     1      86.924 322.598 189.788  1.00  0.00    -0.550 OA
ATOM     13  O   UNL     1      88.901 323.663 189.333  1.00  0.00    -0.550 OA
ENDBRANCH  10  11
ENDBRANCH   9  10
ENDBRANCH   8   9
ENDBRANCH   1   8
TORSDOF 8
ENDMDL
MODEL 8
REMARK VINA RESULT:    -4.785      1.253      6.674
REMARK INTER + INTRA:          -7.432
REMARK INTER:                  -7.043
REMARK INTRA:                  -0.389
REMARK UNBOUND:                -0.410
REMARK SMILES O=C([O-])CCCCCCCC(=O)[O-]
REMARK SMILES IDX 7 1 6 2 5 3 4 4 2 5 1 6 3 7 8 8 9 9 10 10 11 11 12 12 13 13
REMARK H PARENT
REMARK Flexibility Score: inf
ROOT
ATOM      1  C   UNL     1     104.186 312.785 192.131  1.00  0.00     0.000 C 
ENDROOT
BRANCH   1   2
ATOM      2  C   UNL     1     105.509 313.442 191.709  1.00  0.00     0.000 C 
BRANCH   2   3
ATOM      3  C   UNL     1     105.324 314.474 190.585  1.00  0.00     0.006 C 
BRANCH   3   4
ATOM      4  C   UNL     1     103.849 314.801 190.318  1.00  0.00     0.053 C 
BRANCH   4   5
ATOM      5  C   UNL     1     103.589 314.876 188.847  1.00  0.00     0.041 C 
ATOM      6  O   UNL     1     104.345 315.556 188.104  1.00  0.00    -0.550 OA
ATOM      7  O   UNL     1     102.542 314.155 188.289  1.00  0.00    -0.550 OA
ENDBRANCH   4   5
ENDBRANCH   3   4
ENDBRANCH   2   3
ENDBRANCH   1   2
BRANCH   1   8
ATOM      8  C   UNL     1     104.441 311.558 193.016  1.00  0.00     0.000 C 
BRANCH   8   9
ATOM      9  C   UNL     1     105.837 311.620 193.653  1.00  0.00     0.006 C 
BRANCH   9  10
ATOM     10  C   UNL     1     105.785 311.488 195.180  1.00  0.00     0.053 C 
BRANCH  10  11
ATOM     11  C   UNL     1     104.603 312.204 195.760  1.00  0.00     0.041 C 
ATOM     12  O   UNL     1     104.566 313.463 195.769  1.00  0.00    -0.550 OA
ATOM     13  O   UNL     1     103.558 311.480 196.319  1.00  0.00    -0.550 OA
ENDBRANCH  10  11
ENDBRANCH   9  10
ENDBRANCH   8   9
ENDBRANCH   1   8
TORSDOF 8
ENDMDL
MODEL 9
REMARK VINA RESULT:    -4.741      2.758      6.206
REMARK INTER + INTRA:          -7.367
REMARK INTER:                  -6.704
REMARK INTRA:                  -0.663
REMARK UNBOUND:                -0.410
REMARK SMILES O=C([O-])CCCCCCCC(=O)[O-]
REMARK SMILES IDX 7 1 6 2 5 3 4 4 2 5 1 6 3 7 8 8 9 9 10 10 11 11 12 12 13 13
REMARK H PARENT
REMARK Flexibility Score: inf
ROOT
ATOM      1  C   UNL     1     105.458 311.851 193.195  1.00  0.00     0.000 C 
ENDROOT
BRANCH   1   2
ATOM      2  C   UNL     1     105.536 312.962 192.135  1.00  0.00     0.000 C 
BRANCH   2   3
ATOM      3  C   UNL     1     104.167 313.286 191.517  1.00  0.00     0.006 C 
BRANCH   3   4
ATOM      4  C   UNL     1     103.842 314.786 191.553  1.00  0.00     0.053 C 
BRANCH   4   5
ATOM      5  C   UNL     1     104.072 315.336 192.925  1.00  0.00     0.041 C 
ATOM      6  O   UNL     1     103.319 315.002 193.876  1.00  0.00    -0.550 OA
ATOM      7  O   UNL     1     105.149 316.180 193.163  1.00  0.00    -0.550 OA
ENDBRANCH   4   5
ENDBRANCH   3   4
ENDBRANCH   2   3
ENDBRANCH   1   2
BRANCH   1   8
ATOM      8  C   UNL     1     104.016 311.359 193.368  1.00  0.00     0.000 C 
BRANCH   8   9
ATOM      9  C   UNL     1     103.486 311.689 194.771  1.00  0.00     0.006 C 
BRANCH   9  10
ATOM     10  C   UNL     1     104.619 311.954 195.772  1.00  0.00     0.053 C 
BRANCH  10  11
ATOM     11  C   UNL     1     104.114 312.614 197.019  1.00  0.00     0.041 C 
ATOM     12  O   UNL     1     103.819 311.921 198.029  1.00  0.00    -0.550 OA
ATOM     13  O   UNL     1     103.937 313.991 197.054  1.00  0.00    -0.550 OA
ENDBRANCH  10  11
ENDBRANCH   9  10
ENDBRANCH   8   9
ENDBRANCH   1   8
TORSDOF 8
ENDMDL
