MODEL 1
REMARK VINA RESULT:    -3.149      0.000      0.000
REMARK INTER + INTRA:          -3.149
REMARK INTER:                  -3.149
REMARK INTRA:                   0.000
REMARK UNBOUND:                 0.000
REMARK SMILES C=C1CCC[C@]2(C)CC(=O)C(=C(C)C)C[C@@H]12
REMARK SMILES IDX 13 1 12 2 11 3 15 4 16 5 2 6 1 7 3 8 4 9 5 10 6 11 8 12 9 13
REMARK SMILES IDX 10 14 7 15 14 16
REMARK H PARENT
REMARK Flexibility Score: inf
ROOT
ATOM      1  C   UNL     1       3.139  51.823  27.804  1.00  0.00     0.039 C 
ATOM      2  C   UNL     1       1.854  51.469  27.090  1.00  0.00    -0.070 C 
ATOM      3  C   UNL     1       0.766  52.295  27.116  1.00  0.00    -0.006 C 
ATOM      4  C   UNL     1      -0.500  51.953  26.341  1.00  0.00     0.047 C 
ATOM      5  C   UNL     1      -1.272  53.211  25.869  1.00  0.00     0.025 C 
ATOM      6  C   UNL     1      -2.575  52.930  25.120  1.00  0.00    -0.073 C 
ATOM      7  C   UNL     1      -3.055  51.695  24.877  1.00  0.00     0.008 C 
ATOM      8  C   UNL     1      -3.317  54.138  24.596  1.00  0.00     0.031 C 
ATOM      9  C   UNL     1      -3.554  55.147  25.723  1.00  0.00     0.005 C 
ATOM     10  C   UNL     1      -2.250  55.483  26.467  1.00  0.00     0.008 C 
ATOM     11  C   UNL     1      -1.526  54.223  27.030  1.00  0.00    -0.018 C 
ATOM     12  C   UNL     1      -0.159  54.669  27.605  1.00  0.00     0.088 C 
ATOM     13  C   UNL     1       0.701  53.501  27.991  1.00  0.00     0.159 C 
ATOM     14  O   UNL     1       1.350  53.562  29.070  1.00  0.00    -0.295 OA
ATOM     15  C   UNL     1      -2.381  53.596  28.167  1.00  0.00     0.012 C 
ATOM     16  C   UNL     1       1.838  50.174  26.309  1.00  0.00     0.039 C 
ENDROOT
TORSDOF 0
ENDMDL
MODEL 2
REMARK VINA RESULT:    -3.118      2.062      5.457
REMARK INTER + INTRA:          -3.118
REMARK INTER:                  -3.118
REMARK INTRA:                   0.000
REMARK UNBOUND:                 0.000
REMARK SMILES C=C1CCC[C@]2(C)CC(=O)C(=C(C)C)C[C@@H]12
REMARK SMILES IDX 13 1 12 2 11 3 15 4 16 5 2 6 1 7 3 8 4 9 5 10 6 11 8 12 9 13
REMARK SMILES IDX 10 14 7 15 14 16
REMARK H PARENT
REMARK Flexibility Score: inf
ROOT
ATOM      1  C   UNL     1      -3.984  56.519  24.865  1.00  0.00     0.039 C 
ATOM      2  C   UNL     1      -3.163  56.116  26.070  1.00  0.00    -0.070 C 
ATOM      3  C   UNL     1      -2.519  54.913  26.132  1.00  0.00    -0.006 C 
ATOM      4  C   UNL     1      -1.646  54.548  27.326  1.00  0.00     0.047 C 
ATOM      5  C   UNL     1      -0.478  53.603  26.948  1.00  0.00     0.025 C 
ATOM      6  C   UNL     1       0.410  53.170  28.116  1.00  0.00    -0.073 C 
ATOM      7  C   UNL     1       0.216  53.551  29.393  1.00  0.00     0.008 C 
ATOM      8  C   UNL     1       1.592  52.297  27.766  1.00  0.00     0.031 C 
ATOM      9  C   UNL     1       1.135  51.078  26.959  1.00  0.00     0.005 C 
ATOM     10  C   UNL     1       0.275  51.488  25.751  1.00  0.00     0.008 C 
ATOM     11  C   UNL     1      -0.959  52.355  26.145  1.00  0.00    -0.018 C 
ATOM     12  C   UNL     1      -1.643  52.839  24.843  1.00  0.00     0.088 C 
ATOM     13  C   UNL     1      -2.725  53.845  25.111  1.00  0.00     0.159 C 
ATOM     14  O   UNL     1      -3.805  53.755  24.468  1.00  0.00    -0.295 OA
ATOM     15  C   UNL     1      -1.961  51.493  26.962  1.00  0.00     0.012 C 
ATOM     16  C   UNL     1      -3.054  57.124  27.191  1.00  0.00     0.039 C 
ENDROOT
TORSDOF 0
ENDMDL
MODEL 3
REMARK VINA RESULT:    -3.058      2.683      5.960
REMARK INTER + INTRA:          -3.058
REMARK INTER:                  -3.058
REMARK INTRA:                   0.000
REMARK UNBOUND:                 0.000
REMARK SMILES C=C1CCC[C@]2(C)CC(=O)C(=C(C)C)C[C@@H]12
REMARK SMILES IDX 13 1 12 2 11 3 15 4 16 5 2 6 1 7 3 8 4 9 5 10 6 11 8 12 9 13
REMARK SMILES IDX 10 14 7 15 14 16
REMARK H PARENT
REMARK Flexibility Score: inf
ROOT
ATOM      1  C   UNL     1      -5.799  54.651  22.965  1.00  0.00     0.039 C 
ATOM      2  C   UNL     1      -4.617  54.835  23.890  1.00  0.00    -0.070 C 
ATOM      3  C   UNL     1      -4.061  53.785  24.564  1.00  0.00    -0.006 C 
ATOM      4  C   UNL     1      -2.832  53.977  25.444  1.00  0.00     0.047 C 
ATOM      5  C   UNL     1      -1.936  52.715  25.507  1.00  0.00     0.025 C 
ATOM      6  C   UNL     1      -0.707  52.835  26.408  1.00  0.00    -0.073 C 
ATOM      7  C   UNL     1      -0.398  53.936  27.120  1.00  0.00     0.008 C 
ATOM      8  C   UNL     1       0.216  51.640  26.440  1.00  0.00     0.031 C 
ATOM      9  C   UNL     1      -0.570  50.368  26.772  1.00  0.00     0.005 C 
ATOM     10  C   UNL     1      -1.789  50.198  25.849  1.00  0.00     0.008 C 
ATOM     11  C   UNL     1      -2.744  51.429  25.866  1.00  0.00    -0.018 C 
ATOM     12  C   UNL     1      -3.831  51.210  24.785  1.00  0.00     0.088 C 
ATOM     13  C   UNL     1      -4.683  52.430  24.583  1.00  0.00     0.159 C 
ATOM     14  O   UNL     1      -5.927  52.280  24.445  1.00  0.00    -0.295 OA
ATOM     15  C   UNL     1      -3.422  51.543  27.260  1.00  0.00     0.012 C 
ATOM     16  C   UNL     1      -4.050  56.232  24.006  1.00  0.00     0.039 C 
ENDROOT
TORSDOF 0
ENDMDL
MODEL 4
REMARK VINA RESULT:    -2.961      3.343      5.269
REMARK INTER + INTRA:          -2.961
REMARK INTER:                  -2.961
REMARK INTRA:                   0.000
REMARK UNBOUND:                 0.000
REMARK SMILES C=C1CCC[C@]2(C)CC(=O)C(=C(C)C)C[C@@H]12
REMARK SMILES IDX 13 1 12 2 11 3 15 4 16 5 2 6 1 7 3 8 4 9 5 10 6 11 8 12 9 13
REMARK SMILES IDX 10 14 7 15 14 16
REMARK H PARENT
REMARK Flexibility Score: inf
ROOT
ATOM      1  C   UNL     1      -3.777  46.066  25.172  1.00  0.00     0.039 C 
ATOM      2  C   UNL     1      -4.282  47.486  25.044  1.00  0.00    -0.070 C 
ATOM      3  C   UNL     1      -3.554  48.551  25.492  1.00  0.00    -0.006 C 
ATOM      4  C   UNL     1      -4.049  49.979  25.300  1.00  0.00     0.047 C 
ATOM      5  C   UNL     1      -2.893  51.000  25.156  1.00  0.00     0.025 C 
ATOM      6  C   UNL     1      -3.330  52.457  25.001  1.00  0.00    -0.073 C 
ATOM      7  C   UNL     1      -4.614  52.864  24.997  1.00  0.00     0.008 C 
ATOM      8  C   UNL     1      -2.224  53.467  24.798  1.00  0.00     0.031 C 
ATOM      9  C   UNL     1      -1.174  53.337  25.905  1.00  0.00     0.005 C 
ATOM     10  C   UNL     1      -0.683  51.886  26.054  1.00  0.00     0.008 C 
ATOM     11  C   UNL     1      -1.840  50.872  26.301  1.00  0.00    -0.018 C 
ATOM     12  C   UNL     1      -1.244  49.443  26.266  1.00  0.00     0.088 C 
ATOM     13  C   UNL     1      -2.308  48.384  26.295  1.00  0.00     0.159 C 
ATOM     14  O   UNL     1      -2.128  47.369  27.019  1.00  0.00    -0.295 OA
ATOM     15  C   UNL     1      -2.471  51.132  27.697  1.00  0.00     0.012 C 
ATOM     16  C   UNL     1      -5.617  47.678  24.361  1.00  0.00     0.039 C 
ENDROOT
TORSDOF 0
ENDMDL
MODEL 5
REMARK VINA RESULT:    -2.933      2.034      3.090
REMARK INTER + INTRA:          -2.933
REMARK INTER:                  -2.933
REMARK INTRA:                   0.000
REMARK UNBOUND:                 0.000
REMARK SMILES C=C1CCC[C@]2(C)CC(=O)C(=C(C)C)C[C@@H]12
REMARK SMILES IDX 13 1 12 2 11 3 15 4 16 5 2 6 1 7 3 8 4 9 5 10 6 11 8 12 9 13
REMARK SMILES IDX 10 14 7 15 14 16
REMARK H PARENT
REMARK Flexibility Score: inf
ROOT
ATOM      1  C   UNL     1       0.840  51.111  26.393  1.00  0.00     0.039 C 
ATOM      2  C   UNL     1      -0.588  50.633  26.258  1.00  0.00    -0.070 C 
ATOM      3  C   UNL     1      -1.608  51.489  25.954  1.00  0.00    -0.006 C 
ATOM      4  C   UNL     1      -3.031  50.981  25.761  1.00  0.00     0.047 C 
ATOM      5  C   UNL     1      -3.842  51.837  24.756  1.00  0.00     0.025 C 
ATOM      6  C   UNL     1      -5.293  51.398  24.552  1.00  0.00    -0.073 C 
ATOM      7  C   UNL     1      -5.863  50.357  25.188  1.00  0.00     0.008 C 
ATOM      8  C   UNL     1      -6.088  52.179  23.532  1.00  0.00     0.031 C 
ATOM      9  C   UNL     1      -6.020  53.678  23.837  1.00  0.00     0.005 C 
ATOM     10  C   UNL     1      -4.567  54.157  24.004  1.00  0.00     0.008 C 
ATOM     11  C   UNL     1      -3.782  53.361  25.089  1.00  0.00    -0.018 C 
ATOM     12  C   UNL     1      -2.303  53.818  25.046  1.00  0.00     0.088 C 
ATOM     13  C   UNL     1      -1.422  52.969  25.916  1.00  0.00     0.159 C 
ATOM     14  O   UNL     1      -0.540  53.535  26.615  1.00  0.00    -0.295 OA
ATOM     15  C   UNL     1      -4.375  53.670  26.492  1.00  0.00     0.012 C 
ATOM     16  C   UNL     1      -0.833  49.151  26.436  1.00  0.00     0.039 C 
ENDROOT
TORSDOF 0
ENDMDL
MODEL 6
REMARK VINA RESULT:    -2.922      1.809      5.410
REMARK INTER + INTRA:          -2.922
REMARK INTER:                  -2.922
REMARK INTRA:                   0.000
REMARK UNBOUND:                 0.000
REMARK SMILES C=C1CCC[C@]2(C)CC(=O)C(=C(C)C)C[C@@H]12
REMARK SMILES IDX 13 1 12 2 11 3 15 4 16 5 2 6 1 7 3 8 4 9 5 10 6 11 8 12 9 13
REMARK SMILES IDX 10 14 7 15 14 16
REMARK H PARENT
REMARK Flexibility Score: inf
ROOT
ATOM      1  C   UNL     1      -3.505  54.525  24.342  1.00  0.00     0.039 C 
ATOM      2  C   UNL     1      -2.748  54.818  25.617  1.00  0.00    -0.070 C 
ATOM      3  C   UNL     1      -1.830  53.944  26.126  1.00  0.00    -0.006 C 
ATOM      4  C   UNL     1      -1.031  54.281  27.379  1.00  0.00     0.047 C 
ATOM      5  C   UNL     1       0.373  53.627  27.388  1.00  0.00     0.025 C 
ATOM      6  C   UNL     1       1.207  53.898  28.641  1.00  0.00    -0.073 C 
ATOM      7  C   UNL     1       0.782  54.636  29.685  1.00  0.00     0.008 C 
ATOM      8  C   UNL     1       2.604  53.322  28.650  1.00  0.00     0.031 C 
ATOM      9  C   UNL     1       2.563  51.821  28.348  1.00  0.00     0.005 C 
ATOM     10  C   UNL     1       1.767  51.523  27.065  1.00  0.00     0.008 C 
ATOM     11  C   UNL     1       0.318  52.094  27.099  1.00  0.00    -0.018 C 
ATOM     12  C   UNL     1      -0.318  51.877  25.704  1.00  0.00     0.088 C 
ATOM     13  C   UNL     1      -1.643  52.572  25.571  1.00  0.00     0.159 C 
ATOM     14  O   UNL     1      -2.586  51.965  24.996  1.00  0.00    -0.295 OA
ATOM     15  C   UNL     1      -0.517  51.335  28.168  1.00  0.00     0.012 C 
ATOM     16  C   UNL     1      -3.023  56.145  26.287  1.00  0.00     0.039 C 
ENDROOT
TORSDOF 0
ENDMDL
MODEL 7
REMARK VINA RESULT:    -2.909      2.448      5.999
REMARK INTER + INTRA:          -2.909
REMARK INTER:                  -2.909
REMARK INTRA:                   0.000
REMARK UNBOUND:                 0.000
REMARK SMILES C=C1CCC[C@]2(C)CC(=O)C(=C(C)C)C[C@@H]12
REMARK SMILES IDX 13 1 12 2 11 3 15 4 16 5 2 6 1 7 3 8 4 9 5 10 6 11 8 12 9 13
REMARK SMILES IDX 10 14 7 15 14 16
REMARK H PARENT
REMARK Flexibility Score: inf
ROOT
ATOM      1  C   UNL     1      -3.676  51.451  24.730  1.00  0.00     0.039 C 
ATOM      2  C   UNL     1      -2.355  51.946  25.275  1.00  0.00    -0.070 C 
ATOM      3  C   UNL     1      -1.500  51.121  25.948  1.00  0.00    -0.006 C 
ATOM      4  C   UNL     1      -0.146  51.620  26.437  1.00  0.00     0.047 C 
ATOM      5  C   UNL     1       0.927  50.502  26.476  1.00  0.00     0.025 C 
ATOM      6  C   UNL     1       2.297  50.936  26.997  1.00  0.00    -0.073 C 
ATOM      7  C   UNL     1       2.587  52.184  27.411  1.00  0.00     0.008 C 
ATOM      8  C   UNL     1       3.378  49.880  26.988  1.00  0.00     0.031 C 
ATOM      9  C   UNL     1       2.900  48.622  27.720  1.00  0.00     0.005 C 
ATOM     10  C   UNL     1       1.541  48.137  27.185  1.00  0.00     0.008 C 
ATOM     11  C   UNL     1       0.436  49.234  27.241  1.00  0.00    -0.018 C 
ATOM     12  C   UNL     1      -0.825  48.684  26.529  1.00  0.00     0.088 C 
ATOM     13  C   UNL     1      -1.881  49.737  26.353  1.00  0.00     0.159 C 
ATOM     14  O   UNL     1      -3.083  49.426  26.568  1.00  0.00    -0.295 OA
ATOM     15  C   UNL     1       0.091  49.550  28.723  1.00  0.00     0.012 C 
ATOM     16  C   UNL     1      -2.003  53.392  25.006  1.00  0.00     0.039 C 
ENDROOT
TORSDOF 0
ENDMDL
MODEL 8
REMARK VINA RESULT:    -2.865      1.422      2.205
REMARK INTER + INTRA:          -2.865
REMARK INTER:                  -2.865
REMARK INTRA:                   0.000
REMARK UNBOUND:                 0.000
REMARK SMILES C=C1CCC[C@]2(C)CC(=O)C(=C(C)C)C[C@@H]12
REMARK SMILES IDX 13 1 12 2 11 3 15 4 16 5 2 6 1 7 3 8 4 9 5 10 6 11 8 12 9 13
REMARK SMILES IDX 10 14 7 15 14 16
REMARK H PARENT
REMARK Flexibility Score: inf
ROOT
ATOM      1  C   UNL     1       2.671  51.904  27.310  1.00  0.00     0.039 C 
ATOM      2  C   UNL     1       1.523  50.954  27.051  1.00  0.00    -0.070 C 
ATOM      3  C   UNL     1       0.255  51.405  26.816  1.00  0.00    -0.006 C 
ATOM      4  C   UNL     1      -0.878  50.438  26.497  1.00  0.00     0.047 C 
ATOM      5  C   UNL     1      -1.957  51.061  25.577  1.00  0.00     0.025 C 
ATOM      6  C   UNL     1      -3.140  50.148  25.254  1.00  0.00    -0.073 C 
ATOM      7  C   UNL     1      -3.277  48.894  25.724  1.00  0.00     0.008 C 
ATOM      8  C   UNL     1      -4.177  50.710  24.309  1.00  0.00     0.031 C 
ATOM      9  C   UNL     1      -4.671  52.071  24.809  1.00  0.00     0.005 C 
ATOM     10  C   UNL     1      -3.500  53.027  25.100  1.00  0.00     0.008 C 
ATOM     11  C   UNL     1      -2.467  52.438  26.106  1.00  0.00    -0.018 C 
ATOM     12  C   UNL     1      -1.265  53.412  26.188  1.00  0.00     0.088 C 
ATOM     13  C   UNL     1      -0.124  52.838  26.978  1.00  0.00     0.159 C 
ATOM     14  O   UNL     1       0.488  53.590  27.783  1.00  0.00    -0.295 OA
ATOM     15  C   UNL     1      -3.121  52.311  27.510  1.00  0.00     0.012 C 
ATOM     16  C   UNL     1       1.849  49.478  27.025  1.00  0.00     0.039 C 
ENDROOT
TORSDOF 0
ENDMDL
MODEL 9
REMARK VINA RESULT:    -2.820      1.895      2.751
REMARK INTER + INTRA:          -2.820
REMARK INTER:                  -2.820
REMARK INTRA:                   0.000
REMARK UNBOUND:                 0.000
REMARK SMILES C=C1CCC[C@]2(C)CC(=O)C(=C(C)C)C[C@@H]12
REMARK SMILES IDX 13 1 12 2 11 3 15 4 16 5 2 6 1 7 3 8 4 9 5 10 6 11 8 12 9 13
REMARK SMILES IDX 10 14 7 15 14 16
REMARK H PARENT
REMARK Flexibility Score: inf
ROOT
ATOM      1  C   UNL     1       0.975  49.524  26.623  1.00  0.00     0.039 C 
ATOM      2  C   UNL     1      -0.533  49.488  26.519  1.00  0.00    -0.070 C 
ATOM      3  C   UNL     1      -1.264  50.614  26.269  1.00  0.00    -0.006 C 
ATOM      4  C   UNL     1      -2.778  50.550  26.105  1.00  0.00     0.047 C 
ATOM      5  C   UNL     1      -3.324  51.639  25.148  1.00  0.00     0.025 C 
ATOM      6  C   UNL     1      -4.844  51.649  24.976  1.00  0.00    -0.073 C 
ATOM      7  C   UNL     1      -5.680  50.798  25.602  1.00  0.00     0.008 C 
ATOM      8  C   UNL     1      -5.398  52.662  24.002  1.00  0.00     0.031 C 
ATOM      9  C   UNL     1      -4.888  54.065  24.345  1.00  0.00     0.005 C 
ATOM     10  C   UNL     1      -3.355  54.094  24.480  1.00  0.00     0.008 C 
ATOM     11  C   UNL     1      -2.815  53.067  25.520  1.00  0.00    -0.018 C 
ATOM     12  C   UNL     1      -1.268  53.074  25.444  1.00  0.00     0.088 C 
ATOM     13  C   UNL     1      -0.655  51.975  26.264  1.00  0.00     0.159 C 
ATOM     14  O   UNL     1       0.368  52.236  26.952  1.00  0.00    -0.295 OA
ATOM     15  C   UNL     1      -3.261  53.486  26.948  1.00  0.00     0.012 C 
ATOM     16  C   UNL     1      -1.196  48.137  26.665  1.00  0.00     0.039 C 
ENDROOT
TORSDOF 0
ENDMDL
