MODEL 1
REMARK VINA RESULT:    -2.908      0.000      0.000
REMARK INTER + INTRA:          -6.839
REMARK INTER:                  -4.947
REMARK INTRA:                  -1.892
REMARK UNBOUND:                -1.892
REMARK SMILES CCCCCCCCCCCCCC(=O)[O-]
REMARK SMILES IDX 8 1 9 2 10 3 11 4 12 5 13 6 14 7 15 8 16 9 7 10 6 11 5 12
REMARK SMILES IDX 4 13 3 14 2 15 1 16
REMARK H PARENT
REMARK Flexibility Score: inf
ROOT
ATOM      1  C   UNL     1       5.387  -5.006  -6.274  1.00  0.00     0.000 C 
ENDROOT
BRANCH   1   2
ATOM      2  C   UNL     1       6.882  -4.764  -6.038  1.00  0.00     0.000 C 
BRANCH   2   3
ATOM      3  C   UNL     1       7.690  -5.015  -7.316  1.00  0.00     0.000 C 
BRANCH   3   4
ATOM      4  C   UNL     1       7.586  -3.825  -8.278  1.00  0.00     0.000 C 
BRANCH   4   5
ATOM      5  C   UNL     1       6.705  -4.170  -9.488  1.00  0.00     0.006 C 
BRANCH   5   6
ATOM      6  C   UNL     1       5.734  -3.036  -9.841  1.00  0.00     0.053 C 
BRANCH   6   7
ATOM      7  C   UNL     1       4.315  -3.410  -9.547  1.00  0.00     0.041 C 
ATOM      8  O   UNL     1       3.807  -4.438 -10.071  1.00  0.00    -0.550 OA
ATOM      9  O   UNL     1       3.541  -2.608  -8.719  1.00  0.00    -0.550 OA
ENDBRANCH   6   7
ENDBRANCH   5   6
ENDBRANCH   4   5
ENDBRANCH   3   4
ENDBRANCH   2   3
ENDBRANCH   1   2
BRANCH   1  10
ATOM     10  C   UNL     1       5.064  -6.505  -6.267  1.00  0.00     0.000 C 
BRANCH  10  11
ATOM     11  C   UNL     1       4.838  -7.027  -7.690  1.00  0.00    -0.000 C 
BRANCH  11  12
ATOM     12  C   UNL     1       5.823  -8.152  -8.028  1.00  0.00    -0.000 C 
BRANCH  12  13
ATOM     13  C   UNL     1       6.502  -8.690  -6.764  1.00  0.00    -0.000 C 
BRANCH  13  14
ATOM     14  C   UNL     1       8.026  -8.755  -6.943  1.00  0.00    -0.000 C 
BRANCH  14  15
ATOM     15  C   UNL     1       8.787  -8.194  -5.733  1.00  0.00    -0.003 C 
ATOM     16  C   UNL     1       7.917  -8.090  -4.481  1.00  0.00     0.004 C 
ENDBRANCH  14  15
ENDBRANCH  13  14
ENDBRANCH  12  13
ENDBRANCH  11  12
ENDBRANCH  10  11
ENDBRANCH   1  10
TORSDOF 12
ENDMDL
MODEL 2
REMARK VINA RESULT:    -2.747     20.674     22.221
REMARK INTER + INTRA:          -6.567
REMARK INTER:                  -4.547
REMARK INTRA:                  -2.020
REMARK UNBOUND:                -1.892
REMARK SMILES CCCCCCCCCCCCCC(=O)[O-]
REMARK SMILES IDX 8 1 9 2 10 3 11 4 12 5 13 6 14 7 15 8 16 9 7 10 6 11 5 12
REMARK SMILES IDX 4 13 3 14 2 15 1 16
REMARK H PARENT
REMARK Flexibility Score: inf
ROOT
ATOM      1  C   UNL     1     -10.409  -5.139   7.394  1.00  0.00     0.000 C 
ENDROOT
BRANCH   1   2
ATOM      2  C   UNL     1     -10.929  -5.239   8.833  1.00  0.00     0.000 C 
BRANCH   2   3
ATOM      3  C   UNL     1      -9.773  -5.214   9.839  1.00  0.00     0.000 C 
BRANCH   3   4
ATOM      4  C   UNL     1      -8.586  -4.409   9.296  1.00  0.00     0.000 C 
BRANCH   4   5
ATOM      5  C   UNL     1      -8.486  -3.041   9.987  1.00  0.00     0.006 C 
BRANCH   5   6
ATOM      6  C   UNL     1      -9.169  -1.931   9.179  1.00  0.00     0.053 C 
BRANCH   6   7
ATOM      7  C   UNL     1      -8.465  -1.676   7.882  1.00  0.00     0.041 C 
ATOM      8  O   UNL     1      -9.055  -1.886   6.788  1.00  0.00    -0.550 OA
ATOM      9  O   UNL     1      -7.148  -1.237   7.879  1.00  0.00    -0.550 OA
ENDBRANCH   6   7
ENDBRANCH   5   6
ENDBRANCH   4   5
ENDBRANCH   3   4
ENDBRANCH   2   3
ENDBRANCH   1   2
BRANCH   1  10
ATOM     10  C   UNL     1     -11.036  -6.220   6.505  1.00  0.00     0.000 C 
BRANCH  10  11
ATOM     11  C   UNL     1      -9.968  -6.923   5.660  1.00  0.00    -0.000 C 
BRANCH  11  12
ATOM     12  C   UNL     1      -8.642  -7.029   6.422  1.00  0.00    -0.000 C 
BRANCH  12  13
ATOM     13  C   UNL     1      -8.508  -8.393   7.109  1.00  0.00    -0.000 C 
BRANCH  13  14
ATOM     14  C   UNL     1      -8.192  -8.229   8.602  1.00  0.00    -0.000 C 
BRANCH  14  15
ATOM     15  C   UNL     1      -9.191  -8.970   9.503  1.00  0.00    -0.003 C 
ATOM     16  C   UNL     1     -10.603  -9.004   8.918  1.00  0.00     0.004 C 
ENDBRANCH  14  15
ENDBRANCH  13  14
ENDBRANCH  12  13
ENDBRANCH  11  12
ENDBRANCH  10  11
ENDBRANCH   1  10
TORSDOF 12
ENDMDL
MODEL 3
REMARK VINA RESULT:    -2.574      2.150      5.304
REMARK INTER + INTRA:          -6.272
REMARK INTER:                  -4.971
REMARK INTRA:                  -1.301
REMARK UNBOUND:                -1.892
REMARK SMILES CCCCCCCCCCCCCC(=O)[O-]
REMARK SMILES IDX 8 1 9 2 10 3 11 4 12 5 13 6 14 7 15 8 16 9 7 10 6 11 5 12
REMARK SMILES IDX 4 13 3 14 2 15 1 16
REMARK H PARENT
REMARK Flexibility Score: inf
ROOT
ATOM      1  C   UNL     1       5.288  -7.592  -7.854  1.00  0.00     0.000 C 
ENDROOT
BRANCH   1   2
ATOM      2  C   UNL     1       6.125  -8.870  -7.720  1.00  0.00     0.000 C 
BRANCH   2   3
ATOM      3  C   UNL     1       7.467  -8.580  -7.038  1.00  0.00     0.000 C 
BRANCH   3   4
ATOM      4  C   UNL     1       7.266  -8.181  -5.572  1.00  0.00     0.000 C 
BRANCH   4   5
ATOM      5  C   UNL     1       8.136  -6.969  -5.206  1.00  0.00     0.006 C 
BRANCH   5   6
ATOM      6  C   UNL     1       8.480  -6.110  -6.430  1.00  0.00     0.053 C 
BRANCH   6   7
ATOM      7  C   UNL     1       7.672  -4.851  -6.468  1.00  0.00     0.041 C 
ATOM      8  O   UNL     1       6.702  -4.694  -5.678  1.00  0.00    -0.550 OA
ATOM      9  O   UNL     1       7.968  -3.862  -7.397  1.00  0.00    -0.550 OA
ENDBRANCH   6   7
ENDBRANCH   5   6
ENDBRANCH   4   5
ENDBRANCH   3   4
ENDBRANCH   2   3
ENDBRANCH   1   2
BRANCH   1  10
ATOM     10  C   UNL     1       4.290  -7.706  -9.013  1.00  0.00     0.000 C 
BRANCH  10  11
ATOM     11  C   UNL     1       4.508  -6.588 -10.038  1.00  0.00    -0.000 C 
BRANCH  11  12
ATOM     12  C   UNL     1       5.818  -5.838  -9.767  1.00  0.00    -0.000 C 
BRANCH  12  13
ATOM     13  C   UNL     1       5.647  -4.331  -9.989  1.00  0.00    -0.000 C 
BRANCH  13  14
ATOM     14  C   UNL     1       4.715  -3.721  -8.933  1.00  0.00    -0.000 C 
BRANCH  14  15
ATOM     15  C   UNL     1       3.578  -2.897  -9.553  1.00  0.00    -0.003 C 
ATOM     16  C   UNL     1       3.883  -1.399  -9.591  1.00  0.00     0.004 C 
ENDBRANCH  14  15
ENDBRANCH  13  14
ENDBRANCH  12  13
ENDBRANCH  11  12
ENDBRANCH  10  11
ENDBRANCH   1  10
TORSDOF 12
ENDMDL
MODEL 4
REMARK VINA RESULT:    -2.441     20.936     22.118
REMARK INTER + INTRA:          -6.046
REMARK INTER:                  -4.451
REMARK INTRA:                  -1.595
REMARK UNBOUND:                -1.892
REMARK SMILES CCCCCCCCCCCCCC(=O)[O-]
REMARK SMILES IDX 8 1 9 2 10 3 11 4 12 5 13 6 14 7 15 8 16 9 7 10 6 11 5 12
REMARK SMILES IDX 4 13 3 14 2 15 1 16
REMARK H PARENT
REMARK Flexibility Score: inf
ROOT
ATOM      1  C   UNL     1      -7.715  -5.992   7.933  1.00  0.00     0.000 C 
ENDROOT
BRANCH   1   2
ATOM      2  C   UNL     1      -7.396  -4.940   9.003  1.00  0.00     0.000 C 
BRANCH   2   3
ATOM      3  C   UNL     1      -8.556  -4.792   9.994  1.00  0.00     0.000 C 
BRANCH   3   4
ATOM      4  C   UNL     1      -9.699  -3.970   9.387  1.00  0.00     0.000 C 
BRANCH   4   5
ATOM      5  C   UNL     1      -9.598  -2.495   9.803  1.00  0.00     0.006 C 
BRANCH   5   6
ATOM      6  C   UNL     1      -9.537  -1.553   8.594  1.00  0.00     0.053 C 
BRANCH   6   7
ATOM      7  C   UNL     1      -8.237  -1.675   7.861  1.00  0.00     0.041 C 
ATOM      8  O   UNL     1      -7.174  -1.239   8.377  1.00  0.00    -0.550 OA
ATOM      9  O   UNL     1      -8.204  -2.243   6.594  1.00  0.00    -0.550 OA
ENDBRANCH   6   7
ENDBRANCH   5   6
ENDBRANCH   4   5
ENDBRANCH   3   4
ENDBRANCH   2   3
ENDBRANCH   1   2
BRANCH   1  10
ATOM     10  C   UNL     1      -8.120  -7.324   8.575  1.00  0.00     0.000 C 
BRANCH  10  11
ATOM     11  C   UNL     1      -8.702  -8.283   7.531  1.00  0.00    -0.000 C 
BRANCH  11  12
ATOM     12  C   UNL     1     -10.184  -8.564   7.804  1.00  0.00    -0.000 C 
BRANCH  12  13
ATOM     13  C   UNL     1     -11.008  -8.485   6.514  1.00  0.00    -0.000 C 
BRANCH  13  14
ATOM     14  C   UNL     1     -10.685  -7.204   5.732  1.00  0.00    -0.000 C 
BRANCH  14  15
ATOM     15  C   UNL     1     -11.124  -5.932   6.471  1.00  0.00    -0.003 C 
ATOM     16  C   UNL     1     -10.552  -4.658   5.850  1.00  0.00     0.004 C 
ENDBRANCH  14  15
ENDBRANCH  13  14
ENDBRANCH  12  13
ENDBRANCH  11  12
ENDBRANCH  10  11
ENDBRANCH   1  10
TORSDOF 12
ENDMDL
MODEL 5
REMARK VINA RESULT:    -2.357     20.591     22.154
REMARK INTER + INTRA:          -5.902
REMARK INTER:                  -4.533
REMARK INTRA:                  -1.369
REMARK UNBOUND:                -1.892
REMARK SMILES CCCCCCCCCCCCCC(=O)[O-]
REMARK SMILES IDX 8 1 9 2 10 3 11 4 12 5 13 6 14 7 15 8 16 9 7 10 6 11 5 12
REMARK SMILES IDX 4 13 3 14 2 15 1 16
REMARK H PARENT
REMARK Flexibility Score: inf
ROOT
ATOM      1  C   UNL     1      -8.190  -8.110   6.936  1.00  0.00     0.000 C 
ENDROOT
BRANCH   1   2
ATOM      2  C   UNL     1      -9.226  -8.632   7.939  1.00  0.00     0.000 C 
BRANCH   2   3
ATOM      3  C   UNL     1      -9.324  -7.709   9.160  1.00  0.00     0.000 C 
BRANCH   3   4
ATOM      4  C   UNL     1      -7.980  -7.620   9.893  1.00  0.00     0.000 C 
BRANCH   4   5
ATOM      5  C   UNL     1      -7.575  -6.157  10.125  1.00  0.00     0.006 C 
BRANCH   5   6
ATOM      6  C   UNL     1      -6.056  -5.954  10.047  1.00  0.00     0.053 C 
BRANCH   6   7
ATOM      7  C   UNL     1      -5.703  -4.572   9.593  1.00  0.00     0.041 C 
ATOM      8  O   UNL     1      -6.610  -3.725   9.374  1.00  0.00    -0.550 OA
ATOM      9  O   UNL     1      -4.375  -4.227   9.381  1.00  0.00    -0.550 OA
ENDBRANCH   6   7
ENDBRANCH   5   6
ENDBRANCH   4   5
ENDBRANCH   3   4
ENDBRANCH   2   3
ENDBRANCH   1   2
BRANCH   1  10
ATOM     10  C   UNL     1      -8.607  -6.748   6.371  1.00  0.00     0.000 C 
BRANCH  10  11
ATOM     11  C   UNL     1     -10.022  -6.806   5.784  1.00  0.00    -0.000 C 
BRANCH  11  12
ATOM     12  C   UNL     1     -10.626  -5.402   5.661  1.00  0.00    -0.000 C 
BRANCH  12  13
ATOM     13  C   UNL     1      -9.945  -4.421   6.624  1.00  0.00    -0.000 C 
BRANCH  13  14
ATOM     14  C   UNL     1     -10.790  -4.216   7.889  1.00  0.00    -0.000 C 
BRANCH  14  15
ATOM     15  C   UNL     1     -10.120  -3.276   8.901  1.00  0.00    -0.003 C 
ATOM     16  C   UNL     1      -9.525  -2.028   8.248  1.00  0.00     0.004 C 
ENDBRANCH  14  15
ENDBRANCH  13  14
ENDBRANCH  12  13
ENDBRANCH  11  12
ENDBRANCH  10  11
ENDBRANCH   1  10
TORSDOF 12
ENDMDL
MODEL 6
REMARK VINA RESULT:    -2.346     10.901     13.484
REMARK INTER + INTRA:          -5.885
REMARK INTER:                  -5.010
REMARK INTRA:                  -0.875
REMARK UNBOUND:                -1.892
REMARK SMILES CCCCCCCCCCCCCC(=O)[O-]
REMARK SMILES IDX 8 1 9 2 10 3 11 4 12 5 13 6 14 7 15 8 16 9 7 10 6 11 5 12
REMARK SMILES IDX 4 13 3 14 2 15 1 16
REMARK H PARENT
REMARK Flexibility Score: inf
ROOT
ATOM      1  C   UNL     1       7.981  -6.758   4.272  1.00  0.00     0.000 C 
ENDROOT
BRANCH   1   2
ATOM      2  C   UNL     1       9.044  -7.515   3.467  1.00  0.00     0.000 C 
BRANCH   2   3
ATOM      3  C   UNL     1       8.397  -8.495   2.482  1.00  0.00     0.000 C 
BRANCH   3   4
ATOM      4  C   UNL     1       6.955  -8.818   2.894  1.00  0.00     0.000 C 
BRANCH   4   5
ATOM      5  C   UNL     1       6.002  -8.706   1.695  1.00  0.00     0.006 C 
BRANCH   5   6
ATOM      6  C   UNL     1       4.528  -8.766   2.117  1.00  0.00     0.053 C 
BRANCH   6   7
ATOM      7  C   UNL     1       4.229  -7.806   3.226  1.00  0.00     0.041 C 
ATOM      8  O   UNL     1       3.909  -8.233   4.366  1.00  0.00    -0.550 OA
ATOM      9  O   UNL     1       4.274  -6.438   2.992  1.00  0.00    -0.550 OA
ENDBRANCH   6   7
ENDBRANCH   5   6
ENDBRANCH   4   5
ENDBRANCH   3   4
ENDBRANCH   2   3
ENDBRANCH   1   2
BRANCH   1  10
ATOM     10  C   UNL     1       8.550  -5.457   4.850  1.00  0.00     0.000 C 
BRANCH  10  11
ATOM     11  C   UNL     1       8.830  -5.599   6.350  1.00  0.00    -0.000 C 
BRANCH  11  12
ATOM     12  C   UNL     1       8.118  -6.826   6.931  1.00  0.00    -0.000 C 
BRANCH  12  13
ATOM     13  C   UNL     1       8.579  -7.105   8.367  1.00  0.00    -0.000 C 
BRANCH  13  14
ATOM     14  C   UNL     1       7.731  -6.322   9.379  1.00  0.00    -0.000 C 
BRANCH  14  15
ATOM     15  C   UNL     1       6.223  -6.485   9.138  1.00  0.00    -0.003 C 
ATOM     16  C   UNL     1       5.377  -5.617  10.070  1.00  0.00     0.004 C 
ENDBRANCH  14  15
ENDBRANCH  13  14
ENDBRANCH  12  13
ENDBRANCH  11  12
ENDBRANCH  10  11
ENDBRANCH   1  10
TORSDOF 12
ENDMDL
MODEL 7
REMARK VINA RESULT:    -2.331     11.273     13.803
REMARK INTER + INTRA:          -5.859
REMARK INTER:                  -4.754
REMARK INTRA:                  -1.105
REMARK UNBOUND:                -1.892
REMARK SMILES CCCCCCCCCCCCCC(=O)[O-]
REMARK SMILES IDX 8 1 9 2 10 3 11 4 12 5 13 6 14 7 15 8 16 9 7 10 6 11 5 12
REMARK SMILES IDX 4 13 3 14 2 15 1 16
REMARK H PARENT
REMARK Flexibility Score: inf
ROOT
ATOM      1  C   UNL     1       8.985  -7.171   5.042  1.00  0.00     0.000 C 
ENDROOT
BRANCH   1   2
ATOM      2  C   UNL     1       8.050  -7.068   3.831  1.00  0.00     0.000 C 
BRANCH   2   3
ATOM      3  C   UNL     1       7.654  -8.457   3.320  1.00  0.00     0.000 C 
BRANCH   3   4
ATOM      4  C   UNL     1       6.131  -8.592   3.210  1.00  0.00     0.000 C 
BRANCH   4   5
ATOM      5  C   UNL     1       5.428  -7.315   3.696  1.00  0.00     0.006 C 
BRANCH   5   6
ATOM      6  C   UNL     1       4.258  -6.914   2.790  1.00  0.00     0.053 C 
BRANCH   6   7
ATOM      7  C   UNL     1       3.423  -8.097   2.407  1.00  0.00     0.041 C 
ATOM      8  O   UNL     1       3.386  -8.487   1.210  1.00  0.00    -0.550 OA
ATOM      9  O   UNL     1       2.660  -8.750   3.367  1.00  0.00    -0.550 OA
ENDBRANCH   6   7
ENDBRANCH   5   6
ENDBRANCH   4   5
ENDBRANCH   3   4
ENDBRANCH   2   3
ENDBRANCH   1   2
BRANCH   1  10
ATOM     10  C   UNL     1       8.294  -7.881   6.212  1.00  0.00     0.000 C 
BRANCH  10  11
ATOM     11  C   UNL     1       7.353  -6.928   6.956  1.00  0.00    -0.000 C 
BRANCH  11  12
ATOM     12  C   UNL     1       8.018  -6.374   8.222  1.00  0.00    -0.000 C 
BRANCH  12  13
ATOM     13  C   UNL     1       7.106  -6.541   9.443  1.00  0.00    -0.000 C 
BRANCH  13  14
ATOM     14  C   UNL     1       6.894  -8.025   9.773  1.00  0.00    -0.000 C 
BRANCH  14  15
ATOM     15  C   UNL     1       5.429  -8.356  10.092  1.00  0.00    -0.003 C 
ATOM     16  C   UNL     1       4.624  -8.743   8.851  1.00  0.00     0.004 C 
ENDBRANCH  14  15
ENDBRANCH  13  14
ENDBRANCH  12  13
ENDBRANCH  11  12
ENDBRANCH  10  11
ENDBRANCH   1  10
TORSDOF 12
ENDMDL
MODEL 8
REMARK VINA RESULT:    -2.289     20.561     22.207
REMARK INTER + INTRA:          -5.787
REMARK INTER:                  -3.994
REMARK INTRA:                  -1.793
REMARK UNBOUND:                -1.892
REMARK SMILES CCCCCCCCCCCCCC(=O)[O-]
REMARK SMILES IDX 8 1 9 2 10 3 11 4 12 5 13 6 14 7 15 8 16 9 7 10 6 11 5 12
REMARK SMILES IDX 4 13 3 14 2 15 1 16
REMARK H PARENT
REMARK Flexibility Score: inf
ROOT
ATOM      1  C   UNL     1      -7.356  -6.275   8.625  1.00  0.00     0.000 C 
ENDROOT
BRANCH   1   2
ATOM      2  C   UNL     1      -7.803  -5.148   9.563  1.00  0.00     0.000 C 
BRANCH   2   3
ATOM      3  C   UNL     1      -9.331  -5.097   9.675  1.00  0.00     0.000 C 
BRANCH   3   4
ATOM      4  C   UNL     1      -9.852  -3.671   9.458  1.00  0.00     0.000 C 
BRANCH   4   5
ATOM      5  C   UNL     1     -10.144  -3.411   7.973  1.00  0.00     0.006 C 
BRANCH   5   6
ATOM      6  C   UNL     1      -9.072  -2.533   7.315  1.00  0.00     0.053 C 
BRANCH   6   7
ATOM      7  C   UNL     1      -8.412  -1.627   8.308  1.00  0.00     0.041 C 
ATOM      8  O   UNL     1      -9.066  -0.700   8.854  1.00  0.00    -0.550 OA
ATOM      9  O   UNL     1      -7.065  -1.786   8.607  1.00  0.00    -0.550 OA
ENDBRANCH   6   7
ENDBRANCH   5   6
ENDBRANCH   4   5
ENDBRANCH   3   4
ENDBRANCH   2   3
ENDBRANCH   1   2
BRANCH   1  10
ATOM     10  C   UNL     1      -7.623  -5.911   7.159  1.00  0.00     0.000 C 
BRANCH  10  11
ATOM     11  C   UNL     1      -8.307  -7.067   6.421  1.00  0.00    -0.000 C 
BRANCH  11  12
ATOM     12  C   UNL     1      -9.766  -6.727   6.094  1.00  0.00    -0.000 C 
BRANCH  12  13
ATOM     13  C   UNL     1     -10.707  -7.857   6.524  1.00  0.00    -0.000 C 
BRANCH  13  14
ATOM     14  C   UNL     1     -10.894  -7.868   8.048  1.00  0.00    -0.000 C 
BRANCH  14  15
ATOM     15  C   UNL     1     -10.264  -9.101   8.712  1.00  0.00    -0.003 C 
ATOM     16  C   UNL     1      -9.686  -8.798  10.095  1.00  0.00     0.004 C 
ENDBRANCH  14  15
ENDBRANCH  13  14
ENDBRANCH  12  13
ENDBRANCH  11  12
ENDBRANCH  10  11
ENDBRANCH   1  10
TORSDOF 12
ENDMDL
