MODEL 1
REMARK VINA RESULT:    -5.653      0.000      0.000
REMARK INTER + INTRA:          -9.846
REMARK INTER:                  -8.627
REMARK INTRA:                  -1.219
REMARK UNBOUND:                -1.219
REMARK SMILES OC[C@@H]1O[C@H](O[C@]2(CO)O[C@@H](CO)[C@H](O)[C@@H]2O)[C@@H](O)[C@H](O)[C@@H]1O
REMARK SMILES IDX 6 1 5 2 3 3 22 4 4 5 20 6 18 7 2 8 1 9 23 11 21 13 19 15
REMARK SMILES IDX 7 17 16 18 10 19 14 20 11 21 8 22 9 23 17 25 15 27 12 29
REMARK SMILES IDX 13 30
REMARK H PARENT 1 10 23 12 21 14 19 16 9 24 17 26 15 28 13 31
REMARK Flexibility Score: inf
ROOT
ATOM      1  O   UNL     1     -27.910  28.874 -38.756  1.00  0.00    -0.313 OA
ENDROOT
BRANCH   1   2
ATOM      2  C   UNL     1     -28.944  27.913 -38.565  1.00  0.00     0.285 C 
ATOM      3  C   UNL     1     -28.302  27.235 -36.363  1.00  0.00     0.178 C 
ATOM      4  C   UNL     1     -29.546  27.911 -35.732  1.00  0.00     0.177 C 
ATOM      5  O   UNL     1     -28.507  26.856 -37.720  1.00  0.00    -0.341 OA
ATOM      6  C   UNL     1     -30.090  29.059 -36.598  1.00  0.00     0.179 C 
ATOM      7  C   UNL     1     -30.229  28.603 -38.055  1.00  0.00     0.202 C 
BRANCH   3   8
ATOM      8  C   UNL     1     -26.969  27.988 -36.158  1.00  0.00     0.191 C 
BRANCH   8   9
ATOM      9  O   UNL     1     -26.470  27.761 -34.865  1.00  0.00    -0.394 OA
ATOM     10  H   UNL     1     -27.017  28.298 -34.238  1.00  0.00     0.210 HD
ENDBRANCH   8   9
ENDBRANCH   3   8
BRANCH   4  11
ATOM     11  O   UNL     1     -29.267  28.356 -34.430  1.00  0.00    -0.387 OA
ATOM     12  H   UNL     1     -30.138  28.439 -33.959  1.00  0.00     0.211 HD
ENDBRANCH   4  11
BRANCH   6  13
ATOM     13  O   UNL     1     -29.250  30.181 -36.534  1.00  0.00    -0.387 OA
ATOM     14  H   UNL     1     -28.387  29.877 -36.151  1.00  0.00     0.211 HD
ENDBRANCH   6  13
BRANCH   7  15
ATOM     15  O   UNL     1     -31.356  27.775 -38.214  1.00  0.00    -0.385 OA
ATOM     16  H   UNL     1     -31.729  27.927 -39.119  1.00  0.00     0.211 HD
ENDBRANCH   7  15
ENDBRANCH   1   2
BRANCH   1  17
ATOM     17  C   UNL     1     -27.726  29.266 -40.117  1.00  0.00     0.224 C 
ATOM     18  C   UNL     1     -26.213  29.243 -40.456  1.00  0.00     0.208 C 
ATOM     19  O   UNL     1     -28.398  28.379 -41.003  1.00  0.00    -0.337 OA
ATOM     20  C   UNL     1     -26.166  28.527 -41.786  1.00  0.00     0.180 C 
ATOM     21  C   UNL     1     -27.430  27.681 -41.744  1.00  0.00     0.179 C 
BRANCH  17  22
ATOM     22  C   UNL     1     -28.279  30.695 -40.316  1.00  0.00     0.225 C 
BRANCH  22  23
ATOM     23  O   UNL     1     -29.194  30.727 -41.378  1.00  0.00    -0.391 OA
ATOM     24  H   UNL     1     -29.468  31.672 -41.481  1.00  0.00     0.210 HD
ENDBRANCH  22  23
ENDBRANCH  17  22
BRANCH  18  25
ATOM     25  O   UNL     1     -25.477  28.526 -39.493  1.00  0.00    -0.385 OA
ATOM     26  H   UNL     1     -25.850  28.781 -38.610  1.00  0.00     0.211 HD
ENDBRANCH  18  25
BRANCH  20  27
ATOM     27  O   UNL     1     -25.024  27.718 -41.923  1.00  0.00    -0.387 OA
ATOM     28  H   UNL     1     -25.350  26.782 -41.979  1.00  0.00     0.211 HD
ENDBRANCH  20  27
BRANCH  21  29
ATOM     29  C   UNL     1     -27.979  27.374 -43.146  1.00  0.00     0.191 C 
BRANCH  29  30
ATOM     30  O   UNL     1     -28.730  28.452 -43.632  1.00  0.00    -0.394 OA
ATOM     31  H   UNL     1     -28.180  28.891 -44.328  1.00  0.00     0.210 HD
ENDBRANCH  29  30
ENDBRANCH  21  29
ENDBRANCH   1  17
TORSDOF 13
ENDMDL
MODEL 2
REMARK VINA RESULT:    -5.513      1.962      3.163
REMARK INTER + INTRA:          -9.633
REMARK INTER:                  -8.310
REMARK INTRA:                  -1.323
REMARK UNBOUND:                -1.219
REMARK SMILES OC[C@@H]1O[C@H](O[C@]2(CO)O[C@@H](CO)[C@H](O)[C@@H]2O)[C@@H](O)[C@H](O)[C@@H]1O
REMARK SMILES IDX 6 1 5 2 3 3 22 4 4 5 20 6 18 7 2 8 1 9 23 11 21 13 19 15
REMARK SMILES IDX 7 17 16 18 10 19 14 20 11 21 8 22 9 23 17 25 15 27 12 29
REMARK SMILES IDX 13 30
REMARK H PARENT 1 10 23 12 21 14 19 16 9 24 17 26 15 28 13 31
REMARK Flexibility Score: inf
ROOT
ATOM      1  O   UNL     1     -29.383  29.049 -38.772  1.00  0.00    -0.313 OA
ENDROOT
BRANCH   1   2
ATOM      2  C   UNL     1     -30.359  28.348 -38.007  1.00  0.00     0.285 C 
ATOM      3  C   UNL     1     -30.353  29.818 -36.119  1.00  0.00     0.178 C 
ATOM      4  C   UNL     1     -31.771  30.346 -36.455  1.00  0.00     0.177 C 
ATOM      5  O   UNL     1     -30.121  28.503 -36.613  1.00  0.00    -0.341 OA
ATOM      6  C   UNL     1     -32.111  30.199 -37.948  1.00  0.00     0.179 C 
ATOM      7  C   UNL     1     -31.781  28.781 -38.429  1.00  0.00     0.202 C 
BRANCH   3   8
ATOM      8  C   UNL     1     -29.195  30.784 -36.454  1.00  0.00     0.191 C 
BRANCH   8   9
ATOM      9  O   UNL     1     -29.061  31.758 -35.450  1.00  0.00    -0.394 OA
ATOM     10  H   UNL     1     -28.091  31.895 -35.300  1.00  0.00     0.210 HD
ENDBRANCH   8   9
ENDBRANCH   3   8
BRANCH   4  11
ATOM     11  O   UNL     1     -31.921  31.679 -36.039  1.00  0.00    -0.387 OA
ATOM     12  H   UNL     1     -31.257  32.216 -36.545  1.00  0.00     0.211 HD
ENDBRANCH   4  11
BRANCH   6  13
ATOM     13  O   UNL     1     -31.407  31.134 -38.722  1.00  0.00    -0.387 OA
ATOM     14  H   UNL     1     -31.367  30.775 -39.646  1.00  0.00     0.211 HD
ENDBRANCH   6  13
BRANCH   7  15
ATOM     15  O   UNL     1     -32.752  27.864 -37.982  1.00  0.00    -0.385 OA
ATOM     16  H   UNL     1     -32.289  27.127 -37.508  1.00  0.00     0.211 HD
ENDBRANCH   7  15
ENDBRANCH   1   2
BRANCH   1  17
ATOM     17  C   UNL     1     -28.782  28.265 -39.803  1.00  0.00     0.224 C 
ATOM     18  C   UNL     1     -29.255  28.787 -41.184  1.00  0.00     0.208 C 
ATOM     19  O   UNL     1     -27.362  28.348 -39.753  1.00  0.00    -0.337 OA
ATOM     20  C   UNL     1     -27.975  28.859 -41.985  1.00  0.00     0.180 C 
ATOM     21  C   UNL     1     -26.923  29.030 -40.900  1.00  0.00     0.179 C 
BRANCH  17  22
ATOM     22  C   UNL     1     -29.207  26.788 -39.634  1.00  0.00     0.225 C 
BRANCH  22  23
ATOM     23  O   UNL     1     -29.864  26.329 -40.785  1.00  0.00    -0.391 OA
ATOM     24  H   UNL     1     -30.679  25.864 -40.473  1.00  0.00     0.210 HD
ENDBRANCH  22  23
ENDBRANCH  17  22
BRANCH  18  25
ATOM     25  O   UNL     1     -29.836  30.065 -41.084  1.00  0.00    -0.385 OA
ATOM     26  H   UNL     1     -30.800  29.921 -40.899  1.00  0.00     0.211 HD
ENDBRANCH  18  25
BRANCH  20  27
ATOM     27  O   UNL     1     -27.958  29.945 -42.878  1.00  0.00    -0.387 OA
ATOM     28  H   UNL     1     -27.524  30.696 -42.396  1.00  0.00     0.211 HD
ENDBRANCH  20  27
BRANCH  21  29
ATOM     29  C   UNL     1     -25.548  28.488 -41.323  1.00  0.00     0.191 C 
BRANCH  29  30
ATOM     30  O   UNL     1     -25.644  27.772 -42.522  1.00  0.00    -0.394 OA
ATOM     31  H   UNL     1     -24.956  27.062 -42.485  1.00  0.00     0.210 HD
ENDBRANCH  29  30
ENDBRANCH  21  29
ENDBRANCH   1  17
TORSDOF 13
ENDMDL
MODEL 3
REMARK VINA RESULT:    -5.481      2.065      3.666
REMARK INTER + INTRA:          -9.583
REMARK INTER:                  -8.127
REMARK INTRA:                  -1.457
REMARK UNBOUND:                -1.219
REMARK SMILES OC[C@@H]1O[C@H](O[C@]2(CO)O[C@@H](CO)[C@H](O)[C@@H]2O)[C@@H](O)[C@H](O)[C@@H]1O
REMARK SMILES IDX 6 1 5 2 3 3 22 4 4 5 20 6 18 7 2 8 1 9 23 11 21 13 19 15
REMARK SMILES IDX 7 17 16 18 10 19 14 20 11 21 8 22 9 23 17 25 15 27 12 29
REMARK SMILES IDX 13 30
REMARK H PARENT 1 10 23 12 21 14 19 16 9 24 17 26 15 28 13 31
REMARK Flexibility Score: inf
ROOT
ATOM      1  O   UNL     1     -29.088  28.995 -37.251  1.00  0.00    -0.313 OA
ENDROOT
BRANCH   1   2
ATOM      2  C   UNL     1     -29.510  30.316 -36.923  1.00  0.00     0.285 C 
ATOM      3  C   UNL     1     -31.761  29.759 -36.335  1.00  0.00     0.178 C 
ATOM      4  C   UNL     1     -31.499  30.045 -34.834  1.00  0.00     0.177 C 
ATOM      5  O   UNL     1     -30.895  30.490 -37.197  1.00  0.00    -0.341 OA
ATOM      6  C   UNL     1     -30.015  29.891 -34.461  1.00  0.00     0.179 C 
ATOM      7  C   UNL     1     -29.136  30.651 -35.462  1.00  0.00     0.202 C 
BRANCH   3   8
ATOM      8  C   UNL     1     -31.844  28.265 -36.716  1.00  0.00     0.191 C 
BRANCH   8   9
ATOM      9  O   UNL     1     -31.904  28.115 -38.111  1.00  0.00    -0.394 OA
ATOM     10  H   UNL     1     -32.202  27.189 -38.297  1.00  0.00     0.210 HD
ENDBRANCH   8   9
ENDBRANCH   3   8
BRANCH   4  11
ATOM     11  O   UNL     1     -32.304  29.230 -34.022  1.00  0.00    -0.387 OA
ATOM     12  H   UNL     1     -32.522  29.758 -33.209  1.00  0.00     0.211 HD
ENDBRANCH   4  11
BRANCH   6  13
ATOM     13  O   UNL     1     -29.637  28.540 -34.434  1.00  0.00    -0.387 OA
ATOM     14  H   UNL     1     -30.028  28.146 -33.612  1.00  0.00     0.211 HD
ENDBRANCH   6  13
BRANCH   7  15
ATOM     15  O   UNL     1     -29.189  32.037 -35.222  1.00  0.00    -0.385 OA
ATOM     16  H   UNL     1     -29.133  32.506 -36.092  1.00  0.00     0.211 HD
ENDBRANCH   7  15
ENDBRANCH   1   2
BRANCH   1  17
ATOM     17  C   UNL     1     -28.250  28.924 -38.405  1.00  0.00     0.224 C 
ATOM     18  C   UNL     1     -28.319  27.494 -39.000  1.00  0.00     0.208 C 
ATOM     19  O   UNL     1     -28.669  29.847 -39.403  1.00  0.00    -0.337 OA
ATOM     20  C   UNL     1     -28.501  27.743 -40.480  1.00  0.00     0.180 C 
ATOM     21  C   UNL     1     -29.153  29.117 -40.501  1.00  0.00     0.179 C 
BRANCH  17  22
ATOM     22  C   UNL     1     -26.794  29.246 -37.999  1.00  0.00     0.225 C 
BRANCH  22  23
ATOM     23  O   UNL     1     -25.982  28.110 -38.132  1.00  0.00    -0.391 OA
ATOM     24  H   UNL     1     -25.347  28.131 -37.374  1.00  0.00     0.210 HD
ENDBRANCH  22  23
ENDBRANCH  17  22
BRANCH  18  25
ATOM     25  O   UNL     1     -29.417  26.775 -38.492  1.00  0.00    -0.385 OA
ATOM     26  H   UNL     1     -30.217  27.344 -38.638  1.00  0.00     0.211 HD
ENDBRANCH  18  25
BRANCH  20  27
ATOM     27  O   UNL     1     -29.328  26.784 -41.091  1.00  0.00    -0.387 OA
ATOM     28  H   UNL     1     -29.428  26.044 -40.437  1.00  0.00     0.211 HD
ENDBRANCH  20  27
BRANCH  21  29
ATOM     29  C   UNL     1     -28.862  29.887 -41.799  1.00  0.00     0.191 C 
BRANCH  29  30
ATOM     30  O   UNL     1     -28.597  29.003 -42.851  1.00  0.00    -0.394 OA
ATOM     31  H   UNL     1     -29.439  28.909 -43.363  1.00  0.00     0.210 HD
ENDBRANCH  29  30
ENDBRANCH  21  29
ENDBRANCH   1  17
TORSDOF 13
ENDMDL
MODEL 4
REMARK VINA RESULT:    -5.423      2.069      4.340
REMARK INTER + INTRA:          -9.496
REMARK INTER:                  -7.844
REMARK INTRA:                  -1.651
REMARK UNBOUND:                -1.219
REMARK SMILES OC[C@@H]1O[C@H](O[C@]2(CO)O[C@@H](CO)[C@H](O)[C@@H]2O)[C@@H](O)[C@H](O)[C@@H]1O
REMARK SMILES IDX 6 1 5 2 3 3 22 4 4 5 20 6 18 7 2 8 1 9 23 11 21 13 19 15
REMARK SMILES IDX 7 17 16 18 10 19 14 20 11 21 8 22 9 23 17 25 15 27 12 29
REMARK SMILES IDX 13 30
REMARK H PARENT 1 10 23 12 21 14 19 16 9 24 17 26 15 28 13 31
REMARK Flexibility Score: inf
ROOT
ATOM      1  O   UNL     1     -30.189  28.946 -37.499  1.00  0.00    -0.313 OA
ENDROOT
BRANCH   1   2
ATOM      2  C   UNL     1     -29.588  29.897 -36.624  1.00  0.00     0.285 C 
ATOM      3  C   UNL     1     -31.499  31.316 -36.386  1.00  0.00     0.178 C 
ATOM      4  C   UNL     1     -31.704  30.885 -34.911  1.00  0.00     0.177 C 
ATOM      5  O   UNL     1     -30.147  31.190 -36.816  1.00  0.00    -0.341 OA
ATOM      6  C   UNL     1     -31.110  29.497 -34.619  1.00  0.00     0.179 C 
ATOM      7  C   UNL     1     -29.678  29.410 -35.161  1.00  0.00     0.202 C 
BRANCH   3   8
ATOM      8  C   UNL     1     -32.496  30.703 -37.394  1.00  0.00     0.191 C 
BRANCH   8   9
ATOM      9  O   UNL     1     -32.101  30.989 -38.712  1.00  0.00    -0.394 OA
ATOM     10  H   UNL     1     -32.462  31.883 -38.941  1.00  0.00     0.210 HD
ENDBRANCH   8   9
ENDBRANCH   3   8
BRANCH   4  11
ATOM     11  O   UNL     1     -33.063  30.930 -34.561  1.00  0.00    -0.387 OA
ATOM     12  H   UNL     1     -33.466  30.072 -34.857  1.00  0.00     0.211 HD
ENDBRANCH   4  11
BRANCH   6  13
ATOM     13  O   UNL     1     -31.892  28.482 -35.190  1.00  0.00    -0.387 OA
ATOM     14  H   UNL     1     -31.427  27.624 -35.015  1.00  0.00     0.211 HD
ENDBRANCH   6  13
BRANCH   7  15
ATOM     15  O   UNL     1     -28.786  30.112 -34.328  1.00  0.00    -0.385 OA
ATOM     16  H   UNL     1     -27.922  29.627 -34.319  1.00  0.00     0.211 HD
ENDBRANCH   7  15
ENDBRANCH   1   2
BRANCH   1  17
ATOM     17  C   UNL     1     -29.253  28.102 -38.170  1.00  0.00     0.224 C 
ATOM     18  C   UNL     1     -29.745  27.841 -39.617  1.00  0.00     0.208 C 
ATOM     19  O   UNL     1     -27.967  28.709 -38.235  1.00  0.00    -0.337 OA
ATOM     20  C   UNL     1     -28.503  28.060 -40.450  1.00  0.00     0.180 C 
ATOM     21  C   UNL     1     -27.689  29.005 -39.579  1.00  0.00     0.179 C 
BRANCH  17  22
ATOM     22  C   UNL     1     -29.141  26.760 -37.411  1.00  0.00     0.225 C 
BRANCH  22  23
ATOM     23  O   UNL     1     -30.376  26.405 -36.851  1.00  0.00    -0.391 OA
ATOM     24  H   UNL     1     -31.009  27.124 -37.096  1.00  0.00     0.210 HD
ENDBRANCH  22  23
ENDBRANCH  17  22
BRANCH  18  25
ATOM     25  O   UNL     1     -30.748  28.754 -39.995  1.00  0.00    -0.385 OA
ATOM     26  H   UNL     1     -30.870  29.370 -39.226  1.00  0.00     0.211 HD
ENDBRANCH  18  25
BRANCH  20  27
ATOM     27  O   UNL     1     -28.786  28.643 -41.698  1.00  0.00    -0.387 OA
ATOM     28  H   UNL     1     -29.749  28.882 -41.682  1.00  0.00     0.211 HD
ENDBRANCH  20  27
BRANCH  21  29
ATOM     29  C   UNL     1     -26.178  28.883 -39.830  1.00  0.00     0.191 C 
BRANCH  29  30
ATOM     30  O   UNL     1     -25.927  28.160 -41.003  1.00  0.00    -0.394 OA
ATOM     31  H   UNL     1     -24.962  27.938 -40.999  1.00  0.00     0.210 HD
ENDBRANCH  29  30
ENDBRANCH  21  29
ENDBRANCH   1  17
TORSDOF 13
ENDMDL
MODEL 5
REMARK VINA RESULT:    -5.407      1.173      2.150
REMARK INTER + INTRA:          -9.470
REMARK INTER:                  -8.172
REMARK INTRA:                  -1.298
REMARK UNBOUND:                -1.219
REMARK SMILES OC[C@@H]1O[C@H](O[C@]2(CO)O[C@@H](CO)[C@H](O)[C@@H]2O)[C@@H](O)[C@H](O)[C@@H]1O
REMARK SMILES IDX 6 1 5 2 3 3 22 4 4 5 20 6 18 7 2 8 1 9 23 11 21 13 19 15
REMARK SMILES IDX 7 17 16 18 10 19 14 20 11 21 8 22 9 23 17 25 15 27 12 29
REMARK SMILES IDX 13 30
REMARK H PARENT 1 10 23 12 21 14 19 16 9 24 17 26 15 28 13 31
REMARK Flexibility Score: inf
ROOT
ATOM      1  O   UNL     1     -28.391  28.499 -38.649  1.00  0.00    -0.313 OA
ENDROOT
BRANCH   1   2
ATOM      2  C   UNL     1     -29.501  27.698 -38.253  1.00  0.00     0.285 C 
ATOM      3  C   UNL     1     -28.815  27.360 -35.986  1.00  0.00     0.178 C 
ATOM      4  C   UNL     1     -29.956  28.261 -35.447  1.00  0.00     0.177 C 
ATOM      5  O   UNL     1     -29.124  26.769 -37.244  1.00  0.00    -0.341 OA
ATOM      6  C   UNL     1     -30.431  29.287 -36.490  1.00  0.00     0.179 C 
ATOM      7  C   UNL     1     -30.687  28.596 -37.834  1.00  0.00     0.202 C 
BRANCH   3   8
ATOM      8  C   UNL     1     -27.408  27.998 -35.966  1.00  0.00     0.191 C 
BRANCH   8   9
ATOM      9  O   UNL     1     -26.764  27.732 -34.746  1.00  0.00    -0.394 OA
ATOM     10  H   UNL     1     -27.437  27.842 -34.027  1.00  0.00     0.210 HD
ENDBRANCH   8   9
ENDBRANCH   3   8
BRANCH   4  11
ATOM     11  O   UNL     1     -29.570  28.901 -34.258  1.00  0.00    -0.387 OA
ATOM     12  H   UNL     1     -30.022  29.785 -34.245  1.00  0.00     0.211 HD
ENDBRANCH   4  11
BRANCH   6  13
ATOM     13  O   UNL     1     -29.487  30.311 -36.659  1.00  0.00    -0.387 OA
ATOM     14  H   UNL     1     -29.980  31.171 -36.611  1.00  0.00     0.211 HD
ENDBRANCH   6  13
BRANCH   7  15
ATOM     15  O   UNL     1     -31.894  27.872 -37.802  1.00  0.00    -0.385 OA
ATOM     16  H   UNL     1     -32.494  28.238 -38.500  1.00  0.00     0.211 HD
ENDBRANCH   7  15
ENDBRANCH   1   2
BRANCH   1  17
ATOM     17  C   UNL     1     -28.132  28.476 -40.053  1.00  0.00     0.224 C 
ATOM     18  C   UNL     1     -28.466  29.864 -40.658  1.00  0.00     0.208 C 
ATOM     19  O   UNL     1     -26.765  28.187 -40.320  1.00  0.00    -0.337 OA
ATOM     20  C   UNL     1     -27.272  30.156 -41.537  1.00  0.00     0.180 C 
ATOM     21  C   UNL     1     -26.175  29.332 -40.880  1.00  0.00     0.179 C 
BRANCH  17  22
ATOM     22  C   UNL     1     -29.016  27.396 -40.717  1.00  0.00     0.225 C 
BRANCH  22  23
ATOM     23  O   UNL     1     -28.512  27.054 -41.981  1.00  0.00    -0.391 OA
ATOM     24  H   UNL     1     -29.281  27.082 -42.603  1.00  0.00     0.210 HD
ENDBRANCH  22  23
ENDBRANCH  17  22
BRANCH  18  25
ATOM     25  O   UNL     1     -28.583  30.849 -39.659  1.00  0.00    -0.385 OA
ATOM     26  H   UNL     1     -27.884  30.648 -38.984  1.00  0.00     0.211 HD
ENDBRANCH  18  25
BRANCH  20  27
ATOM     27  O   UNL     1     -26.934  31.520 -41.554  1.00  0.00    -0.387 OA
ATOM     28  H   UNL     1     -26.398  31.686 -40.736  1.00  0.00     0.211 HD
ENDBRANCH  20  27
BRANCH  21  29
ATOM     29  C   UNL     1     -25.079  28.912 -41.872  1.00  0.00     0.191 C 
BRANCH  29  30
ATOM     30  O   UNL     1     -25.466  27.771 -42.584  1.00  0.00    -0.394 OA
ATOM     31  H   UNL     1     -25.030  26.999 -42.144  1.00  0.00     0.210 HD
ENDBRANCH  29  30
ENDBRANCH  21  29
ENDBRANCH   1  17
TORSDOF 13
ENDMDL
MODEL 6
REMARK VINA RESULT:    -5.391      1.914      3.901
REMARK INTER + INTRA:          -9.446
REMARK INTER:                  -8.058
REMARK INTRA:                  -1.387
REMARK UNBOUND:                -1.219
REMARK SMILES OC[C@@H]1O[C@H](O[C@]2(CO)O[C@@H](CO)[C@H](O)[C@@H]2O)[C@@H](O)[C@H](O)[C@@H]1O
REMARK SMILES IDX 6 1 5 2 3 3 22 4 4 5 20 6 18 7 2 8 1 9 23 11 21 13 19 15
REMARK SMILES IDX 7 17 16 18 10 19 14 20 11 21 8 22 9 23 17 25 15 27 12 29
REMARK SMILES IDX 13 30
REMARK H PARENT 1 10 23 12 21 14 19 16 9 24 17 26 15 28 13 31
REMARK Flexibility Score: inf
ROOT
ATOM      1  O   UNL     1     -29.427  29.451 -37.605  1.00  0.00    -0.313 OA
ENDROOT
BRANCH   1   2
ATOM      2  C   UNL     1     -29.057  29.599 -36.237  1.00  0.00     0.285 C 
ATOM      3  C   UNL     1     -30.084  31.732 -35.892  1.00  0.00     0.178 C 
ATOM      4  C   UNL     1     -31.175  31.121 -34.977  1.00  0.00     0.177 C 
ATOM      5  O   UNL     1     -28.881  30.970 -35.903  1.00  0.00    -0.341 OA
ATOM      6  C   UNL     1     -31.414  29.630 -35.268  1.00  0.00     0.179 C 
ATOM      7  C   UNL     1     -30.077  28.881 -35.326  1.00  0.00     0.202 C 
BRANCH   3   8
ATOM      8  C   UNL     1     -30.553  32.109 -37.314  1.00  0.00     0.191 C 
BRANCH   8   9
ATOM      9  O   UNL     1     -29.452  32.422 -38.129  1.00  0.00    -0.394 OA
ATOM     10  H   UNL     1     -28.660  32.497 -37.539  1.00  0.00     0.210 HD
ENDBRANCH   8   9
ENDBRANCH   3   8
BRANCH   4  11
ATOM     11  O   UNL     1     -32.374  31.846 -35.074  1.00  0.00    -0.387 OA
ATOM     12  H   UNL     1     -32.970  31.518 -34.350  1.00  0.00     0.211 HD
ENDBRANCH   4  11
BRANCH   6  13
ATOM     13  O   UNL     1     -32.105  29.455 -36.476  1.00  0.00    -0.387 OA
ATOM     14  H   UNL     1     -32.098  28.483 -36.676  1.00  0.00     0.211 HD
ENDBRANCH   6  13
BRANCH   7  15
ATOM     15  O   UNL     1     -29.560  28.681 -34.032  1.00  0.00    -0.385 OA
ATOM     16  H   UNL     1     -28.831  28.013 -34.088  1.00  0.00     0.211 HD
ENDBRANCH   7  15
ENDBRANCH   1   2
BRANCH   1  17
ATOM     17  C   UNL     1     -28.582  28.567 -38.342  1.00  0.00     0.224 C 
ATOM     18  C   UNL     1     -29.370  27.278 -38.690  1.00  0.00     0.208 C 
ATOM     19  O   UNL     1     -28.141  29.166 -39.555  1.00  0.00    -0.337 OA
ATOM     20  C   UNL     1     -29.051  27.060 -40.151  1.00  0.00     0.180 C 
ATOM     21  C   UNL     1     -28.725  28.468 -40.626  1.00  0.00     0.179 C 
BRANCH  17  22
ATOM     22  C   UNL     1     -27.350  28.203 -37.481  1.00  0.00     0.225 C 
BRANCH  22  23
ATOM     23  O   UNL     1     -26.203  28.095 -38.282  1.00  0.00    -0.391 OA
ATOM     24  H   UNL     1     -26.458  27.536 -39.057  1.00  0.00     0.210 HD
ENDBRANCH  22  23
ENDBRANCH  17  22
BRANCH  18  25
ATOM     25  O   UNL     1     -30.756  27.456 -38.518  1.00  0.00    -0.385 OA
ATOM     26  H   UNL     1     -31.096  26.619 -38.107  1.00  0.00     0.211 HD
ENDBRANCH  18  25
BRANCH  20  27
ATOM     27  O   UNL     1     -30.138  26.528 -40.867  1.00  0.00    -0.387 OA
ATOM     28  H   UNL     1     -30.595  27.298 -41.294  1.00  0.00     0.211 HD
ENDBRANCH  20  27
BRANCH  21  29
ATOM     29  C   UNL     1     -27.766  28.478 -41.827  1.00  0.00     0.191 C 
BRANCH  29  30
ATOM     30  O   UNL     1     -28.375  27.907 -42.951  1.00  0.00    -0.394 OA
ATOM     31  H   UNL     1     -27.779  27.180 -43.259  1.00  0.00     0.210 HD
ENDBRANCH  29  30
ENDBRANCH  21  29
ENDBRANCH   1  17
TORSDOF 13
ENDMDL
MODEL 7
REMARK VINA RESULT:    -5.364      8.185     10.972
REMARK INTER + INTRA:          -9.405
REMARK INTER:                  -8.095
REMARK INTRA:                  -1.310
REMARK UNBOUND:                -1.219
REMARK SMILES OC[C@@H]1O[C@H](O[C@]2(CO)O[C@@H](CO)[C@H](O)[C@@H]2O)[C@@H](O)[C@H](O)[C@@H]1O
REMARK SMILES IDX 6 1 5 2 3 3 22 4 4 5 20 6 18 7 2 8 1 9 23 11 21 13 19 15
REMARK SMILES IDX 7 17 16 18 10 19 14 20 11 21 8 22 9 23 17 25 15 27 12 29
REMARK SMILES IDX 13 30
REMARK H PARENT 1 10 23 12 21 14 19 16 9 24 17 26 15 28 13 31
REMARK Flexibility Score: inf
ROOT
ATOM      1  O   UNL     1     -27.581  19.515 -36.114  1.00  0.00    -0.313 OA
ENDROOT
BRANCH   1   2
ATOM      2  C   UNL     1     -26.682  20.545 -36.516  1.00  0.00     0.285 C 
ATOM      3  C   UNL     1     -26.553  19.928 -38.824  1.00  0.00     0.178 C 
ATOM      4  C   UNL     1     -27.346  21.186 -39.262  1.00  0.00     0.177 C 
ATOM      5  O   UNL     1     -25.860  20.112 -37.593  1.00  0.00    -0.341 OA
ATOM      6  C   UNL     1     -28.250  21.726 -38.141  1.00  0.00     0.179 C 
ATOM      7  C   UNL     1     -27.460  21.841 -36.833  1.00  0.00     0.202 C 
BRANCH   3   8
ATOM      8  C   UNL     1     -27.348  18.604 -38.859  1.00  0.00     0.191 C 
BRANCH   8   9
ATOM      9  O   UNL     1     -26.595  17.564 -38.290  1.00  0.00    -0.394 OA
ATOM     10  H   UNL     1     -26.650  16.789 -38.905  1.00  0.00     0.210 HD
ENDBRANCH   8   9
ENDBRANCH   3   8
BRANCH   4  11
ATOM     11  O   UNL     1     -28.092  20.928 -40.424  1.00  0.00    -0.387 OA
ATOM     12  H   UNL     1     -28.536  20.049 -40.293  1.00  0.00     0.211 HD
ENDBRANCH   4  11
BRANCH   6  13
ATOM     13  O   UNL     1     -29.365  20.896 -37.946  1.00  0.00    -0.387 OA
ATOM     14  H   UNL     1     -29.025  19.967 -37.868  1.00  0.00     0.211 HD
ENDBRANCH   6  13
BRANCH   7  15
ATOM     15  O   UNL     1     -26.605  22.961 -36.863  1.00  0.00    -0.385 OA
ATOM     16  H   UNL     1     -25.738  22.700 -36.462  1.00  0.00     0.211 HD
ENDBRANCH   7  15
ENDBRANCH   1   2
BRANCH   1  17
ATOM     17  C   UNL     1     -27.569  19.250 -34.711  1.00  0.00     0.224 C 
ATOM     18  C   UNL     1     -27.187  17.766 -34.474  1.00  0.00     0.208 C 
ATOM     19  O   UNL     1     -26.620  20.071 -34.040  1.00  0.00    -0.337 OA
ATOM     20  C   UNL     1     -26.156  17.845 -33.372  1.00  0.00     0.180 C 
ATOM     21  C   UNL     1     -25.592  19.246 -33.554  1.00  0.00     0.179 C 
BRANCH  17  22
ATOM     22  C   UNL     1     -28.974  19.523 -34.128  1.00  0.00     0.225 C 
BRANCH  22  23
ATOM     23  O   UNL     1     -28.890  19.840 -32.765  1.00  0.00    -0.391 OA
ATOM     24  H   UNL     1     -29.674  20.409 -32.564  1.00  0.00     0.210 HD
ENDBRANCH  22  23
ENDBRANCH  17  22
BRANCH  18  25
ATOM     25  O   UNL     1     -26.622  17.187 -35.626  1.00  0.00    -0.385 OA
ATOM     26  H   UNL     1     -26.926  16.242 -35.642  1.00  0.00     0.211 HD
ENDBRANCH  18  25
BRANCH  20  27
ATOM     27  O   UNL     1     -25.147  16.875 -33.507  1.00  0.00    -0.387 OA
ATOM     28  H   UNL     1     -25.605  15.995 -33.519  1.00  0.00     0.211 HD
ENDBRANCH  20  27
BRANCH  21  29
ATOM     29  C   UNL     1     -25.038  19.832 -32.246  1.00  0.00     0.191 C 
BRANCH  29  30
ATOM     30  O   UNL     1     -24.827  18.822 -31.300  1.00  0.00    -0.394 OA
ATOM     31  H   UNL     1     -25.519  18.937 -30.601  1.00  0.00     0.210 HD
ENDBRANCH  29  30
ENDBRANCH  21  29
ENDBRANCH   1  17
TORSDOF 13
ENDMDL
MODEL 8
REMARK VINA RESULT:    -5.336      1.500      5.689
REMARK INTER + INTRA:          -9.362
REMARK INTER:                  -7.962
REMARK INTRA:                  -1.400
REMARK UNBOUND:                -1.219
REMARK SMILES OC[C@@H]1O[C@H](O[C@]2(CO)O[C@@H](CO)[C@H](O)[C@@H]2O)[C@@H](O)[C@H](O)[C@@H]1O
REMARK SMILES IDX 6 1 5 2 3 3 22 4 4 5 20 6 18 7 2 8 1 9 23 11 21 13 19 15
REMARK SMILES IDX 7 17 16 18 10 19 14 20 11 21 8 22 9 23 17 25 15 27 12 29
REMARK SMILES IDX 13 30
REMARK H PARENT 1 10 23 12 21 14 19 16 9 24 17 26 15 28 13 31
REMARK Flexibility Score: inf
ROOT
ATOM      1  O   UNL     1     -27.265  28.182 -39.141  1.00  0.00    -0.313 OA
ENDROOT
BRANCH   1   2
ATOM      2  C   UNL     1     -27.917  28.695 -40.299  1.00  0.00     0.285 C 
ATOM      3  C   UNL     1     -26.650  30.717 -40.469  1.00  0.00     0.178 C 
ATOM      4  C   UNL     1     -25.927  30.222 -41.749  1.00  0.00     0.177 C 
ATOM      5  O   UNL     1     -27.929  30.117 -40.289  1.00  0.00    -0.341 OA
ATOM      6  C   UNL     1     -25.886  28.688 -41.840  1.00  0.00     0.179 C 
ATOM      7  C   UNL     1     -27.279  28.105 -41.577  1.00  0.00     0.202 C 
BRANCH   3   8
ATOM      8  C   UNL     1     -25.800  30.686 -39.180  1.00  0.00     0.191 C 
BRANCH   8   9
ATOM      9  O   UNL     1     -26.580  31.042 -38.068  1.00  0.00    -0.394 OA
ATOM     10  H   UNL     1     -26.239  30.529 -37.291  1.00  0.00     0.210 HD
ENDBRANCH   8   9
ENDBRANCH   3   8
BRANCH   4  11
ATOM     11  O   UNL     1     -24.633  30.762 -41.833  1.00  0.00    -0.387 OA
ATOM     12  H   UNL     1     -24.022  30.013 -42.059  1.00  0.00     0.211 HD
ENDBRANCH   4  11
BRANCH   6  13
ATOM     13  O   UNL     1     -24.970  28.151 -40.924  1.00  0.00    -0.387 OA
ATOM     14  H   UNL     1     -24.222  27.768 -41.451  1.00  0.00     0.211 HD
ENDBRANCH   6  13
BRANCH   7  15
ATOM     15  O   UNL     1     -28.114  28.280 -42.697  1.00  0.00    -0.385 OA
ATOM     16  H   UNL     1     -27.650  28.872 -43.342  1.00  0.00     0.211 HD
ENDBRANCH   7  15
ENDBRANCH   1   2
BRANCH   1  17
ATOM     17  C   UNL     1     -28.159  27.774 -38.105  1.00  0.00     0.224 C 
ATOM     18  C   UNL     1     -27.368  26.992 -37.025  1.00  0.00     0.208 C 
ATOM     19  O   UNL     1     -28.778  28.895 -37.487  1.00  0.00    -0.337 OA
ATOM     20  C   UNL     1     -27.864  27.594 -35.730  1.00  0.00     0.180 C 
ATOM     21  C   UNL     1     -28.309  28.982 -36.165  1.00  0.00     0.179 C 
BRANCH  17  22
ATOM     22  C   UNL     1     -29.253  26.862 -38.707  1.00  0.00     0.225 C 
BRANCH  22  23
ATOM     23  O   UNL     1     -30.529  27.319 -38.348  1.00  0.00    -0.391 OA
ATOM     24  H   UNL     1     -31.059  26.515 -38.123  1.00  0.00     0.210 HD
ENDBRANCH  22  23
ENDBRANCH  17  22
BRANCH  18  25
ATOM     25  O   UNL     1     -25.981  27.193 -37.152  1.00  0.00    -0.385 OA
ATOM     26  H   UNL     1     -25.637  27.360 -36.236  1.00  0.00     0.211 HD
ENDBRANCH  18  25
BRANCH  20  27
ATOM     27  O   UNL     1     -26.857  27.673 -34.751  1.00  0.00    -0.387 OA
ATOM     28  H   UNL     1     -26.040  27.990 -35.217  1.00  0.00     0.211 HD
ENDBRANCH  20  27
BRANCH  21  29
ATOM     29  C   UNL     1     -29.414  29.556 -35.265  1.00  0.00     0.191 C 
BRANCH  29  30
ATOM     30  O   UNL     1     -29.599  28.752 -34.133  1.00  0.00    -0.394 OA
ATOM     31  H   UNL     1     -30.575  28.686 -33.988  1.00  0.00     0.210 HD
ENDBRANCH  29  30
ENDBRANCH  21  29
ENDBRANCH   1  17
TORSDOF 13
ENDMDL
MODEL 9
REMARK VINA RESULT:    -5.299      2.557      5.774
REMARK INTER + INTRA:          -9.306
REMARK INTER:                  -7.723
REMARK INTRA:                  -1.582
REMARK UNBOUND:                -1.219
REMARK SMILES OC[C@@H]1O[C@H](O[C@]2(CO)O[C@@H](CO)[C@H](O)[C@@H]2O)[C@@H](O)[C@H](O)[C@@H]1O
REMARK SMILES IDX 6 1 5 2 3 3 22 4 4 5 20 6 18 7 2 8 1 9 23 11 21 13 19 15
REMARK SMILES IDX 7 17 16 18 10 19 14 20 11 21 8 22 9 23 17 25 15 27 12 29
REMARK SMILES IDX 13 30
REMARK H PARENT 1 10 23 12 21 14 19 16 9 24 17 26 15 28 13 31
REMARK Flexibility Score: inf
ROOT
ATOM      1  O   UNL     1     -25.919  30.131 -40.874  1.00  0.00    -0.313 OA
ENDROOT
BRANCH   1   2
ATOM      2  C   UNL     1     -25.144  30.252 -39.685  1.00  0.00     0.285 C 
ATOM      3  C   UNL     1     -23.101  29.393 -40.585  1.00  0.00     0.178 C 
ATOM      4  C   UNL     1     -22.426  30.788 -40.530  1.00  0.00     0.177 C 
ATOM      5  O   UNL     1     -24.142  29.245 -39.625  1.00  0.00    -0.341 OA
ATOM      6  C   UNL     1     -23.449  31.935 -40.575  1.00  0.00     0.179 C 
ATOM      7  C   UNL     1     -24.572  31.682 -39.562  1.00  0.00     0.202 C 
BRANCH   3   8
ATOM      8  C   UNL     1     -23.529  28.925 -41.994  1.00  0.00     0.191 C 
BRANCH   8   9
ATOM      9  O   UNL     1     -24.383  27.814 -41.904  1.00  0.00    -0.394 OA
ATOM     10  H   UNL     1     -24.608  27.538 -42.829  1.00  0.00     0.210 HD
ENDBRANCH   8   9
ENDBRANCH   3   8
BRANCH   4  11
ATOM     11  O   UNL     1     -21.477  30.926 -41.556  1.00  0.00    -0.387 OA
ATOM     12  H   UNL     1     -21.980  31.120 -42.391  1.00  0.00     0.211 HD
ENDBRANCH   4  11
BRANCH   6  13
ATOM     13  O   UNL     1     -23.996  32.075 -41.859  1.00  0.00    -0.387 OA
ATOM     14  H   UNL     1     -24.574  31.284 -42.017  1.00  0.00     0.211 HD
ENDBRANCH   6  13
BRANCH   7  15
ATOM     15  O   UNL     1     -24.132  31.949 -38.251  1.00  0.00    -0.385 OA
ATOM     16  H   UNL     1     -24.708  32.659 -37.869  1.00  0.00     0.211 HD
ENDBRANCH   7  15
ENDBRANCH   1   2
BRANCH   1  17
ATOM     17  C   UNL     1     -27.328  30.098 -40.648  1.00  0.00     0.224 C 
ATOM     18  C   UNL     1     -27.986  29.123 -41.658  1.00  0.00     0.208 C 
ATOM     19  O   UNL     1     -27.628  29.650 -39.331  1.00  0.00    -0.337 OA
ATOM     20  C   UNL     1     -28.919  28.306 -40.794  1.00  0.00     0.180 C 
ATOM     21  C   UNL     1     -28.262  28.400 -39.426  1.00  0.00     0.179 C 
BRANCH  17  22
ATOM     22  C   UNL     1     -27.910  31.516 -40.844  1.00  0.00     0.225 C 
BRANCH  22  23
ATOM     23  O   UNL     1     -27.194  32.211 -41.830  1.00  0.00    -0.391 OA
ATOM     24  H   UNL     1     -26.876  33.046 -41.405  1.00  0.00     0.210 HD
ENDBRANCH  22  23
ENDBRANCH  17  22
BRANCH  18  25
ATOM     25  O   UNL     1     -27.032  28.285 -42.266  1.00  0.00    -0.385 OA
ATOM     26  H   UNL     1     -27.538  27.667 -42.855  1.00  0.00     0.211 HD
ENDBRANCH  18  25
BRANCH  20  27
ATOM     27  O   UNL     1     -29.013  26.968 -41.216  1.00  0.00    -0.387 OA
ATOM     28  H   UNL     1     -29.018  26.988 -42.208  1.00  0.00     0.211 HD
ENDBRANCH  20  27
BRANCH  21  29
ATOM     29  C   UNL     1     -29.269  28.247 -38.276  1.00  0.00     0.191 C 
BRANCH  29  30
ATOM     30  O   UNL     1     -30.209  27.251 -38.569  1.00  0.00    -0.394 OA
ATOM     31  H   UNL     1     -29.926  26.835 -39.421  1.00  0.00     0.210 HD
ENDBRANCH  29  30
ENDBRANCH  21  29
ENDBRANCH   1  17
TORSDOF 13
ENDMDL
