MODEL 1
REMARK VINA RESULT:    -3.637      0.000      0.000
REMARK INTER + INTRA:         -14.888
REMARK INTER:                  -9.484
REMARK INTRA:                  -5.404
REMARK UNBOUND:                -5.404
REMARK SMILES CCCCCCCCCCCCCCCCCCCCCCCCCCCCCO
REMARK SMILES IDX 16 1 15 2 14 3 13 4 12 5 11 6 10 7 9 8 8 9 7 10 6 11 5 12
REMARK SMILES IDX 4 13 3 14 2 15 1 16 17 17 18 18 19 19 20 20 21 21 22 22
REMARK SMILES IDX 23 23 24 24 25 25 26 26 27 27 28 28 29 29 30 30
REMARK H PARENT 30 31
REMARK Flexibility Score: inf
ROOT
ATOM      1  C   UNL     1     166.678 161.311 181.015  1.00  0.00     0.000 C 
ENDROOT
BRANCH   1   2
ATOM      2  C   UNL     1     167.706 160.280 181.512  1.00  0.00     0.000 C 
BRANCH   2   3
ATOM      3  C   UNL     1     168.279 160.634 182.897  1.00  0.00     0.000 C 
BRANCH   3   4
ATOM      4  C   UNL     1     167.226 160.850 183.999  1.00  0.00     0.000 C 
BRANCH   4   5
ATOM      5  C   UNL     1     167.374 162.204 184.707  1.00  0.00     0.000 C 
BRANCH   5   6
ATOM      6  C   UNL     1     166.252 163.166 184.289  1.00  0.00     0.000 C 
BRANCH   6   7
ATOM      7  C   UNL     1     166.697 164.165 183.210  1.00  0.00     0.000 C 
BRANCH   7   8
ATOM      8  C   UNL     1     165.509 164.857 182.520  1.00  0.00    -0.000 C 
BRANCH   8   9
ATOM      9  C   UNL     1     165.490 164.631 180.997  1.00  0.00    -0.000 C 
BRANCH   9  10
ATOM     10  C   UNL     1     164.086 164.555 180.365  1.00  0.00    -0.000 C 
BRANCH  10  11
ATOM     11  C   UNL     1     162.961 165.232 181.173  1.00  0.00    -0.000 C 
BRANCH  11  12
ATOM     12  C   UNL     1     161.537 164.941 180.669  1.00  0.00    -0.000 C 
BRANCH  12  13
ATOM     13  C   UNL     1     160.450 165.550 181.572  1.00  0.00    -0.000 C 
BRANCH  13  14
ATOM     14  C   UNL     1     160.343 167.075 181.415  1.00  0.00    -0.000 C 
BRANCH  14  15
ATOM     15  C   UNL     1     160.563 167.821 182.739  1.00  0.00    -0.003 C 
ATOM     16  C   UNL     1     162.042 168.128 182.956  1.00  0.00     0.004 C 
ENDBRANCH  14  15
ENDBRANCH  13  14
ENDBRANCH  12  13
ENDBRANCH  11  12
ENDBRANCH  10  11
ENDBRANCH   9  10
ENDBRANCH   8   9
ENDBRANCH   7   8
ENDBRANCH   6   7
ENDBRANCH   5   6
ENDBRANCH   4   5
ENDBRANCH   3   4
ENDBRANCH   2   3
ENDBRANCH   1   2
BRANCH   1  17
ATOM     17  C   UNL     1     165.354 160.670 180.566  1.00  0.00     0.000 C 
BRANCH  17  18
ATOM     18  C   UNL     1     164.364 160.336 181.700  1.00  0.00     0.000 C 
BRANCH  18  19
ATOM     19  C   UNL     1     163.770 161.575 182.404  1.00  0.00     0.000 C 
BRANCH  19  20
ATOM     20  C   UNL     1     162.551 161.225 183.277  1.00  0.00     0.000 C 
BRANCH  20  21
ATOM     21  C   UNL     1     161.503 162.356 183.300  1.00  0.00     0.000 C 
BRANCH  21  22
ATOM     22  C   UNL     1     160.232 162.033 182.498  1.00  0.00     0.000 C 
BRANCH  22  23
ATOM     23  C   UNL     1     160.052 160.529 182.247  1.00  0.00     0.000 C 
BRANCH  23  24
ATOM     24  C   UNL     1     160.135 160.208 180.748  1.00  0.00     0.000 C 
BRANCH  24  25
ATOM     25  C   UNL     1     160.537 161.419 179.884  1.00  0.00     0.000 C 
BRANCH  25  26
ATOM     26  C   UNL     1     161.916 161.320 179.196  1.00  0.00     0.000 C 
BRANCH  26  27
ATOM     27  C   UNL     1     162.146 162.343 178.061  1.00  0.00     0.002 C 
BRANCH  27  28
ATOM     28  C   UNL     1     163.518 162.217 177.374  1.00  0.00     0.028 C 
BRANCH  28  29
ATOM     29  C   UNL     1     164.011 163.515 176.722  1.00  0.00     0.156 C 
BRANCH  29  30
ATOM     30  O   UNL     1     163.112 163.963 175.740  1.00  0.00    -0.396 OA
ATOM     31  H   UNL     1     162.743 163.151 175.304  1.00  0.00     0.210 HD
ENDBRANCH  29  30
ENDBRANCH  28  29
ENDBRANCH  27  28
ENDBRANCH  26  27
ENDBRANCH  25  26
ENDBRANCH  24  25
ENDBRANCH  23  24
ENDBRANCH  22  23
ENDBRANCH  21  22
ENDBRANCH  20  21
ENDBRANCH  19  20
ENDBRANCH  18  19
ENDBRANCH  17  18
ENDBRANCH   1  17
TORSDOF 28
ENDMDL
MODEL 2
REMARK VINA RESULT:    -3.624      1.793      5.951
REMARK INTER + INTRA:         -14.854
REMARK INTER:                 -10.285
REMARK INTRA:                  -4.569
REMARK UNBOUND:                -5.404
REMARK SMILES CCCCCCCCCCCCCCCCCCCCCCCCCCCCCO
REMARK SMILES IDX 16 1 15 2 14 3 13 4 12 5 11 6 10 7 9 8 8 9 7 10 6 11 5 12
REMARK SMILES IDX 4 13 3 14 2 15 1 16 17 17 18 18 19 19 20 20 21 21 22 22
REMARK SMILES IDX 23 23 24 24 25 25 26 26 27 27 28 28 29 29 30 30
REMARK H PARENT 30 31
REMARK Flexibility Score: inf
ROOT
ATOM      1  C   UNL     1     162.611 161.083 183.229  1.00  0.00     0.000 C 
ENDROOT
BRANCH   1   2
ATOM      2  C   UNL     1     161.612 162.212 183.538  1.00  0.00     0.000 C 
BRANCH   2   3
ATOM      3  C   UNL     1     160.200 161.917 183.002  1.00  0.00     0.000 C 
BRANCH   3   4
ATOM      4  C   UNL     1     160.053 160.572 182.266  1.00  0.00     0.000 C 
BRANCH   4   5
ATOM      5  C   UNL     1     159.886 160.740 180.749  1.00  0.00     0.000 C 
BRANCH   5   6
ATOM      6  C   UNL     1     161.148 160.281 180.005  1.00  0.00     0.000 C 
BRANCH   6   7
ATOM      7  C   UNL     1     161.760 161.390 179.135  1.00  0.00     0.000 C 
BRANCH   7   8
ATOM      8  C   UNL     1     161.237 162.788 179.507  1.00  0.00    -0.000 C 
BRANCH   8   9
ATOM      9  C   UNL     1     162.352 163.733 179.992  1.00  0.00    -0.000 C 
BRANCH   9  10
ATOM     10  C   UNL     1     161.910 164.794 181.020  1.00  0.00    -0.000 C 
BRANCH  10  11
ATOM     11  C   UNL     1     160.578 165.502 180.704  1.00  0.00    -0.000 C 
BRANCH  11  12
ATOM     12  C   UNL     1     160.540 166.997 181.065  1.00  0.00    -0.000 C 
BRANCH  12  13
ATOM     13  C   UNL     1     160.690 167.249 182.576  1.00  0.00    -0.000 C 
BRANCH  13  14
ATOM     14  C   UNL     1     160.583 168.739 182.938  1.00  0.00    -0.000 C 
BRANCH  14  15
ATOM     15  C   UNL     1     161.072 169.036 184.363  1.00  0.00    -0.003 C 
ATOM     16  C   UNL     1     162.165 170.101 184.355  1.00  0.00     0.004 C 
ENDBRANCH  14  15
ENDBRANCH  13  14
ENDBRANCH  12  13
ENDBRANCH  11  12
ENDBRANCH  10  11
ENDBRANCH   9  10
ENDBRANCH   8   9
ENDBRANCH   7   8
ENDBRANCH   6   7
ENDBRANCH   5   6
ENDBRANCH   4   5
ENDBRANCH   3   4
ENDBRANCH   2   3
ENDBRANCH   1   2
BRANCH   1  17
ATOM     17  C   UNL     1     163.913 161.593 182.587  1.00  0.00     0.000 C 
BRANCH  17  18
ATOM     18  C   UNL     1     164.697 160.550 181.766  1.00  0.00     0.000 C 
BRANCH  18  19
ATOM     19  C   UNL     1     165.053 161.010 180.336  1.00  0.00     0.000 C 
BRANCH  19  20
ATOM     20  C   UNL     1     166.424 161.708 180.269  1.00  0.00     0.000 C 
BRANCH  20  21
ATOM     21  C   UNL     1     167.587 160.747 180.588  1.00  0.00     0.000 C 
BRANCH  21  22
ATOM     22  C   UNL     1     168.708 161.392 181.419  1.00  0.00     0.000 C 
BRANCH  22  23
ATOM     23  C   UNL     1     168.969 160.658 182.741  1.00  0.00     0.000 C 
BRANCH  23  24
ATOM     24  C   UNL     1     167.649 160.293 183.436  1.00  0.00     0.000 C 
BRANCH  24  25
ATOM     25  C   UNL     1     167.319 161.198 184.639  1.00  0.00     0.000 C 
BRANCH  25  26
ATOM     26  C   UNL     1     167.583 162.705 184.433  1.00  0.00     0.000 C 
BRANCH  26  27
ATOM     27  C   UNL     1     166.372 163.504 183.900  1.00  0.00     0.002 C 
BRANCH  27  28
ATOM     28  C   UNL     1     166.737 164.554 182.834  1.00  0.00     0.028 C 
BRANCH  28  29
ATOM     29  C   UNL     1     165.536 165.073 182.033  1.00  0.00     0.156 C 
BRANCH  29  30
ATOM     30  O   UNL     1     164.685 165.848 182.838  1.00  0.00    -0.396 OA
ATOM     31  H   UNL     1     163.823 165.359 182.888  1.00  0.00     0.210 HD
ENDBRANCH  29  30
ENDBRANCH  28  29
ENDBRANCH  27  28
ENDBRANCH  26  27
ENDBRANCH  25  26
ENDBRANCH  24  25
ENDBRANCH  23  24
ENDBRANCH  22  23
ENDBRANCH  21  22
ENDBRANCH  20  21
ENDBRANCH  19  20
ENDBRANCH  18  19
ENDBRANCH  17  18
ENDBRANCH   1  17
TORSDOF 28
ENDMDL
MODEL 3
REMARK VINA RESULT:    -3.607      2.141      5.390
REMARK INTER + INTRA:         -14.809
REMARK INTER:                  -9.978
REMARK INTRA:                  -4.831
REMARK UNBOUND:                -5.404
REMARK SMILES CCCCCCCCCCCCCCCCCCCCCCCCCCCCCO
REMARK SMILES IDX 16 1 15 2 14 3 13 4 12 5 11 6 10 7 9 8 8 9 7 10 6 11 5 12
REMARK SMILES IDX 4 13 3 14 2 15 1 16 17 17 18 18 19 19 20 20 21 21 22 22
REMARK SMILES IDX 23 23 24 24 25 25 26 26 27 27 28 28 29 29 30 30
REMARK H PARENT 30 31
REMARK Flexibility Score: inf
ROOT
ATOM      1  C   UNL     1     163.922 162.131 182.744  1.00  0.00     0.000 C 
ENDROOT
BRANCH   1   2
ATOM      2  C   UNL     1     163.784 160.599 182.697  1.00  0.00     0.000 C 
BRANCH   2   3
ATOM      3  C   UNL     1     165.034 159.875 183.230  1.00  0.00     0.000 C 
BRANCH   3   4
ATOM      4  C   UNL     1     166.154 160.802 183.738  1.00  0.00     0.000 C 
BRANCH   4   5
ATOM      5  C   UNL     1     167.495 160.558 183.031  1.00  0.00     0.000 C 
BRANCH   5   6
ATOM      6  C   UNL     1     167.939 161.806 182.254  1.00  0.00     0.000 C 
BRANCH   6   7
ATOM      7  C   UNL     1     168.149 161.529 180.757  1.00  0.00     0.000 C 
BRANCH   7   8
ATOM      8  C   UNL     1     167.055 160.623 180.165  1.00  0.00    -0.000 C 
BRANCH   8   9
ATOM      9  C   UNL     1     165.956 161.415 179.432  1.00  0.00    -0.000 C 
BRANCH   9  10
ATOM     10  C   UNL     1     164.622 160.665 179.248  1.00  0.00    -0.000 C 
BRANCH  10  11
ATOM     11  C   UNL     1     164.309 160.221 177.805  1.00  0.00    -0.000 C 
BRANCH  11  12
ATOM     12  C   UNL     1     164.227 161.366 176.781  1.00  0.00    -0.000 C 
BRANCH  12  13
ATOM     13  C   UNL     1     164.552 160.907 175.348  1.00  0.00    -0.000 C 
BRANCH  13  14
ATOM     14  C   UNL     1     163.289 160.627 174.519  1.00  0.00    -0.000 C 
BRANCH  14  15
ATOM     15  C   UNL     1     162.187 161.671 174.753  1.00  0.00    -0.003 C 
ATOM     16  C   UNL     1     160.878 161.240 174.098  1.00  0.00     0.004 C 
ENDBRANCH  14  15
ENDBRANCH  13  14
ENDBRANCH  12  13
ENDBRANCH  11  12
ENDBRANCH  10  11
ENDBRANCH   9  10
ENDBRANCH   8   9
ENDBRANCH   7   8
ENDBRANCH   6   7
ENDBRANCH   5   6
ENDBRANCH   4   5
ENDBRANCH   3   4
ENDBRANCH   2   3
ENDBRANCH   1   2
BRANCH   1  17
ATOM     17  C   UNL     1     162.613 162.839 183.132  1.00  0.00     0.000 C 
BRANCH  17  18
ATOM     18  C   UNL     1     161.458 161.908 183.551  1.00  0.00     0.000 C 
BRANCH  18  19
ATOM     19  C   UNL     1     160.299 161.843 182.534  1.00  0.00     0.000 C 
BRANCH  19  20
ATOM     20  C   UNL     1     159.875 160.396 182.221  1.00  0.00     0.000 C 
BRANCH  20  21
ATOM     21  C   UNL     1     160.030 160.052 180.725  1.00  0.00     0.000 C 
BRANCH  21  22
ATOM     22  C   UNL     1     161.146 160.846 180.024  1.00  0.00     0.000 C 
BRANCH  22  23
ATOM     23  C   UNL     1     160.662 161.558 178.753  1.00  0.00     0.000 C 
BRANCH  23  24
ATOM     24  C   UNL     1     161.486 162.826 178.487  1.00  0.00     0.000 C 
BRANCH  24  25
ATOM     25  C   UNL     1     161.880 163.581 179.771  1.00  0.00     0.000 C 
BRANCH  25  26
ATOM     26  C   UNL     1     160.956 164.753 180.166  1.00  0.00     0.000 C 
BRANCH  26  27
ATOM     27  C   UNL     1     161.678 166.107 180.361  1.00  0.00     0.002 C 
BRANCH  27  28
ATOM     28  C   UNL     1     163.142 165.974 180.819  1.00  0.00     0.028 C 
BRANCH  28  29
ATOM     29  C   UNL     1     163.361 166.280 182.305  1.00  0.00     0.156 C 
BRANCH  29  30
ATOM     30  O   UNL     1     164.600 166.909 182.518  1.00  0.00    -0.396 OA
ATOM     31  H   UNL     1     164.610 167.714 181.938  1.00  0.00     0.210 HD
ENDBRANCH  29  30
ENDBRANCH  28  29
ENDBRANCH  27  28
ENDBRANCH  26  27
ENDBRANCH  25  26
ENDBRANCH  24  25
ENDBRANCH  23  24
ENDBRANCH  22  23
ENDBRANCH  21  22
ENDBRANCH  20  21
ENDBRANCH  19  20
ENDBRANCH  18  19
ENDBRANCH  17  18
ENDBRANCH   1  17
TORSDOF 28
ENDMDL
MODEL 4
REMARK VINA RESULT:    -3.552      1.798      3.599
REMARK INTER + INTRA:         -14.666
REMARK INTER:                  -9.500
REMARK INTRA:                  -5.166
REMARK UNBOUND:                -5.404
REMARK SMILES CCCCCCCCCCCCCCCCCCCCCCCCCCCCCO
REMARK SMILES IDX 16 1 15 2 14 3 13 4 12 5 11 6 10 7 9 8 8 9 7 10 6 11 5 12
REMARK SMILES IDX 4 13 3 14 2 15 1 16 17 17 18 18 19 19 20 20 21 21 22 22
REMARK SMILES IDX 23 23 24 24 25 25 26 26 27 27 28 28 29 29 30 30
REMARK H PARENT 30 31
REMARK Flexibility Score: inf
ROOT
ATOM      1  C   UNL     1     163.558 160.733 182.564  1.00  0.00     0.000 C 
ENDROOT
BRANCH   1   2
ATOM      2  C   UNL     1     164.932 160.536 183.228  1.00  0.00     0.000 C 
BRANCH   2   3
ATOM      3  C   UNL     1     165.600 161.869 183.614  1.00  0.00     0.000 C 
BRANCH   3   4
ATOM      4  C   UNL     1     167.098 161.769 183.955  1.00  0.00     0.000 C 
BRANCH   4   5
ATOM      5  C   UNL     1     167.649 160.343 183.809  1.00  0.00     0.000 C 
BRANCH   5   6
ATOM      6  C   UNL     1     168.838 160.312 182.838  1.00  0.00     0.000 C 
BRANCH   6   7
ATOM      7  C   UNL     1     168.560 161.076 181.534  1.00  0.00     0.000 C 
BRANCH   7   8
ATOM      8  C   UNL     1     167.625 160.305 180.586  1.00  0.00    -0.000 C 
BRANCH   8   9
ATOM      9  C   UNL     1     166.695 161.232 179.782  1.00  0.00    -0.000 C 
BRANCH   9  10
ATOM     10  C   UNL     1     166.542 162.658 180.348  1.00  0.00    -0.000 C 
BRANCH  10  11
ATOM     11  C   UNL     1     165.307 163.435 179.851  1.00  0.00    -0.000 C 
BRANCH  11  12
ATOM     12  C   UNL     1     165.000 164.726 180.629  1.00  0.00    -0.000 C 
BRANCH  12  13
ATOM     13  C   UNL     1     163.494 164.928 180.878  1.00  0.00    -0.000 C 
BRANCH  13  14
ATOM     14  C   UNL     1     162.709 165.157 179.577  1.00  0.00    -0.000 C 
BRANCH  14  15
ATOM     15  C   UNL     1     161.258 165.590 179.833  1.00  0.00    -0.003 C 
ATOM     16  C   UNL     1     160.674 164.864 181.041  1.00  0.00     0.004 C 
ENDBRANCH  14  15
ENDBRANCH  13  14
ENDBRANCH  12  13
ENDBRANCH  11  12
ENDBRANCH  10  11
ENDBRANCH   9  10
ENDBRANCH   8   9
ENDBRANCH   7   8
ENDBRANCH   6   7
ENDBRANCH   5   6
ENDBRANCH   4   5
ENDBRANCH   3   4
ENDBRANCH   2   3
ENDBRANCH   1   2
BRANCH   1  17
ATOM     17  C   UNL     1     162.959 162.125 182.827  1.00  0.00     0.000 C 
BRANCH  17  18
ATOM     18  C   UNL     1     161.594 162.131 183.544  1.00  0.00     0.000 C 
BRANCH  18  19
ATOM     19  C   UNL     1     160.625 161.028 183.069  1.00  0.00     0.000 C 
BRANCH  19  20
ATOM     20  C   UNL     1     159.909 161.402 181.758  1.00  0.00     0.000 C 
BRANCH  20  21
ATOM     21  C   UNL     1     160.205 160.401 180.623  1.00  0.00     0.000 C 
BRANCH  21  22
ATOM     22  C   UNL     1     160.479 161.073 179.267  1.00  0.00     0.000 C 
BRANCH  22  23
ATOM     23  C   UNL     1     161.873 161.709 179.187  1.00  0.00     0.000 C 
BRANCH  23  24
ATOM     24  C   UNL     1     162.971 160.640 179.269  1.00  0.00     0.000 C 
BRANCH  24  25
ATOM     25  C   UNL     1     163.784 160.495 177.967  1.00  0.00     0.000 C 
BRANCH  25  26
ATOM     26  C   UNL     1     163.906 161.774 177.111  1.00  0.00     0.000 C 
BRANCH  26  27
ATOM     27  C   UNL     1     164.058 161.522 175.593  1.00  0.00     0.002 C 
BRANCH  27  28
ATOM     28  C   UNL     1     164.591 160.121 175.242  1.00  0.00     0.028 C 
BRANCH  28  29
ATOM     29  C   UNL     1     165.752 160.128 174.240  1.00  0.00     0.156 C 
BRANCH  29  30
ATOM     30  O   UNL     1     166.985 160.293 174.893  1.00  0.00    -0.396 OA
ATOM     31  H   UNL     1     167.667 160.410 174.182  1.00  0.00     0.210 HD
ENDBRANCH  29  30
ENDBRANCH  28  29
ENDBRANCH  27  28
ENDBRANCH  26  27
ENDBRANCH  25  26
ENDBRANCH  24  25
ENDBRANCH  23  24
ENDBRANCH  22  23
ENDBRANCH  21  22
ENDBRANCH  20  21
ENDBRANCH  19  20
ENDBRANCH  18  19
ENDBRANCH  17  18
ENDBRANCH   1  17
TORSDOF 28
ENDMDL
MODEL 5
REMARK VINA RESULT:    -3.547      9.668     13.147
REMARK INTER + INTRA:         -14.652
REMARK INTER:                  -9.045
REMARK INTRA:                  -5.608
REMARK UNBOUND:                -5.404
REMARK SMILES CCCCCCCCCCCCCCCCCCCCCCCCCCCCCO
REMARK SMILES IDX 16 1 15 2 14 3 13 4 12 5 11 6 10 7 9 8 8 9 7 10 6 11 5 12
REMARK SMILES IDX 4 13 3 14 2 15 1 16 17 17 18 18 19 19 20 20 21 21 22 22
REMARK SMILES IDX 23 23 24 24 25 25 26 26 27 27 28 28 29 29 30 30
REMARK H PARENT 30 31
REMARK Flexibility Score: inf
ROOT
ATOM      1  C   UNL     1     174.661 164.507 178.436  1.00  0.00     0.000 C 
ENDROOT
BRANCH   1   2
ATOM      2  C   UNL     1     174.506 164.322 179.956  1.00  0.00     0.000 C 
BRANCH   2   3
ATOM      3  C   UNL     1     173.105 163.823 180.352  1.00  0.00     0.000 C 
BRANCH   3   4
ATOM      4  C   UNL     1     172.913 163.552 181.856  1.00  0.00     0.000 C 
BRANCH   4   5
ATOM      5  C   UNL     1     172.026 162.330 182.132  1.00  0.00     0.000 C 
BRANCH   5   6
ATOM      6  C   UNL     1     172.880 161.077 182.379  1.00  0.00     0.000 C 
BRANCH   6   7
ATOM      7  C   UNL     1     174.021 161.324 183.379  1.00  0.00     0.000 C 
BRANCH   7   8
ATOM      8  C   UNL     1     175.377 160.812 182.864  1.00  0.00    -0.000 C 
BRANCH   8   9
ATOM      9  C   UNL     1     176.316 161.951 182.424  1.00  0.00    -0.000 C 
BRANCH   9  10
ATOM     10  C   UNL     1     177.505 162.220 183.367  1.00  0.00    -0.000 C 
BRANCH  10  11
ATOM     11  C   UNL     1     177.544 163.629 183.992  1.00  0.00    -0.000 C 
BRANCH  11  12
ATOM     12  C   UNL     1     176.257 164.452 183.810  1.00  0.00    -0.000 C 
BRANCH  12  13
ATOM     13  C   UNL     1     176.442 165.639 182.848  1.00  0.00    -0.000 C 
BRANCH  13  14
ATOM     14  C   UNL     1     177.863 165.711 182.268  1.00  0.00    -0.000 C 
BRANCH  14  15
ATOM     15  C   UNL     1     177.876 165.681 180.733  1.00  0.00    -0.003 C 
ATOM     16  C   UNL     1     177.946 167.092 180.158  1.00  0.00     0.004 C 
ENDBRANCH  14  15
ENDBRANCH  13  14
ENDBRANCH  12  13
ENDBRANCH  11  12
ENDBRANCH  10  11
ENDBRANCH   9  10
ENDBRANCH   8   9
ENDBRANCH   7   8
ENDBRANCH   6   7
ENDBRANCH   5   6
ENDBRANCH   4   5
ENDBRANCH   3   4
ENDBRANCH   2   3
ENDBRANCH   1   2
BRANCH   1  17
ATOM     17  C   UNL     1     175.883 163.771 177.863  1.00  0.00     0.000 C 
BRANCH  17  18
ATOM     18  C   UNL     1     176.551 162.759 178.817  1.00  0.00     0.000 C 
BRANCH  18  19
ATOM     19  C   UNL     1     176.622 161.321 178.261  1.00  0.00     0.000 C 
BRANCH  19  20
ATOM     20  C   UNL     1     175.878 160.310 179.153  1.00  0.00     0.000 C 
BRANCH  20  21
ATOM     21  C   UNL     1     174.367 160.605 179.237  1.00  0.00     0.000 C 
BRANCH  21  22
ATOM     22  C   UNL     1     173.592 160.212 177.968  1.00  0.00     0.000 C 
BRANCH  22  23
ATOM     23  C   UNL     1     173.039 161.425 177.207  1.00  0.00     0.000 C 
BRANCH  23  24
ATOM     24  C   UNL     1     173.621 161.495 175.788  1.00  0.00     0.000 C 
BRANCH  24  25
ATOM     25  C   UNL     1     174.450 160.255 175.404  1.00  0.00     0.000 C 
BRANCH  25  26
ATOM     26  C   UNL     1     175.467 160.459 174.260  1.00  0.00     0.000 C 
BRANCH  26  27
ATOM     27  C   UNL     1     176.737 161.246 174.659  1.00  0.00     0.002 C 
BRANCH  27  28
ATOM     28  C   UNL     1     177.242 162.211 173.571  1.00  0.00     0.028 C 
BRANCH  28  29
ATOM     29  C   UNL     1     177.977 161.520 172.417  1.00  0.00     0.156 C 
BRANCH  29  30
ATOM     30  O   UNL     1     178.663 160.378 172.862  1.00  0.00    -0.396 OA
ATOM     31  H   UNL     1     179.626 160.617 172.881  1.00  0.00     0.210 HD
ENDBRANCH  29  30
ENDBRANCH  28  29
ENDBRANCH  27  28
ENDBRANCH  26  27
ENDBRANCH  25  26
ENDBRANCH  24  25
ENDBRANCH  23  24
ENDBRANCH  22  23
ENDBRANCH  21  22
ENDBRANCH  20  21
ENDBRANCH  19  20
ENDBRANCH  18  19
ENDBRANCH  17  18
ENDBRANCH   1  17
TORSDOF 28
ENDMDL
MODEL 6
REMARK VINA RESULT:    -3.542      1.424      5.267
REMARK INTER + INTRA:         -14.642
REMARK INTER:                  -8.773
REMARK INTRA:                  -5.869
REMARK UNBOUND:                -5.404
REMARK SMILES CCCCCCCCCCCCCCCCCCCCCCCCCCCCCO
REMARK SMILES IDX 16 1 15 2 14 3 13 4 12 5 11 6 10 7 9 8 8 9 7 10 6 11 5 12
REMARK SMILES IDX 4 13 3 14 2 15 1 16 17 17 18 18 19 19 20 20 21 21 22 22
REMARK SMILES IDX 23 23 24 24 25 25 26 26 27 27 28 28 29 29 30 30
REMARK H PARENT 30 31
REMARK Flexibility Score: inf
ROOT
ATOM      1  C   UNL     1     167.505 161.575 180.661  1.00  0.00     0.000 C 
ENDROOT
BRANCH   1   2
ATOM      2  C   UNL     1     166.701 161.241 179.392  1.00  0.00     0.000 C 
BRANCH   2   3
ATOM      3  C   UNL     1     165.275 160.751 179.706  1.00  0.00     0.000 C 
BRANCH   3   4
ATOM      4  C   UNL     1     164.645 161.357 180.973  1.00  0.00     0.000 C 
BRANCH   4   5
ATOM      5  C   UNL     1     163.953 160.306 181.854  1.00  0.00     0.000 C 
BRANCH   5   6
ATOM      6  C   UNL     1     163.571 160.900 183.218  1.00  0.00     0.000 C 
BRANCH   6   7
ATOM      7  C   UNL     1     162.700 162.160 183.093  1.00  0.00     0.000 C 
BRANCH   7   8
ATOM      8  C   UNL     1     161.261 161.933 183.587  1.00  0.00    -0.000 C 
BRANCH   8   9
ATOM      9  C   UNL     1     160.228 161.949 182.444  1.00  0.00    -0.000 C 
BRANCH   9  10
ATOM     10  C   UNL     1     160.232 163.224 181.577  1.00  0.00    -0.000 C 
BRANCH  10  11
ATOM     11  C   UNL     1     160.652 163.020 180.108  1.00  0.00    -0.000 C 
BRANCH  11  12
ATOM     12  C   UNL     1     160.975 161.566 179.724  1.00  0.00    -0.000 C 
BRANCH  12  13
ATOM     13  C   UNL     1     161.931 161.466 178.522  1.00  0.00    -0.000 C 
BRANCH  13  14
ATOM     14  C   UNL     1     161.711 162.593 177.500  1.00  0.00    -0.000 C 
BRANCH  14  15
ATOM     15  C   UNL     1     162.987 162.939 176.720  1.00  0.00    -0.003 C 
ATOM     16  C   UNL     1     164.018 163.609 177.624  1.00  0.00     0.004 C 
ENDBRANCH  14  15
ENDBRANCH  13  14
ENDBRANCH  12  13
ENDBRANCH  11  12
ENDBRANCH  10  11
ENDBRANCH   9  10
ENDBRANCH   8   9
ENDBRANCH   7   8
ENDBRANCH   6   7
ENDBRANCH   5   6
ENDBRANCH   4   5
ENDBRANCH   3   4
ENDBRANCH   2   3
ENDBRANCH   1   2
BRANCH   1  17
ATOM     17  C   UNL     1     168.160 160.338 181.299  1.00  0.00     0.000 C 
BRANCH  17  18
ATOM     18  C   UNL     1     168.455 160.451 182.808  1.00  0.00     0.000 C 
BRANCH  18  19
ATOM     19  C   UNL     1     167.206 160.700 183.679  1.00  0.00     0.000 C 
BRANCH  19  20
ATOM     20  C   UNL     1     167.271 162.044 184.428  1.00  0.00     0.000 C 
BRANCH  20  21
ATOM     21  C   UNL     1     166.300 163.089 183.841  1.00  0.00     0.000 C 
BRANCH  21  22
ATOM     22  C   UNL     1     167.003 164.209 183.056  1.00  0.00     0.000 C 
BRANCH  22  23
ATOM     23  C   UNL     1     166.024 165.251 182.499  1.00  0.00     0.000 C 
BRANCH  23  24
ATOM     24  C   UNL     1     165.435 164.791 181.158  1.00  0.00     0.000 C 
BRANCH  24  25
ATOM     25  C   UNL     1     163.910 164.988 181.058  1.00  0.00     0.000 C 
BRANCH  25  26
ATOM     26  C   UNL     1     163.243 165.665 182.274  1.00  0.00     0.000 C 
BRANCH  26  27
ATOM     27  C   UNL     1     161.912 166.386 181.962  1.00  0.00     0.002 C 
BRANCH  27  28
ATOM     28  C   UNL     1     162.071 167.640 181.082  1.00  0.00     0.028 C 
BRANCH  28  29
ATOM     29  C   UNL     1     161.094 167.702 179.902  1.00  0.00     0.156 C 
BRANCH  29  30
ATOM     30  O   UNL     1     160.682 166.415 179.516  1.00  0.00    -0.396 OA
ATOM     31  H   UNL     1     159.741 166.318 179.818  1.00  0.00     0.210 HD
ENDBRANCH  29  30
ENDBRANCH  28  29
ENDBRANCH  27  28
ENDBRANCH  26  27
ENDBRANCH  25  26
ENDBRANCH  24  25
ENDBRANCH  23  24
ENDBRANCH  22  23
ENDBRANCH  21  22
ENDBRANCH  20  21
ENDBRANCH  19  20
ENDBRANCH  18  19
ENDBRANCH  17  18
ENDBRANCH   1  17
TORSDOF 28
ENDMDL
MODEL 7
REMARK VINA RESULT:    -3.539      2.475      6.594
REMARK INTER + INTRA:         -14.633
REMARK INTER:                  -9.836
REMARK INTRA:                  -4.797
REMARK UNBOUND:                -5.404
REMARK SMILES CCCCCCCCCCCCCCCCCCCCCCCCCCCCCO
REMARK SMILES IDX 16 1 15 2 14 3 13 4 12 5 11 6 10 7 9 8 8 9 7 10 6 11 5 12
REMARK SMILES IDX 4 13 3 14 2 15 1 16 17 17 18 18 19 19 20 20 21 21 22 22
REMARK SMILES IDX 23 23 24 24 25 25 26 26 27 27 28 28 29 29 30 30
REMARK H PARENT 30 31
REMARK Flexibility Score: inf
ROOT
ATOM      1  C   UNL     1     162.733 161.827 179.542  1.00  0.00     0.000 C 
ENDROOT
BRANCH   1   2
ATOM      2  C   UNL     1     161.748 162.749 178.803  1.00  0.00     0.000 C 
BRANCH   2   3
ATOM      3  C   UNL     1     162.424 164.016 178.247  1.00  0.00     0.000 C 
BRANCH   3   4
ATOM      4  C   UNL     1     163.840 164.286 178.789  1.00  0.00     0.000 C 
BRANCH   4   5
ATOM      5  C   UNL     1     163.946 165.623 179.536  1.00  0.00     0.000 C 
BRANCH   5   6
ATOM      6  C   UNL     1     164.472 165.413 180.963  1.00  0.00     0.000 C 
BRANCH   6   7
ATOM      7  C   UNL     1     164.486 163.933 181.379  1.00  0.00     0.000 C 
BRANCH   7   8
ATOM      8  C   UNL     1     164.398 163.748 182.903  1.00  0.00    -0.000 C 
BRANCH   8   9
ATOM      9  C   UNL     1     165.245 162.566 183.410  1.00  0.00    -0.000 C 
BRANCH   9  10
ATOM     10  C   UNL     1     164.661 161.169 183.119  1.00  0.00    -0.000 C 
BRANCH  10  11
ATOM     11  C   UNL     1     165.693 160.028 183.033  1.00  0.00    -0.000 C 
BRANCH  11  12
ATOM     12  C   UNL     1     166.899 160.315 182.121  1.00  0.00    -0.000 C 
BRANCH  12  13
ATOM     13  C   UNL     1     168.227 160.390 182.896  1.00  0.00    -0.000 C 
BRANCH  13  14
ATOM     14  C   UNL     1     169.203 161.411 182.291  1.00  0.00    -0.000 C 
BRANCH  14  15
ATOM     15  C   UNL     1     168.897 162.851 182.731  1.00  0.00    -0.003 C 
ATOM     16  C   UNL     1     168.300 163.659 181.583  1.00  0.00     0.004 C 
ENDBRANCH  14  15
ENDBRANCH  13  14
ENDBRANCH  12  13
ENDBRANCH  11  12
ENDBRANCH  10  11
ENDBRANCH   9  10
ENDBRANCH   8   9
ENDBRANCH   7   8
ENDBRANCH   6   7
ENDBRANCH   5   6
ENDBRANCH   4   5
ENDBRANCH   3   4
ENDBRANCH   2   3
ENDBRANCH   1   2
BRANCH   1  17
ATOM     17  C   UNL     1     162.042 160.632 180.220  1.00  0.00     0.000 C 
BRANCH  17  18
ATOM     18  C   UNL     1     160.504 160.715 180.297  1.00  0.00     0.000 C 
BRANCH  18  19
ATOM     19  C   UNL     1     159.948 160.810 181.733  1.00  0.00     0.000 C 
BRANCH  19  20
ATOM     20  C   UNL     1     161.059 161.006 182.781  1.00  0.00     0.000 C 
BRANCH  20  21
ATOM     21  C   UNL     1     160.969 162.378 183.481  1.00  0.00     0.000 C 
BRANCH  21  22
ATOM     22  C   UNL     1     160.212 163.437 182.662  1.00  0.00     0.000 C 
BRANCH  22  23
ATOM     23  C   UNL     1     161.118 164.580 182.185  1.00  0.00     0.000 C 
BRANCH  23  24
ATOM     24  C   UNL     1     160.445 165.382 181.061  1.00  0.00     0.000 C 
BRANCH  24  25
ATOM     25  C   UNL     1     160.617 166.906 181.209  1.00  0.00     0.000 C 
BRANCH  25  26
ATOM     26  C   UNL     1     161.247 167.382 182.535  1.00  0.00     0.000 C 
BRANCH  26  27
ATOM     27  C   UNL     1     160.288 168.165 183.461  1.00  0.00     0.002 C 
BRANCH  27  28
ATOM     28  C   UNL     1     160.901 169.445 184.058  1.00  0.00     0.028 C 
BRANCH  28  29
ATOM     29  C   UNL     1     162.395 169.328 184.384  1.00  0.00     0.156 C 
BRANCH  29  30
ATOM     30  O   UNL     1     162.923 170.563 184.796  1.00  0.00    -0.396 OA
ATOM     31  H   UNL     1     163.876 170.402 185.020  1.00  0.00     0.210 HD
ENDBRANCH  29  30
ENDBRANCH  28  29
ENDBRANCH  27  28
ENDBRANCH  26  27
ENDBRANCH  25  26
ENDBRANCH  24  25
ENDBRANCH  23  24
ENDBRANCH  22  23
ENDBRANCH  21  22
ENDBRANCH  20  21
ENDBRANCH  19  20
ENDBRANCH  18  19
ENDBRANCH  17  18
ENDBRANCH   1  17
TORSDOF 28
ENDMDL
MODEL 8
REMARK VINA RESULT:    -3.505      1.548      2.677
REMARK INTER + INTRA:         -14.544
REMARK INTER:                  -9.172
REMARK INTRA:                  -5.372
REMARK UNBOUND:                -5.404
REMARK SMILES CCCCCCCCCCCCCCCCCCCCCCCCCCCCCO
REMARK SMILES IDX 16 1 15 2 14 3 13 4 12 5 11 6 10 7 9 8 8 9 7 10 6 11 5 12
REMARK SMILES IDX 4 13 3 14 2 15 1 16 17 17 18 18 19 19 20 20 21 21 22 22
REMARK SMILES IDX 23 23 24 24 25 25 26 26 27 27 28 28 29 29 30 30
REMARK H PARENT 30 31
REMARK Flexibility Score: inf
ROOT
ATOM      1  C   UNL     1     165.480 162.777 183.554  1.00  0.00     0.000 C 
ENDROOT
BRANCH   1   2
ATOM      2  C   UNL     1     166.905 162.323 183.915  1.00  0.00     0.000 C 
BRANCH   2   3
ATOM      3  C   UNL     1     167.062 160.791 183.897  1.00  0.00     0.000 C 
BRANCH   3   4
ATOM      4  C   UNL     1     168.345 160.278 183.218  1.00  0.00     0.000 C 
BRANCH   4   5
ATOM      5  C   UNL     1     168.496 160.779 181.775  1.00  0.00     0.000 C 
BRANCH   5   6
ATOM      6  C   UNL     1     167.386 160.210 180.878  1.00  0.00     0.000 C 
BRANCH   6   7
ATOM      7  C   UNL     1     167.118 161.081 179.641  1.00  0.00     0.000 C 
BRANCH   7   8
ATOM      8  C   UNL     1     167.230 162.585 179.943  1.00  0.00    -0.000 C 
BRANCH   8   9
ATOM      9  C   UNL     1     165.906 163.339 179.718  1.00  0.00    -0.000 C 
BRANCH   9  10
ATOM     10  C   UNL     1     165.881 164.788 180.243  1.00  0.00    -0.000 C 
BRANCH  10  11
ATOM     11  C   UNL     1     164.588 165.202 180.975  1.00  0.00    -0.000 C 
BRANCH  11  12
ATOM     12  C   UNL     1     163.319 164.467 180.509  1.00  0.00    -0.000 C 
BRANCH  12  13
ATOM     13  C   UNL     1     162.234 165.425 179.988  1.00  0.00    -0.000 C 
BRANCH  13  14
ATOM     14  C   UNL     1     160.984 165.439 180.882  1.00  0.00    -0.000 C 
BRANCH  14  15
ATOM     15  C   UNL     1     160.396 166.848 181.052  1.00  0.00    -0.003 C 
ATOM     16  C   UNL     1     160.543 167.332 182.491  1.00  0.00     0.004 C 
ENDBRANCH  14  15
ENDBRANCH  13  14
ENDBRANCH  12  13
ENDBRANCH  11  12
ENDBRANCH  10  11
ENDBRANCH   9  10
ENDBRANCH   8   9
ENDBRANCH   7   8
ENDBRANCH   6   7
ENDBRANCH   5   6
ENDBRANCH   4   5
ENDBRANCH   3   4
ENDBRANCH   2   3
ENDBRANCH   1   2
BRANCH   1  17
ATOM     17  C   UNL     1     164.696 161.716 182.763  1.00  0.00     0.000 C 
BRANCH  17  18
ATOM     18  C   UNL     1     163.245 161.482 183.231  1.00  0.00     0.000 C 
BRANCH  18  19
ATOM     19  C   UNL     1     162.446 162.778 183.482  1.00  0.00     0.000 C 
BRANCH  19  20
ATOM     20  C   UNL     1     160.969 162.645 183.067  1.00  0.00     0.000 C 
BRANCH  20  21
ATOM     21  C   UNL     1     160.497 161.176 183.046  1.00  0.00     0.000 C 
BRANCH  21  22
ATOM     22  C   UNL     1     159.875 160.750 181.706  1.00  0.00     0.000 C 
BRANCH  22  23
ATOM     23  C   UNL     1     160.665 161.260 180.493  1.00  0.00     0.000 C 
BRANCH  23  24
ATOM     24  C   UNL     1     161.806 160.298 180.135  1.00  0.00     0.000 C 
BRANCH  24  25
ATOM     25  C   UNL     1     163.045 161.006 179.553  1.00  0.00     0.000 C 
BRANCH  25  26
ATOM     26  C   UNL     1     163.648 160.363 178.286  1.00  0.00     0.000 C 
BRANCH  26  27
ATOM     27  C   UNL     1     164.169 161.371 177.236  1.00  0.00     0.002 C 
BRANCH  27  28
ATOM     28  C   UNL     1     165.315 160.829 176.363  1.00  0.00     0.028 C 
BRANCH  28  29
ATOM     29  C   UNL     1     166.402 161.863 176.047  1.00  0.00     0.156 C 
BRANCH  29  30
ATOM     30  O   UNL     1     167.403 161.314 175.228  1.00  0.00    -0.396 OA
ATOM     31  H   UNL     1     168.127 161.008 175.833  1.00  0.00     0.210 HD
ENDBRANCH  29  30
ENDBRANCH  28  29
ENDBRANCH  27  28
ENDBRANCH  26  27
ENDBRANCH  25  26
ENDBRANCH  24  25
ENDBRANCH  23  24
ENDBRANCH  22  23
ENDBRANCH  21  22
ENDBRANCH  20  21
ENDBRANCH  19  20
ENDBRANCH  18  19
ENDBRANCH  17  18
ENDBRANCH   1  17
TORSDOF 28
ENDMDL
MODEL 9
REMARK VINA RESULT:    -3.501      1.714      3.387
REMARK INTER + INTRA:         -14.533
REMARK INTER:                  -9.180
REMARK INTRA:                  -5.352
REMARK UNBOUND:                -5.404
REMARK SMILES CCCCCCCCCCCCCCCCCCCCCCCCCCCCCO
REMARK SMILES IDX 16 1 15 2 14 3 13 4 12 5 11 6 10 7 9 8 8 9 7 10 6 11 5 12
REMARK SMILES IDX 4 13 3 14 2 15 1 16 17 17 18 18 19 19 20 20 21 21 22 22
REMARK SMILES IDX 23 23 24 24 25 25 26 26 27 27 28 28 29 29 30 30
REMARK H PARENT 30 31
REMARK Flexibility Score: inf
ROOT
ATOM      1  C   UNL     1     163.956 160.947 180.768  1.00  0.00     0.000 C 
ENDROOT
BRANCH   1   2
ATOM      2  C   UNL     1     165.359 160.528 180.296  1.00  0.00     0.000 C 
BRANCH   2   3
ATOM      3  C   UNL     1     166.245 160.021 181.449  1.00  0.00     0.000 C 
BRANCH   3   4
ATOM      4  C   UNL     1     167.709 160.497 181.401  1.00  0.00     0.000 C 
BRANCH   4   5
ATOM      5  C   UNL     1     168.397 160.443 182.772  1.00  0.00     0.000 C 
BRANCH   5   6
ATOM      6  C   UNL     1     167.361 160.383 183.904  1.00  0.00     0.000 C 
BRANCH   6   7
ATOM      7  C   UNL     1     167.409 161.616 184.819  1.00  0.00     0.000 C 
BRANCH   7   8
ATOM      8  C   UNL     1     166.547 162.776 184.292  1.00  0.00    -0.000 C 
BRANCH   8   9
ATOM      9  C   UNL     1     167.389 163.944 183.743  1.00  0.00    -0.000 C 
BRANCH   9  10
ATOM     10  C   UNL     1     166.716 164.769 182.629  1.00  0.00    -0.000 C 
BRANCH  10  11
ATOM     11  C   UNL     1     166.013 163.945 181.532  1.00  0.00    -0.000 C 
BRANCH  11  12
ATOM     12  C   UNL     1     166.274 164.428 180.094  1.00  0.00    -0.000 C 
BRANCH  12  13
ATOM     13  C   UNL     1     165.097 164.137 179.146  1.00  0.00    -0.000 C 
BRANCH  13  14
ATOM     14  C   UNL     1     163.733 164.396 179.805  1.00  0.00    -0.000 C 
BRANCH  14  15
ATOM     15  C   UNL     1     163.427 165.893 179.957  1.00  0.00    -0.003 C 
ATOM     16  C   UNL     1     162.653 166.166 181.243  1.00  0.00     0.004 C 
ENDBRANCH  14  15
ENDBRANCH  13  14
ENDBRANCH  12  13
ENDBRANCH  11  12
ENDBRANCH  10  11
ENDBRANCH   9  10
ENDBRANCH   8   9
ENDBRANCH   7   8
ENDBRANCH   6   7
ENDBRANCH   5   6
ENDBRANCH   4   5
ENDBRANCH   3   4
ENDBRANCH   2   3
ENDBRANCH   1   2
BRANCH   1  17
ATOM     17  C   UNL     1     163.824 160.982 182.300  1.00  0.00     0.000 C 
BRANCH  17  18
ATOM     18  C   UNL     1     162.652 161.824 182.843  1.00  0.00     0.000 C 
BRANCH  18  19
ATOM     19  C   UNL     1     161.309 161.067 182.913  1.00  0.00     0.000 C 
BRANCH  19  20
ATOM     20  C   UNL     1     160.338 161.491 181.795  1.00  0.00     0.000 C 
BRANCH  20  21
ATOM     21  C   UNL     1     160.580 162.942 181.330  1.00  0.00     0.000 C 
BRANCH  21  22
ATOM     22  C   UNL     1     160.519 163.116 179.803  1.00  0.00     0.000 C 
BRANCH  22  23
ATOM     23  C   UNL     1     160.782 161.809 179.043  1.00  0.00     0.000 C 
BRANCH  23  24
ATOM     24  C   UNL     1     160.829 162.053 177.529  1.00  0.00     0.000 C 
BRANCH  24  25
ATOM     25  C   UNL     1     162.188 162.589 177.037  1.00  0.00     0.000 C 
BRANCH  25  26
ATOM     26  C   UNL     1     163.383 161.625 177.194  1.00  0.00     0.000 C 
BRANCH  26  27
ATOM     27  C   UNL     1     163.899 161.016 175.870  1.00  0.00     0.002 C 
BRANCH  27  28
ATOM     28  C   UNL     1     165.389 161.291 175.594  1.00  0.00     0.028 C 
BRANCH  28  29
ATOM     29  C   UNL     1     166.295 161.097 176.816  1.00  0.00     0.156 C 
BRANCH  29  30
ATOM     30  O   UNL     1     167.360 160.227 176.525  1.00  0.00    -0.396 OA
ATOM     31  H   UNL     1     167.265 159.975 175.570  1.00  0.00     0.210 HD
ENDBRANCH  29  30
ENDBRANCH  28  29
ENDBRANCH  27  28
ENDBRANCH  26  27
ENDBRANCH  25  26
ENDBRANCH  24  25
ENDBRANCH  23  24
ENDBRANCH  22  23
ENDBRANCH  21  22
ENDBRANCH  20  21
ENDBRANCH  19  20
ENDBRANCH  18  19
ENDBRANCH  17  18
ENDBRANCH   1  17
TORSDOF 28
ENDMDL
