MODEL 1
REMARK VINA RESULT:    -3.103      0.000      0.000
REMARK INTER + INTRA:          -3.772
REMARK INTER:                  -3.738
REMARK INTRA:                  -0.034
REMARK UNBOUND:                -0.034
REMARK SMILES OCC(O)CO
REMARK SMILES IDX 3 1 5 2 6 3 2 5 1 6 4 8
REMARK H PARENT 6 4 1 7 4 9
REMARK Flexibility Score: inf
ROOT
ATOM      1  C   UNL     1       2.050   0.086  -8.643  1.00  0.00     0.165 C 
ENDROOT
BRANCH   1   2
ATOM      2  C   UNL     1       2.147   0.060  -7.114  1.00  0.00     0.190 C 
BRANCH   2   3
ATOM      3  O   UNL     1       1.487   1.176  -6.581  1.00  0.00    -0.394 OA
ATOM      4  H   UNL     1       2.197   1.815  -6.315  1.00  0.00     0.210 HD
ENDBRANCH   2   3
ENDBRANCH   1   2
BRANCH   1   5
ATOM      5  C   UNL     1       3.427   0.316  -9.282  1.00  0.00     0.190 C 
BRANCH   5   6
ATOM      6  O   UNL     1       4.429   0.261  -8.303  1.00  0.00    -0.394 OA
ATOM      7  H   UNL     1       4.000  -0.115  -7.491  1.00  0.00     0.210 HD
ENDBRANCH   5   6
ENDBRANCH   1   5
BRANCH   1   8
ATOM      8  O   UNL     1       1.522  -1.136  -9.090  1.00  0.00    -0.388 OA
ATOM      9  H   UNL     1       1.993  -1.853  -8.588  1.00  0.00     0.211 HD
ENDBRANCH   1   8
TORSDOF 5
ENDMDL
MODEL 2
REMARK VINA RESULT:    -2.823      1.166      2.663
REMARK INTER + INTRA:          -3.434
REMARK INTER:                  -3.280
REMARK INTRA:                  -0.154
REMARK UNBOUND:                -0.034
REMARK SMILES OCC(O)CO
REMARK SMILES IDX 3 1 5 2 6 3 2 5 1 6 4 8
REMARK H PARENT 6 4 1 7 4 9
REMARK Flexibility Score: inf
ROOT
ATOM      1  C   UNL     1       2.749   0.456  -9.015  1.00  0.00     0.165 C 
ENDROOT
BRANCH   1   2
ATOM      2  C   UNL     1       2.313  -0.690  -9.933  1.00  0.00     0.190 C 
BRANCH   2   3
ATOM      3  O   UNL     1       1.317  -1.447  -9.302  1.00  0.00    -0.394 OA
ATOM      4  H   UNL     1       0.879  -1.978 -10.016  1.00  0.00     0.210 HD
ENDBRANCH   2   3
ENDBRANCH   1   2
BRANCH   1   5
ATOM      5  C   UNL     1       2.075   0.351  -7.639  1.00  0.00     0.190 C 
BRANCH   5   6
ATOM      6  O   UNL     1       2.915  -0.321  -6.740  1.00  0.00    -0.394 OA
ATOM      7  H   UNL     1       3.719   0.251  -6.634  1.00  0.00     0.210 HD
ENDBRANCH   5   6
ENDBRANCH   1   5
BRANCH   1   8
ATOM      8  O   UNL     1       4.144   0.415  -8.861  1.00  0.00    -0.388 OA
ATOM      9  H   UNL     1       4.334   0.629  -7.910  1.00  0.00     0.211 HD
ENDBRANCH   1   8
TORSDOF 5
ENDMDL
MODEL 3
REMARK VINA RESULT:    -2.728      0.777      2.495
REMARK INTER + INTRA:          -3.320
REMARK INTER:                  -3.198
REMARK INTRA:                  -0.122
REMARK UNBOUND:                -0.034
REMARK SMILES OCC(O)CO
REMARK SMILES IDX 3 1 5 2 6 3 2 5 1 6 4 8
REMARK H PARENT 6 4 1 7 4 9
REMARK Flexibility Score: inf
ROOT
ATOM      1  C   UNL     1       1.920   0.022  -7.068  1.00  0.00     0.165 C 
ENDROOT
BRANCH   1   2
ATOM      2  C   UNL     1       1.892   0.105  -8.598  1.00  0.00     0.190 C 
BRANCH   2   3
ATOM      3  O   UNL     1       1.601  -1.157  -9.133  1.00  0.00    -0.394 OA
ATOM      4  H   UNL     1       0.818  -1.030  -9.729  1.00  0.00     0.210 HD
ENDBRANCH   2   3
ENDBRANCH   1   2
BRANCH   1   5
ATOM      5  C   UNL     1       3.338  -0.271  -6.555  1.00  0.00     0.190 C 
BRANCH   5   6
ATOM      6  O   UNL     1       4.275  -0.059  -7.575  1.00  0.00    -0.394 OA
ATOM      7  H   UNL     1       4.419  -0.943  -8.004  1.00  0.00     0.210 HD
ENDBRANCH   5   6
ENDBRANCH   1   5
BRANCH   1   8
ATOM      8  O   UNL     1       1.469   1.240  -6.534  1.00  0.00    -0.388 OA
ATOM      9  H   UNL     1       0.962   1.699  -7.254  1.00  0.00     0.211 HD
ENDBRANCH   1   8
TORSDOF 5
ENDMDL
MODEL 4
REMARK VINA RESULT:    -2.690      0.989      2.796
REMARK INTER + INTRA:          -3.274
REMARK INTER:                  -3.251
REMARK INTRA:                  -0.023
REMARK UNBOUND:                -0.034
REMARK SMILES OCC(O)CO
REMARK SMILES IDX 3 1 5 2 6 3 2 5 1 6 4 8
REMARK H PARENT 6 4 1 7 4 9
REMARK Flexibility Score: inf
ROOT
ATOM      1  C   UNL     1       2.347   0.316  -8.114  1.00  0.00     0.165 C 
ENDROOT
BRANCH   1   2
ATOM      2  C   UNL     1       3.507   0.334  -9.115  1.00  0.00     0.190 C 
BRANCH   2   3
ATOM      3  O   UNL     1       4.725   0.276  -8.425  1.00  0.00    -0.394 OA
ATOM      4  H   UNL     1       4.680  -0.534  -7.853  1.00  0.00     0.210 HD
ENDBRANCH   2   3
ENDBRANCH   1   2
BRANCH   1   5
ATOM      5  C   UNL     1       1.156  -0.486  -8.660  1.00  0.00     0.190 C 
BRANCH   5   6
ATOM      6  O   UNL     1       1.605  -1.477  -9.542  1.00  0.00    -0.394 OA
ATOM      7  H   UNL     1       0.864  -1.631 -10.184  1.00  0.00     0.210 HD
ENDBRANCH   5   6
ENDBRANCH   1   5
BRANCH   1   8
ATOM      8  O   UNL     1       2.788  -0.257  -6.911  1.00  0.00    -0.388 OA
ATOM      9  H   UNL     1       3.029  -1.199  -7.113  1.00  0.00     0.211 HD
ENDBRANCH   1   8
TORSDOF 5
ENDMDL
MODEL 5
REMARK VINA RESULT:    -2.672      0.672      2.455
REMARK INTER + INTRA:          -3.252
REMARK INTER:                  -3.094
REMARK INTRA:                  -0.159
REMARK UNBOUND:                -0.034
REMARK SMILES OCC(O)CO
REMARK SMILES IDX 3 1 5 2 6 3 2 5 1 6 4 8
REMARK H PARENT 6 4 1 7 4 9
REMARK Flexibility Score: inf
ROOT
ATOM      1  C   UNL     1       2.108  -0.488  -8.326  1.00  0.00     0.165 C 
ENDROOT
BRANCH   1   2
ATOM      2  C   UNL     1       3.003   0.360  -9.236  1.00  0.00     0.190 C 
BRANCH   2   3
ATOM      3  O   UNL     1       4.304   0.395  -8.716  1.00  0.00    -0.394 OA
ATOM      4  H   UNL     1       4.542  -0.544  -8.505  1.00  0.00     0.210 HD
ENDBRANCH   2   3
ENDBRANCH   1   2
BRANCH   1   5
ATOM      5  C   UNL     1       1.420   0.379  -7.261  1.00  0.00     0.190 C 
BRANCH   5   6
ATOM      6  O   UNL     1       2.307   0.651  -6.211  1.00  0.00    -0.394 OA
ATOM      7  H   UNL     1       2.262  -0.133  -5.603  1.00  0.00     0.210 HD
ENDBRANCH   5   6
ENDBRANCH   1   5
BRANCH   1   8
ATOM      8  O   UNL     1       1.136  -1.132  -9.109  1.00  0.00    -0.388 OA
ATOM      9  H   UNL     1       1.424  -2.078  -9.204  1.00  0.00     0.211 HD
ENDBRANCH   1   8
TORSDOF 5
ENDMDL
MODEL 6
REMARK VINA RESULT:    -2.546      1.427      1.494
REMARK INTER + INTRA:          -3.100
REMARK INTER:                  -3.088
REMARK INTRA:                  -0.012
REMARK UNBOUND:                -0.034
REMARK SMILES OCC(O)CO
REMARK SMILES IDX 3 1 5 2 6 3 2 5 1 6 4 8
REMARK H PARENT 6 4 1 7 4 9
REMARK Flexibility Score: inf
ROOT
ATOM      1  C   UNL     1       2.271  -0.256  -7.721  1.00  0.00     0.165 C 
ENDROOT
BRANCH   1   2
ATOM      2  C   UNL     1       1.169   0.598  -7.084  1.00  0.00     0.190 C 
BRANCH   2   3
ATOM      3  O   UNL     1       1.717   1.397  -6.073  1.00  0.00    -0.394 OA
ATOM      4  H   UNL     1       2.452   1.912  -6.496  1.00  0.00     0.210 HD
ENDBRANCH   2   3
ENDBRANCH   1   2
BRANCH   1   5
ATOM      5  C   UNL     1       2.658   0.283  -9.106  1.00  0.00     0.190 C 
BRANCH   5   6
ATOM      6  O   UNL     1       4.032   0.553  -9.153  1.00  0.00    -0.394 OA
ATOM      7  H   UNL     1       4.121   1.539  -9.081  1.00  0.00     0.210 HD
ENDBRANCH   5   6
ENDBRANCH   1   5
BRANCH   1   8
ATOM      8  O   UNL     1       3.397  -0.250  -6.882  1.00  0.00    -0.388 OA
ATOM      9  H   UNL     1       3.140  -0.733  -6.054  1.00  0.00     0.211 HD
ENDBRANCH   1   8
TORSDOF 5
ENDMDL
MODEL 7
REMARK VINA RESULT:    -2.302      5.662      6.804
REMARK INTER + INTRA:          -2.807
REMARK INTER:                  -2.805
REMARK INTRA:                  -0.003
REMARK UNBOUND:                -0.034
REMARK SMILES OCC(O)CO
REMARK SMILES IDX 3 1 5 2 6 3 2 5 1 6 4 8
REMARK H PARENT 6 4 1 7 4 9
REMARK Flexibility Score: inf
ROOT
ATOM      1  C   UNL     1      -1.605  -4.421 -10.831  1.00  0.00     0.165 C 
ENDROOT
BRANCH   1   2
ATOM      2  C   UNL     1      -0.850  -3.097 -10.669  1.00  0.00     0.190 C 
BRANCH   2   3
ATOM      3  O   UNL     1      -1.305  -2.433  -9.522  1.00  0.00    -0.394 OA
ATOM      4  H   UNL     1      -2.284  -2.589  -9.483  1.00  0.00     0.210 HD
ENDBRANCH   2   3
ENDBRANCH   1   2
BRANCH   1   5
ATOM      5  C   UNL     1      -1.274  -5.087 -12.175  1.00  0.00     0.190 C 
BRANCH   5   6
ATOM      6  O   UNL     1      -1.374  -6.480 -12.062  1.00  0.00    -0.394 OA
ATOM      7  H   UNL     1      -0.580  -6.771 -11.542  1.00  0.00     0.210 HD
ENDBRANCH   5   6
ENDBRANCH   1   5
BRANCH   1   8
ATOM      8  O   UNL     1      -1.252  -5.282  -9.780  1.00  0.00    -0.388 OA
ATOM      9  H   UNL     1      -1.011  -4.707  -9.006  1.00  0.00     0.211 HD
ENDBRANCH   1   8
TORSDOF 5
ENDMDL
MODEL 8
REMARK VINA RESULT:    -1.902      5.385      6.776
REMARK INTER + INTRA:          -2.325
REMARK INTER:                  -2.322
REMARK INTRA:                  -0.003
REMARK UNBOUND:                -0.034
REMARK SMILES OCC(O)CO
REMARK SMILES IDX 3 1 5 2 6 3 2 5 1 6 4 8
REMARK H PARENT 6 4 1 7 4 9
REMARK Flexibility Score: inf
ROOT
ATOM      1  C   UNL     1      -0.862  -4.110 -10.880  1.00  0.00     0.165 C 
ENDROOT
BRANCH   1   2
ATOM      2  C   UNL     1      -1.478  -4.727 -12.139  1.00  0.00     0.190 C 
BRANCH   2   3
ATOM      3  O   UNL     1      -1.464  -6.125 -12.035  1.00  0.00    -0.394 OA
ATOM      4  H   UNL     1      -2.129  -6.356 -11.337  1.00  0.00     0.210 HD
ENDBRANCH   2   3
ENDBRANCH   1   2
BRANCH   1   5
ATOM      5  C   UNL     1      -1.471  -2.732 -10.582  1.00  0.00     0.190 C 
BRANCH   5   6
ATOM      6  O   UNL     1      -0.789  -2.121  -9.522  1.00  0.00    -0.394 OA
ATOM      7  H   UNL     1      -1.451  -2.026  -8.787  1.00  0.00     0.210 HD
ENDBRANCH   5   6
ENDBRANCH   1   5
BRANCH   1   8
ATOM      8  O   UNL     1      -1.087  -4.969  -9.791  1.00  0.00    -0.388 OA
ATOM      9  H   UNL     1      -0.644  -5.831 -10.009  1.00  0.00     0.211 HD
ENDBRANCH   1   8
TORSDOF 5
ENDMDL
MODEL 9
REMARK VINA RESULT:    -1.653      1.472      2.799
REMARK INTER + INTRA:          -2.025
REMARK INTER:                  -1.822
REMARK INTRA:                  -0.203
REMARK UNBOUND:                -0.034
REMARK SMILES OCC(O)CO
REMARK SMILES IDX 3 1 5 2 6 3 2 5 1 6 4 8
REMARK H PARENT 6 4 1 7 4 9
REMARK Flexibility Score: inf
ROOT
ATOM      1  C   UNL     1       2.896   0.217  -7.301  1.00  0.00     0.165 C 
ENDROOT
BRANCH   1   2
ATOM      2  C   UNL     1       3.882   0.247  -8.474  1.00  0.00     0.190 C 
BRANCH   2   3
ATOM      3  O   UNL     1       3.334   0.986  -9.531  1.00  0.00    -0.394 OA
ATOM      4  H   UNL     1       3.103   1.875  -9.156  1.00  0.00     0.210 HD
ENDBRANCH   2   3
ENDBRANCH   1   2
BRANCH   1   5
ATOM      5  C   UNL     1       1.480  -0.137  -7.777  1.00  0.00     0.190 C 
BRANCH   5   6
ATOM      6  O   UNL     1       1.541  -1.018  -8.865  1.00  0.00    -0.394 OA
ATOM      7  H   UNL     1       0.723  -0.851  -9.401  1.00  0.00     0.210 HD
ENDBRANCH   5   6
ENDBRANCH   1   5
BRANCH   1   8
ATOM      8  O   UNL     1       3.328  -0.734  -6.363  1.00  0.00    -0.388 OA
ATOM      9  H   UNL     1       2.890  -0.508  -5.501  1.00  0.00     0.211 HD
ENDBRANCH   1   8
TORSDOF 5
ENDMDL
