MODEL 1
REMARK VINA RESULT:    -3.278      0.000      0.000
REMARK INTER + INTRA:          -3.278
REMARK INTER:                  -3.278
REMARK INTRA:                   0.000
REMARK UNBOUND:                 0.000
REMARK SMILES CC1(C)O[C@]2(C)CC[C@H]1CC2
REMARK SMILES IDX 1 1 2 2 9 3 8 4 7 5 5 6 4 7 11 8 10 9 6 10 3 11
REMARK H PARENT
REMARK Flexibility Score: inf
ROOT
ATOM      1  C   UNL     1     226.054 232.143 236.587  1.00  0.00     0.042 C 
ATOM      2  C   UNL     1     227.416 232.110 235.861  1.00  0.00     0.066 C 
ATOM      3  C   UNL     1     227.216 232.125 234.296  1.00  0.00     0.021 C 
ATOM      4  C   UNL     1     226.460 230.838 233.887  1.00  0.00     0.009 C 
ATOM      5  C   UNL     1     227.188 229.610 234.486  1.00  0.00     0.035 C 
ATOM      6  C   UNL     1     228.480 230.069 235.220  1.00  0.00     0.066 C 
ATOM      7  O   UNL     1     228.125 230.940 236.295  1.00  0.00    -0.369 OA
ATOM      8  C   UNL     1     229.384 230.840 234.216  1.00  0.00     0.035 C 
ATOM      9  C   UNL     1     228.606 232.039 233.623  1.00  0.00     0.009 C 
ATOM     10  C   UNL     1     229.228 228.859 235.791  1.00  0.00     0.042 C 
ATOM     11  C   UNL     1     228.212 233.351 236.321  1.00  0.00     0.042 C 
ENDROOT
TORSDOF 0
ENDMDL
MODEL 2
REMARK VINA RESULT:    -3.273      8.514     10.266
REMARK INTER + INTRA:          -3.273
REMARK INTER:                  -3.273
REMARK INTRA:                   0.000
REMARK UNBOUND:                 0.000
REMARK SMILES CC1(C)O[C@]2(C)CC[C@H]1CC2
REMARK SMILES IDX 1 1 2 2 9 3 8 4 7 5 5 6 4 7 11 8 10 9 6 10 3 11
REMARK H PARENT
REMARK Flexibility Score: inf
ROOT
ATOM      1  C   UNL     1     232.180 242.416 236.524  1.00  0.00     0.042 C 
ATOM      2  C   UNL     1     232.133 241.037 235.830  1.00  0.00     0.066 C 
ATOM      3  C   UNL     1     232.164 241.201 234.261  1.00  0.00     0.021 C 
ATOM      4  C   UNL     1     230.892 241.966 233.823  1.00  0.00     0.009 C 
ATOM      5  C   UNL     1     229.648 241.271 234.428  1.00  0.00     0.035 C 
ATOM      6  C   UNL     1     230.082 239.990 235.196  1.00  0.00     0.066 C 
ATOM      7  O   UNL     1     230.949 240.357 236.270  1.00  0.00    -0.369 OA
ATOM      8  C   UNL     1     230.847 239.051 234.220  1.00  0.00     0.035 C 
ATOM      9  C   UNL     1     232.062 239.797 233.619  1.00  0.00     0.009 C 
ATOM     10  C   UNL     1     228.855 239.274 235.773  1.00  0.00     0.042 C 
ATOM     11  C   UNL     1     233.358 240.234 236.320  1.00  0.00     0.042 C 
ENDROOT
TORSDOF 0
ENDMDL
MODEL 3
REMARK VINA RESULT:    -3.272     13.086     14.477
REMARK INTER + INTRA:          -3.272
REMARK INTER:                  -3.272
REMARK INTRA:                   0.000
REMARK UNBOUND:                 0.000
REMARK SMILES CC1(C)O[C@]2(C)CC[C@H]1CC2
REMARK SMILES IDX 1 1 2 2 9 3 8 4 7 5 5 6 4 7 11 8 10 9 6 10 3 11
REMARK H PARENT
REMARK Flexibility Score: inf
ROOT
ATOM      1  C   UNL     1     242.354 236.256 236.541  1.00  0.00     0.042 C 
ATOM      2  C   UNL     1     240.983 236.334 235.837  1.00  0.00     0.066 C 
ATOM      3  C   UNL     1     241.159 236.315 234.269  1.00  0.00     0.021 C 
ATOM      4  C   UNL     1     241.949 237.579 233.850  1.00  0.00     0.009 C 
ATOM      5  C   UNL     1     241.270 238.828 234.462  1.00  0.00     0.035 C 
ATOM      6  C   UNL     1     239.975 238.409 235.215  1.00  0.00     0.066 C 
ATOM      7  O   UNL     1     240.318 237.525 236.283  1.00  0.00    -0.369 OA
ATOM      8  C   UNL     1     239.032 237.669 234.223  1.00  0.00     0.035 C 
ATOM      9  C   UNL     1     239.763 236.447 233.617  1.00  0.00     0.009 C 
ATOM     10  C   UNL     1     239.275 239.641 235.798  1.00  0.00     0.042 C 
ATOM     11  C   UNL     1     240.155 235.118 236.307  1.00  0.00     0.042 C 
ENDROOT
TORSDOF 0
ENDMDL
MODEL 4
REMARK VINA RESULT:    -3.268      8.443     10.205
REMARK INTER + INTRA:          -3.268
REMARK INTER:                  -3.268
REMARK INTRA:                   0.000
REMARK UNBOUND:                 0.000
REMARK SMILES CC1(C)O[C@]2(C)CC[C@H]1CC2
REMARK SMILES IDX 1 1 2 2 9 3 8 4 7 5 5 6 4 7 11 8 10 9 6 10 3 11
REMARK H PARENT
REMARK Flexibility Score: inf
ROOT
ATOM      1  C   UNL     1     236.260 226.101 236.544  1.00  0.00     0.042 C 
ATOM      2  C   UNL     1     236.314 227.475 235.842  1.00  0.00     0.066 C 
ATOM      3  C   UNL     1     236.263 227.303 234.275  1.00  0.00     0.021 C 
ATOM      4  C   UNL     1     237.522 226.522 233.827  1.00  0.00     0.009 C 
ATOM      5  C   UNL     1     238.780 227.208 234.414  1.00  0.00     0.035 C 
ATOM      6  C   UNL     1     238.368 228.498 235.180  1.00  0.00     0.066 C 
ATOM      7  O   UNL     1     237.510 228.146 236.265  1.00  0.00    -0.369 OA
ATOM      8  C   UNL     1     237.602 229.439 234.207  1.00  0.00     0.035 C 
ATOM      9  C   UNL     1     236.372 228.702 233.624  1.00  0.00     0.009 C 
ATOM     10  C   UNL     1     239.608 229.205 235.739  1.00  0.00     0.042 C 
ATOM     11  C   UNL     1     235.102 228.293 236.341  1.00  0.00     0.042 C 
ENDROOT
TORSDOF 0
ENDMDL
MODEL 5
REMARK VINA RESULT:    -3.086      8.913     10.103
REMARK INTER + INTRA:          -3.086
REMARK INTER:                  -3.086
REMARK INTRA:                   0.000
REMARK UNBOUND:                 0.000
REMARK SMILES CC1(C)O[C@]2(C)CC[C@H]1CC2
REMARK SMILES IDX 1 1 2 2 9 3 8 4 7 5 5 6 4 7 11 8 10 9 6 10 3 11
REMARK H PARENT
REMARK Flexibility Score: inf
ROOT
ATOM      1  C   UNL     1     236.527 230.642 235.666  1.00  0.00     0.042 C 
ATOM      2  C   UNL     1     236.910 229.560 234.633  1.00  0.00     0.066 C 
ATOM      3  C   UNL     1     235.948 228.315 234.748  1.00  0.00     0.021 C 
ATOM      4  C   UNL     1     236.130 227.682 236.149  1.00  0.00     0.009 C 
ATOM      5  C   UNL     1     237.637 227.426 236.398  1.00  0.00     0.035 C 
ATOM      6  C   UNL     1     238.453 227.804 235.128  1.00  0.00     0.066 C 
ATOM      7  O   UNL     1     238.280 229.196 234.856  1.00  0.00    -0.369 OA
ATOM      8  C   UNL     1     237.921 226.978 233.922  1.00  0.00     0.035 C 
ATOM      9  C   UNL     1     236.408 227.244 233.731  1.00  0.00     0.009 C 
ATOM     10  C   UNL     1     239.943 227.524 235.349  1.00  0.00     0.042 C 
ATOM     11  C   UNL     1     236.806 230.203 233.233  1.00  0.00     0.042 C 
ENDROOT
TORSDOF 0
ENDMDL
MODEL 6
REMARK VINA RESULT:    -3.080     12.319     13.623
REMARK INTER + INTRA:          -3.080
REMARK INTER:                  -3.080
REMARK INTRA:                   0.000
REMARK UNBOUND:                 0.000
REMARK SMILES CC1(C)O[C@]2(C)CC[C@H]1CC2
REMARK SMILES IDX 1 1 2 2 9 3 8 4 7 5 5 6 4 7 11 8 10 9 6 10 3 11
REMARK H PARENT
REMARK Flexibility Score: inf
ROOT
ATOM      1  C   UNL     1     241.022 239.264 234.966  1.00  0.00     0.042 C 
ATOM      2  C   UNL     1     240.053 238.153 235.423  1.00  0.00     0.066 C 
ATOM      3  C   UNL     1     240.837 236.816 235.721  1.00  0.00     0.021 C 
ATOM      4  C   UNL     1     241.490 236.328 234.405  1.00  0.00     0.009 C 
ATOM      5  C   UNL     1     240.413 236.273 233.294  1.00  0.00     0.035 C 
ATOM      6  C   UNL     1     239.023 236.639 233.888  1.00  0.00     0.066 C 
ATOM      7  O   UNL     1     239.066 237.973 234.397  1.00  0.00    -0.369 OA
ATOM      8  C   UNL     1     238.698 235.659 235.052  1.00  0.00     0.035 C 
ATOM      9  C   UNL     1     239.814 235.727 236.122  1.00  0.00     0.009 C 
ATOM     10  C   UNL     1     237.941 236.557 232.805  1.00  0.00     0.042 C 
ATOM     11  C   UNL     1     239.338 238.661 236.693  1.00  0.00     0.042 C 
ENDROOT
TORSDOF 0
ENDMDL
MODEL 7
REMARK VINA RESULT:    -3.058      8.173     10.156
REMARK INTER + INTRA:          -3.058
REMARK INTER:                  -3.058
REMARK INTRA:                   0.000
REMARK UNBOUND:                 0.000
REMARK SMILES CC1(C)O[C@]2(C)CC[C@H]1CC2
REMARK SMILES IDX 1 1 2 2 9 3 8 4 7 5 5 6 4 7 11 8 10 9 6 10 3 11
REMARK H PARENT
REMARK Flexibility Score: inf
ROOT
ATOM      1  C   UNL     1     231.819 237.930 235.665  1.00  0.00     0.042 C 
ATOM      2  C   UNL     1     231.529 239.053 234.646  1.00  0.00     0.066 C 
ATOM      3  C   UNL     1     232.518 240.265 234.855  1.00  0.00     0.021 C 
ATOM      4  C   UNL     1     232.271 240.862 236.262  1.00  0.00     0.009 C 
ATOM      5  C   UNL     1     230.760 241.157 236.430  1.00  0.00     0.035 C 
ATOM      6  C   UNL     1     230.011 240.841 235.104  1.00  0.00     0.066 C 
ATOM      7  O   UNL     1     230.160 239.453 234.800  1.00  0.00    -0.369 OA
ATOM      8  C   UNL     1     230.637 241.684 233.956  1.00  0.00     0.035 C 
ATOM      9  C   UNL     1     232.150 241.378 233.846  1.00  0.00     0.009 C 
ATOM     10  C   UNL     1     228.519 241.159 235.246  1.00  0.00     0.042 C 
ATOM     11  C   UNL     1     231.698 238.448 233.236  1.00  0.00     0.042 C 
ENDROOT
TORSDOF 0
ENDMDL
MODEL 8
REMARK VINA RESULT:    -3.049      1.304      2.924
REMARK INTER + INTRA:          -3.049
REMARK INTER:                  -3.049
REMARK INTRA:                   0.000
REMARK UNBOUND:                 0.000
REMARK SMILES CC1(C)O[C@]2(C)CC[C@H]1CC2
REMARK SMILES IDX 1 1 2 2 9 3 8 4 7 5 5 6 4 7 11 8 10 9 6 10 3 11
REMARK H PARENT
REMARK Flexibility Score: inf
ROOT
ATOM      1  C   UNL     1     227.579 229.215 234.889  1.00  0.00     0.042 C 
ATOM      2  C   UNL     1     228.559 230.323 235.331  1.00  0.00     0.066 C 
ATOM      3  C   UNL     1     227.774 231.611 235.794  1.00  0.00     0.021 C 
ATOM      4  C   UNL     1     226.987 232.167 234.583  1.00  0.00     0.009 C 
ATOM      5  C   UNL     1     227.952 232.331 233.383  1.00  0.00     0.035 C 
ATOM      6  C   UNL     1     229.401 231.970 233.819  1.00  0.00     0.066 C 
ATOM      7  O   UNL     1     229.440 230.603 234.234  1.00  0.00    -0.369 OA
ATOM      8  C   UNL     1     229.810 232.878 235.014  1.00  0.00     0.035 C 
ATOM      9  C   UNL     1     228.802 232.702 236.175  1.00  0.00     0.009 C 
ATOM     10  C   UNL     1     230.373 232.159 232.648  1.00  0.00     0.042 C 
ATOM     11  C   UNL     1     229.404 229.753 236.491  1.00  0.00     0.042 C 
ENDROOT
TORSDOF 0
ENDMDL
MODEL 9
REMARK VINA RESULT:    -3.049      8.370      9.582
REMARK INTER + INTRA:          -3.049
REMARK INTER:                  -3.049
REMARK INTRA:                   0.000
REMARK UNBOUND:                 0.000
REMARK SMILES CC1(C)O[C@]2(C)CC[C@H]1CC2
REMARK SMILES IDX 1 1 2 2 9 3 8 4 7 5 5 6 4 7 11 8 10 9 6 10 3 11
REMARK H PARENT
REMARK Flexibility Score: inf
ROOT
ATOM      1  C   UNL     1     229.216 240.889 234.898  1.00  0.00     0.042 C 
ATOM      2  C   UNL     1     230.325 239.910 235.340  1.00  0.00     0.066 C 
ATOM      3  C   UNL     1     231.619 240.696 235.784  1.00  0.00     0.021 C 
ATOM      4  C   UNL     1     232.166 241.470 234.560  1.00  0.00     0.009 C 
ATOM      5  C   UNL     1     232.317 240.494 233.368  1.00  0.00     0.035 C 
ATOM      6  C   UNL     1     231.956 239.050 233.820  1.00  0.00     0.066 C 
ATOM      7  O   UNL     1     230.594 239.018 234.247  1.00  0.00    -0.369 OA
ATOM      8  C   UNL     1     232.874 238.650 235.010  1.00  0.00     0.035 C 
ATOM      9  C   UNL     1     232.711 239.668 236.164  1.00  0.00     0.009 C 
ATOM     10  C   UNL     1     232.133 238.068 232.657  1.00  0.00     0.042 C 
ATOM     11  C   UNL     1     229.763 239.077 236.512  1.00  0.00     0.042 C 
ENDROOT
TORSDOF 0
ENDMDL
