MODEL 1
REMARK VINA RESULT:    20.269      0.000      0.000
REMARK INTER + INTRA:          34.638
REMARK INTER:                  30.933
REMARK INTRA:                   3.705
REMARK UNBOUND:                 3.705
REMARK SMILES CC1=CCC[C@H](C)C(=O)C[C@H](C(C)C)C(=O)C1
REMARK SMILES IDX 8 1 9 2 6 3 7 4 5 5 4 6 3 7 2 8 1 9 10 11 11 12 15 13 16 14
REMARK SMILES IDX 17 15 12 17 13 18 14 19
REMARK H PARENT
REMARK Flexibility Score: 70.00
ROOT
ATOM      1  C   UNL     1      83.002  14.869 106.792  1.00  0.00     0.136 C 
ATOM      2  O   UNL     1      83.242  14.749 105.601  1.00  0.00    -0.299 OA
ENDROOT
BRANCH   1   3
ATOM      3  C   UNL     1      82.586  13.637 107.578  1.00  0.00     0.053 C 
ATOM      4  C   UNL     1      83.597  12.490 107.430  1.00  0.00     0.016 C 
BRANCH   3   5
ATOM      5  C   UNL     1      82.150  13.992 109.031  1.00  0.00     0.015 C 
BRANCH   5   6
ATOM      6  C   UNL     1      82.756  13.213 110.219  1.00  0.00     0.028 C 
BRANCH   6   7
ATOM      7  C   UNL     1      84.089  13.687 110.748  1.00  0.00    -0.028 C 
ATOM      8  C   UNL     1      85.153  14.088 110.015  1.00  0.00    -0.070 CG0
ATOM      9  C   UNL     1      86.331  14.677 110.752  1.00  0.00     0.039 C 
ATOM     10  G   UNL     1      85.248  13.939 108.512  1.00  0.00     0.000 G0
ENDBRANCH   6   7
ENDBRANCH   5   6
ENDBRANCH   3   5
ENDBRANCH   1   3
BRANCH   1  11
ATOM     11  C   UNL     1      83.129  16.240 107.420  1.00  0.00     0.087 C 
BRANCH  11  12
ATOM     12  C   UNL     1      84.523  16.463 108.088  1.00  0.00     0.066 C 
BRANCH  12  13
ATOM     13  C   UNL     1      85.459  15.286 107.821  1.00  0.00     0.140 C 
ATOM     14  O   UNL     1      86.369  15.391 107.012  1.00  0.00    -0.299 OA
BRANCH  13  15
ATOM     15  C   UNL     1      85.261  13.952 108.504  1.00  0.00     0.106 CG0
ATOM     16  G   UNL     1      85.150  14.137 110.002  1.00  0.00     0.000 G0
ENDBRANCH  13  15
ENDBRANCH  12  13
BRANCH  12  17
ATOM     17  C   UNL     1      85.191  17.839 107.745  1.00  0.00    -0.006 C 
ATOM     18  C   UNL     1      85.778  18.517 108.991  1.00  0.00     0.008 C 
ATOM     19  C   UNL     1      84.277  18.832 106.995  1.00  0.00     0.008 C 
ENDBRANCH  12  17
ENDBRANCH  11  12
ENDBRANCH   1  11
TORSDOF 1
ENDMDL
MODEL 2
REMARK VINA RESULT:    21.620      1.667      3.480
REMARK INTER + INTRA:          36.701
REMARK INTER:                  36.077
REMARK INTRA:                   0.624
REMARK UNBOUND:                 3.705
REMARK SMILES CC1=CCC[C@H](C)C(=O)C[C@H](C(C)C)C(=O)C1
REMARK SMILES IDX 8 1 9 2 6 3 7 4 5 5 4 6 3 7 2 8 1 9 10 11 11 12 15 13 16 14
REMARK SMILES IDX 17 15 12 17 13 18 14 19
REMARK H PARENT
REMARK Flexibility Score: 70.00
ROOT
ATOM      1  C   UNL     1      84.416  14.457 109.974  1.00  0.00     0.136 C 
ATOM      2  O   UNL     1      85.601  14.168 110.030  1.00  0.00    -0.299 OA
ENDROOT
BRANCH   1   3
ATOM      3  C   UNL     1      83.389  13.357 110.191  1.00  0.00     0.053 C 
ATOM      4  C   UNL     1      82.290  13.782 111.177  1.00  0.00     0.016 C 
BRANCH   3   5
ATOM      5  C   UNL     1      82.910  12.734 108.845  1.00  0.00     0.015 C 
BRANCH   5   6
ATOM      6  C   UNL     1      83.874  12.699 107.639  1.00  0.00     0.028 C 
BRANCH   6   7
ATOM      7  C   UNL     1      83.334  13.163 106.308  1.00  0.00    -0.028 C 
ATOM      8  C   UNL     1      83.137  14.445 105.919  1.00  0.00    -0.070 CG0
ATOM      9  C   UNL     1      82.740  14.688 104.483  1.00  0.00     0.039 C 
ATOM     10  G   UNL     1      83.246  15.635 106.846  1.00  0.00     0.000 G0
ENDBRANCH   6   7
ENDBRANCH   5   6
ENDBRANCH   3   5
ENDBRANCH   1   3
BRANCH   1  11
ATOM     11  C   UNL     1      84.034  15.892 109.689  1.00  0.00     0.087 C 
BRANCH  11  12
ATOM     12  C   UNL     1      84.941  16.544 108.597  1.00  0.00     0.066 C 
BRANCH  12  13
ATOM     13  C   UNL     1      84.635  15.977 107.212  1.00  0.00     0.140 C 
ATOM     14  O   UNL     1      85.533  15.809 106.401  1.00  0.00    -0.299 OA
BRANCH  13  15
ATOM     15  C   UNL     1      83.219  15.659 106.787  1.00  0.00     0.106 CG0
ATOM     16  G   UNL     1      83.192  14.407 105.937  1.00  0.00     0.000 G0
ENDBRANCH  13  15
ENDBRANCH  12  13
BRANCH  12  17
ATOM     17  C   UNL     1      84.940  18.111 108.607  1.00  0.00    -0.006 C 
ATOM     18  C   UNL     1      84.525  18.693 107.249  1.00  0.00     0.008 C 
ATOM     19  C   UNL     1      86.266  18.756 109.066  1.00  0.00     0.008 C 
ENDBRANCH  12  17
ENDBRANCH  11  12
ENDBRANCH   1  11
TORSDOF 1
ENDMDL
MODEL 3
REMARK VINA RESULT:    21.665      6.712      9.438
REMARK INTER + INTRA:          36.769
REMARK INTER:                  33.775
REMARK INTRA:                   2.994
REMARK UNBOUND:                 3.705
REMARK SMILES CC1=CCC[C@H](C)C(=O)C[C@H](C(C)C)C(=O)C1
REMARK SMILES IDX 8 1 9 2 6 3 7 4 5 5 4 6 3 7 2 8 1 9 10 11 11 12 15 13 16 14
REMARK SMILES IDX 17 15 12 17 13 18 14 19
REMARK H PARENT
REMARK Flexibility Score: 70.00
ROOT
ATOM      1  C   UNL     1      89.791  23.213 112.008  1.00  0.00     0.136 C 
ATOM      2  O   UNL     1      89.268  24.156 112.583  1.00  0.00    -0.299 OA
ENDROOT
BRANCH   1   3
ATOM      3  C   UNL     1      91.105  22.671 112.547  1.00  0.00     0.053 C 
ATOM      4  C   UNL     1      91.036  22.389 114.056  1.00  0.00     0.016 C 
BRANCH   3   5
ATOM      5  C   UNL     1      91.673  21.528 111.653  1.00  0.00     0.015 C 
BRANCH   5   6
ATOM      6  C   UNL     1      92.229  20.250 112.318  1.00  0.00     0.028 C 
BRANCH   6   7
ATOM      7  C   UNL     1      91.275  19.094 112.500  1.00  0.00    -0.028 C 
ATOM      8  C   UNL     1      89.984  19.168 112.903  1.00  0.00    -0.070 CG0
ATOM      9  C   UNL     1      89.163  17.903 112.860  1.00  0.00     0.039 C 
ATOM     10  G   UNL     1      89.336  20.428 113.432  1.00  0.00     0.000 G0
ENDBRANCH   6   7
ENDBRANCH   5   6
ENDBRANCH   3   5
ENDBRANCH   1   3
BRANCH   1  11
ATOM     11  C   UNL     1      89.104  22.639 110.789  1.00  0.00     0.087 C 
BRANCH  11  12
ATOM     12  C   UNL     1      88.511  21.219 111.053  1.00  0.00     0.066 C 
BRANCH  12  13
ATOM     13  C   UNL     1      88.262  20.990 112.542  1.00  0.00     0.140 C 
ATOM     14  O   UNL     1      87.184  21.276 113.041  1.00  0.00    -0.299 OA
BRANCH  13  15
ATOM     15  C   UNL     1      89.349  20.456 113.448  1.00  0.00     0.106 CG0
ATOM     16  G   UNL     1      89.966  19.209 112.853  1.00  0.00     0.000 G0
ENDBRANCH  13  15
ENDBRANCH  12  13
BRANCH  12  17
ATOM     17  C   UNL     1      87.252  20.872 110.184  1.00  0.00    -0.006 C 
ATOM     18  C   UNL     1      87.389  19.506 109.498  1.00  0.00     0.008 C 
ATOM     19  C   UNL     1      86.873  21.944 109.140  1.00  0.00     0.008 C 
ENDBRANCH  12  17
ENDBRANCH  11  12
ENDBRANCH   1  11
TORSDOF 1
ENDMDL
MODEL 4
REMARK VINA RESULT:    21.865      1.337      3.110
REMARK INTER + INTRA:          37.075
REMARK INTER:                  35.580
REMARK INTRA:                   1.495
REMARK UNBOUND:                 3.705
REMARK SMILES CC1=CCC[C@H](C)C(=O)C[C@H](C(C)C)C(=O)C1
REMARK SMILES IDX 8 1 9 2 6 3 7 4 5 5 4 6 3 7 2 8 1 9 10 11 11 12 15 13 16 14
REMARK SMILES IDX 17 15 12 17 13 18 14 19
REMARK H PARENT
REMARK Flexibility Score: 70.00
ROOT
ATOM      1  C   UNL     1      85.360  14.673 109.267  1.00  0.00     0.136 C 
ATOM      2  O   UNL     1      86.210  14.329 108.461  1.00  0.00    -0.299 OA
ENDROOT
BRANCH   1   3
ATOM      3  C   UNL     1      85.291  13.952 110.603  1.00  0.00     0.053 C 
ATOM      4  C   UNL     1      86.363  14.452 111.583  1.00  0.00     0.016 C 
BRANCH   3   5
ATOM      5  C   UNL     1      83.834  13.876 111.150  1.00  0.00     0.015 C 
BRANCH   5   6
ATOM      6  C   UNL     1      82.699  13.391 110.221  1.00  0.00     0.028 C 
BRANCH   6   7
ATOM      7  C   UNL     1      83.100  12.662 108.961  1.00  0.00    -0.028 C 
ATOM      8  C   UNL     1      83.069  13.151 107.700  1.00  0.00    -0.070 CG0
ATOM      9  C   UNL     1      83.669  12.305 106.604  1.00  0.00     0.039 C 
ATOM     10  G   UNL     1      82.428  14.468 107.321  1.00  0.00     0.000 G0
ENDBRANCH   6   7
ENDBRANCH   5   6
ENDBRANCH   3   5
ENDBRANCH   1   3
BRANCH   1  11
ATOM     11  C   UNL     1      84.419  15.796 108.891  1.00  0.00     0.087 C 
BRANCH  11  12
ATOM     12  C   UNL     1      84.471  16.132 107.366  1.00  0.00     0.066 C 
BRANCH  12  13
ATOM     13  C   UNL     1      83.429  15.333 106.587  1.00  0.00     0.140 C 
ATOM     14  O   UNL     1      83.356  15.432 105.371  1.00  0.00    -0.299 OA
BRANCH  13  15
ATOM     15  C   UNL     1      82.430  14.444 107.292  1.00  0.00     0.106 CG0
ATOM     16  G   UNL     1      83.076  13.135 107.689  1.00  0.00     0.000 G0
ENDBRANCH  13  15
ENDBRANCH  12  13
BRANCH  12  17
ATOM     17  C   UNL     1      84.409  17.664 107.039  1.00  0.00    -0.006 C 
ATOM     18  C   UNL     1      85.262  18.492 108.010  1.00  0.00     0.008 C 
ATOM     19  C   UNL     1      82.983  18.252 106.968  1.00  0.00     0.008 C 
ENDBRANCH  12  17
ENDBRANCH  11  12
ENDBRANCH   1  11
TORSDOF 1
ENDMDL
MODEL 5
REMARK VINA RESULT:    22.684      6.920      9.874
REMARK INTER + INTRA:          38.324
REMARK INTER:                  35.704
REMARK INTRA:                   2.620
REMARK UNBOUND:                 3.705
REMARK SMILES CC1=CCC[C@H](C)C(=O)C[C@H](C(C)C)C(=O)C1
REMARK SMILES IDX 8 1 9 2 6 3 7 4 5 5 4 6 3 7 2 8 1 9 10 11 11 12 15 13 16 14
REMARK SMILES IDX 17 15 12 17 13 18 14 19
REMARK H PARENT
REMARK Flexibility Score: 70.00
ROOT
ATOM      1  C   UNL     1      90.397  19.691 112.423  1.00  0.00     0.136 C 
ATOM      2  O   UNL     1      89.670  18.838 112.907  1.00  0.00    -0.299 OA
ENDROOT
BRANCH   1   3
ATOM      3  C   UNL     1      91.736  19.968 113.086  1.00  0.00     0.053 C 
ATOM      4  C   UNL     1      92.891  19.970 112.074  1.00  0.00     0.016 C 
BRANCH   3   5
ATOM      5  C   UNL     1      91.665  21.184 114.058  1.00  0.00     0.015 C 
BRANCH   5   6
ATOM      6  C   UNL     1      90.739  22.373 113.720  1.00  0.00     0.028 C 
BRANCH   6   7
ATOM      7  C   UNL     1      90.870  22.982 112.344  1.00  0.00    -0.028 C 
ATOM      8  C   UNL     1      89.861  23.418 111.554  1.00  0.00    -0.070 CG0
ATOM      9  C   UNL     1      90.229  24.142 110.282  1.00  0.00     0.039 C 
ATOM     10  G   UNL     1      88.396  23.182 111.849  1.00  0.00     0.000 G0
ENDBRANCH   6   7
ENDBRANCH   5   6
ENDBRANCH   3   5
ENDBRANCH   1   3
BRANCH   1  11
ATOM     11  C   UNL     1      89.923  20.430 111.191  1.00  0.00     0.087 C 
BRANCH  11  12
ATOM     12  C   UNL     1      88.378  20.655 111.188  1.00  0.00     0.066 C 
BRANCH  12  13
ATOM     13  C   UNL     1      87.984  21.806 112.110  1.00  0.00     0.140 C 
ATOM     14  O   UNL     1      87.302  21.598 113.103  1.00  0.00    -0.299 OA
BRANCH  13  15
ATOM     15  C   UNL     1      88.377  23.233 111.800  1.00  0.00     0.106 CG0
ATOM     16  G   UNL     1      89.868  23.331 111.566  1.00  0.00     0.000 G0
ENDBRANCH  13  15
ENDBRANCH  12  13
BRANCH  12  17
ATOM     17  C   UNL     1      87.748  20.799 109.760  1.00  0.00    -0.006 C 
ATOM     18  C   UNL     1      87.345  22.249 109.455  1.00  0.00     0.008 C 
ATOM     19  C   UNL     1      86.556  19.859 109.480  1.00  0.00     0.008 C 
ENDBRANCH  12  17
ENDBRANCH  11  12
ENDBRANCH   1  11
TORSDOF 1
ENDMDL
MODEL 6
REMARK VINA RESULT:    23.267      7.595      9.736
REMARK INTER + INTRA:          39.214
REMARK INTER:                  36.690
REMARK INTRA:                   2.524
REMARK UNBOUND:                 3.705
REMARK SMILES CC1=CCC[C@H](C)C(=O)C[C@H](C(C)C)C(=O)C1
REMARK SMILES IDX 8 1 9 2 6 3 7 4 5 5 4 6 3 7 2 8 1 9 10 11 11 12 15 13 16 14
REMARK SMILES IDX 17 15 12 17 13 18 14 19
REMARK H PARENT
REMARK Flexibility Score: 70.00
ROOT
ATOM      1  C   UNL     1      89.534  19.899 112.660  1.00  0.00     0.136 C 
ATOM      2  O   UNL     1      89.044  20.452 113.632  1.00  0.00    -0.299 OA
ENDROOT
BRANCH   1   3
ATOM      3  C   UNL     1      90.511  18.757 112.889  1.00  0.00     0.053 C 
ATOM      4  C   UNL     1      89.841  17.384 112.729  1.00  0.00     0.016 C 
BRANCH   3   5
ATOM      5  C   UNL     1      91.847  18.970 112.116  1.00  0.00     0.015 C 
BRANCH   5   6
ATOM      6  C   UNL     1      92.597  20.313 112.251  1.00  0.00     0.028 C 
BRANCH   6   7
ATOM      7  C   UNL     1      92.116  21.270 113.316  1.00  0.00    -0.028 C 
ATOM      8  C   UNL     1      91.234  22.284 113.152  1.00  0.00    -0.070 CG0
ATOM      9  C   UNL     1      90.768  23.015 114.387  1.00  0.00     0.039 C 
ATOM     10  G   UNL     1      90.728  22.753 111.806  1.00  0.00     0.000 G0
ENDBRANCH   6   7
ENDBRANCH   5   6
ENDBRANCH   3   5
ENDBRANCH   1   3
BRANCH   1  11
ATOM     11  C   UNL     1      89.145  20.382 111.280  1.00  0.00     0.087 C 
BRANCH  11  12
ATOM     12  C   UNL     1      88.346  21.723 111.322  1.00  0.00     0.066 C 
BRANCH  12  13
ATOM     13  C   UNL     1      89.228  22.880 111.788  1.00  0.00     0.140 C 
ATOM     14  O   UNL     1      88.727  23.938 112.137  1.00  0.00    -0.299 OA
BRANCH  13  15
ATOM     15  C   UNL     1      90.737  22.771 111.782  1.00  0.00     0.106 CG0
ATOM     16  G   UNL     1      91.237  22.312 113.134  1.00  0.00     0.000 G0
ENDBRANCH  13  15
ENDBRANCH  12  13
BRANCH  12  17
ATOM     17  C   UNL     1      87.580  22.061 109.997  1.00  0.00    -0.006 C 
ATOM     18  C   UNL     1      86.761  20.866 109.489  1.00  0.00     0.008 C 
ATOM     19  C   UNL     1      88.467  22.605 108.857  1.00  0.00     0.008 C 
ENDBRANCH  12  17
ENDBRANCH  11  12
ENDBRANCH   1  11
TORSDOF 1
ENDMDL
