MODEL 1
REMARK VINA RESULT:    -4.394      0.000      0.000
REMARK INTER + INTRA:          -6.018
REMARK INTER:                  -5.936
REMARK INTRA:                  -0.083
REMARK UNBOUND:                -0.083
REMARK SMILES [NH3+]CCCC[C@@H]([NH3+])C(=O)[O-]
REMARK SMILES IDX 4 1 3 2 2 3 1 4 5 8 6 9 7 10 8 14 9 15 10 16
REMARK H PARENT 1 5 1 6 1 7 7 11 7 12 7 13
REMARK Flexibility Score: inf
ROOT
ATOM      1  C   UNL     1      17.378  -8.045   1.332  1.00  0.00     0.012 C 
ENDROOT
BRANCH   1   2
ATOM      2  C   UNL     1      16.730  -9.177   0.523  1.00  0.00     0.061 C 
BRANCH   2   3
ATOM      3  C   UNL     1      17.766 -10.064  -0.187  1.00  0.00     0.258 C 
BRANCH   3   4
ATOM      4  N   UNL     1      19.127  -9.539  -0.054  1.00  0.00    -0.358 N 
ATOM      5  H   UNL     1      19.116  -8.494  -0.058  1.00  0.00     0.344 HD
ATOM      6  H   UNL     1      19.569  -9.888   0.827  1.00  0.00     0.344 HD
ATOM      7  H   UNL     1      19.697  -9.863  -0.868  1.00  0.00     0.344 HD
ENDBRANCH   3   4
ENDBRANCH   2   3
ENDBRANCH   1   2
BRANCH   1   8
ATOM      8  C   UNL     1      16.430  -6.840   1.450  1.00  0.00     0.072 C 
BRANCH   8   9
ATOM      9  C   UNL     1      16.164  -6.446   2.918  1.00  0.00     0.227 C 
BRANCH   9  10
ATOM     10  N   UNL     1      17.154  -5.464   3.373  1.00  0.00    -0.350 N 
ATOM     11  H   UNL     1      17.266  -4.711   2.655  1.00  0.00     0.345 HD
ATOM     12  H   UNL     1      18.081  -5.922   3.537  1.00  0.00     0.345 HD
ATOM     13  H   UNL     1      16.830  -5.019   4.263  1.00  0.00     0.345 HD
ENDBRANCH   9  10
BRANCH   9  14
ATOM     14  C   UNL     1      14.774  -5.888   3.085  1.00  0.00     0.099 C 
ATOM     15  O   UNL     1      14.135  -6.091   4.151  1.00  0.00    -0.544 OA
ATOM     16  O   UNL     1      14.185  -5.151   2.063  1.00  0.00    -0.544 OA
ENDBRANCH   9  14
ENDBRANCH   8   9
ENDBRANCH   1   8
TORSDOF 7
ENDMDL
MODEL 2
REMARK VINA RESULT:    -4.140     15.790     16.555
REMARK INTER + INTRA:          -5.675
REMARK INTER:                  -5.533
REMARK INTRA:                  -0.142
REMARK UNBOUND:                -0.083
REMARK SMILES [NH3+]CCCC[C@@H]([NH3+])C(=O)[O-]
REMARK SMILES IDX 4 1 3 2 2 3 1 4 5 8 6 9 7 10 8 14 9 15 10 16
REMARK H PARENT 1 5 1 6 1 7 7 11 7 12 7 13
REMARK Flexibility Score: inf
ROOT
ATOM      1  C   UNL     1      32.323  -8.049   0.187  1.00  0.00     0.012 C 
ENDROOT
BRANCH   1   2
ATOM      2  C   UNL     1      32.923  -9.117   1.112  1.00  0.00     0.061 C 
BRANCH   2   3
ATOM      3  C   UNL     1      31.855 -10.047   1.711  1.00  0.00     0.258 C 
BRANCH   3   4
ATOM      4  N   UNL     1      31.558  -9.721   3.108  1.00  0.00    -0.358 N 
ATOM      5  H   UNL     1      31.732 -10.551   3.719  1.00  0.00     0.344 HD
ATOM      6  H   UNL     1      32.142  -8.914   3.427  1.00  0.00     0.344 HD
ATOM      7  H   UNL     1      30.550  -9.460   3.189  1.00  0.00     0.344 HD
ENDBRANCH   3   4
ENDBRANCH   2   3
ENDBRANCH   1   2
BRANCH   1   8
ATOM      8  C   UNL     1      33.429  -7.263  -0.535  1.00  0.00     0.072 C 
BRANCH   8   9
ATOM      9  C   UNL     1      33.084  -6.991  -2.015  1.00  0.00     0.227 C 
BRANCH   9  10
ATOM     10  N   UNL     1      32.491  -8.182  -2.630  1.00  0.00    -0.350 N 
ATOM     11  H   UNL     1      31.716  -8.546  -2.029  1.00  0.00     0.345 HD
ATOM     12  H   UNL     1      33.211  -8.933  -2.753  1.00  0.00     0.345 HD
ATOM     13  H   UNL     1      32.090  -7.937  -3.565  1.00  0.00     0.345 HD
ENDBRANCH   9  10
BRANCH   9  14
ATOM     14  C   UNL     1      32.140  -5.823  -2.144  1.00  0.00     0.099 C 
ATOM     15  O   UNL     1      32.434  -4.712  -1.628  1.00  0.00    -0.544 OA
ATOM     16  O   UNL     1      30.937  -5.963  -2.827  1.00  0.00    -0.544 OA
ENDBRANCH   9  14
ENDBRANCH   8   9
ENDBRANCH   1   8
TORSDOF 7
ENDMDL
MODEL 3
REMARK VINA RESULT:    -3.888      2.198      2.470
REMARK INTER + INTRA:          -5.334
REMARK INTER:                  -5.686
REMARK INTRA:                   0.352
REMARK UNBOUND:                -0.083
REMARK SMILES [NH3+]CCCC[C@@H]([NH3+])C(=O)[O-]
REMARK SMILES IDX 4 1 3 2 2 3 1 4 5 8 6 9 7 10 8 14 9 15 10 16
REMARK H PARENT 1 5 1 6 1 7 7 11 7 12 7 13
REMARK Flexibility Score: inf
ROOT
ATOM      1  C   UNL     1      17.025  -7.567   1.326  1.00  0.00     0.012 C 
ENDROOT
BRANCH   1   2
ATOM      2  C   UNL     1      16.432  -8.749   0.547  1.00  0.00     0.061 C 
BRANCH   2   3
ATOM      3  C   UNL     1      17.489  -9.804   0.179  1.00  0.00     0.258 C 
BRANCH   3   4
ATOM      4  N   UNL     1      18.844  -9.246   0.161  1.00  0.00    -0.358 N 
ATOM      5  H   UNL     1      18.870  -8.338   0.676  1.00  0.00     0.344 HD
ATOM      6  H   UNL     1      19.522  -9.919   0.587  1.00  0.00     0.344 HD
ATOM      7  H   UNL     1      19.124  -9.069  -0.830  1.00  0.00     0.344 HD
ENDBRANCH   3   4
ENDBRANCH   2   3
ENDBRANCH   1   2
BRANCH   1   8
ATOM      8  C   UNL     1      15.919  -6.616   1.810  1.00  0.00     0.072 C 
BRANCH   8   9
ATOM      9  C   UNL     1      16.281  -5.925   3.142  1.00  0.00     0.227 C 
BRANCH   9  10
ATOM     10  N   UNL     1      15.505  -6.500   4.245  1.00  0.00    -0.350 N 
ATOM     11  H   UNL     1      16.072  -6.486   5.124  1.00  0.00     0.345 HD
ATOM     12  H   UNL     1      15.229  -7.486   4.030  1.00  0.00     0.345 HD
ATOM     13  H   UNL     1      14.642  -5.931   4.407  1.00  0.00     0.345 HD
ENDBRANCH   9  10
BRANCH   9  14
ATOM     14  C   UNL     1      17.755  -6.048   3.431  1.00  0.00     0.099 C 
ATOM     15  O   UNL     1      18.515  -5.054   3.279  1.00  0.00    -0.544 OA
ATOM     16  O   UNL     1      18.288  -7.257   3.863  1.00  0.00    -0.544 OA
ENDBRANCH   9  14
ENDBRANCH   8   9
ENDBRANCH   1   8
TORSDOF 7
ENDMDL
MODEL 4
REMARK VINA RESULT:    -3.849      9.889     10.847
REMARK INTER + INTRA:          -5.282
REMARK INTER:                  -5.195
REMARK INTRA:                  -0.087
REMARK UNBOUND:                -0.083
REMARK SMILES [NH3+]CCCC[C@@H]([NH3+])C(=O)[O-]
REMARK SMILES IDX 4 1 3 2 2 3 1 4 5 8 6 9 7 10 8 14 9 15 10 16
REMARK H PARENT 1 5 1 6 1 7 7 11 7 12 7 13
REMARK Flexibility Score: inf
ROOT
ATOM      1  C   UNL     1      26.950  -6.188   3.313  1.00  0.00     0.012 C 
ENDROOT
BRANCH   1   2
ATOM      2  C   UNL     1      26.594  -6.296   4.802  1.00  0.00     0.061 C 
BRANCH   2   3
ATOM      3  C   UNL     1      27.322  -5.248   5.661  1.00  0.00     0.258 C 
BRANCH   3   4
ATOM      4  N   UNL     1      27.284  -3.915   5.056  1.00  0.00    -0.358 N 
ATOM      5  H   UNL     1      27.783  -3.226   5.663  1.00  0.00     0.344 HD
ATOM      6  H   UNL     1      27.718  -3.932   4.104  1.00  0.00     0.344 HD
ATOM      7  H   UNL     1      26.288  -3.611   4.966  1.00  0.00     0.344 HD
ENDBRANCH   3   4
ENDBRANCH   2   3
ENDBRANCH   1   2
BRANCH   1   8
ATOM      8  C   UNL     1      26.614  -7.492   2.571  1.00  0.00     0.072 C 
BRANCH   8   9
ATOM      9  C   UNL     1      25.355  -7.356   1.689  1.00  0.00     0.227 C 
BRANCH   9  10
ATOM     10  N   UNL     1      25.379  -6.088   0.952  1.00  0.00    -0.350 N 
ATOM     11  H   UNL     1      26.309  -5.626   1.070  1.00  0.00     0.345 HD
ATOM     12  H   UNL     1      24.629  -5.444   1.298  1.00  0.00     0.345 HD
ATOM     13  H   UNL     1      25.231  -6.268  -0.068  1.00  0.00     0.345 HD
ENDBRANCH   9  10
BRANCH   9  14
ATOM     14  C   UNL     1      25.243  -8.509   0.724  1.00  0.00     0.099 C 
ATOM     15  O   UNL     1      24.410  -8.465  -0.220  1.00  0.00    -0.544 OA
ATOM     16  O   UNL     1      26.054  -9.628   0.870  1.00  0.00    -0.544 OA
ENDBRANCH   9  14
ENDBRANCH   8   9
ENDBRANCH   1   8
TORSDOF 7
ENDMDL
MODEL 5
REMARK VINA RESULT:    -3.849      3.654      5.552
REMARK INTER + INTRA:          -5.282
REMARK INTER:                  -5.177
REMARK INTRA:                  -0.105
REMARK UNBOUND:                -0.083
REMARK SMILES [NH3+]CCCC[C@@H]([NH3+])C(=O)[O-]
REMARK SMILES IDX 4 1 3 2 2 3 1 4 5 8 6 9 7 10 8 14 9 15 10 16
REMARK H PARENT 1 5 1 6 1 7 7 11 7 12 7 13
REMARK Flexibility Score: inf
ROOT
ATOM      1  C   UNL     1      16.552  -7.242   1.191  1.00  0.00     0.012 C 
ENDROOT
BRANCH   1   2
ATOM      2  C   UNL     1      16.254  -6.672   2.585  1.00  0.00     0.061 C 
BRANCH   2   3
ATOM      3  C   UNL     1      14.873  -5.999   2.666  1.00  0.00     0.258 C 
BRANCH   3   4
ATOM      4  N   UNL     1      14.526  -5.611   4.035  1.00  0.00    -0.358 N 
ATOM      5  H   UNL     1      14.898  -6.311   4.716  1.00  0.00     0.344 HD
ATOM      6  H   UNL     1      14.907  -4.662   4.253  1.00  0.00     0.344 HD
ATOM      7  H   UNL     1      13.486  -5.586   4.127  1.00  0.00     0.344 HD
ENDBRANCH   3   4
ENDBRANCH   2   3
ENDBRANCH   1   2
BRANCH   1   8
ATOM      8  C   UNL     1      17.568  -8.392   1.273  1.00  0.00     0.072 C 
BRANCH   8   9
ATOM      9  C   UNL     1      17.088  -9.652   0.523  1.00  0.00     0.227 C 
BRANCH   9  10
ATOM     10  N   UNL     1      15.692  -9.497   0.101  1.00  0.00    -0.350 N 
ATOM     11  H   UNL     1      15.105  -9.199   0.914  1.00  0.00     0.345 HD
ATOM     12  H   UNL     1      15.318 -10.398  -0.280  1.00  0.00     0.345 HD
ATOM     13  H   UNL     1      15.624  -8.759  -0.638  1.00  0.00     0.345 HD
ENDBRANCH   9  10
BRANCH   9  14
ATOM     14  C   UNL     1      17.958  -9.933  -0.675  1.00  0.00     0.099 C 
ATOM     15  O   UNL     1      17.435 -10.125  -1.806  1.00  0.00    -0.544 OA
ATOM     16  O   UNL     1      19.341  -9.988  -0.542  1.00  0.00    -0.544 OA
ENDBRANCH   9  14
ENDBRANCH   8   9
ENDBRANCH   1   8
TORSDOF 7
ENDMDL
MODEL 6
REMARK VINA RESULT:    -3.805     12.477     13.740
REMARK INTER + INTRA:          -5.222
REMARK INTER:                  -5.052
REMARK INTRA:                  -0.170
REMARK UNBOUND:                -0.083
REMARK SMILES [NH3+]CCCC[C@@H]([NH3+])C(=O)[O-]
REMARK SMILES IDX 4 1 3 2 2 3 1 4 5 8 6 9 7 10 8 14 9 15 10 16
REMARK H PARENT 1 5 1 6 1 7 7 11 7 12 7 13
REMARK Flexibility Score: inf
ROOT
ATOM      1  C   UNL     1      15.585   5.458   7.423  1.00  0.00     0.012 C 
ENDROOT
BRANCH   1   2
ATOM      2  C   UNL     1      14.303   4.629   7.259  1.00  0.00     0.061 C 
BRANCH   2   3
ATOM      3  C   UNL     1      14.589   3.132   7.057  1.00  0.00     0.258 C 
BRANCH   3   4
ATOM      4  N   UNL     1      14.280   2.688   5.696  1.00  0.00    -0.358 N 
ATOM      5  H   UNL     1      14.062   1.666   5.688  1.00  0.00     0.344 HD
ATOM      6  H   UNL     1      13.473   3.230   5.309  1.00  0.00     0.344 HD
ATOM      7  H   UNL     1      15.115   2.849   5.089  1.00  0.00     0.344 HD
ENDBRANCH   3   4
ENDBRANCH   2   3
ENDBRANCH   1   2
BRANCH   1   8
ATOM      8  C   UNL     1      16.620   4.707   8.276  1.00  0.00     0.072 C 
BRANCH   8   9
ATOM      9  C   UNL     1      17.973   4.548   7.549  1.00  0.00     0.227 C 
BRANCH   9  10
ATOM     10  N   UNL     1      17.978   5.317   6.300  1.00  0.00    -0.350 N 
ATOM     11  H   UNL     1      18.903   5.215   5.823  1.00  0.00     0.345 HD
ATOM     12  H   UNL     1      17.798   6.331   6.489  1.00  0.00     0.345 HD
ATOM     13  H   UNL     1      17.238   4.952   5.656  1.00  0.00     0.345 HD
ENDBRANCH   9  10
BRANCH   9  14
ATOM     14  C   UNL     1      19.114   4.989   8.428  1.00  0.00     0.099 C 
ATOM     15  O   UNL     1      20.025   4.176   8.739  1.00  0.00    -0.544 OA
ATOM     16  O   UNL     1      19.169   6.294   8.906  1.00  0.00    -0.544 OA
ENDBRANCH   9  14
ENDBRANCH   8   9
ENDBRANCH   1   8
TORSDOF 7
ENDMDL
MODEL 7
REMARK VINA RESULT:    -3.764      2.441      4.409
REMARK INTER + INTRA:          -5.167
REMARK INTER:                  -4.908
REMARK INTRA:                  -0.259
REMARK UNBOUND:                -0.083
REMARK SMILES [NH3+]CCCC[C@@H]([NH3+])C(=O)[O-]
REMARK SMILES IDX 4 1 3 2 2 3 1 4 5 8 6 9 7 10 8 14 9 15 10 16
REMARK H PARENT 1 5 1 6 1 7 7 11 7 12 7 13
REMARK Flexibility Score: inf
ROOT
ATOM      1  C   UNL     1      16.062  -5.531   1.760  1.00  0.00     0.012 C 
ENDROOT
BRANCH   1   2
ATOM      2  C   UNL     1      14.607  -5.112   2.015  1.00  0.00     0.061 C 
BRANCH   2   3
ATOM      3  C   UNL     1      13.875  -6.071   2.969  1.00  0.00     0.258 C 
BRANCH   3   4
ATOM      4  N   UNL     1      14.178  -5.791   4.374  1.00  0.00    -0.358 N 
ATOM      5  H   UNL     1      15.212  -5.736   4.519  1.00  0.00     0.344 HD
ATOM      6  H   UNL     1      13.727  -4.897   4.674  1.00  0.00     0.344 HD
ATOM      7  H   UNL     1      13.806  -6.570   4.963  1.00  0.00     0.344 HD
ENDBRANCH   3   4
ENDBRANCH   2   3
ENDBRANCH   1   2
BRANCH   1   8
ATOM      8  C   UNL     1      16.150  -7.022   1.397  1.00  0.00     0.072 C 
BRANCH   8   9
ATOM      9  C   UNL     1      17.241  -7.757   2.204  1.00  0.00     0.227 C 
BRANCH   9  10
ATOM     10  N   UNL     1      18.401  -8.046   1.353  1.00  0.00    -0.350 N 
ATOM     11  H   UNL     1      18.352  -9.032   1.007  1.00  0.00     0.345 HD
ATOM     12  H   UNL     1      19.293  -7.913   1.885  1.00  0.00     0.345 HD
ATOM     13  H   UNL     1      18.400  -7.409   0.523  1.00  0.00     0.345 HD
ENDBRANCH   9  10
BRANCH   9  14
ATOM     14  C   UNL     1      17.670  -6.945   3.398  1.00  0.00     0.099 C 
ATOM     15  O   UNL     1      18.766  -6.323   3.380  1.00  0.00    -0.544 OA
ATOM     16  O   UNL     1      16.864  -6.879   4.529  1.00  0.00    -0.544 OA
ENDBRANCH   9  14
ENDBRANCH   8   9
ENDBRANCH   1   8
TORSDOF 7
ENDMDL
MODEL 8
REMARK VINA RESULT:    -3.762      2.949      4.854
REMARK INTER + INTRA:          -5.164
REMARK INTER:                  -5.055
REMARK INTRA:                  -0.110
REMARK UNBOUND:                -0.083
REMARK SMILES [NH3+]CCCC[C@@H]([NH3+])C(=O)[O-]
REMARK SMILES IDX 4 1 3 2 2 3 1 4 5 8 6 9 7 10 8 14 9 15 10 16
REMARK H PARENT 1 5 1 6 1 7 7 11 7 12 7 13
REMARK Flexibility Score: inf
ROOT
ATOM      1  C   UNL     1      16.025  -5.733   2.110  1.00  0.00     0.012 C 
ENDROOT
BRANCH   1   2
ATOM      2  C   UNL     1      14.637  -5.279   2.585  1.00  0.00     0.061 C 
BRANCH   2   3
ATOM      3  C   UNL     1      14.079  -6.167   3.709  1.00  0.00     0.258 C 
BRANCH   3   4
ATOM      4  N   UNL     1      15.045  -6.359   4.794  1.00  0.00    -0.358 N 
ATOM      5  H   UNL     1      15.899  -5.780   4.626  1.00  0.00     0.344 HD
ATOM      6  H   UNL     1      14.617  -6.107   5.714  1.00  0.00     0.344 HD
ATOM      7  H   UNL     1      15.331  -7.364   4.820  1.00  0.00     0.344 HD
ENDBRANCH   3   4
ENDBRANCH   2   3
ENDBRANCH   1   2
BRANCH   1   8
ATOM      8  C   UNL     1      15.947  -7.098   1.408  1.00  0.00     0.072 C 
BRANCH   8   9
ATOM      9  C   UNL     1      17.342  -7.717   1.175  1.00  0.00     0.227 C 
BRANCH   9  10
ATOM     10  N   UNL     1      18.063  -7.850   2.445  1.00  0.00    -0.350 N 
ATOM     11  H   UNL     1      18.169  -8.861   2.690  1.00  0.00     0.345 HD
ATOM     12  H   UNL     1      17.549  -7.361   3.216  1.00  0.00     0.345 HD
ATOM     13  H   UNL     1      19.019  -7.434   2.356  1.00  0.00     0.345 HD
ENDBRANCH   9  10
BRANCH   9  14
ATOM     14  C   UNL     1      17.232  -9.062   0.504  1.00  0.00     0.099 C 
ATOM     15  O   UNL     1      16.101  -9.584   0.316  1.00  0.00    -0.544 OA
ATOM     16  O   UNL     1      18.375  -9.738   0.093  1.00  0.00    -0.544 OA
ENDBRANCH   9  14
ENDBRANCH   8   9
ENDBRANCH   1   8
TORSDOF 7
ENDMDL
MODEL 9
REMARK VINA RESULT:    -3.698     13.413     14.398
REMARK INTER + INTRA:          -5.077
REMARK INTER:                  -4.851
REMARK INTRA:                  -0.227
REMARK UNBOUND:                -0.083
REMARK SMILES [NH3+]CCCC[C@@H]([NH3+])C(=O)[O-]
REMARK SMILES IDX 4 1 3 2 2 3 1 4 5 8 6 9 7 10 8 14 9 15 10 16
REMARK H PARENT 1 5 1 6 1 7 7 11 7 12 7 13
REMARK Flexibility Score: inf
ROOT
ATOM      1  C   UNL     1      22.740   3.776   1.371  1.00  0.00     0.012 C 
ENDROOT
BRANCH   1   2
ATOM      2  C   UNL     1      22.850   4.892   2.419  1.00  0.00     0.061 C 
BRANCH   2   3
ATOM      3  C   UNL     1      23.718   4.490   3.622  1.00  0.00     0.258 C 
BRANCH   3   4
ATOM      4  N   UNL     1      23.724   3.041   3.840  1.00  0.00    -0.358 N 
ATOM      5  H   UNL     1      23.835   2.537   2.931  1.00  0.00     0.344 HD
ATOM      6  H   UNL     1      24.495   2.773   4.494  1.00  0.00     0.344 HD
ATOM      7  H   UNL     1      22.811   2.757   4.262  1.00  0.00     0.344 HD
ENDBRANCH   3   4
ENDBRANCH   2   3
ENDBRANCH   1   2
BRANCH   1   8
ATOM      8  C   UNL     1      23.313   4.232   0.019  1.00  0.00     0.072 C 
BRANCH   8   9
ATOM      9  C   UNL     1      24.813   3.898  -0.124  1.00  0.00     0.227 C 
BRANCH   9  10
ATOM     10  N   UNL     1      25.131   2.653   0.583  1.00  0.00    -0.350 N 
ATOM     11  H   UNL     1      24.631   1.851   0.135  1.00  0.00     0.345 HD
ATOM     12  H   UNL     1      24.848   2.716   1.589  1.00  0.00     0.345 HD
ATOM     13  H   UNL     1      26.159   2.467   0.528  1.00  0.00     0.345 HD
ENDBRANCH   9  10
BRANCH   9  14
ATOM     14  C   UNL     1      25.204   3.779  -1.575  1.00  0.00     0.099 C 
ATOM     15  O   UNL     1      26.421   3.741  -1.901  1.00  0.00    -0.544 OA
ATOM     16  O   UNL     1      24.228   3.715  -2.563  1.00  0.00    -0.544 OA
ENDBRANCH   9  14
ENDBRANCH   8   9
ENDBRANCH   1   8
TORSDOF 7
ENDMDL
