MODEL 1
REMARK VINA RESULT:    21.452      0.000      0.000
REMARK INTER + INTRA:          32.508
REMARK INTER:                  33.365
REMARK INTRA:                  -0.857
REMARK UNBOUND:                -0.857
REMARK SMILES COc1cc(CNC(=O)CCCCC=CC(C)C)ccc1O
REMARK SMILES IDX 11 1 12 2 13 3 14 4 15 5 16 6 17 7 18 8 10 9 8 10 9 11 7 12
REMARK SMILES IDX 6 14 5 15 4 16 19 17 3 18 20 19 21 20 2 21 1 22 22 23
REMARK H PARENT 7 13 22 24
REMARK Flexibility Score: inf
ROOT
ATOM      1  C   UNL     1       9.633  75.450   5.966  1.00  0.00     0.010 C 
ENDROOT
BRANCH   1   2
ATOM      2  C   UNL     1       9.608  74.146   5.152  1.00  0.00     0.005 C 
BRANCH   2   3
ATOM      3  C   UNL     1       9.267  72.922   6.013  1.00  0.00     0.027 C 
BRANCH   3   4
ATOM      4  C   UNL     1       9.939  71.684   5.484  1.00  0.00    -0.031 C 
ATOM      5  C   UNL     1       9.278  70.802   4.715  1.00  0.00    -0.028 C 
BRANCH   5   6
ATOM      6  C   UNL     1       9.930  69.559   4.152  1.00  0.00     0.005 C 
ATOM      7  C   UNL     1      11.414  69.489   4.527  1.00  0.00     0.012 C 
ATOM      8  C   UNL     1       9.738  69.466   2.633  1.00  0.00     0.012 C 
ENDBRANCH   5   6
ENDBRANCH   3   4
ENDBRANCH   2   3
ENDBRANCH   1   2
BRANCH   1   9
ATOM      9  C   UNL     1      11.051  76.017   6.134  1.00  0.00     0.100 C 
BRANCH   9  10
ATOM     10  C   UNL     1      11.493  76.757   4.903  1.00  0.00     0.220 C 
ATOM     11  O   UNL     1      12.649  77.255   4.854  1.00  0.00    -0.275 OA
ATOM     12  N   UNL     1      10.582  76.952   3.816  1.00  0.00    -0.352 N 
ATOM     13  H   UNL     1       9.594  76.623   3.912  1.00  0.00     0.163 HD
BRANCH  12  14
ATOM     14  C   UNL     1      11.000  77.502   2.528  1.00  0.00     0.151 C 
BRANCH  14  15
ATOM     15  C   UNL     1      11.127  76.393   1.519  1.00  0.00    -0.025 A 
ATOM     16  C   UNL     1       9.976  75.751   1.039  1.00  0.00     0.056 A 
ATOM     17  C   UNL     1      12.390  75.963   1.085  1.00  0.00     0.009 A 
ATOM     18  C   UNL     1      10.081  74.692   0.115  1.00  0.00     0.160 A 
ATOM     19  C   UNL     1      12.499  74.913   0.171  1.00  0.00     0.050 A 
ATOM     20  C   UNL     1      11.349  74.277  -0.315  1.00  0.00     0.157 A 
BRANCH  18  21
ATOM     21  O   UNL     1       8.953  74.034  -0.395  1.00  0.00    -0.493 OA
ATOM     22  C   UNL     1       7.751  74.685  -0.790  1.00  0.00     0.278 C 
ENDBRANCH  18  21
BRANCH  20  23
ATOM     23  O   UNL     1      11.459  73.233  -1.228  1.00  0.00    -0.504 OA
ATOM     24  H   UNL     1      12.197  72.544  -1.159  1.00  0.00     0.293 HD
ENDBRANCH  20  23
ENDBRANCH  14  15
ENDBRANCH  12  14
ENDBRANCH   9  10
ENDBRANCH   1   9
TORSDOF 10
ENDMDL
MODEL 2
REMARK VINA RESULT:    21.485      2.212      5.483
REMARK INTER + INTRA:          32.561
REMARK INTER:                  32.385
REMARK INTRA:                   0.175
REMARK UNBOUND:                -0.857
REMARK SMILES COc1cc(CNC(=O)CCCCC=CC(C)C)ccc1O
REMARK SMILES IDX 11 1 12 2 13 3 14 4 15 5 16 6 17 7 18 8 10 9 8 10 9 11 7 12
REMARK SMILES IDX 6 14 5 15 4 16 19 17 3 18 20 19 21 20 2 21 1 22 22 23
REMARK H PARENT 7 13 22 24
REMARK Flexibility Score: inf
ROOT
ATOM      1  C   UNL     1       9.775  77.107   3.934  1.00  0.00     0.010 C 
ENDROOT
BRANCH   1   2
ATOM      2  C   UNL     1      11.245  76.839   4.292  1.00  0.00     0.005 C 
BRANCH   2   3
ATOM      3  C   UNL     1      12.172  76.919   3.070  1.00  0.00     0.027 C 
BRANCH   3   4
ATOM      4  C   UNL     1      11.473  76.435   1.828  1.00  0.00    -0.031 C 
ATOM      5  C   UNL     1      11.996  75.461   1.064  1.00  0.00    -0.028 C 
BRANCH   5   6
ATOM      6  C   UNL     1      11.309  74.939  -0.179  1.00  0.00     0.005 C 
ATOM      7  C   UNL     1       9.830  74.638   0.087  1.00  0.00     0.012 C 
ATOM      8  C   UNL     1      12.031  73.710  -0.743  1.00  0.00     0.012 C 
ENDBRANCH   5   6
ENDBRANCH   3   4
ENDBRANCH   2   3
ENDBRANCH   1   2
BRANCH   1   9
ATOM      9  C   UNL     1       8.801  76.213   4.718  1.00  0.00     0.100 C 
BRANCH   9  10
ATOM     10  C   UNL     1       9.524  75.086   5.401  1.00  0.00     0.220 C 
ATOM     11  O   UNL     1      10.585  75.320   6.039  1.00  0.00    -0.275 OA
ATOM     12  N   UNL     1       9.046  73.743   5.274  1.00  0.00    -0.352 N 
ATOM     13  H   UNL     1       8.223  73.550   4.658  1.00  0.00     0.163 HD
BRANCH  12  14
ATOM     14  C   UNL     1       9.594  72.635   6.053  1.00  0.00     0.151 C 
BRANCH  14  15
ATOM     15  C   UNL     1       9.947  71.495   5.137  1.00  0.00    -0.025 A 
ATOM     16  C   UNL     1       9.206  71.286   3.965  1.00  0.00     0.056 A 
ATOM     17  C   UNL     1      10.984  70.609   5.466  1.00  0.00     0.009 A 
ATOM     18  C   UNL     1       9.507  70.206   3.111  1.00  0.00     0.160 A 
ATOM     19  C   UNL     1      11.285  69.536   4.624  1.00  0.00     0.050 A 
ATOM     20  C   UNL     1      10.551  69.332   3.448  1.00  0.00     0.157 A 
BRANCH  18  21
ATOM     21  O   UNL     1       8.796  69.972   1.925  1.00  0.00    -0.493 OA
ATOM     22  C   UNL     1       9.223  70.390   0.635  1.00  0.00     0.278 C 
ENDBRANCH  18  21
BRANCH  20  23
ATOM     23  O   UNL     1      10.853  68.265   2.609  1.00  0.00    -0.504 OA
ATOM     24  H   UNL     1      11.730  67.764   2.684  1.00  0.00     0.293 HD
ENDBRANCH  20  23
ENDBRANCH  14  15
ENDBRANCH  12  14
ENDBRANCH   9  10
ENDBRANCH   1   9
TORSDOF 10
ENDMDL
MODEL 3
REMARK VINA RESULT:    22.212      2.765      6.849
REMARK INTER + INTRA:          33.690
REMARK INTER:                  34.230
REMARK INTRA:                  -0.540
REMARK UNBOUND:                -0.857
REMARK SMILES COc1cc(CNC(=O)CCCCC=CC(C)C)ccc1O
REMARK SMILES IDX 11 1 12 2 13 3 14 4 15 5 16 6 17 7 18 8 10 9 8 10 9 11 7 12
REMARK SMILES IDX 6 14 5 15 4 16 19 17 3 18 20 19 21 20 2 21 1 22 22 23
REMARK H PARENT 7 13 22 24
REMARK Flexibility Score: inf
ROOT
ATOM      1  C   UNL     1       9.783  77.251   4.026  1.00  0.00     0.010 C 
ENDROOT
BRANCH   1   2
ATOM      2  C   UNL     1      10.506  76.725   2.776  1.00  0.00     0.005 C 
BRANCH   2   3
ATOM      3  C   UNL     1      11.891  77.361   2.585  1.00  0.00     0.027 C 
BRANCH   3   4
ATOM      4  C   UNL     1      11.892  78.316   1.423  1.00  0.00    -0.031 C 
ATOM      5  C   UNL     1      12.801  79.302   1.327  1.00  0.00    -0.028 C 
BRANCH   5   6
ATOM      6  C   UNL     1      12.842  80.266   0.162  1.00  0.00     0.005 C 
ATOM      7  C   UNL     1      11.496  80.976  -0.021  1.00  0.00     0.012 C 
ATOM      8  C   UNL     1      13.278  79.564  -1.130  1.00  0.00     0.012 C 
ENDBRANCH   5   6
ENDBRANCH   3   4
ENDBRANCH   2   3
ENDBRANCH   1   2
BRANCH   1   9
ATOM      9  C   UNL     1       8.821  76.218   4.634  1.00  0.00     0.100 C 
BRANCH   9  10
ATOM     10  C   UNL     1       9.571  75.093   5.291  1.00  0.00     0.220 C 
ATOM     11  O   UNL     1      10.707  75.309   5.791  1.00  0.00    -0.275 OA
ATOM     12  N   UNL     1       9.027  73.770   5.292  1.00  0.00    -0.352 N 
ATOM     13  H   UNL     1       8.131  73.586   4.783  1.00  0.00     0.163 HD
BRANCH  12  14
ATOM     14  C   UNL     1       9.615  72.677   6.062  1.00  0.00     0.151 C 
BRANCH  14  15
ATOM     15  C   UNL     1       9.954  71.532   5.146  1.00  0.00    -0.025 A 
ATOM     16  C   UNL     1       9.229  71.351   3.959  1.00  0.00     0.056 A 
ATOM     17  C   UNL     1      10.959  70.616   5.488  1.00  0.00     0.009 A 
ATOM     18  C   UNL     1       9.515  70.268   3.105  1.00  0.00     0.160 A 
ATOM     19  C   UNL     1      11.245  69.539   4.646  1.00  0.00     0.050 A 
ATOM     20  C   UNL     1      10.527  69.363   3.456  1.00  0.00     0.157 A 
BRANCH  18  21
ATOM     21  O   UNL     1       8.819  70.060   1.905  1.00  0.00    -0.493 OA
ATOM     22  C   UNL     1       9.289  70.460   0.623  1.00  0.00     0.278 C 
ENDBRANCH  18  21
BRANCH  20  23
ATOM     23  O   UNL     1      10.815  68.292   2.616  1.00  0.00    -0.504 OA
ATOM     24  H   UNL     1      11.138  67.405   2.980  1.00  0.00     0.293 HD
ENDBRANCH  20  23
ENDBRANCH  14  15
ENDBRANCH  12  14
ENDBRANCH   9  10
ENDBRANCH   1   9
TORSDOF 10
ENDMDL
MODEL 4
REMARK VINA RESULT:    22.274      3.347      5.598
REMARK INTER + INTRA:          33.788
REMARK INTER:                  34.392
REMARK INTRA:                  -0.604
REMARK UNBOUND:                -0.857
REMARK SMILES COc1cc(CNC(=O)CCCCC=CC(C)C)ccc1O
REMARK SMILES IDX 11 1 12 2 13 3 14 4 15 5 16 6 17 7 18 8 10 9 8 10 9 11 7 12
REMARK SMILES IDX 6 14 5 15 4 16 19 17 3 18 20 19 21 20 2 21 1 22 22 23
REMARK H PARENT 7 13 22 24
REMARK Flexibility Score: inf
ROOT
ATOM      1  C   UNL     1       9.094  69.785   4.227  1.00  0.00     0.010 C 
ENDROOT
BRANCH   1   2
ATOM      2  C   UNL     1       9.215  68.333   4.712  1.00  0.00     0.005 C 
BRANCH   2   3
ATOM      3  C   UNL     1       8.494  68.096   6.047  1.00  0.00     0.027 C 
BRANCH   3   4
ATOM      4  C   UNL     1       9.319  67.233   6.962  1.00  0.00    -0.031 C 
ATOM      5  C   UNL     1       8.816  66.115   7.513  1.00  0.00    -0.028 C 
BRANCH   5   6
ATOM      6  C   UNL     1       9.625  65.215   8.420  1.00  0.00     0.005 C 
ATOM      7  C   UNL     1      11.129  65.421   8.213  1.00  0.00     0.012 C 
ATOM      8  C   UNL     1       9.238  63.742   8.238  1.00  0.00     0.012 C 
ENDBRANCH   5   6
ENDBRANCH   3   4
ENDBRANCH   2   3
ENDBRANCH   1   2
BRANCH   1   9
ATOM      9  C   UNL     1      10.238  70.678   4.733  1.00  0.00     0.100 C 
BRANCH   9  10
ATOM     10  C   UNL     1       9.712  71.850   5.513  1.00  0.00     0.220 C 
ATOM     11  O   UNL     1       9.269  71.676   6.679  1.00  0.00    -0.275 OA
ATOM     12  N   UNL     1       9.655  73.147   4.910  1.00  0.00    -0.352 N 
ATOM     13  H   UNL     1       9.931  73.257   3.907  1.00  0.00     0.163 HD
BRANCH  12  14
ATOM     14  C   UNL     1       9.325  74.353   5.666  1.00  0.00     0.151 C 
BRANCH  14  15
ATOM     15  C   UNL     1      10.343  75.425   5.385  1.00  0.00    -0.025 A 
ATOM     16  C   UNL     1      10.630  75.783   4.060  1.00  0.00     0.056 A 
ATOM     17  C   UNL     1      11.042  76.040   6.435  1.00  0.00     0.009 A 
ATOM     18  C   UNL     1      11.602  76.765   3.780  1.00  0.00     0.160 A 
ATOM     19  C   UNL     1      12.007  77.012   6.162  1.00  0.00     0.050 A 
ATOM     20  C   UNL     1      12.288  77.376   4.839  1.00  0.00     0.157 A 
BRANCH  18  21
ATOM     21  O   UNL     1      11.908  77.157   2.469  1.00  0.00    -0.493 OA
ATOM     22  C   UNL     1      11.891  76.288   1.344  1.00  0.00     0.278 C 
ENDBRANCH  18  21
BRANCH  20  23
ATOM     23  O   UNL     1      13.247  78.348   4.569  1.00  0.00    -0.504 OA
ATOM     24  H   UNL     1      13.049  79.333   4.682  1.00  0.00     0.293 HD
ENDBRANCH  20  23
ENDBRANCH  14  15
ENDBRANCH  12  14
ENDBRANCH   9  10
ENDBRANCH   1   9
TORSDOF 10
ENDMDL
MODEL 5
REMARK VINA RESULT:    22.362      3.439      5.845
REMARK INTER + INTRA:          33.924
REMARK INTER:                  34.505
REMARK INTRA:                  -0.581
REMARK UNBOUND:                -0.857
REMARK SMILES COc1cc(CNC(=O)CCCCC=CC(C)C)ccc1O
REMARK SMILES IDX 11 1 12 2 13 3 14 4 15 5 16 6 17 7 18 8 10 9 8 10 9 11 7 12
REMARK SMILES IDX 6 14 5 15 4 16 19 17 3 18 20 19 21 20 2 21 1 22 22 23
REMARK H PARENT 7 13 22 24
REMARK Flexibility Score: inf
ROOT
ATOM      1  C   UNL     1       9.152  69.667   4.207  1.00  0.00     0.010 C 
ENDROOT
BRANCH   1   2
ATOM      2  C   UNL     1       8.767  68.221   4.555  1.00  0.00     0.005 C 
BRANCH   2   3
ATOM      3  C   UNL     1       8.482  68.032   6.052  1.00  0.00     0.027 C 
BRANCH   3   4
ATOM      4  C   UNL     1       9.350  66.951   6.636  1.00  0.00    -0.031 C 
ATOM      5  C   UNL     1       9.107  66.439   7.855  1.00  0.00    -0.028 C 
BRANCH   5   6
ATOM      6  C   UNL     1       9.948  65.337   8.461  1.00  0.00     0.005 C 
ATOM      7  C   UNL     1      11.403  65.422   7.988  1.00  0.00     0.012 C 
ATOM      8  C   UNL     1       9.352  63.955   8.171  1.00  0.00     0.012 C 
ENDBRANCH   5   6
ENDBRANCH   3   4
ENDBRANCH   2   3
ENDBRANCH   1   2
BRANCH   1   9
ATOM      9  C   UNL     1      10.221  70.240   5.151  1.00  0.00     0.100 C 
BRANCH   9  10
ATOM     10  C   UNL     1       9.715  71.458   5.873  1.00  0.00     0.220 C 
ATOM     11  O   UNL     1       9.246  71.344   7.037  1.00  0.00    -0.275 OA
ATOM     12  N   UNL     1       9.706  72.731   5.218  1.00  0.00    -0.352 N 
ATOM     13  H   UNL     1      10.003  72.791   4.217  1.00  0.00     0.163 HD
BRANCH  12  14
ATOM     14  C   UNL     1       9.397  73.975   5.919  1.00  0.00     0.151 C 
BRANCH  14  15
ATOM     15  C   UNL     1       9.820  75.150   5.080  1.00  0.00    -0.025 A 
ATOM     16  C   UNL     1      11.102  75.696   5.240  1.00  0.00     0.056 A 
ATOM     17  C   UNL     1       8.928  75.736   4.169  1.00  0.00     0.009 A 
ATOM     18  C   UNL     1      11.503  76.814   4.482  1.00  0.00     0.160 A 
ATOM     19  C   UNL     1       9.320  76.845   3.416  1.00  0.00     0.050 A 
ATOM     20  C   UNL     1      10.603  77.386   3.570  1.00  0.00     0.157 A 
BRANCH  18  21
ATOM     21  O   UNL     1      12.779  77.381   4.606  1.00  0.00    -0.493 OA
ATOM     22  C   UNL     1      13.122  78.395   5.543  1.00  0.00     0.278 C 
ENDBRANCH  18  21
BRANCH  20  23
ATOM     23  O   UNL     1      10.993  78.489   2.817  1.00  0.00    -0.504 OA
ATOM     24  H   UNL     1      10.317  79.070   2.339  1.00  0.00     0.293 HD
ENDBRANCH  20  23
ENDBRANCH  14  15
ENDBRANCH  12  14
ENDBRANCH   9  10
ENDBRANCH   1   9
TORSDOF 10
ENDMDL
MODEL 6
REMARK VINA RESULT:    22.375      1.321      2.094
REMARK INTER + INTRA:          33.945
REMARK INTER:                  34.433
REMARK INTRA:                  -0.488
REMARK UNBOUND:                -0.857
REMARK SMILES COc1cc(CNC(=O)CCCCC=CC(C)C)ccc1O
REMARK SMILES IDX 11 1 12 2 13 3 14 4 15 5 16 6 17 7 18 8 10 9 8 10 9 11 7 12
REMARK SMILES IDX 6 14 5 15 4 16 19 17 3 18 20 19 21 20 2 21 1 22 22 23
REMARK H PARENT 7 13 22 24
REMARK Flexibility Score: inf
ROOT
ATOM      1  C   UNL     1       9.307  73.028   5.485  1.00  0.00     0.010 C 
ENDROOT
BRANCH   1   2
ATOM      2  C   UNL     1       9.835  71.829   6.288  1.00  0.00     0.005 C 
BRANCH   2   3
ATOM      3  C   UNL     1       9.205  70.501   5.845  1.00  0.00     0.027 C 
BRANCH   3   4
ATOM      4  C   UNL     1       9.304  70.325   4.354  1.00  0.00    -0.031 C 
ATOM      5  C   UNL     1      10.052  69.350   3.811  1.00  0.00    -0.028 C 
BRANCH   5   6
ATOM      6  C   UNL     1      10.156  69.135   2.317  1.00  0.00     0.005 C 
ATOM      7  C   UNL     1       9.379  70.206   1.544  1.00  0.00     0.012 C 
ATOM      8  C   UNL     1       9.698  67.726   1.921  1.00  0.00     0.012 C 
ENDBRANCH   5   6
ENDBRANCH   3   4
ENDBRANCH   2   3
ENDBRANCH   1   2
BRANCH   1   9
ATOM      9  C   UNL     1       9.246  74.319   6.317  1.00  0.00     0.100 C 
BRANCH   9  10
ATOM     10  C   UNL     1       9.777  75.493   5.543  1.00  0.00     0.220 C 
ATOM     11  O   UNL     1      11.004  75.774   5.598  1.00  0.00    -0.275 OA
ATOM     12  N   UNL     1       8.883  76.327   4.800  1.00  0.00    -0.352 N 
ATOM     13  H   UNL     1       7.854  76.143   4.847  1.00  0.00     0.163 HD
BRANCH  12  14
ATOM     14  C   UNL     1       9.352  77.369   3.889  1.00  0.00     0.151 C 
BRANCH  14  15
ATOM     15  C   UNL     1      10.212  76.758   2.816  1.00  0.00    -0.025 A 
ATOM     16  C   UNL     1       9.626  75.961   1.823  1.00  0.00     0.056 A 
ATOM     17  C   UNL     1      11.603  76.940   2.826  1.00  0.00     0.009 A 
ATOM     18  C   UNL     1      10.422  75.359   0.828  1.00  0.00     0.160 A 
ATOM     19  C   UNL     1      12.396  76.344   1.843  1.00  0.00     0.050 A 
ATOM     20  C   UNL     1      11.810  75.555   0.845  1.00  0.00     0.157 A 
BRANCH  18  21
ATOM     21  O   UNL     1       9.871  74.564  -0.189  1.00  0.00    -0.493 OA
ATOM     22  C   UNL     1       8.480  74.472  -0.473  1.00  0.00     0.278 C 
ENDBRANCH  18  21
BRANCH  20  23
ATOM     23  O   UNL     1      12.601  74.964  -0.136  1.00  0.00    -0.504 OA
ATOM     24  H   UNL     1      13.226  74.197   0.079  1.00  0.00     0.293 HD
ENDBRANCH  20  23
ENDBRANCH  14  15
ENDBRANCH  12  14
ENDBRANCH   9  10
ENDBRANCH   1   9
TORSDOF 10
ENDMDL
MODEL 7
REMARK VINA RESULT:    22.411      7.138     10.611
REMARK INTER + INTRA:          34.000
REMARK INTER:                  34.222
REMARK INTRA:                  -0.221
REMARK UNBOUND:                -0.857
REMARK SMILES COc1cc(CNC(=O)CCCCC=CC(C)C)ccc1O
REMARK SMILES IDX 11 1 12 2 13 3 14 4 15 5 16 6 17 7 18 8 10 9 8 10 9 11 7 12
REMARK SMILES IDX 6 14 5 15 4 16 19 17 3 18 20 19 21 20 2 21 1 22 22 23
REMARK H PARENT 7 13 22 24
REMARK Flexibility Score: inf
ROOT
ATOM      1  C   UNL     1       6.220  65.124  -0.430  1.00  0.00     0.010 C 
ENDROOT
BRANCH   1   2
ATOM      2  C   UNL     1       5.177  63.996  -0.411  1.00  0.00     0.005 C 
BRANCH   2   3
ATOM      3  C   UNL     1       5.818  62.602  -0.473  1.00  0.00     0.027 C 
BRANCH   3   4
ATOM      4  C   UNL     1       5.375  61.856  -1.702  1.00  0.00    -0.031 C 
ATOM      5  C   UNL     1       4.392  62.324  -2.489  1.00  0.00    -0.028 C 
BRANCH   5   6
ATOM      6  C   UNL     1       3.937  61.608  -3.742  1.00  0.00     0.005 C 
ATOM      7  C   UNL     1       5.123  61.269  -4.652  1.00  0.00     0.012 C 
ATOM      8  C   UNL     1       2.875  62.419  -4.495  1.00  0.00     0.012 C 
ENDBRANCH   5   6
ENDBRANCH   3   4
ENDBRANCH   2   3
ENDBRANCH   1   2
BRANCH   1   9
ATOM      9  C   UNL     1       6.845  65.378   0.951  1.00  0.00     0.100 C 
BRANCH   9  10
ATOM     10  C   UNL     1       8.131  66.149   0.835  1.00  0.00     0.220 C 
ATOM     11  O   UNL     1       8.795  66.097  -0.234  1.00  0.00    -0.275 OA
ATOM     12  N   UNL     1       8.631  66.885   1.956  1.00  0.00    -0.352 N 
ATOM     13  H   UNL     1       8.121  66.835   2.868  1.00  0.00     0.163 HD
BRANCH  12  14
ATOM     14  C   UNL     1       9.771  67.793   1.856  1.00  0.00     0.151 C 
BRANCH  14  15
ATOM     15  C   UNL     1       9.735  68.783   2.989  1.00  0.00    -0.025 A 
ATOM     16  C   UNL     1      10.911  69.080   3.693  1.00  0.00     0.056 A 
ATOM     17  C   UNL     1       8.526  69.378   3.379  1.00  0.00     0.009 A 
ATOM     18  C   UNL     1      10.888  69.983   4.774  1.00  0.00     0.160 A 
ATOM     19  C   UNL     1       8.498  70.272   4.452  1.00  0.00     0.050 A 
ATOM     20  C   UNL     1       9.674  70.576   5.149  1.00  0.00     0.157 A 
BRANCH  18  21
ATOM     21  O   UNL     1      12.045  70.313   5.495  1.00  0.00    -0.493 OA
ATOM     22  C   UNL     1      12.552  71.634   5.640  1.00  0.00     0.278 C 
ENDBRANCH  18  21
BRANCH  20  23
ATOM     23  O   UNL     1       9.645  71.470   6.216  1.00  0.00    -0.504 OA
ATOM     24  H   UNL     1       9.726  72.468   6.073  1.00  0.00     0.293 HD
ENDBRANCH  20  23
ENDBRANCH  14  15
ENDBRANCH  12  14
ENDBRANCH   9  10
ENDBRANCH   1   9
TORSDOF 10
ENDMDL
MODEL 8
REMARK VINA RESULT:    22.454      2.671      6.121
REMARK INTER + INTRA:          34.067
REMARK INTER:                  35.180
REMARK INTRA:                  -1.113
REMARK UNBOUND:                -0.857
REMARK SMILES COc1cc(CNC(=O)CCCCC=CC(C)C)ccc1O
REMARK SMILES IDX 11 1 12 2 13 3 14 4 15 5 16 6 17 7 18 8 10 9 8 10 9 11 7 12
REMARK SMILES IDX 6 14 5 15 4 16 19 17 3 18 20 19 21 20 2 21 1 22 22 23
REMARK H PARENT 7 13 22 24
REMARK Flexibility Score: inf
ROOT
ATOM      1  C   UNL     1      11.867  76.211   4.954  1.00  0.00     0.010 C 
ENDROOT
BRANCH   1   2
ATOM      2  C   UNL     1      12.282  77.285   3.937  1.00  0.00     0.005 C 
BRANCH   2   3
ATOM      3  C   UNL     1      11.223  77.502   2.845  1.00  0.00     0.027 C 
BRANCH   3   4
ATOM      4  C   UNL     1      11.281  76.411   1.811  1.00  0.00    -0.031 C 
ATOM      5  C   UNL     1      10.194  75.687   1.495  1.00  0.00    -0.028 C 
BRANCH   5   6
ATOM      6  C   UNL     1      10.214  74.598   0.446  1.00  0.00     0.005 C 
ATOM      7  C   UNL     1      11.530  74.603  -0.339  1.00  0.00     0.012 C 
ATOM      8  C   UNL     1       9.008  74.704  -0.495  1.00  0.00     0.012 C 
ENDBRANCH   5   6
ENDBRANCH   3   4
ENDBRANCH   2   3
ENDBRANCH   1   2
BRANCH   1   9
ATOM      9  C   UNL     1      10.503  76.501   5.601  1.00  0.00     0.100 C 
BRANCH   9  10
ATOM     10  C   UNL     1       9.500  75.433   5.264  1.00  0.00     0.220 C 
ATOM     11  O   UNL     1       8.548  75.695   4.481  1.00  0.00    -0.275 OA
ATOM     12  N   UNL     1       9.588  74.144   5.879  1.00  0.00    -0.352 N 
ATOM     13  H   UNL     1      10.323  73.974   6.605  1.00  0.00     0.163 HD
BRANCH  12  14
ATOM     14  C   UNL     1       8.760  73.015   5.464  1.00  0.00     0.151 C 
BRANCH  14  15
ATOM     15  C   UNL     1       9.630  71.818   5.191  1.00  0.00    -0.025 A 
ATOM     16  C   UNL     1      10.933  71.771   5.705  1.00  0.00     0.056 A 
ATOM     17  C   UNL     1       9.166  70.766   4.386  1.00  0.00     0.009 A 
ATOM     18  C   UNL     1      11.770  70.670   5.434  1.00  0.00     0.160 A 
ATOM     19  C   UNL     1       9.992  69.674   4.113  1.00  0.00     0.050 A 
ATOM     20  C   UNL     1      11.292  69.623   4.634  1.00  0.00     0.157 A 
BRANCH  18  21
ATOM     21  O   UNL     1      13.075  70.583   5.940  1.00  0.00    -0.493 OA
ATOM     22  C   UNL     1      13.661  71.532   6.823  1.00  0.00     0.278 C 
ENDBRANCH  18  21
BRANCH  20  23
ATOM     23  O   UNL     1      12.112  68.532   4.364  1.00  0.00    -0.504 OA
ATOM     24  H   UNL     1      11.783  67.582   4.472  1.00  0.00     0.293 HD
ENDBRANCH  20  23
ENDBRANCH  14  15
ENDBRANCH  12  14
ENDBRANCH   9  10
ENDBRANCH   1   9
TORSDOF 10
ENDMDL
MODEL 9
REMARK VINA RESULT:    22.455      1.753      5.504
REMARK INTER + INTRA:          34.069
REMARK INTER:                  34.538
REMARK INTRA:                  -0.470
REMARK UNBOUND:                -0.857
REMARK SMILES COc1cc(CNC(=O)CCCCC=CC(C)C)ccc1O
REMARK SMILES IDX 11 1 12 2 13 3 14 4 15 5 16 6 17 7 18 8 10 9 8 10 9 11 7 12
REMARK SMILES IDX 6 14 5 15 4 16 19 17 3 18 20 19 21 20 2 21 1 22 22 23
REMARK H PARENT 7 13 22 24
REMARK Flexibility Score: inf
ROOT
ATOM      1  C   UNL     1       8.865  71.962   0.143  1.00  0.00     0.010 C 
ENDROOT
BRANCH   1   2
ATOM      2  C   UNL     1       9.625  70.628   0.206  1.00  0.00     0.005 C 
BRANCH   2   3
ATOM      3  C   UNL     1       9.072  69.686   1.285  1.00  0.00     0.027 C 
BRANCH   3   4
ATOM      4  C   UNL     1       9.825  69.843   2.578  1.00  0.00    -0.031 C 
ATOM      5  C   UNL     1       9.184  69.959   3.753  1.00  0.00    -0.028 C 
BRANCH   5   6
ATOM      6  C   UNL     1       9.912  70.098   5.072  1.00  0.00     0.005 C 
ATOM      7  C   UNL     1       9.579  71.428   5.755  1.00  0.00     0.012 C 
ATOM      8  C   UNL     1      11.426  69.930   4.895  1.00  0.00     0.012 C 
ENDBRANCH   5   6
ENDBRANCH   3   4
ENDBRANCH   2   3
ENDBRANCH   1   2
BRANCH   1   9
ATOM      9  C   UNL     1       9.687  73.083  -0.513  1.00  0.00     0.100 C 
BRANCH   9  10
ATOM     10  C   UNL     1       9.244  74.437  -0.034  1.00  0.00     0.220 C 
ATOM     11  O   UNL     1       8.265  75.005  -0.587  1.00  0.00    -0.275 OA
ATOM     12  N   UNL     1       9.970  75.107   1.002  1.00  0.00    -0.352 N 
ATOM     13  H   UNL     1      10.841  74.668   1.380  1.00  0.00     0.163 HD
BRANCH  12  14
ATOM     14  C   UNL     1       9.491  76.335   1.632  1.00  0.00     0.151 C 
BRANCH  14  15
ATOM     15  C   UNL     1      10.036  76.435   3.031  1.00  0.00    -0.025 A 
ATOM     16  C   UNL     1      11.307  76.987   3.247  1.00  0.00     0.056 A 
ATOM     17  C   UNL     1       9.303  75.939   4.120  1.00  0.00     0.009 A 
ATOM     18  C   UNL     1      11.842  77.062   4.548  1.00  0.00     0.160 A 
ATOM     19  C   UNL     1       9.830  76.009   5.411  1.00  0.00     0.050 A 
ATOM     20  C   UNL     1      11.096  76.569   5.629  1.00  0.00     0.157 A 
BRANCH  18  21
ATOM     21  O   UNL     1      13.104  77.617   4.804  1.00  0.00    -0.493 OA
ATOM     22  C   UNL     1      13.332  78.748   5.636  1.00  0.00     0.278 C 
ENDBRANCH  18  21
BRANCH  20  23
ATOM     23  O   UNL     1      11.619  76.641   6.916  1.00  0.00    -0.504 OA
ATOM     24  H   UNL     1      11.507  75.882   7.576  1.00  0.00     0.293 HD
ENDBRANCH  20  23
ENDBRANCH  14  15
ENDBRANCH  12  14
ENDBRANCH   9  10
ENDBRANCH   1   9
TORSDOF 10
ENDMDL
