MODEL 1
REMARK VINA RESULT:    -7.148      0.000      0.000
REMARK INTER + INTRA:          -9.176
REMARK INTER:                  -8.819
REMARK INTRA:                  -0.357
REMARK UNBOUND:                -0.357
REMARK SMILES O=c1c(O)c(-c2cc(O)c(O)c(O)c2)oc2cc(O)cc(O)c12
REMARK SMILES IDX 5 1 3 2 2 3 1 4 23 5 21 6 20 7 18 8 17 9 16 10 15 11 6 12
REMARK SMILES IDX 7 13 8 14 14 15 10 16 12 17 9 18 11 20 13 22 4 24 22 26
REMARK SMILES IDX 19 28
REMARK H PARENT 9 19 11 21 13 23 4 25 22 27 19 29
REMARK Flexibility Score: inf
ROOT
ATOM      1  C   UNL     1     165.606 154.826 151.231  1.00  0.00     0.180 A 
ATOM      2  C   UNL     1     164.539 153.919 151.378  1.00  0.00     0.208 A 
ATOM      3  C   UNL     1     164.732 152.579 151.006  1.00  0.00     0.238 A 
ATOM      4  O   UNL     1     163.780 151.759 151.123  1.00  0.00    -0.285 OA
ATOM      5  C   UNL     1     165.987 152.166 150.513  1.00  0.00     0.111 A 
ATOM      6  C   UNL     1     166.265 150.835 150.120  1.00  0.00     0.134 A 
ATOM      7  C   UNL     1     167.542 150.500 149.648  1.00  0.00     0.093 A 
ATOM      8  C   UNL     1     168.547 151.471 149.563  1.00  0.00     0.123 A 
ATOM      9  C   UNL     1     168.278 152.785 149.949  1.00  0.00     0.094 A 
ATOM     10  C   UNL     1     167.010 153.139 150.420  1.00  0.00     0.146 A 
ATOM     11  O   UNL     1     166.780 154.398 150.777  1.00  0.00    -0.452 OA
ENDROOT
BRANCH   1  12
ATOM     12  C   UNL     1     165.475 156.258 151.584  1.00  0.00     0.029 A 
ATOM     13  C   UNL     1     165.698 156.712 152.892  1.00  0.00     0.062 A 
ATOM     14  C   UNL     1     165.547 158.063 153.214  1.00  0.00     0.162 A 
ATOM     15  C   UNL     1     165.062 157.175 150.607  1.00  0.00     0.062 A 
ATOM     16  C   UNL     1     165.158 158.987 152.228  1.00  0.00     0.200 A 
ATOM     17  C   UNL     1     164.907 158.532 150.910  1.00  0.00     0.162 A 
BRANCH  14  18
ATOM     18  O   UNL     1     165.787 158.470 154.527  1.00  0.00    -0.504 OA
ATOM     19  H   UNL     1     165.038 158.645 155.185  1.00  0.00     0.293 HD
ENDBRANCH  14  18
BRANCH  16  20
ATOM     20  O   UNL     1     165.027 160.331 152.589  1.00  0.00    -0.502 OA
ATOM     21  H   UNL     1     164.305 160.945 152.241  1.00  0.00     0.293 HD
ENDBRANCH  16  20
BRANCH  17  22
ATOM     22  O   UNL     1     164.505 159.385 149.880  1.00  0.00    -0.504 OA
ATOM     23  H   UNL     1     163.778 160.079 149.970  1.00  0.00     0.293 HD
ENDBRANCH  17  22
ENDBRANCH   1  12
BRANCH   2  24
ATOM     24  O   UNL     1     163.321 154.342 151.915  1.00  0.00    -0.502 OA
ATOM     25  H   UNL     1     162.723 155.009 151.443  1.00  0.00     0.293 HD
ENDBRANCH   2  24
BRANCH   6  26
ATOM     26  O   UNL     1     165.283 149.845 150.194  1.00  0.00    -0.507 OA
ATOM     27  H   UNL     1     165.318 149.111 150.893  1.00  0.00     0.293 HD
ENDBRANCH   6  26
BRANCH   8  28
ATOM     28  O   UNL     1     169.817 151.140 149.096  1.00  0.00    -0.508 OA
ATOM     29  H   UNL     1     170.341 150.367 149.489  1.00  0.00     0.293 HD
ENDBRANCH   8  28
TORSDOF 7
ENDMDL
MODEL 2
REMARK VINA RESULT:    -6.865      2.024      7.602
REMARK INTER + INTRA:          -8.827
REMARK INTER:                  -8.568
REMARK INTRA:                  -0.259
REMARK UNBOUND:                -0.357
REMARK SMILES O=c1c(O)c(-c2cc(O)c(O)c(O)c2)oc2cc(O)cc(O)c12
REMARK SMILES IDX 5 1 3 2 2 3 1 4 23 5 21 6 20 7 18 8 17 9 16 10 15 11 6 12
REMARK SMILES IDX 7 13 8 14 14 15 10 16 12 17 9 18 11 20 13 22 4 24 22 26
REMARK SMILES IDX 19 28
REMARK H PARENT 9 19 11 21 13 23 4 25 22 27 19 29
REMARK Flexibility Score: inf
ROOT
ATOM      1  C   UNL     1     166.494 151.379 149.684  1.00  0.00     0.180 A 
ATOM      2  C   UNL     1     165.249 150.879 150.110  1.00  0.00     0.208 A 
ATOM      3  C   UNL     1     164.341 151.755 150.726  1.00  0.00     0.238 A 
ATOM      4  O   UNL     1     163.226 151.315 151.123  1.00  0.00    -0.285 OA
ATOM      5  C   UNL     1     164.683 153.113 150.887  1.00  0.00     0.111 A 
ATOM      6  C   UNL     1     163.824 154.061 151.494  1.00  0.00     0.134 A 
ATOM      7  C   UNL     1     164.233 155.398 151.608  1.00  0.00     0.093 A 
ATOM      8  C   UNL     1     165.484 155.804 151.128  1.00  0.00     0.123 A 
ATOM      9  C   UNL     1     166.334 154.873 150.529  1.00  0.00     0.094 A 
ATOM     10  C   UNL     1     165.945 153.535 150.407  1.00  0.00     0.146 A 
ATOM     11  O   UNL     1     166.776 152.669 149.838  1.00  0.00    -0.452 OA
ENDROOT
BRANCH   1  12
ATOM     12  C   UNL     1     167.511 150.514 149.043  1.00  0.00     0.029 A 
ATOM     13  C   UNL     1     167.327 150.005 147.749  1.00  0.00     0.062 A 
ATOM     14  C   UNL     1     168.285 149.171 147.167  1.00  0.00     0.162 A 
ATOM     15  C   UNL     1     168.656 150.147 149.762  1.00  0.00     0.062 A 
ATOM     16  C   UNL     1     169.447 148.823 147.880  1.00  0.00     0.200 A 
ATOM     17  C   UNL     1     169.628 149.314 149.196  1.00  0.00     0.162 A 
BRANCH  14  18
ATOM     18  O   UNL     1     168.064 148.694 145.875  1.00  0.00    -0.504 OA
ATOM     19  H   UNL     1     168.770 148.186 145.357  1.00  0.00     0.293 HD
ENDBRANCH  14  18
BRANCH  16  20
ATOM     20  O   UNL     1     170.386 147.993 147.260  1.00  0.00    -0.502 OA
ATOM     21  H   UNL     1     170.559 147.976 146.266  1.00  0.00     0.293 HD
ENDBRANCH  16  20
BRANCH  17  22
ATOM     22  O   UNL     1     170.747 149.002 149.972  1.00  0.00    -0.504 OA
ATOM     23  H   UNL     1     171.695 149.238 149.719  1.00  0.00     0.293 HD
ENDBRANCH  17  22
ENDBRANCH   1  12
BRANCH   2  24
ATOM     24  O   UNL     1     164.914 149.539 149.895  1.00  0.00    -0.502 OA
ATOM     25  H   UNL     1     163.956 149.214 149.888  1.00  0.00     0.293 HD
ENDBRANCH   2  24
BRANCH   6  26
ATOM     26  O   UNL     1     162.571 153.686 151.982  1.00  0.00    -0.507 OA
ATOM     27  H   UNL     1     161.775 154.312 151.942  1.00  0.00     0.293 HD
ENDBRANCH   6  26
BRANCH   8  28
ATOM     28  O   UNL     1     165.891 157.131 151.240  1.00  0.00    -0.508 OA
ATOM     29  H   UNL     1     166.737 157.466 150.794  1.00  0.00     0.293 HD
ENDBRANCH   8  28
TORSDOF 7
ENDMDL
MODEL 3
REMARK VINA RESULT:    -6.706      2.986      8.752
REMARK INTER + INTRA:          -8.631
REMARK INTER:                  -8.373
REMARK INTRA:                  -0.258
REMARK UNBOUND:                -0.357
REMARK SMILES O=c1c(O)c(-c2cc(O)c(O)c(O)c2)oc2cc(O)cc(O)c12
REMARK SMILES IDX 5 1 3 2 2 3 1 4 23 5 21 6 20 7 18 8 17 9 16 10 15 11 6 12
REMARK SMILES IDX 7 13 8 14 14 15 10 16 12 17 9 18 11 20 13 22 4 24 22 26
REMARK SMILES IDX 19 28
REMARK H PARENT 9 19 11 21 13 23 4 25 22 27 19 29
REMARK Flexibility Score: inf
ROOT
ATOM      1  C   UNL     1     167.975 150.462 149.588  1.00  0.00     0.180 A 
ATOM      2  C   UNL     1     168.604 151.721 149.552  1.00  0.00     0.208 A 
ATOM      3  C   UNL     1     167.861 152.861 149.898  1.00  0.00     0.238 A 
ATOM      4  O   UNL     1     168.412 153.996 149.859  1.00  0.00    -0.285 OA
ATOM      5  C   UNL     1     166.515 152.722 150.291  1.00  0.00     0.111 A 
ATOM      6  C   UNL     1     165.698 153.819 150.658  1.00  0.00     0.134 A 
ATOM      7  C   UNL     1     164.369 153.598 151.048  1.00  0.00     0.093 A 
ATOM      8  C   UNL     1     163.841 152.302 151.076  1.00  0.00     0.123 A 
ATOM      9  C   UNL     1     164.642 151.217 150.714  1.00  0.00     0.094 A 
ATOM     10  C   UNL     1     165.969 151.417 150.322  1.00  0.00     0.146 A 
ATOM     11  O   UNL     1     166.707 150.368 149.978  1.00  0.00    -0.452 OA
ENDROOT
BRANCH   1  12
ATOM     12  C   UNL     1     168.686 149.216 149.219  1.00  0.00     0.029 A 
ATOM     13  C   UNL     1     169.084 148.966 147.898  1.00  0.00     0.062 A 
ATOM     14  C   UNL     1     169.733 147.775 147.562  1.00  0.00     0.162 A 
ATOM     15  C   UNL     1     168.916 148.238 150.197  1.00  0.00     0.062 A 
ATOM     16  C   UNL     1     169.987 146.804 148.548  1.00  0.00     0.200 A 
ATOM     17  C   UNL     1     169.566 147.041 149.879  1.00  0.00     0.162 A 
BRANCH  14  18
ATOM     18  O   UNL     1     170.117 147.572 146.236  1.00  0.00    -0.504 OA
ATOM     19  H   UNL     1     171.000 147.143 145.988  1.00  0.00     0.293 HD
ENDBRANCH  14  18
BRANCH  16  20
ATOM     20  O   UNL     1     170.646 145.630 148.173  1.00  0.00    -0.502 OA
ATOM     21  H   UNL     1     170.454 144.720 148.564  1.00  0.00     0.293 HD
ENDBRANCH  16  20
BRANCH  17  22
ATOM     22  O   UNL     1     169.770 146.120 150.911  1.00  0.00    -0.504 OA
ATOM     23  H   UNL     1     169.128 145.975 151.675  1.00  0.00     0.293 HD
ENDBRANCH  17  22
ENDBRANCH   1  12
BRANCH   2  24
ATOM     24  O   UNL     1     169.954 151.826 149.206  1.00  0.00    -0.502 OA
ATOM     25  H   UNL     1     170.699 151.623 149.860  1.00  0.00     0.293 HD
ENDBRANCH   2  24
BRANCH   6  26
ATOM     26  O   UNL     1     166.197 155.123 150.640  1.00  0.00    -0.507 OA
ATOM     27  H   UNL     1     166.561 155.542 149.792  1.00  0.00     0.293 HD
ENDBRANCH   6  26
BRANCH   8  28
ATOM     28  O   UNL     1     162.522 152.081 151.464  1.00  0.00    -0.508 OA
ATOM     29  H   UNL     1     161.895 151.510 150.909  1.00  0.00     0.293 HD
ENDBRANCH   8  28
TORSDOF 7
ENDMDL
MODEL 4
REMARK VINA RESULT:    -6.662     10.011     11.394
REMARK INTER + INTRA:          -8.577
REMARK INTER:                  -8.262
REMARK INTRA:                  -0.315
REMARK UNBOUND:                -0.357
REMARK SMILES O=c1c(O)c(-c2cc(O)c(O)c(O)c2)oc2cc(O)cc(O)c12
REMARK SMILES IDX 5 1 3 2 2 3 1 4 23 5 21 6 20 7 18 8 17 9 16 10 15 11 6 12
REMARK SMILES IDX 7 13 8 14 14 15 10 16 12 17 9 18 11 20 13 22 4 24 22 26
REMARK SMILES IDX 19 28
REMARK H PARENT 9 19 11 21 13 23 4 25 22 27 19 29
REMARK Flexibility Score: inf
ROOT
ATOM      1  C   UNL     1     168.990 144.378 153.245  1.00  0.00     0.180 A 
ATOM      2  C   UNL     1     169.019 142.971 153.278  1.00  0.00     0.208 A 
ATOM      3  C   UNL     1     168.827 142.260 152.083  1.00  0.00     0.238 A 
ATOM      4  O   UNL     1     168.840 140.998 152.103  1.00  0.00    -0.285 OA
ATOM      5  C   UNL     1     168.628 142.963 150.878  1.00  0.00     0.111 A 
ATOM      6  C   UNL     1     168.430 142.323 149.631  1.00  0.00     0.134 A 
ATOM      7  C   UNL     1     168.249 143.094 148.473  1.00  0.00     0.093 A 
ATOM      8  C   UNL     1     168.261 144.492 148.539  1.00  0.00     0.123 A 
ATOM      9  C   UNL     1     168.456 145.128 149.766  1.00  0.00     0.094 A 
ATOM     10  C   UNL     1     168.637 144.377 150.932  1.00  0.00     0.146 A 
ATOM     11  O   UNL     1     168.815 145.008 152.087  1.00  0.00    -0.452 OA
ENDROOT
BRANCH   1  12
ATOM     12  C   UNL     1     169.167 145.198 154.466  1.00  0.00     0.029 A 
ATOM     13  C   UNL     1     168.077 145.823 155.090  1.00  0.00     0.062 A 
ATOM     14  C   UNL     1     168.264 146.613 156.227  1.00  0.00     0.162 A 
ATOM     15  C   UNL     1     170.455 145.404 154.978  1.00  0.00     0.062 A 
ATOM     16  C   UNL     1     169.554 146.799 156.756  1.00  0.00     0.200 A 
ATOM     17  C   UNL     1     170.661 146.190 156.117  1.00  0.00     0.162 A 
BRANCH  14  18
ATOM     18  O   UNL     1     167.150 147.209 156.820  1.00  0.00    -0.504 OA
ATOM     19  H   UNL     1     167.040 148.214 156.875  1.00  0.00     0.293 HD
ENDBRANCH  14  18
BRANCH  16  20
ATOM     20  O   UNL     1     169.697 147.589 157.901  1.00  0.00    -0.502 OA
ATOM     21  H   UNL     1     169.455 147.287 158.833  1.00  0.00     0.293 HD
ENDBRANCH  16  20
BRANCH  17  22
ATOM     22  O   UNL     1     171.974 146.338 156.574  1.00  0.00    -0.504 OA
ATOM     23  H   UNL     1     172.772 146.464 155.970  1.00  0.00     0.293 HD
ENDBRANCH  17  22
ENDBRANCH   1  12
BRANCH   2  24
ATOM     24  O   UNL     1     169.267 142.298 154.478  1.00  0.00    -0.502 OA
ATOM     25  H   UNL     1     168.705 141.515 154.786  1.00  0.00     0.293 HD
ENDBRANCH   2  24
BRANCH   6  26
ATOM     26  O   UNL     1     168.412 140.931 149.534  1.00  0.00    -0.507 OA
ATOM     27  H   UNL     1     167.715 140.444 148.982  1.00  0.00     0.293 HD
ENDBRANCH   6  26
BRANCH   8  28
ATOM     28  O   UNL     1     168.083 145.259 147.390  1.00  0.00    -0.508 OA
ATOM     29  H   UNL     1     167.285 145.123 146.781  1.00  0.00     0.293 HD
ENDBRANCH   8  28
TORSDOF 7
ENDMDL
MODEL 5
REMARK VINA RESULT:    -6.608      3.079      8.825
REMARK INTER + INTRA:          -8.510
REMARK INTER:                  -8.152
REMARK INTRA:                  -0.358
REMARK UNBOUND:                -0.357
REMARK SMILES O=c1c(O)c(-c2cc(O)c(O)c(O)c2)oc2cc(O)cc(O)c12
REMARK SMILES IDX 5 1 3 2 2 3 1 4 23 5 21 6 20 7 18 8 17 9 16 10 15 11 6 12
REMARK SMILES IDX 7 13 8 14 14 15 10 16 12 17 9 18 11 20 13 22 4 24 22 26
REMARK SMILES IDX 19 28
REMARK H PARENT 9 19 11 21 13 23 4 25 22 27 19 29
REMARK Flexibility Score: inf
ROOT
ATOM      1  C   UNL     1     167.314 149.714 150.047  1.00  0.00     0.180 A 
ATOM      2  C   UNL     1     168.225 150.660 149.541  1.00  0.00     0.208 A 
ATOM      3  C   UNL     1     167.884 152.021 149.583  1.00  0.00     0.238 A 
ATOM      4  O   UNL     1     168.689 152.877 149.123  1.00  0.00    -0.285 OA
ATOM      5  C   UNL     1     166.653 152.414 150.145  1.00  0.00     0.111 A 
ATOM      6  C   UNL     1     166.235 153.764 150.230  1.00  0.00     0.134 A 
ATOM      7  C   UNL     1     164.998 154.075 150.813  1.00  0.00     0.093 A 
ATOM      8  C   UNL     1     164.171 153.062 151.313  1.00  0.00     0.123 A 
ATOM      9  C   UNL     1     164.578 151.729 151.231  1.00  0.00     0.094 A 
ATOM     10  C   UNL     1     165.807 151.399 150.652  1.00  0.00     0.146 A 
ATOM     11  O   UNL     1     166.167 150.122 150.583  1.00  0.00    -0.452 OA
ENDROOT
BRANCH   1  12
ATOM     12  C   UNL     1     167.593 148.260 150.021  1.00  0.00     0.029 A 
ATOM     13  C   UNL     1     168.231 147.619 151.092  1.00  0.00     0.062 A 
ATOM     14  C   UNL     1     168.509 146.251 151.042  1.00  0.00     0.162 A 
ATOM     15  C   UNL     1     167.267 147.515 148.879  1.00  0.00     0.062 A 
ATOM     16  C   UNL     1     168.159 145.499 149.906  1.00  0.00     0.200 A 
ATOM     17  C   UNL     1     167.536 146.144 148.811  1.00  0.00     0.162 A 
BRANCH  14  18
ATOM     18  O   UNL     1     169.139 145.654 152.135  1.00  0.00    -0.504 OA
ATOM     19  H   UNL     1     169.991 145.114 152.040  1.00  0.00     0.293 HD
ENDBRANCH  14  18
BRANCH  16  20
ATOM     20  O   UNL     1     168.446 144.130 149.899  1.00  0.00    -0.502 OA
ATOM     21  H   UNL     1     167.769 143.407 150.087  1.00  0.00     0.293 HD
ENDBRANCH  16  20
BRANCH  17  22
ATOM     22  O   UNL     1     167.170 145.468 147.644  1.00  0.00    -0.504 OA
ATOM     23  H   UNL     1     166.782 145.916 146.828  1.00  0.00     0.293 HD
ENDBRANCH  17  22
ENDBRANCH   1  12
BRANCH   2  24
ATOM     24  O   UNL     1     169.461 150.249 149.033  1.00  0.00    -0.502 OA
ATOM     25  H   UNL     1     169.852 150.632 148.182  1.00  0.00     0.293 HD
ENDBRANCH   2  24
BRANCH   6  26
ATOM     26  O   UNL     1     167.038 154.796 149.741  1.00  0.00    -0.507 OA
ATOM     27  H   UNL     1     166.817 155.278 148.877  1.00  0.00     0.293 HD
ENDBRANCH   6  26
BRANCH   8  28
ATOM     28  O   UNL     1     162.943 153.369 151.893  1.00  0.00    -0.508 OA
ATOM     29  H   UNL     1     162.712 154.314 152.177  1.00  0.00     0.293 HD
ENDBRANCH   8  28
TORSDOF 7
ENDMDL
MODEL 6
REMARK VINA RESULT:    -6.586      3.078      5.525
REMARK INTER + INTRA:          -8.483
REMARK INTER:                  -8.127
REMARK INTRA:                  -0.357
REMARK UNBOUND:                -0.357
REMARK SMILES O=c1c(O)c(-c2cc(O)c(O)c(O)c2)oc2cc(O)cc(O)c12
REMARK SMILES IDX 5 1 3 2 2 3 1 4 23 5 21 6 20 7 18 8 17 9 16 10 15 11 6 12
REMARK SMILES IDX 7 13 8 14 14 15 10 16 12 17 9 18 11 20 13 22 4 24 22 26
REMARK SMILES IDX 19 28
REMARK H PARENT 9 19 11 21 13 23 4 25 22 27 19 29
REMARK Flexibility Score: inf
ROOT
ATOM      1  C   UNL     1     166.110 149.919 149.952  1.00  0.00     0.180 A 
ATOM      2  C   UNL     1     165.776 149.346 148.710  1.00  0.00     0.208 A 
ATOM      3  C   UNL     1     166.238 148.055 148.413  1.00  0.00     0.238 A 
ATOM      4  O   UNL     1     165.954 147.535 147.298  1.00  0.00    -0.285 OA
ATOM      5  C   UNL     1     167.006 147.353 149.364  1.00  0.00     0.111 A 
ATOM      6  C   UNL     1     167.507 146.047 149.145  1.00  0.00     0.134 A 
ATOM      7  C   UNL     1     168.255 145.411 150.146  1.00  0.00     0.093 A 
ATOM      8  C   UNL     1     168.512 146.056 151.361  1.00  0.00     0.123 A 
ATOM      9  C   UNL     1     168.021 147.343 151.582  1.00  0.00     0.094 A 
ATOM     10  C   UNL     1     167.274 147.995 150.596  1.00  0.00     0.146 A 
ATOM     11  O   UNL     1     166.823 149.222 150.831  1.00  0.00    -0.452 OA
ENDROOT
BRANCH   1  12
ATOM     12  C   UNL     1     165.675 151.283 150.331  1.00  0.00     0.029 A 
ATOM     13  C   UNL     1     164.430 151.513 150.933  1.00  0.00     0.062 A 
ATOM     14  C   UNL     1     164.025 152.809 151.264  1.00  0.00     0.162 A 
ATOM     15  C   UNL     1     166.498 152.378 150.031  1.00  0.00     0.062 A 
ATOM     16  C   UNL     1     164.862 153.904 150.985  1.00  0.00     0.200 A 
ATOM     17  C   UNL     1     166.111 153.682 150.356  1.00  0.00     0.162 A 
BRANCH  14  18
ATOM     18  O   UNL     1     162.780 152.989 151.868  1.00  0.00    -0.504 OA
ATOM     19  H   UNL     1     162.656 152.951 152.872  1.00  0.00     0.293 HD
ENDBRANCH  14  18
BRANCH  16  20
ATOM     20  O   UNL     1     164.424 155.184 151.339  1.00  0.00    -0.502 OA
ATOM     21  H   UNL     1     164.457 155.985 150.727  1.00  0.00     0.293 HD
ENDBRANCH  16  20
BRANCH  17  22
ATOM     22  O   UNL     1     166.991 154.720 150.035  1.00  0.00    -0.504 OA
ATOM     23  H   UNL     1     167.168 155.515 150.629  1.00  0.00     0.293 HD
ENDBRANCH  17  22
ENDBRANCH   1  12
BRANCH   2  24
ATOM     24  O   UNL     1     164.973 150.044 147.803  1.00  0.00    -0.502 OA
ATOM     25  H   UNL     1     164.446 149.577 147.076  1.00  0.00     0.293 HD
ENDBRANCH   2  24
BRANCH   6  26
ATOM     26  O   UNL     1     167.266 145.379 147.943  1.00  0.00    -0.507 OA
ATOM     27  H   UNL     1     166.329 145.118 147.656  1.00  0.00     0.293 HD
ENDBRANCH   6  26
BRANCH   8  28
ATOM     28  O   UNL     1     169.254 145.425 152.357  1.00  0.00    -0.508 OA
ATOM     29  H   UNL     1     168.829 144.763 152.996  1.00  0.00     0.293 HD
ENDBRANCH   8  28
TORSDOF 7
ENDMDL
MODEL 7
REMARK VINA RESULT:    -6.571      2.583      5.064
REMARK INTER + INTRA:          -8.464
REMARK INTER:                  -8.531
REMARK INTRA:                   0.067
REMARK UNBOUND:                -0.357
REMARK SMILES O=c1c(O)c(-c2cc(O)c(O)c(O)c2)oc2cc(O)cc(O)c12
REMARK SMILES IDX 5 1 3 2 2 3 1 4 23 5 21 6 20 7 18 8 17 9 16 10 15 11 6 12
REMARK SMILES IDX 7 13 8 14 14 15 10 16 12 17 9 18 11 20 13 22 4 24 22 26
REMARK SMILES IDX 19 28
REMARK H PARENT 9 19 11 21 13 23 4 25 22 27 19 29
REMARK Flexibility Score: inf
ROOT
ATOM      1  C   UNL     1     167.290 152.047 149.728  1.00  0.00     0.180 A 
ATOM      2  C   UNL     1     168.051 152.731 148.761  1.00  0.00     0.208 A 
ATOM      3  C   UNL     1     169.185 152.105 148.222  1.00  0.00     0.238 A 
ATOM      4  O   UNL     1     169.881 152.713 147.363  1.00  0.00    -0.285 OA
ATOM      5  C   UNL     1     169.528 150.803 148.642  1.00  0.00     0.111 A 
ATOM      6  C   UNL     1     170.653 150.100 148.146  1.00  0.00     0.134 A 
ATOM      7  C   UNL     1     170.921 148.803 148.606  1.00  0.00     0.093 A 
ATOM      8  C   UNL     1     170.088 148.196 149.553  1.00  0.00     0.123 A 
ATOM      9  C   UNL     1     168.978 148.885 150.045  1.00  0.00     0.094 A 
ATOM     10  C   UNL     1     168.694 150.180 149.600  1.00  0.00     0.146 A 
ATOM     11  O   UNL     1     167.635 150.814 150.088  1.00  0.00    -0.452 OA
ENDROOT
BRANCH   1  12
ATOM     12  C   UNL     1     166.091 152.648 150.356  1.00  0.00     0.029 A 
ATOM     13  C   UNL     1     166.070 153.994 150.749  1.00  0.00     0.062 A 
ATOM     14  C   UNL     1     164.939 154.541 151.362  1.00  0.00     0.162 A 
ATOM     15  C   UNL     1     164.973 151.844 150.618  1.00  0.00     0.062 A 
ATOM     16  C   UNL     1     163.808 153.740 151.602  1.00  0.00     0.200 A 
ATOM     17  C   UNL     1     163.831 152.374 151.230  1.00  0.00     0.162 A 
BRANCH  14  18
ATOM     18  O   UNL     1     164.960 155.886 151.729  1.00  0.00    -0.504 OA
ATOM     19  H   UNL     1     165.131 156.627 151.060  1.00  0.00     0.293 HD
ENDBRANCH  14  18
BRANCH  16  20
ATOM     20  O   UNL     1     162.694 154.327 152.210  1.00  0.00    -0.502 OA
ATOM     21  H   UNL     1     162.463 154.230 153.188  1.00  0.00     0.293 HD
ENDBRANCH  16  20
BRANCH  17  22
ATOM     22  O   UNL     1     162.753 151.512 151.447  1.00  0.00    -0.504 OA
ATOM     23  H   UNL     1     162.845 150.524 151.627  1.00  0.00     0.293 HD
ENDBRANCH  17  22
ENDBRANCH   1  12
BRANCH   2  24
ATOM     24  O   UNL     1     167.662 154.001 148.326  1.00  0.00    -0.502 OA
ATOM     25  H   UNL     1     167.845 154.333 147.387  1.00  0.00     0.293 HD
ENDBRANCH   2  24
BRANCH   6  26
ATOM     26  O   UNL     1     171.502 150.679 147.201  1.00  0.00    -0.507 OA
ATOM     27  H   UNL     1     172.403 150.274 146.975  1.00  0.00     0.293 HD
ENDBRANCH   6  26
BRANCH   8  28
ATOM     28  O   UNL     1     170.353 146.908 150.010  1.00  0.00    -0.508 OA
ATOM     29  H   UNL     1     169.844 146.506 150.789  1.00  0.00     0.293 HD
ENDBRANCH   8  28
TORSDOF 7
ENDMDL
MODEL 8
REMARK VINA RESULT:    -6.551      3.072      5.574
REMARK INTER + INTRA:          -8.440
REMARK INTER:                  -8.077
REMARK INTRA:                  -0.363
REMARK UNBOUND:                -0.357
REMARK SMILES O=c1c(O)c(-c2cc(O)c(O)c(O)c2)oc2cc(O)cc(O)c12
REMARK SMILES IDX 5 1 3 2 2 3 1 4 23 5 21 6 20 7 18 8 17 9 16 10 15 11 6 12
REMARK SMILES IDX 7 13 8 14 14 15 10 16 12 17 9 18 11 20 13 22 4 24 22 26
REMARK SMILES IDX 19 28
REMARK H PARENT 9 19 11 21 13 23 4 25 22 27 19 29
REMARK Flexibility Score: inf
ROOT
ATOM      1  C   UNL     1     166.163 149.956 149.873  1.00  0.00     0.180 A 
ATOM      2  C   UNL     1     165.848 149.376 148.630  1.00  0.00     0.208 A 
ATOM      3  C   UNL     1     166.313 148.082 148.349  1.00  0.00     0.238 A 
ATOM      4  O   UNL     1     166.046 147.555 147.233  1.00  0.00    -0.285 OA
ATOM      5  C   UNL     1     167.064 147.385 149.317  1.00  0.00     0.111 A 
ATOM      6  C   UNL     1     167.567 146.077 149.114  1.00  0.00     0.134 A 
ATOM      7  C   UNL     1     168.298 145.447 150.131  1.00  0.00     0.093 A 
ATOM      8  C   UNL     1     168.537 146.100 151.347  1.00  0.00     0.123 A 
ATOM      9  C   UNL     1     168.045 147.389 151.551  1.00  0.00     0.094 A 
ATOM     10  C   UNL     1     167.314 148.035 150.549  1.00  0.00     0.146 A 
ATOM     11  O   UNL     1     166.861 149.264 150.768  1.00  0.00    -0.452 OA
ENDROOT
BRANCH   1  12
ATOM     12  C   UNL     1     165.725 151.324 150.237  1.00  0.00     0.029 A 
ATOM     13  C   UNL     1     166.541 152.439 150.002  1.00  0.00     0.062 A 
ATOM     14  C   UNL     1     166.123 153.720 150.373  1.00  0.00     0.162 A 
ATOM     15  C   UNL     1     164.493 151.505 150.881  1.00  0.00     0.062 A 
ATOM     16  C   UNL     1     164.876 153.905 150.997  1.00  0.00     0.200 A 
ATOM     17  C   UNL     1     164.057 152.780 151.258  1.00  0.00     0.162 A 
BRANCH  14  18
ATOM     18  O   UNL     1     166.966 154.802 150.113  1.00  0.00    -0.504 OA
ATOM     19  H   UNL     1     167.140 155.139 149.175  1.00  0.00     0.293 HD
ENDBRANCH  14  18
BRANCH  16  20
ATOM     20  O   UNL     1     164.491 155.204 151.343  1.00  0.00    -0.502 OA
ATOM     21  H   UNL     1     163.959 155.817 150.744  1.00  0.00     0.293 HD
ENDBRANCH  16  20
BRANCH  17  22
ATOM     22  O   UNL     1     162.812 152.881 151.885  1.00  0.00    -0.504 OA
ATOM     23  H   UNL     1     162.011 152.316 151.648  1.00  0.00     0.293 HD
ENDBRANCH  17  22
ENDBRANCH   1  12
BRANCH   2  24
ATOM     24  O   UNL     1     165.060 150.068 147.707  1.00  0.00    -0.502 OA
ATOM     25  H   UNL     1     165.071 149.855 146.717  1.00  0.00     0.293 HD
ENDBRANCH   2  24
BRANCH   6  26
ATOM     26  O   UNL     1     167.345 145.401 147.913  1.00  0.00    -0.507 OA
ATOM     27  H   UNL     1     166.923 144.479 147.891  1.00  0.00     0.293 HD
ENDBRANCH   6  26
BRANCH   8  28
ATOM     28  O   UNL     1     169.263 145.474 152.358  1.00  0.00    -0.508 OA
ATOM     29  H   UNL     1     169.112 144.500 152.594  1.00  0.00     0.293 HD
ENDBRANCH   8  28
TORSDOF 7
ENDMDL
MODEL 9
REMARK VINA RESULT:    -6.534      4.318      9.760
REMARK INTER + INTRA:          -8.419
REMARK INTER:                  -8.314
REMARK INTRA:                  -0.105
REMARK UNBOUND:                -0.357
REMARK SMILES O=c1c(O)c(-c2cc(O)c(O)c(O)c2)oc2cc(O)cc(O)c12
REMARK SMILES IDX 5 1 3 2 2 3 1 4 23 5 21 6 20 7 18 8 17 9 16 10 15 11 6 12
REMARK SMILES IDX 7 13 8 14 14 15 10 16 12 17 9 18 11 20 13 22 4 24 22 26
REMARK SMILES IDX 19 28
REMARK H PARENT 9 19 11 21 13 23 4 25 22 27 19 29
REMARK Flexibility Score: inf
ROOT
ATOM      1  C   UNL     1     168.116 148.041 150.748  1.00  0.00     0.180 A 
ATOM      2  C   UNL     1     169.222 148.510 150.013  1.00  0.00     0.208 A 
ATOM      3  C   UNL     1     169.147 149.775 149.408  1.00  0.00     0.238 A 
ATOM      4  O   UNL     1     170.128 150.201 148.738  1.00  0.00    -0.285 OA
ATOM      5  C   UNL     1     167.982 150.554 149.563  1.00  0.00     0.111 A 
ATOM      6  C   UNL     1     167.828 151.839 148.990  1.00  0.00     0.134 A 
ATOM      7  C   UNL     1     166.641 152.556 149.198  1.00  0.00     0.093 A 
ATOM      8  C   UNL     1     165.606 152.013 149.969  1.00  0.00     0.123 A 
ATOM      9  C   UNL     1     165.753 150.746 150.536  1.00  0.00     0.094 A 
ATOM     10  C   UNL     1     166.928 150.014 150.338  1.00  0.00     0.146 A 
ATOM     11  O   UNL     1     167.040 148.809 150.886  1.00  0.00    -0.452 OA
ENDROOT
BRANCH   1  12
ATOM     12  C   UNL     1     168.112 146.711 151.399  1.00  0.00     0.029 A 
ATOM     13  C   UNL     1     168.388 145.542 150.675  1.00  0.00     0.062 A 
ATOM     14  C   UNL     1     168.356 144.292 151.299  1.00  0.00     0.162 A 
ATOM     15  C   UNL     1     167.768 146.607 152.754  1.00  0.00     0.062 A 
ATOM     16  C   UNL     1     168.036 144.191 152.665  1.00  0.00     0.200 A 
ATOM     17  C   UNL     1     167.733 145.365 153.397  1.00  0.00     0.162 A 
BRANCH  14  18
ATOM     18  O   UNL     1     168.644 143.157 150.541  1.00  0.00    -0.504 OA
ATOM     19  H   UNL     1     167.948 142.451 150.338  1.00  0.00     0.293 HD
ENDBRANCH  14  18
BRANCH  16  20
ATOM     20  O   UNL     1     168.024 142.923 153.254  1.00  0.00    -0.502 OA
ATOM     21  H   UNL     1     168.459 142.106 152.853  1.00  0.00     0.293 HD
ENDBRANCH  16  20
BRANCH  17  22
ATOM     22  O   UNL     1     167.394 145.345 154.752  1.00  0.00    -0.504 OA
ATOM     23  H   UNL     1     167.895 144.820 155.453  1.00  0.00     0.293 HD
ENDBRANCH  17  22
ENDBRANCH   1  12
BRANCH   2  24
ATOM     24  O   UNL     1     170.383 147.739 149.915  1.00  0.00    -0.502 OA
ATOM     25  H   UNL     1     170.720 147.166 150.679  1.00  0.00     0.293 HD
ENDBRANCH   2  24
BRANCH   6  26
ATOM     26  O   UNL     1     168.842 152.407 148.217  1.00  0.00    -0.507 OA
ATOM     27  H   UNL     1     169.778 152.542 148.583  1.00  0.00     0.293 HD
ENDBRANCH   6  26
BRANCH   8  28
ATOM     28  O   UNL     1     164.427 152.725 150.177  1.00  0.00    -0.508 OA
ATOM     29  H   UNL     1     164.024 152.823 151.102  1.00  0.00     0.293 HD
ENDBRANCH   8  28
TORSDOF 7
ENDMDL
