MODEL 1
REMARK VINA RESULT:    -4.975      0.000      0.000
REMARK INTER + INTRA:          -5.694
REMARK INTER:                  -5.557
REMARK INTRA:                  -0.137
REMARK UNBOUND:                -0.137
REMARK SMILES COc1cc2ccc(=O)oc2cc1OC
REMARK SMILES IDX 3 1 13 2 12 3 11 4 5 5 4 6 6 7 7 8 8 9 9 10 10 11 2 12 1 13
REMARK SMILES IDX 14 14 15 15
REMARK H PARENT
REMARK Flexibility Score: inf
ROOT
ATOM      1  C   UNL     1      -4.858 -22.948  36.018  1.00  0.00     0.161 A 
ATOM      2  C   UNL     1      -5.236 -22.634  34.702  1.00  0.00     0.164 A 
ATOM      3  C   UNL     1      -5.901 -23.596  33.917  1.00  0.00     0.098 A 
ATOM      4  C   UNL     1      -6.187 -24.860  34.439  1.00  0.00     0.142 A 
ATOM      5  C   UNL     1      -5.809 -25.175  35.759  1.00  0.00     0.022 A 
ATOM      6  C   UNL     1      -5.148 -24.223  36.545  1.00  0.00     0.062 A 
ATOM      7  C   UNL     1      -6.110 -26.449  36.253  1.00  0.00     0.019 A 
ATOM      8  C   UNL     1      -6.770 -27.364  35.432  1.00  0.00     0.094 A 
ATOM      9  C   UNL     1      -7.114 -26.979  34.132  1.00  0.00     0.336 A 
ATOM     10  O   UNL     1      -7.711 -27.789  33.375  1.00  0.00    -0.246 OA
ATOM     11  O   UNL     1      -6.816 -25.762  33.687  1.00  0.00    -0.423 OA
ENDROOT
BRANCH   1  12
ATOM     12  O   UNL     1      -4.197 -21.965  36.773  1.00  0.00    -0.493 OA
ATOM     13  C   UNL     1      -2.818 -22.008  37.125  1.00  0.00     0.278 C 
ENDBRANCH   1  12
BRANCH   2  14
ATOM     14  O   UNL     1      -4.932 -21.354  34.211  1.00  0.00    -0.493 OA
ATOM     15  C   UNL     1      -5.894 -20.334  33.967  1.00  0.00     0.278 C 
ENDBRANCH   2  14
TORSDOF 2
ENDMDL
MODEL 2
REMARK VINA RESULT:    -4.925      2.321      3.015
REMARK INTER + INTRA:          -5.638
REMARK INTER:                  -5.504
REMARK INTRA:                  -0.133
REMARK UNBOUND:                -0.137
REMARK SMILES COc1cc2ccc(=O)oc2cc1OC
REMARK SMILES IDX 3 1 13 2 12 3 11 4 5 5 4 6 6 7 7 8 8 9 9 10 10 11 2 12 1 13
REMARK SMILES IDX 14 14 15 15
REMARK H PARENT
REMARK Flexibility Score: inf
ROOT
ATOM      1  C   UNL     1      -6.713 -22.302  34.050  1.00  0.00     0.161 A 
ATOM      2  C   UNL     1      -8.050 -22.349  34.478  1.00  0.00     0.164 A 
ATOM      3  C   UNL     1      -8.522 -23.478  35.176  1.00  0.00     0.098 A 
ATOM      4  C   UNL     1      -7.668 -24.549  35.447  1.00  0.00     0.142 A 
ATOM      5  C   UNL     1      -6.326 -24.502  35.018  1.00  0.00     0.022 A 
ATOM      6  C   UNL     1      -5.851 -23.383  34.323  1.00  0.00     0.062 A 
ATOM      7  C   UNL     1      -5.496 -25.592  35.305  1.00  0.00     0.019 A 
ATOM      8  C   UNL     1      -6.015 -26.685  35.999  1.00  0.00     0.094 A 
ATOM      9  C   UNL     1      -7.357 -26.660  36.393  1.00  0.00     0.336 A 
ATOM     10  O   UNL     1      -7.844 -27.636  37.022  1.00  0.00    -0.246 OA
ATOM     11  O   UNL     1      -8.124 -25.612  36.108  1.00  0.00    -0.423 OA
ENDROOT
BRANCH   1  12
ATOM     12  O   UNL     1      -6.277 -21.161  33.356  1.00  0.00    -0.493 OA
ATOM     13  C   UNL     1      -5.509 -20.109  33.933  1.00  0.00     0.278 C 
ENDBRANCH   1  12
BRANCH   2  14
ATOM     14  O   UNL     1      -8.880 -21.253  34.188  1.00  0.00    -0.493 OA
ATOM     15  C   UNL     1     -10.045 -21.316  33.373  1.00  0.00     0.278 C 
ENDBRANCH   2  14
TORSDOF 2
ENDMDL
MODEL 3
REMARK VINA RESULT:    -4.878      1.727      1.899
REMARK INTER + INTRA:          -5.585
REMARK INTER:                  -5.423
REMARK INTRA:                  -0.162
REMARK UNBOUND:                -0.137
REMARK SMILES COc1cc2ccc(=O)oc2cc1OC
REMARK SMILES IDX 3 1 13 2 12 3 11 4 5 5 4 6 6 7 7 8 8 9 9 10 10 11 2 12 1 13
REMARK SMILES IDX 14 14 15 15
REMARK H PARENT
REMARK Flexibility Score: inf
ROOT
ATOM      1  C   UNL     1      -5.558 -22.757  34.761  1.00  0.00     0.161 A 
ATOM      2  C   UNL     1      -6.937 -22.503  34.665  1.00  0.00     0.164 A 
ATOM      3  C   UNL     1      -7.858 -23.539  34.913  1.00  0.00     0.098 A 
ATOM      4  C   UNL     1      -7.409 -24.818  35.254  1.00  0.00     0.142 A 
ATOM      5  C   UNL     1      -6.027 -25.073  35.350  1.00  0.00     0.022 A 
ATOM      6  C   UNL     1      -5.106 -24.047  35.105  1.00  0.00     0.062 A 
ATOM      7  C   UNL     1      -5.610 -26.364  35.693  1.00  0.00     0.019 A 
ATOM      8  C   UNL     1      -6.564 -27.353  35.927  1.00  0.00     0.094 A 
ATOM      9  C   UNL     1      -7.919 -27.026  35.813  1.00  0.00     0.336 A 
ATOM     10  O   UNL     1      -8.797 -27.903  36.021  1.00  0.00    -0.246 OA
ATOM     11  O   UNL     1      -8.289 -25.790  35.485  1.00  0.00    -0.423 OA
ENDROOT
BRANCH   1  12
ATOM     12  O   UNL     1      -4.668 -21.700  34.508  1.00  0.00    -0.493 OA
ATOM     13  C   UNL     1      -4.035 -20.918  35.516  1.00  0.00     0.278 C 
ENDBRANCH   1  12
BRANCH   2  14
ATOM     14  O   UNL     1      -7.351 -21.206  34.321  1.00  0.00    -0.493 OA
ATOM     15  C   UNL     1      -7.791 -20.225  35.255  1.00  0.00     0.278 C 
ENDBRANCH   2  14
TORSDOF 2
ENDMDL
MODEL 4
REMARK VINA RESULT:    -4.670      2.969      6.248
REMARK INTER + INTRA:          -5.353
REMARK INTER:                  -5.189
REMARK INTRA:                  -0.164
REMARK UNBOUND:                -0.137
REMARK SMILES COc1cc2ccc(=O)oc2cc1OC
REMARK SMILES IDX 3 1 13 2 12 3 11 4 5 5 4 6 6 7 7 8 8 9 9 10 10 11 2 12 1 13
REMARK SMILES IDX 14 14 15 15
REMARK H PARENT
REMARK Flexibility Score: inf
ROOT
ATOM      1  C   UNL     1      -7.706 -22.350  34.942  1.00  0.00     0.161 A 
ATOM      2  C   UNL     1      -6.792 -22.320  33.876  1.00  0.00     0.164 A 
ATOM      3  C   UNL     1      -6.017 -21.165  33.650  1.00  0.00     0.098 A 
ATOM      4  C   UNL     1      -6.152 -20.050  34.481  1.00  0.00     0.142 A 
ATOM      5  C   UNL     1      -7.068 -20.080  35.551  1.00  0.00     0.022 A 
ATOM      6  C   UNL     1      -7.841 -21.225  35.780  1.00  0.00     0.062 A 
ATOM      7  C   UNL     1      -7.180 -18.947  36.365  1.00  0.00     0.019 A 
ATOM      8  C   UNL     1      -6.389 -17.830  36.096  1.00  0.00     0.094 A 
ATOM      9  C   UNL     1      -5.501 -17.873  35.016  1.00  0.00     0.336 A 
ATOM     10  O   UNL     1      -4.777 -16.876  34.758  1.00  0.00    -0.246 OA
ATOM     11  O   UNL     1      -5.415 -18.963  34.258  1.00  0.00    -0.423 OA
ENDROOT
BRANCH   1  12
ATOM     12  O   UNL     1      -8.461 -23.517  35.138  1.00  0.00    -0.493 OA
ATOM     13  C   UNL     1      -8.254 -24.446  36.198  1.00  0.00     0.278 C 
ENDBRANCH   1  12
BRANCH   2  14
ATOM     14  O   UNL     1      -6.682 -23.459  33.062  1.00  0.00    -0.493 OA
ATOM     15  C   UNL     1      -5.638 -24.422  33.158  1.00  0.00     0.278 C 
ENDBRANCH   2  14
TORSDOF 2
ENDMDL
MODEL 5
REMARK VINA RESULT:    -4.486      1.799      2.169
REMARK INTER + INTRA:          -5.147
REMARK INTER:                  -5.066
REMARK INTRA:                  -0.081
REMARK UNBOUND:                -0.137
REMARK SMILES COc1cc2ccc(=O)oc2cc1OC
REMARK SMILES IDX 3 1 13 2 12 3 11 4 5 5 4 6 6 7 7 8 8 9 9 10 10 11 2 12 1 13
REMARK SMILES IDX 14 14 15 15
REMARK H PARENT
REMARK Flexibility Score: inf
ROOT
ATOM      1  C   UNL     1      -7.039 -22.268  35.825  1.00  0.00     0.161 A 
ATOM      2  C   UNL     1      -6.330 -22.337  34.614  1.00  0.00     0.164 A 
ATOM      3  C   UNL     1      -6.284 -23.549  33.899  1.00  0.00     0.098 A 
ATOM      4  C   UNL     1      -6.938 -24.683  34.385  1.00  0.00     0.142 A 
ATOM      5  C   UNL     1      -7.649 -24.615  35.600  1.00  0.00     0.022 A 
ATOM      6  C   UNL     1      -7.700 -23.412  36.316  1.00  0.00     0.062 A 
ATOM      7  C   UNL     1      -8.294 -25.768  36.061  1.00  0.00     0.019 A 
ATOM      8  C   UNL     1      -8.215 -26.943  35.313  1.00  0.00     0.094 A 
ATOM      9  C   UNL     1      -7.490 -26.935  34.117  1.00  0.00     0.336 A 
ATOM     10  O   UNL     1      -7.408 -27.984  33.426  1.00  0.00    -0.246 OA
ATOM     11  O   UNL     1      -6.887 -25.825  33.701  1.00  0.00    -0.423 OA
ENDROOT
BRANCH   1  12
ATOM     12  O   UNL     1      -7.065 -21.043  36.511  1.00  0.00    -0.493 OA
ATOM     13  C   UNL     1      -8.038 -20.023  36.307  1.00  0.00     0.278 C 
ENDBRANCH   1  12
BRANCH   2  14
ATOM     14  O   UNL     1      -5.685 -21.177  34.155  1.00  0.00    -0.493 OA
ATOM     15  C   UNL     1      -4.333 -20.837  34.444  1.00  0.00     0.278 C 
ENDBRANCH   2  14
TORSDOF 2
ENDMDL
MODEL 6
REMARK VINA RESULT:    -4.445      2.784      6.299
REMARK INTER + INTRA:          -5.101
REMARK INTER:                  -4.986
REMARK INTRA:                  -0.115
REMARK UNBOUND:                -0.137
REMARK SMILES COc1cc2ccc(=O)oc2cc1OC
REMARK SMILES IDX 3 1 13 2 12 3 11 4 5 5 4 6 6 7 7 8 8 9 9 10 10 11 2 12 1 13
REMARK SMILES IDX 14 14 15 15
REMARK H PARENT
REMARK Flexibility Score: inf
ROOT
ATOM      1  C   UNL     1      -7.734 -21.672  34.135  1.00  0.00     0.161 A 
ATOM      2  C   UNL     1      -6.682 -22.576  33.909  1.00  0.00     0.164 A 
ATOM      3  C   UNL     1      -5.349 -22.154  34.073  1.00  0.00     0.098 A 
ATOM      4  C   UNL     1      -5.065 -20.841  34.458  1.00  0.00     0.142 A 
ATOM      5  C   UNL     1      -6.118 -19.934  34.685  1.00  0.00     0.022 A 
ATOM      6  C   UNL     1      -7.447 -20.348  34.524  1.00  0.00     0.062 A 
ATOM      7  C   UNL     1      -5.801 -18.626  35.069  1.00  0.00     0.019 A 
ATOM      8  C   UNL     1      -4.463 -18.261  35.216  1.00  0.00     0.094 A 
ATOM      9  C   UNL     1      -3.471 -19.216  34.973  1.00  0.00     0.336 A 
ATOM     10  O   UNL     1      -2.257 -18.907  35.101  1.00  0.00    -0.246 OA
ATOM     11  O   UNL     1      -3.800 -20.453  34.608  1.00  0.00    -0.423 OA
ENDROOT
BRANCH   1  12
ATOM     12  O   UNL     1      -9.051 -22.127  33.964  1.00  0.00    -0.493 OA
ATOM     13  C   UNL     1     -10.062 -21.426  33.246  1.00  0.00     0.278 C 
ENDBRANCH   1  12
BRANCH   2  14
ATOM     14  O   UNL     1      -7.006 -23.888  33.524  1.00  0.00    -0.493 OA
ATOM     15  C   UNL     1      -6.306 -24.633  32.533  1.00  0.00     0.278 C 
ENDBRANCH   2  14
TORSDOF 2
ENDMDL
MODEL 7
REMARK VINA RESULT:    -4.421      2.002      5.327
REMARK INTER + INTRA:          -5.075
REMARK INTER:                  -4.925
REMARK INTRA:                  -0.150
REMARK UNBOUND:                -0.137
REMARK SMILES COc1cc2ccc(=O)oc2cc1OC
REMARK SMILES IDX 3 1 13 2 12 3 11 4 5 5 4 6 6 7 7 8 8 9 9 10 10 11 2 12 1 13
REMARK SMILES IDX 14 14 15 15
REMARK H PARENT
REMARK Flexibility Score: inf
ROOT
ATOM      1  C   UNL     1      -7.610 -24.881  36.241  1.00  0.00     0.161 A 
ATOM      2  C   UNL     1      -6.838 -25.239  35.123  1.00  0.00     0.164 A 
ATOM      3  C   UNL     1      -6.245 -24.235  34.332  1.00  0.00     0.098 A 
ATOM      4  C   UNL     1      -6.419 -22.887  34.652  1.00  0.00     0.142 A 
ATOM      5  C   UNL     1      -7.193 -22.527  35.774  1.00  0.00     0.022 A 
ATOM      6  C   UNL     1      -7.785 -23.520  36.564  1.00  0.00     0.062 A 
ATOM      7  C   UNL     1      -7.349 -21.168  36.068  1.00  0.00     0.019 A 
ATOM      8  C   UNL     1      -6.741 -20.216  35.250  1.00  0.00     0.094 A 
ATOM      9  C   UNL     1      -5.987 -20.648  34.154  1.00  0.00     0.336 A 
ATOM     10  O   UNL     1      -5.429 -19.805  33.404  1.00  0.00    -0.246 OA
ATOM     11  O   UNL     1      -5.855 -21.947  33.897  1.00  0.00    -0.423 OA
ENDROOT
BRANCH   1  12
ATOM     12  O   UNL     1      -8.185 -25.907  37.008  1.00  0.00    -0.493 OA
ATOM     13  C   UNL     1      -9.579 -26.198  37.053  1.00  0.00     0.278 C 
ENDBRANCH   1  12
BRANCH   2  14
ATOM     14  O   UNL     1      -6.683 -26.604  34.832  1.00  0.00    -0.493 OA
ATOM     15  C   UNL     1      -7.500 -27.332  33.921  1.00  0.00     0.278 C 
ENDBRANCH   2  14
TORSDOF 2
ENDMDL
MODEL 8
REMARK VINA RESULT:    -4.406      2.397      3.395
REMARK INTER + INTRA:          -5.058
REMARK INTER:                  -4.931
REMARK INTRA:                  -0.127
REMARK UNBOUND:                -0.137
REMARK SMILES COc1cc2ccc(=O)oc2cc1OC
REMARK SMILES IDX 3 1 13 2 12 3 11 4 5 5 4 6 6 7 7 8 8 9 9 10 10 11 2 12 1 13
REMARK SMILES IDX 14 14 15 15
REMARK H PARENT
REMARK Flexibility Score: inf
ROOT
ATOM      1  C   UNL     1      -8.001 -22.247  34.451  1.00  0.00     0.161 A 
ATOM      2  C   UNL     1      -6.614 -22.208  34.231  1.00  0.00     0.164 A 
ATOM      3  C   UNL     1      -5.804 -23.269  34.682  1.00  0.00     0.098 A 
ATOM      4  C   UNL     1      -6.371 -24.359  35.346  1.00  0.00     0.142 A 
ATOM      5  C   UNL     1      -7.762 -24.399  35.567  1.00  0.00     0.022 A 
ATOM      6  C   UNL     1      -8.573 -23.347  35.121  1.00  0.00     0.062 A 
ATOM      7  C   UNL     1      -8.300 -25.505  36.234  1.00  0.00     0.019 A 
ATOM      8  C   UNL     1      -7.452 -26.527  36.660  1.00  0.00     0.094 A 
ATOM      9  C   UNL     1      -6.081 -26.418  36.405  1.00  0.00     0.336 A 
ATOM     10  O   UNL     1      -5.299 -27.330  36.780  1.00  0.00    -0.246 OA
ATOM     11  O   UNL     1      -5.596 -25.356  35.768  1.00  0.00    -0.423 OA
ENDROOT
BRANCH   1  12
ATOM     12  O   UNL     1      -8.778 -21.173  33.988  1.00  0.00    -0.493 OA
ATOM     13  C   UNL     1      -9.966 -21.309  33.214  1.00  0.00     0.278 C 
ENDBRANCH   1  12
BRANCH   2  14
ATOM     14  O   UNL     1      -6.078 -21.096  33.560  1.00  0.00    -0.493 OA
ATOM     15  C   UNL     1      -5.403 -20.017  34.197  1.00  0.00     0.278 C 
ENDBRANCH   2  14
TORSDOF 2
ENDMDL
MODEL 9
REMARK VINA RESULT:    -4.252      1.520      2.923
REMARK INTER + INTRA:          -4.886
REMARK INTER:                  -4.751
REMARK INTRA:                  -0.134
REMARK UNBOUND:                -0.137
REMARK SMILES COc1cc2ccc(=O)oc2cc1OC
REMARK SMILES IDX 3 1 13 2 12 3 11 4 5 5 4 6 6 7 7 8 8 9 9 10 10 11 2 12 1 13
REMARK SMILES IDX 14 14 15 15
REMARK H PARENT
REMARK Flexibility Score: inf
ROOT
ATOM      1  C   UNL     1      -4.732 -21.914  34.764  1.00  0.00     0.161 A 
ATOM      2  C   UNL     1      -4.366 -22.071  36.111  1.00  0.00     0.164 A 
ATOM      3  C   UNL     1      -4.675 -23.269  36.785  1.00  0.00     0.098 A 
ATOM      4  C   UNL     1      -5.342 -24.301  36.122  1.00  0.00     0.142 A 
ATOM      5  C   UNL     1      -5.710 -24.144  34.771  1.00  0.00     0.022 A 
ATOM      6  C   UNL     1      -5.406 -22.956  34.095  1.00  0.00     0.062 A 
ATOM      7  C   UNL     1      -6.377 -25.197  34.135  1.00  0.00     0.019 A 
ATOM      8  C   UNL     1      -6.659 -26.361  34.849  1.00  0.00     0.094 A 
ATOM      9  C   UNL     1      -6.263 -26.445  36.188  1.00  0.00     0.336 A 
ATOM     10  O   UNL     1      -6.507 -27.487  36.851  1.00  0.00    -0.246 OA
ATOM     11  O   UNL     1      -5.630 -25.429  36.769  1.00  0.00    -0.423 OA
ENDROOT
BRANCH   1  12
ATOM     12  O   UNL     1      -4.408 -20.707  34.123  1.00  0.00    -0.493 OA
ATOM     13  C   UNL     1      -5.345 -19.681  33.810  1.00  0.00     0.278 C 
ENDBRANCH   1  12
BRANCH   2  14
ATOM     14  O   UNL     1      -3.696 -21.012  36.746  1.00  0.00    -0.493 OA
ATOM     15  C   UNL     1      -2.286 -20.948  36.935  1.00  0.00     0.278 C 
ENDBRANCH   2  14
TORSDOF 2
ENDMDL
