MODEL 1
REMARK VINA RESULT:    -2.580      0.000      0.000
REMARK INTER + INTRA:          -3.628
REMARK INTER:                  -3.485
REMARK INTRA:                  -0.143
REMARK UNBOUND:                -0.143
REMARK SMILES CCCCCCCC(=O)[O-]
REMARK SMILES IDX 5 1 6 2 7 3 8 4 9 5 10 6 4 7 3 8 2 9 1 10
REMARK H PARENT
REMARK Flexibility Score: inf
ROOT
ATOM      1  C   UNL     1      -6.406  28.630 -18.266  1.00  0.00     0.000 C 
ENDROOT
BRANCH   1   2
ATOM      2  C   UNL     1      -7.403  28.800 -17.106  1.00  0.00     0.006 C 
BRANCH   2   3
ATOM      3  C   UNL     1      -8.596  29.694 -17.468  1.00  0.00     0.053 C 
BRANCH   3   4
ATOM      4  C   UNL     1      -8.952  30.582 -16.318  1.00  0.00     0.041 C 
ATOM      5  O   UNL     1      -8.946  30.129 -15.142  1.00  0.00    -0.550 OA
ATOM      6  O   UNL     1      -9.241  31.922 -16.537  1.00  0.00    -0.550 OA
ENDBRANCH   3   4
ENDBRANCH   2   3
ENDBRANCH   1   2
BRANCH   1   7
ATOM      7  C   UNL     1      -7.031  28.645 -19.674  1.00  0.00     0.000 C 
BRANCH   7   8
ATOM      8  C   UNL     1      -5.993  28.861 -20.788  1.00  0.00    -0.000 C 
BRANCH   8   9
ATOM      9  C   UNL     1      -6.267  27.990 -22.024  1.00  0.00    -0.003 C 
ATOM     10  C   UNL     1      -5.020  27.766 -22.880  1.00  0.00     0.004 C 
ENDBRANCH   8   9
ENDBRANCH   7   8
ENDBRANCH   1   7
TORSDOF 6
ENDMDL
MODEL 2
REMARK VINA RESULT:    -1.845      3.607      5.951
REMARK INTER + INTRA:          -2.635
REMARK INTER:                  -2.408
REMARK INTRA:                  -0.227
REMARK UNBOUND:                -0.143
REMARK SMILES CCCCCCCC(=O)[O-]
REMARK SMILES IDX 5 1 6 2 7 3 8 4 9 5 10 6 4 7 3 8 2 9 1 10
REMARK H PARENT
REMARK Flexibility Score: inf
ROOT
ATOM      1  C   UNL     1      -6.477  28.632 -18.212  1.00  0.00     0.000 C 
ENDROOT
BRANCH   1   2
ATOM      2  C   UNL     1      -7.016  28.625 -19.654  1.00  0.00     0.006 C 
BRANCH   2   3
ATOM      3  C   UNL     1      -5.963  29.046 -20.688  1.00  0.00     0.053 C 
BRANCH   3   4
ATOM      4  C   UNL     1      -5.994  28.128 -21.869  1.00  0.00     0.041 C 
ATOM      5  O   UNL     1      -7.046  27.494 -22.151  1.00  0.00    -0.550 OA
ATOM      6  O   UNL     1      -4.879  28.010 -22.688  1.00  0.00    -0.550 OA
ENDBRANCH   3   4
ENDBRANCH   2   3
ENDBRANCH   1   2
BRANCH   1   7
ATOM      7  C   UNL     1      -7.535  28.883 -17.120  1.00  0.00     0.000 C 
BRANCH   7   8
ATOM      8  C   UNL     1      -8.733  29.704 -17.625  1.00  0.00    -0.000 C 
BRANCH   8   9
ATOM      9  C   UNL     1      -9.358  30.572 -16.521  1.00  0.00    -0.003 C 
ATOM     10  C   UNL     1      -8.833  30.229 -15.127  1.00  0.00     0.004 C 
ENDBRANCH   8   9
ENDBRANCH   7   8
ENDBRANCH   1   7
TORSDOF 6
ENDMDL
MODEL 3
REMARK VINA RESULT:    -0.105      3.142      5.560
REMARK INTER + INTRA:          -0.284
REMARK INTER:                   0.008
REMARK INTRA:                  -0.293
REMARK UNBOUND:                -0.143
REMARK SMILES CCCCCCCC(=O)[O-]
REMARK SMILES IDX 5 1 6 2 7 3 8 4 9 5 10 6 4 7 3 8 2 9 1 10
REMARK H PARENT
REMARK Flexibility Score: inf
ROOT
ATOM      1  C   UNL     1      -7.379  28.649 -16.401  1.00  0.00     0.000 C 
ENDROOT
BRANCH   1   2
ATOM      2  C   UNL     1      -6.495  28.432 -17.642  1.00  0.00     0.006 C 
BRANCH   2   3
ATOM      3  C   UNL     1      -7.131  28.968 -18.931  1.00  0.00     0.053 C 
BRANCH   3   4
ATOM      4  C   UNL     1      -6.464  28.372 -20.130  1.00  0.00     0.041 C 
ATOM      5  O   UNL     1      -5.958  27.220 -20.067  1.00  0.00    -0.550 OA
ATOM      6  O   UNL     1      -6.446  29.066 -21.333  1.00  0.00    -0.550 OA
ENDBRANCH   3   4
ENDBRANCH   2   3
ENDBRANCH   1   2
BRANCH   1   7
ATOM      7  C   UNL     1      -8.573  29.600 -16.606  1.00  0.00     0.000 C 
BRANCH   7   8
ATOM      8  C   UNL     1      -9.010  30.302 -15.310  1.00  0.00    -0.000 C 
BRANCH   8   9
ATOM      9  C   UNL     1      -9.054  31.831 -15.455  1.00  0.00    -0.003 C 
ATOM     10  C   UNL     1      -9.126  32.287 -16.913  1.00  0.00     0.004 C 
ENDBRANCH   8   9
ENDBRANCH   7   8
ENDBRANCH   1   7
TORSDOF 6
ENDMDL
