MODEL 1
REMARK VINA RESULT:    -5.409      0.000      0.000
REMARK INTER + INTRA:         -11.788
REMARK INTER:                  -8.887
REMARK INTRA:                  -2.901
REMARK UNBOUND:                -2.901
REMARK SMILES C[C@@H]1O[C@H](OC[C@@H]2O[C@H](Oc3c(-c4ccc(O)c(O)c4)oc4cc(O)cc(O)c4c3=O)[C@H](O)[C@H](O)[C@@H]2O)[C@@H](O)[C@@H](O)[C@H]1O
REMARK SMILES IDX 7 1 36 2 34 3 32 4 9 5 8 6 6 7 5 8 4 9 1 10 2 11 42 12 3 13
REMARK SMILES IDX 40 14 38 15 43 16 41 18 39 20 37 22 35 24 10 26 11 27 12 28
REMARK SMILES IDX 30 29 21 30 29 31 31 32 22 33 27 34 23 35 26 36 24 37 13 38
REMARK SMILES IDX 20 39 14 40 18 41 15 42 16 43 19 44 17 46 28 48 25 50 33 52
REMARK H PARENT 43 17 41 19 39 21 37 23 35 25 19 45 17 47 28 49 25 51 33 53
REMARK Flexibility Score: inf
ROOT
ATOM      1  C   UNL     1      11.507   7.367   0.288  1.00  0.00     0.180 C 
ATOM      2  C   UNL     1      10.015   7.486  -0.140  1.00  0.00     0.177 C 
ATOM      3  C   UNL     1       9.689   8.779  -0.917  1.00  0.00     0.180 C 
ATOM      4  C   UNL     1      10.759   9.005  -1.994  1.00  0.00     0.214 C 
ATOM      5  C   UNL     1      12.175   8.932  -1.392  1.00  0.00     0.339 C 
ATOM      6  O   UNL     1      12.425   7.689  -0.752  1.00  0.00    -0.332 OA
ENDROOT
BRANCH   1   7
ATOM      7  C   UNL     1      11.910   7.993   1.644  1.00  0.00     0.198 C 
BRANCH   7   8
ATOM      8  O   UNL     1      11.472   7.209   2.735  1.00  0.00    -0.347 OA
BRANCH   8   9
ATOM      9  C   UNL     1      10.616   7.955   3.577  1.00  0.00     0.281 C 
ATOM     10  C   UNL     1       7.327   6.996   4.878  1.00  0.00     0.041 C 
ATOM     11  C   UNL     1       8.562   7.875   4.688  1.00  0.00     0.150 C 
ATOM     12  C   UNL     1       9.176   8.261   6.052  1.00  0.00     0.174 C 
ATOM     13  O   UNL     1       9.501   7.148   3.916  1.00  0.00    -0.344 OA
ATOM     14  C   UNL     1      10.470   9.070   5.836  1.00  0.00     0.179 C 
ATOM     15  C   UNL     1      11.393   8.328   4.852  1.00  0.00     0.202 C 
BRANCH  12  16
ATOM     16  O   UNL     1       8.254   9.022   6.790  1.00  0.00    -0.388 OA
ATOM     17  H   UNL     1       7.565   9.338   6.149  1.00  0.00     0.211 HD
ENDBRANCH  12  16
BRANCH  14  18
ATOM     18  O   UNL     1      10.149  10.348   5.342  1.00  0.00    -0.387 OA
ATOM     19  H   UNL     1      10.682  10.483   4.517  1.00  0.00     0.211 HD
ENDBRANCH  14  18
BRANCH  15  20
ATOM     20  O   UNL     1      12.492   9.143   4.526  1.00  0.00    -0.385 OA
ATOM     21  H   UNL     1      12.783   9.588   5.364  1.00  0.00     0.211 HD
ENDBRANCH  15  20
ENDBRANCH   8   9
ENDBRANCH   7   8
ENDBRANCH   1   7
BRANCH   2  22
ATOM     22  O   UNL     1       9.129   7.268   0.931  1.00  0.00    -0.387 OA
ATOM     23  H   UNL     1       9.595   7.497   1.774  1.00  0.00     0.211 HD
ENDBRANCH   2  22
BRANCH   3  24
ATOM     24  O   UNL     1       9.614   9.898  -0.071  1.00  0.00    -0.387 OA
ATOM     25  H   UNL     1       8.710  10.291  -0.187  1.00  0.00     0.211 HD
ENDBRANCH   3  24
BRANCH   5  26
ATOM     26  O   UNL     1      12.432  10.021  -0.500  1.00  0.00    -0.454 OA
BRANCH  26  27
ATOM     27  C   UNL     1      13.462  10.957  -0.680  1.00  0.00     0.214 A 
ATOM     28  C   UNL     1      14.771  10.739  -0.196  1.00  0.00     0.180 A 
ATOM     29  C   UNL     1      13.181  12.154  -1.347  1.00  0.00     0.239 A 
ATOM     30  O   UNL     1      15.725  11.629  -0.453  1.00  0.00    -0.452 OA
ATOM     31  C   UNL     1      14.212  13.086  -1.578  1.00  0.00     0.111 A 
ATOM     32  O   UNL     1      12.007  12.371  -1.751  1.00  0.00    -0.285 OA
ATOM     33  C   UNL     1      15.507  12.762  -1.111  1.00  0.00     0.146 A 
ATOM     34  C   UNL     1      14.012  14.313  -2.254  1.00  0.00     0.134 A 
ATOM     35  C   UNL     1      16.575  13.641  -1.323  1.00  0.00     0.094 A 
ATOM     36  C   UNL     1      15.093  15.182  -2.453  1.00  0.00     0.093 A 
ATOM     37  C   UNL     1      16.371  14.850  -1.990  1.00  0.00     0.123 A 
BRANCH  28  38
ATOM     38  C   UNL     1      15.129   9.567   0.630  1.00  0.00     0.025 A 
ATOM     39  C   UNL     1      15.071   9.627   2.034  1.00  0.00     0.062 A 
ATOM     40  C   UNL     1      15.594   8.397   0.013  1.00  0.00     0.016 A 
ATOM     41  C   UNL     1      15.452   8.526   2.808  1.00  0.00     0.158 A 
ATOM     42  C   UNL     1      15.965   7.292   0.784  1.00  0.00     0.051 A 
ATOM     43  C   UNL     1      15.896   7.349   2.182  1.00  0.00     0.157 A 
BRANCH  41  44
ATOM     44  O   UNL     1      15.388   8.625   4.197  1.00  0.00    -0.504 OA
ATOM     45  H   UNL     1      15.177   9.500   4.664  1.00  0.00     0.293 HD
ENDBRANCH  41  44
BRANCH  43  46
ATOM     46  O   UNL     1      16.269   6.247   2.950  1.00  0.00    -0.504 OA
ATOM     47  H   UNL     1      16.058   5.299   2.659  1.00  0.00     0.293 HD
ENDBRANCH  43  46
ENDBRANCH  28  38
BRANCH  34  48
ATOM     48  O   UNL     1      12.748  14.672  -2.726  1.00  0.00    -0.507 OA
ATOM     49  H   UNL     1      12.081  15.161  -2.141  1.00  0.00     0.293 HD
ENDBRANCH  34  48
BRANCH  37  50
ATOM     50  O   UNL     1      17.445  15.716  -2.188  1.00  0.00    -0.508 OA
ATOM     51  H   UNL     1      18.178  15.816  -1.495  1.00  0.00     0.293 HD
ENDBRANCH  37  50
ENDBRANCH  26  27
ENDBRANCH   5  26
BRANCH   4  52
ATOM     52  O   UNL     1      10.576  10.246  -2.625  1.00  0.00    -0.384 OA
ATOM     53  H   UNL     1      11.478  10.569  -2.886  1.00  0.00     0.211 HD
ENDBRANCH   4  52
TORSDOF 16
ENDMDL
MODEL 2
REMARK VINA RESULT:    -5.026      7.878     12.550
REMARK INTER + INTRA:         -11.158
REMARK INTER:                  -7.387
REMARK INTRA:                  -3.772
REMARK UNBOUND:                -2.901
REMARK SMILES C[C@@H]1O[C@H](OC[C@@H]2O[C@H](Oc3c(-c4ccc(O)c(O)c4)oc4cc(O)cc(O)c4c3=O)[C@H](O)[C@H](O)[C@@H]2O)[C@@H](O)[C@@H](O)[C@H]1O
REMARK SMILES IDX 7 1 36 2 34 3 32 4 9 5 8 6 6 7 5 8 4 9 1 10 2 11 42 12 3 13
REMARK SMILES IDX 40 14 38 15 43 16 41 18 39 20 37 22 35 24 10 26 11 27 12 28
REMARK SMILES IDX 30 29 21 30 29 31 31 32 22 33 27 34 23 35 26 36 24 37 13 38
REMARK SMILES IDX 20 39 14 40 18 41 15 42 16 43 19 44 17 46 28 48 25 50 33 52
REMARK H PARENT 43 17 41 19 39 21 37 23 35 25 19 45 17 47 28 49 25 51 33 53
REMARK Flexibility Score: inf
ROOT
ATOM      1  C   UNL     1       6.011  10.904  11.943  1.00  0.00     0.180 C 
ATOM      2  C   UNL     1       6.659  11.769  13.063  1.00  0.00     0.177 C 
ATOM      3  C   UNL     1       6.450  13.286  12.880  1.00  0.00     0.180 C 
ATOM      4  C   UNL     1       4.980  13.556  12.533  1.00  0.00     0.214 C 
ATOM      5  C   UNL     1       4.518  12.677  11.356  1.00  0.00     0.339 C 
ATOM      6  O   UNL     1       4.678  11.291  11.624  1.00  0.00    -0.332 OA
ENDROOT
BRANCH   1   7
ATOM      7  C   UNL     1       6.861  10.621  10.681  1.00  0.00     0.198 C 
BRANCH   7   8
ATOM      8  O   UNL     1       8.137  11.221  10.762  1.00  0.00    -0.347 OA
BRANCH   8   9
ATOM      9  C   UNL     1       8.806  11.145   9.519  1.00  0.00     0.281 C 
ATOM     10  C   UNL     1       9.805   8.145   7.667  1.00  0.00     0.041 C 
ATOM     11  C   UNL     1       9.627   9.639   7.933  1.00  0.00     0.150 C 
ATOM     12  C   UNL     1       8.887  10.321   6.760  1.00  0.00     0.174 C 
ATOM     13  O   UNL     1       8.886   9.784   9.131  1.00  0.00    -0.344 OA
ATOM     14  C   UNL     1       8.638  11.806   7.089  1.00  0.00     0.179 C 
ATOM     15  C   UNL     1       7.989  11.933   8.479  1.00  0.00     0.202 C 
BRANCH  12  16
ATOM     16  O   UNL     1       9.652  10.212   5.587  1.00  0.00    -0.388 OA
ATOM     17  H   UNL     1      10.282   9.457   5.725  1.00  0.00     0.211 HD
ENDBRANCH  12  16
BRANCH  14  18
ATOM     18  O   UNL     1       9.857  12.508   7.048  1.00  0.00    -0.387 OA
ATOM     19  H   UNL     1       9.640  13.472   7.132  1.00  0.00     0.211 HD
ENDBRANCH  14  18
BRANCH  15  20
ATOM     20  O   UNL     1       7.917  13.289   8.847  1.00  0.00    -0.385 OA
ATOM     21  H   UNL     1       8.353  13.372   9.735  1.00  0.00     0.211 HD
ENDBRANCH  15  20
ENDBRANCH   8   9
ENDBRANCH   7   8
ENDBRANCH   1   7
BRANCH   2  22
ATOM     22  O   UNL     1       8.009  11.438  13.286  1.00  0.00    -0.387 OA
ATOM     23  H   UNL     1       8.296  11.853  14.138  1.00  0.00     0.211 HD
ENDBRANCH   2  22
BRANCH   3  24
ATOM     24  O   UNL     1       7.286  13.817  11.883  1.00  0.00    -0.387 OA
ATOM     25  H   UNL     1       8.100  13.250  11.852  1.00  0.00     0.211 HD
ENDBRANCH   3  24
BRANCH   5  26
ATOM     26  O   UNL     1       5.171  13.035  10.134  1.00  0.00    -0.454 OA
BRANCH  26  27
ATOM     27  C   UNL     1       4.507  13.559   9.014  1.00  0.00     0.214 A 
ATOM     28  C   UNL     1       3.837  12.734   8.082  1.00  0.00     0.180 A 
ATOM     29  C   UNL     1       4.523  14.940   8.801  1.00  0.00     0.239 A 
ATOM     30  O   UNL     1       3.168  13.287   7.076  1.00  0.00    -0.452 OA
ATOM     31  C   UNL     1       3.824  15.489   7.708  1.00  0.00     0.111 A 
ATOM     32  O   UNL     1       5.148  15.679   9.609  1.00  0.00    -0.285 OA
ATOM     33  C   UNL     1       3.130  14.597   6.858  1.00  0.00     0.146 A 
ATOM     34  C   UNL     1       3.781  16.876   7.431  1.00  0.00     0.134 A 
ATOM     35  C   UNL     1       2.406  15.084   5.764  1.00  0.00     0.094 A 
ATOM     36  C   UNL     1       3.054  17.344   6.328  1.00  0.00     0.093 A 
ATOM     37  C   UNL     1       2.368  16.452   5.496  1.00  0.00     0.123 A 
BRANCH  28  38
ATOM     38  C   UNL     1       3.876  11.259   8.153  1.00  0.00     0.025 A 
ATOM     39  C   UNL     1       4.954  10.537   7.610  1.00  0.00     0.062 A 
ATOM     40  C   UNL     1       2.797  10.560   8.712  1.00  0.00     0.016 A 
ATOM     41  C   UNL     1       4.962   9.139   7.645  1.00  0.00     0.158 A 
ATOM     42  C   UNL     1       2.808   9.163   8.757  1.00  0.00     0.051 A 
ATOM     43  C   UNL     1       3.887   8.446   8.227  1.00  0.00     0.157 A 
BRANCH  41  44
ATOM     44  O   UNL     1       6.045   8.458   7.090  1.00  0.00    -0.504 OA
ATOM     45  H   UNL     1       5.922   7.647   6.494  1.00  0.00     0.293 HD
ENDBRANCH  41  44
BRANCH  43  46
ATOM     46  O   UNL     1       3.896   7.052   8.270  1.00  0.00    -0.504 OA
ATOM     47  H   UNL     1       3.080   6.507   8.016  1.00  0.00     0.293 HD
ENDBRANCH  43  46
ENDBRANCH  28  38
BRANCH  34  48
ATOM     48  O   UNL     1       4.456  17.789   8.243  1.00  0.00    -0.507 OA
ATOM     49  H   UNL     1       4.305  17.823   9.245  1.00  0.00     0.293 HD
ENDBRANCH  34  48
BRANCH  37  50
ATOM     50  O   UNL     1       1.647  16.919   4.398  1.00  0.00    -0.508 OA
ATOM     51  H   UNL     1       0.968  17.666   4.489  1.00  0.00     0.293 HD
ENDBRANCH  37  50
ENDBRANCH  26  27
ENDBRANCH   5  26
BRANCH   4  52
ATOM     52  O   UNL     1       4.783  14.911  12.218  1.00  0.00    -0.384 OA
ATOM     53  H   UNL     1       4.289  15.311  12.981  1.00  0.00     0.211 HD
ENDBRANCH   4  52
TORSDOF 16
ENDMDL
MODEL 3
REMARK VINA RESULT:    -4.978      6.255     11.734
REMARK INTER + INTRA:         -11.079
REMARK INTER:                  -7.010
REMARK INTRA:                  -4.069
REMARK UNBOUND:                -2.901
REMARK SMILES C[C@@H]1O[C@H](OC[C@@H]2O[C@H](Oc3c(-c4ccc(O)c(O)c4)oc4cc(O)cc(O)c4c3=O)[C@H](O)[C@H](O)[C@@H]2O)[C@@H](O)[C@@H](O)[C@H]1O
REMARK SMILES IDX 7 1 36 2 34 3 32 4 9 5 8 6 6 7 5 8 4 9 1 10 2 11 42 12 3 13
REMARK SMILES IDX 40 14 38 15 43 16 41 18 39 20 37 22 35 24 10 26 11 27 12 28
REMARK SMILES IDX 30 29 21 30 29 31 31 32 22 33 27 34 23 35 26 36 24 37 13 38
REMARK SMILES IDX 20 39 14 40 18 41 15 42 16 43 19 44 17 46 28 48 25 50 33 52
REMARK H PARENT 43 17 41 19 39 21 37 23 35 25 19 45 17 47 28 49 25 51 33 53
REMARK Flexibility Score: inf
ROOT
ATOM      1  C   UNL     1       5.907  11.624  12.185  1.00  0.00     0.180 C 
ATOM      2  C   UNL     1       6.545  11.087  13.499  1.00  0.00     0.177 C 
ATOM      3  C   UNL     1       7.850  10.294  13.281  1.00  0.00     0.180 C 
ATOM      4  C   UNL     1       8.756  11.068  12.314  1.00  0.00     0.214 C 
ATOM      5  C   UNL     1       7.995  11.458  11.033  1.00  0.00     0.339 C 
ATOM      6  O   UNL     1       6.844  12.242  11.309  1.00  0.00    -0.332 OA
ENDROOT
BRANCH   1   7
ATOM      7  C   UNL     1       4.926  10.690  11.436  1.00  0.00     0.198 C 
BRANCH   7   8
ATOM      8  O   UNL     1       5.017   9.358  11.895  1.00  0.00    -0.347 OA
BRANCH   8   9
ATOM      9  C   UNL     1       4.387   8.472  10.990  1.00  0.00     0.281 C 
ATOM     10  C   UNL     1       1.282   8.988   9.113  1.00  0.00     0.041 C 
ATOM     11  C   UNL     1       2.548   8.261   9.565  1.00  0.00     0.150 C 
ATOM     12  C   UNL     1       3.414   7.858   8.350  1.00  0.00     0.174 C 
ATOM     13  O   UNL     1       3.271   9.132  10.416  1.00  0.00    -0.344 OA
ATOM     14  C   UNL     1       4.725   7.208   8.833  1.00  0.00     0.179 C 
ATOM     15  C   UNL     1       5.397   8.105   9.887  1.00  0.00     0.202 C 
BRANCH  12  16
ATOM     16  O   UNL     1       2.703   6.957   7.538  1.00  0.00    -0.388 OA
ATOM     17  H   UNL     1       1.791   6.881   7.924  1.00  0.00     0.211 HD
ENDBRANCH  12  16
BRANCH  14  18
ATOM     18  O   UNL     1       4.451   5.937   9.369  1.00  0.00    -0.387 OA
ATOM     19  H   UNL     1       3.503   5.943   9.661  1.00  0.00     0.211 HD
ENDBRANCH  14  18
BRANCH  15  20
ATOM     20  O   UNL     1       6.500   7.436  10.447  1.00  0.00    -0.385 OA
ATOM     21  H   UNL     1       6.767   7.942  11.258  1.00  0.00     0.211 HD
ENDBRANCH  15  20
ENDBRANCH   8   9
ENDBRANCH   7   8
ENDBRANCH   1   7
BRANCH   2  22
ATOM     22  O   UNL     1       5.621  10.388  14.299  1.00  0.00    -0.387 OA
ATOM     23  H   UNL     1       5.737  10.680  15.238  1.00  0.00     0.211 HD
ENDBRANCH   2  22
BRANCH   3  24
ATOM     24  O   UNL     1       7.606   9.003  12.783  1.00  0.00    -0.387 OA
ATOM     25  H   UNL     1       8.411   8.732  12.268  1.00  0.00     0.211 HD
ENDBRANCH   3  24
BRANCH   5  26
ATOM     26  O   UNL     1       7.652  10.313  10.248  1.00  0.00    -0.454 OA
BRANCH  26  27
ATOM     27  C   UNL     1       8.186  10.042   8.979  1.00  0.00     0.214 A 
ATOM     28  C   UNL     1       7.755  10.725   7.819  1.00  0.00     0.180 A 
ATOM     29  C   UNL     1       9.166   9.052   8.852  1.00  0.00     0.239 A 
ATOM     30  O   UNL     1       8.342  10.477   6.653  1.00  0.00    -0.452 OA
ATOM     31  C   UNL     1       9.746   8.798   7.594  1.00  0.00     0.111 A 
ATOM     32  O   UNL     1       9.530   8.414   9.876  1.00  0.00    -0.285 OA
ATOM     33  C   UNL     1       9.299   9.569   6.497  1.00  0.00     0.146 A 
ATOM     34  C   UNL     1      10.751   7.823   7.386  1.00  0.00     0.134 A 
ATOM     35  C   UNL     1       9.848   9.372   5.225  1.00  0.00     0.094 A 
ATOM     36  C   UNL     1      11.286   7.638   6.104  1.00  0.00     0.093 A 
ATOM     37  C   UNL     1      10.838   8.409   5.025  1.00  0.00     0.123 A 
BRANCH  28  38
ATOM     38  C   UNL     1       6.637  11.692   7.835  1.00  0.00     0.025 A 
ATOM     39  C   UNL     1       5.302  11.255   7.785  1.00  0.00     0.062 A 
ATOM     40  C   UNL     1       6.908  13.068   7.835  1.00  0.00     0.016 A 
ATOM     41  C   UNL     1       4.252  12.178   7.758  1.00  0.00     0.158 A 
ATOM     42  C   UNL     1       5.860  13.992   7.818  1.00  0.00     0.051 A 
ATOM     43  C   UNL     1       4.530  13.555   7.781  1.00  0.00     0.157 A 
BRANCH  41  44
ATOM     44  O   UNL     1       2.941  11.706   7.701  1.00  0.00    -0.504 OA
ATOM     45  H   UNL     1       2.696  10.861   7.199  1.00  0.00     0.293 HD
ENDBRANCH  41  44
BRANCH  43  46
ATOM     46  O   UNL     1       3.486  14.479   7.762  1.00  0.00    -0.504 OA
ATOM     47  H   UNL     1       2.806  14.530   8.512  1.00  0.00     0.293 HD
ENDBRANCH  43  46
ENDBRANCH  28  38
BRANCH  34  48
ATOM     48  O   UNL     1      11.217   7.039   8.442  1.00  0.00    -0.507 OA
ATOM     49  H   UNL     1      12.053   7.285   8.959  1.00  0.00     0.293 HD
ENDBRANCH  34  48
BRANCH  37  50
ATOM     50  O   UNL     1      11.370   8.223   3.750  1.00  0.00    -0.508 OA
ATOM     51  H   UNL     1      11.491   7.296   3.358  1.00  0.00     0.293 HD
ENDBRANCH  37  50
ENDBRANCH  26  27
ENDBRANCH   5  26
BRANCH   4  52
ATOM     52  O   UNL     1       9.891  10.311  11.980  1.00  0.00    -0.384 OA
ATOM     53  H   UNL     1       9.728   9.939  11.074  1.00  0.00     0.211 HD
ENDBRANCH   4  52
TORSDOF 16
ENDMDL
MODEL 4
REMARK VINA RESULT:    -4.856      5.981      9.845
REMARK INTER + INTRA:         -10.879
REMARK INTER:                  -7.080
REMARK INTRA:                  -3.799
REMARK UNBOUND:                -2.901
REMARK SMILES C[C@@H]1O[C@H](OC[C@@H]2O[C@H](Oc3c(-c4ccc(O)c(O)c4)oc4cc(O)cc(O)c4c3=O)[C@H](O)[C@H](O)[C@@H]2O)[C@@H](O)[C@@H](O)[C@H]1O
REMARK SMILES IDX 7 1 36 2 34 3 32 4 9 5 8 6 6 7 5 8 4 9 1 10 2 11 42 12 3 13
REMARK SMILES IDX 40 14 38 15 43 16 41 18 39 20 37 22 35 24 10 26 11 27 12 28
REMARK SMILES IDX 30 29 21 30 29 31 31 32 22 33 27 34 23 35 26 36 24 37 13 38
REMARK SMILES IDX 20 39 14 40 18 41 15 42 16 43 19 44 17 46 28 48 25 50 33 52
REMARK H PARENT 43 17 41 19 39 21 37 23 35 25 19 45 17 47 28 49 25 51 33 53
REMARK Flexibility Score: inf
ROOT
ATOM      1  C   UNL     1       9.180   4.789   5.729  1.00  0.00     0.180 C 
ATOM      2  C   UNL     1      10.715   4.873   5.980  1.00  0.00     0.177 C 
ATOM      3  C   UNL     1      11.166   6.181   6.661  1.00  0.00     0.180 C 
ATOM      4  C   UNL     1      10.233   6.484   7.842  1.00  0.00     0.214 C 
ATOM      5  C   UNL     1       8.756   6.437   7.409  1.00  0.00     0.339 C 
ATOM      6  O   UNL     1       8.398   5.180   6.853  1.00  0.00    -0.332 OA
ENDROOT
BRANCH   1   7
ATOM      7  C   UNL     1       8.643   5.377   4.403  1.00  0.00     0.198 C 
BRANCH   7   8
ATOM      8  O   UNL     1       9.677   5.929   3.616  1.00  0.00    -0.347 OA
BRANCH   8   9
ATOM      9  C   UNL     1       9.145   6.687   2.548  1.00  0.00     0.281 C 
ATOM     10  C   UNL     1       6.688   5.643   0.038  1.00  0.00     0.041 C 
ATOM     11  C   UNL     1       7.637   6.593   0.766  1.00  0.00     0.150 C 
ATOM     12  C   UNL     1       6.901   7.882   1.196  1.00  0.00     0.174 C 
ATOM     13  O   UNL     1       8.145   5.917   1.902  1.00  0.00    -0.344 OA
ATOM     14  C   UNL     1       7.851   8.784   2.006  1.00  0.00     0.179 C 
ATOM     15  C   UNL     1       8.519   7.969   3.127  1.00  0.00     0.202 C 
BRANCH  12  16
ATOM     16  O   UNL     1       6.442   8.569   0.059  1.00  0.00    -0.388 OA
ATOM     17  H   UNL     1       6.569   7.959  -0.715  1.00  0.00     0.211 HD
ENDBRANCH  12  16
BRANCH  14  18
ATOM     18  O   UNL     1       8.823   9.333   1.149  1.00  0.00    -0.387 OA
ATOM     19  H   UNL     1       9.710   9.109   1.534  1.00  0.00     0.211 HD
ENDBRANCH  14  18
BRANCH  15  20
ATOM     20  O   UNL     1       9.508   8.747   3.756  1.00  0.00    -0.385 OA
ATOM     21  H   UNL     1       9.096   9.624   3.968  1.00  0.00     0.211 HD
ENDBRANCH  15  20
ENDBRANCH   8   9
ENDBRANCH   7   8
ENDBRANCH   1   7
BRANCH   2  22
ATOM     22  O   UNL     1      11.465   4.585   4.825  1.00  0.00    -0.387 OA
ATOM     23  H   UNL     1      11.809   5.437   4.455  1.00  0.00     0.211 HD
ENDBRANCH   2  22
BRANCH   3  24
ATOM     24  O   UNL     1      11.176   7.265   5.767  1.00  0.00    -0.387 OA
ATOM     25  H   UNL     1      11.950   7.837   6.011  1.00  0.00     0.211 HD
ENDBRANCH   3  24
BRANCH   5  26
ATOM     26  O   UNL     1       8.431   7.500   6.508  1.00  0.00    -0.454 OA
BRANCH  26  27
ATOM     27  C   UNL     1       7.685   8.633   6.868  1.00  0.00     0.214 A 
ATOM     28  C   UNL     1       6.300   8.569   7.137  1.00  0.00     0.180 A 
ATOM     29  C   UNL     1       8.330   9.872   6.946  1.00  0.00     0.239 A 
ATOM     30  O   UNL     1       5.656   9.660   7.540  1.00  0.00    -0.452 OA
ATOM     31  C   UNL     1       7.608  11.013   7.350  1.00  0.00     0.111 A 
ATOM     32  O   UNL     1       9.558   9.944   6.673  1.00  0.00    -0.285 OA
ATOM     33  C   UNL     1       6.239  10.848   7.659  1.00  0.00     0.146 A 
ATOM     34  C   UNL     1       8.190  12.298   7.465  1.00  0.00     0.134 A 
ATOM     35  C   UNL     1       5.473  11.941   8.079  1.00  0.00     0.094 A 
ATOM     36  C   UNL     1       7.406  13.382   7.884  1.00  0.00     0.093 A 
ATOM     37  C   UNL     1       6.052  13.206   8.191  1.00  0.00     0.123 A 
BRANCH  28  38
ATOM     38  C   UNL     1       5.510   7.333   6.955  1.00  0.00     0.025 A 
ATOM     39  C   UNL     1       5.215   6.847   5.670  1.00  0.00     0.062 A 
ATOM     40  C   UNL     1       4.993   6.666   8.075  1.00  0.00     0.016 A 
ATOM     41  C   UNL     1       4.432   5.699   5.506  1.00  0.00     0.158 A 
ATOM     42  C   UNL     1       4.219   5.514   7.915  1.00  0.00     0.051 A 
ATOM     43  C   UNL     1       3.935   5.024   6.633  1.00  0.00     0.157 A 
BRANCH  41  44
ATOM     44  O   UNL     1       4.154   5.252   4.215  1.00  0.00    -0.504 OA
ATOM     45  H   UNL     1       3.300   5.504   3.731  1.00  0.00     0.293 HD
ENDBRANCH  41  44
BRANCH  43  46
ATOM     46  O   UNL     1       3.161   3.875   6.475  1.00  0.00    -0.504 OA
ATOM     47  H   UNL     1       3.507   2.959   6.736  1.00  0.00     0.293 HD
ENDBRANCH  43  46
ENDBRANCH  28  38
BRANCH  34  48
ATOM     48  O   UNL     1       9.538  12.503   7.166  1.00  0.00    -0.507 OA
ATOM     49  H   UNL     1       9.873  12.522   6.210  1.00  0.00     0.293 HD
ENDBRANCH  34  48
BRANCH  37  50
ATOM     50  O   UNL     1       5.273  14.285   8.605  1.00  0.00    -0.508 OA
ATOM     51  H   UNL     1       5.246  15.151   8.080  1.00  0.00     0.293 HD
ENDBRANCH  37  50
ENDBRANCH  26  27
ENDBRANCH   5  26
BRANCH   4  52
ATOM     52  O   UNL     1      10.525   7.741   8.398  1.00  0.00    -0.384 OA
ATOM     53  H   UNL     1      11.161   8.185   7.778  1.00  0.00     0.211 HD
ENDBRANCH   4  52
TORSDOF 16
ENDMDL
MODEL 5
REMARK VINA RESULT:    -4.823     11.320     13.723
REMARK INTER + INTRA:         -10.825
REMARK INTER:                  -7.652
REMARK INTRA:                  -3.172
REMARK UNBOUND:                -2.901
REMARK SMILES C[C@@H]1O[C@H](OC[C@@H]2O[C@H](Oc3c(-c4ccc(O)c(O)c4)oc4cc(O)cc(O)c4c3=O)[C@H](O)[C@H](O)[C@@H]2O)[C@@H](O)[C@@H](O)[C@H]1O
REMARK SMILES IDX 7 1 36 2 34 3 32 4 9 5 8 6 6 7 5 8 4 9 1 10 2 11 42 12 3 13
REMARK SMILES IDX 40 14 38 15 43 16 41 18 39 20 37 22 35 24 10 26 11 27 12 28
REMARK SMILES IDX 30 29 21 30 29 31 31 32 22 33 27 34 23 35 26 36 24 37 13 38
REMARK SMILES IDX 20 39 14 40 18 41 15 42 16 43 19 44 17 46 28 48 25 50 33 52
REMARK H PARENT 43 17 41 19 39 21 37 23 35 25 19 45 17 47 28 49 25 51 33 53
REMARK Flexibility Score: inf
ROOT
ATOM      1  C   UNL     1       8.088  23.509   4.164  1.00  0.00     0.180 C 
ATOM      2  C   UNL     1       7.523  23.600   5.611  1.00  0.00     0.177 C 
ATOM      3  C   UNL     1       8.551  23.246   6.706  1.00  0.00     0.180 C 
ATOM      4  C   UNL     1       9.873  23.967   6.411  1.00  0.00     0.214 C 
ATOM      5  C   UNL     1      10.332  23.711   4.963  1.00  0.00     0.339 C 
ATOM      6  O   UNL     1       9.363  24.125   4.010  1.00  0.00    -0.332 OA
ENDROOT
BRANCH   1   7
ATOM      7  C   UNL     1       8.006  22.137   3.453  1.00  0.00     0.198 C 
BRANCH   7   8
ATOM      8  O   UNL     1       6.908  22.069   2.567  1.00  0.00    -0.347 OA
BRANCH   8   9
ATOM      9  C   UNL     1       6.197  20.860   2.741  1.00  0.00     0.281 C 
ATOM     10  C   UNL     1       3.645  20.078   5.251  1.00  0.00     0.041 C 
ATOM     11  C   UNL     1       4.548  19.839   4.043  1.00  0.00     0.150 C 
ATOM     12  C   UNL     1       3.718  19.397   2.816  1.00  0.00     0.174 C 
ATOM     13  O   UNL     1       5.232  21.046   3.762  1.00  0.00    -0.344 OA
ATOM     14  C   UNL     1       4.636  19.249   1.587  1.00  0.00     0.179 C 
ATOM     15  C   UNL     1       5.492  20.516   1.417  1.00  0.00     0.202 C 
BRANCH  12  16
ATOM     16  O   UNL     1       3.081  18.174   3.088  1.00  0.00    -0.388 OA
ATOM     17  H   UNL     1       3.443  17.512   2.442  1.00  0.00     0.211 HD
ENDBRANCH  12  16
BRANCH  14  18
ATOM     18  O   UNL     1       5.456  18.117   1.746  1.00  0.00    -0.387 OA
ATOM     19  H   UNL     1       6.391  18.443   1.811  1.00  0.00     0.211 HD
ENDBRANCH  14  18
BRANCH  15  20
ATOM     20  O   UNL     1       6.443  20.314   0.401  1.00  0.00    -0.385 OA
ATOM     21  H   UNL     1       6.114  19.565  -0.161  1.00  0.00     0.211 HD
ENDBRANCH  15  20
ENDBRANCH   8   9
ENDBRANCH   7   8
ENDBRANCH   1   7
BRANCH   2  22
ATOM     22  O   UNL     1       6.315  22.895   5.763  1.00  0.00    -0.387 OA
ATOM     23  H   UNL     1       6.503  21.928   5.657  1.00  0.00     0.211 HD
ENDBRANCH   2  22
BRANCH   3  24
ATOM     24  O   UNL     1       8.768  21.861   6.797  1.00  0.00    -0.387 OA
ATOM     25  H   UNL     1       8.129  21.509   7.471  1.00  0.00     0.211 HD
ENDBRANCH   3  24
BRANCH   5  26
ATOM     26  O   UNL     1      10.699  22.345   4.753  1.00  0.00    -0.454 OA
BRANCH  26  27
ATOM     27  C   UNL     1      11.978  21.927   4.354  1.00  0.00     0.214 A 
ATOM     28  C   UNL     1      12.373  21.902   2.998  1.00  0.00     0.180 A 
ATOM     29  C   UNL     1      12.888  21.506   5.329  1.00  0.00     0.239 A 
ATOM     30  O   UNL     1      13.618  21.562   2.681  1.00  0.00    -0.452 OA
ATOM     31  C   UNL     1      14.191  21.126   4.952  1.00  0.00     0.111 A 
ATOM     32  O   UNL     1      12.531  21.492   6.537  1.00  0.00    -0.285 OA
ATOM     33  C   UNL     1      14.522  21.188   3.579  1.00  0.00     0.146 A 
ATOM     34  C   UNL     1      15.173  20.700   5.878  1.00  0.00     0.134 A 
ATOM     35  C   UNL     1      15.806  20.837   3.146  1.00  0.00     0.094 A 
ATOM     36  C   UNL     1      16.452  20.349   5.425  1.00  0.00     0.093 A 
ATOM     37  C   UNL     1      16.770  20.417   4.063  1.00  0.00     0.123 A 
BRANCH  28  38
ATOM     38  C   UNL     1      11.441  22.205   1.892  1.00  0.00     0.025 A 
ATOM     39  C   UNL     1      10.695  21.185   1.275  1.00  0.00     0.062 A 
ATOM     40  C   UNL     1      11.341  23.516   1.405  1.00  0.00     0.016 A 
ATOM     41  C   UNL     1       9.846  21.475   0.201  1.00  0.00     0.158 A 
ATOM     42  C   UNL     1      10.486  23.810   0.339  1.00  0.00     0.051 A 
ATOM     43  C   UNL     1       9.735  22.795  -0.267  1.00  0.00     0.157 A 
BRANCH  41  44
ATOM     44  O   UNL     1       9.129  20.436  -0.390  1.00  0.00    -0.504 OA
ATOM     45  H   UNL     1       9.589  19.642  -0.821  1.00  0.00     0.293 HD
ENDBRANCH  41  44
BRANCH  43  46
ATOM     46  O   UNL     1       8.885  23.089  -1.332  1.00  0.00    -0.504 OA
ATOM     47  H   UNL     1       8.299  22.379  -1.757  1.00  0.00     0.293 HD
ENDBRANCH  43  46
ENDBRANCH  28  38
BRANCH  34  48
ATOM     48  O   UNL     1      14.885  20.622   7.242  1.00  0.00    -0.507 OA
ATOM     49  H   UNL     1      15.608  20.448   7.929  1.00  0.00     0.293 HD
ENDBRANCH  34  48
BRANCH  37  50
ATOM     50  O   UNL     1      18.041  20.066   3.613  1.00  0.00    -0.508 OA
ATOM     51  H   UNL     1      18.217  19.848   2.639  1.00  0.00     0.293 HD
ENDBRANCH  37  50
ENDBRANCH  26  27
ENDBRANCH   5  26
BRANCH   4  52
ATOM     52  O   UNL     1      10.875  23.556   7.305  1.00  0.00    -0.384 OA
ATOM     53  H   UNL     1      10.537  22.738   7.756  1.00  0.00     0.211 HD
ENDBRANCH   4  52
TORSDOF 16
ENDMDL
MODEL 6
REMARK VINA RESULT:    -4.748      9.343     13.702
REMARK INTER + INTRA:         -10.702
REMARK INTER:                  -7.528
REMARK INTRA:                  -3.174
REMARK UNBOUND:                -2.901
REMARK SMILES C[C@@H]1O[C@H](OC[C@@H]2O[C@H](Oc3c(-c4ccc(O)c(O)c4)oc4cc(O)cc(O)c4c3=O)[C@H](O)[C@H](O)[C@@H]2O)[C@@H](O)[C@@H](O)[C@H]1O
REMARK SMILES IDX 7 1 36 2 34 3 32 4 9 5 8 6 6 7 5 8 4 9 1 10 2 11 42 12 3 13
REMARK SMILES IDX 40 14 38 15 43 16 41 18 39 20 37 22 35 24 10 26 11 27 12 28
REMARK SMILES IDX 30 29 21 30 29 31 31 32 22 33 27 34 23 35 26 36 24 37 13 38
REMARK SMILES IDX 20 39 14 40 18 41 15 42 16 43 19 44 17 46 28 48 25 50 33 52
REMARK H PARENT 43 17 41 19 39 21 37 23 35 25 19 45 17 47 28 49 25 51 33 53
REMARK Flexibility Score: inf
ROOT
ATOM      1  C   UNL     1       6.179  12.746  12.486  1.00  0.00     0.180 C 
ATOM      2  C   UNL     1       5.445  13.351  13.718  1.00  0.00     0.177 C 
ATOM      3  C   UNL     1       4.289  14.304  13.350  1.00  0.00     0.180 C 
ATOM      4  C   UNL     1       3.429  13.658  12.255  1.00  0.00     0.214 C 
ATOM      5  C   UNL     1       4.299  13.184  11.076  1.00  0.00     0.339 C 
ATOM      6  O   UNL     1       5.297  12.258  11.481  1.00  0.00    -0.332 OA
ENDROOT
BRANCH   1   7
ATOM      7  C   UNL     1       7.359  13.553  11.893  1.00  0.00     0.198 C 
BRANCH   7   8
ATOM      8  O   UNL     1       8.392  13.742  12.837  1.00  0.00    -0.347 OA
BRANCH   8   9
ATOM      9  C   UNL     1       8.899  15.060  12.769  1.00  0.00     0.281 C 
ATOM     10  C   UNL     1       7.029  18.210  12.896  1.00  0.00     0.041 C 
ATOM     11  C   UNL     1       8.260  17.307  12.824  1.00  0.00     0.150 C 
ATOM     12  C   UNL     1       9.271  17.667  13.935  1.00  0.00     0.174 C 
ATOM     13  O   UNL     1       7.827  15.966  12.970  1.00  0.00    -0.344 OA
ATOM     14  C   UNL     1      10.460  16.687  13.901  1.00  0.00     0.179 C 
ATOM     15  C   UNL     1       9.944  15.237  13.885  1.00  0.00     0.202 C 
BRANCH  12  16
ATOM     16  O   UNL     1       9.729  18.983  13.753  1.00  0.00    -0.388 OA
ATOM     17  H   UNL     1       9.049  19.449  13.200  1.00  0.00     0.211 HD
ENDBRANCH  12  16
BRANCH  14  18
ATOM     18  O   UNL     1      11.248  16.943  12.763  1.00  0.00    -0.387 OA
ATOM     19  H   UNL     1      12.161  16.610  12.961  1.00  0.00     0.211 HD
ENDBRANCH  14  18
BRANCH  15  20
ATOM     20  O   UNL     1      11.019  14.353  13.684  1.00  0.00    -0.385 OA
ATOM     21  H   UNL     1      11.818  14.907  13.484  1.00  0.00     0.211 HD
ENDBRANCH  15  20
ENDBRANCH   8   9
ENDBRANCH   7   8
ENDBRANCH   1   7
BRANCH   2  22
ATOM     22  O   UNL     1       6.334  13.922  14.647  1.00  0.00    -0.387 OA
ATOM     23  H   UNL     1       5.825  14.546  15.224  1.00  0.00     0.211 HD
ENDBRANCH   2  22
BRANCH   3  24
ATOM     24  O   UNL     1       4.756  15.557  12.918  1.00  0.00    -0.387 OA
ATOM     25  H   UNL     1       5.673  15.669  13.283  1.00  0.00     0.211 HD
ENDBRANCH   3  24
BRANCH   5  26
ATOM     26  O   UNL     1       4.883  14.281  10.369  1.00  0.00    -0.454 OA
BRANCH  26  27
ATOM     27  C   UNL     1       4.441  14.733   9.116  1.00  0.00     0.214 A 
ATOM     28  C   UNL     1       4.754  14.054   7.917  1.00  0.00     0.180 A 
ATOM     29  C   UNL     1       3.680  15.904   9.048  1.00  0.00     0.239 A 
ATOM     30  O   UNL     1       4.253  14.488   6.765  1.00  0.00    -0.452 OA
ATOM     31  C   UNL     1       3.188  16.349   7.804  1.00  0.00     0.111 A 
ATOM     32  O   UNL     1       3.426  16.535  10.109  1.00  0.00    -0.285 OA
ATOM     33  C   UNL     1       3.498  15.576   6.662  1.00  0.00     0.146 A 
ATOM     34  C   UNL     1       2.401  17.515   7.653  1.00  0.00     0.134 A 
ATOM     35  C   UNL     1       3.027  15.959   5.401  1.00  0.00     0.094 A 
ATOM     36  C   UNL     1       1.941  17.885   6.382  1.00  0.00     0.093 A 
ATOM     37  C   UNL     1       2.252  17.111   5.258  1.00  0.00     0.123 A 
BRANCH  28  38
ATOM     38  C   UNL     1       5.657  12.885   7.877  1.00  0.00     0.025 A 
ATOM     39  C   UNL     1       7.054  13.051   7.878  1.00  0.00     0.062 A 
ATOM     40  C   UNL     1       5.121  11.594   7.775  1.00  0.00     0.016 A 
ATOM     41  C   UNL     1       7.901  11.941   7.798  1.00  0.00     0.158 A 
ATOM     42  C   UNL     1       5.965  10.483   7.705  1.00  0.00     0.051 A 
ATOM     43  C   UNL     1       7.356  10.648   7.717  1.00  0.00     0.157 A 
BRANCH  41  44
ATOM     44  O   UNL     1       9.280  12.145   7.793  1.00  0.00    -0.504 OA
ATOM     45  H   UNL     1       9.890  11.679   7.130  1.00  0.00     0.293 HD
ENDBRANCH  41  44
BRANCH  43  46
ATOM     46  O   UNL     1       8.197   9.538   7.645  1.00  0.00    -0.504 OA
ATOM     47  H   UNL     1       8.727   9.219   8.448  1.00  0.00     0.293 HD
ENDBRANCH  43  46
ENDBRANCH  28  38
BRANCH  34  48
ATOM     48  O   UNL     1       2.077  18.307   8.756  1.00  0.00    -0.507 OA
ATOM     49  H   UNL     1       2.261  18.001   9.704  1.00  0.00     0.293 HD
ENDBRANCH  34  48
BRANCH  37  50
ATOM     50  O   UNL     1       1.795  17.480   3.994  1.00  0.00    -0.508 OA
ATOM     51  H   UNL     1       1.559  18.442   3.777  1.00  0.00     0.293 HD
ENDBRANCH  37  50
ENDBRANCH  26  27
ENDBRANCH   5  26
BRANCH   4  52
ATOM     52  O   UNL     1       2.453  14.555  11.794  1.00  0.00    -0.384 OA
ATOM     53  H   UNL     1       2.936  15.359  11.468  1.00  0.00     0.211 HD
ENDBRANCH   4  52
TORSDOF 16
ENDMDL
MODEL 7
REMARK VINA RESULT:    -4.668      3.557      6.994
REMARK INTER + INTRA:         -10.570
REMARK INTER:                  -7.715
REMARK INTRA:                  -2.855
REMARK UNBOUND:                -2.901
REMARK SMILES C[C@@H]1O[C@H](OC[C@@H]2O[C@H](Oc3c(-c4ccc(O)c(O)c4)oc4cc(O)cc(O)c4c3=O)[C@H](O)[C@H](O)[C@@H]2O)[C@@H](O)[C@@H](O)[C@H]1O
REMARK SMILES IDX 7 1 36 2 34 3 32 4 9 5 8 6 6 7 5 8 4 9 1 10 2 11 42 12 3 13
REMARK SMILES IDX 40 14 38 15 43 16 41 18 39 20 37 22 35 24 10 26 11 27 12 28
REMARK SMILES IDX 30 29 21 30 29 31 31 32 22 33 27 34 23 35 26 36 24 37 13 38
REMARK SMILES IDX 20 39 14 40 18 41 15 42 16 43 19 44 17 46 28 48 25 50 33 52
REMARK H PARENT 43 17 41 19 39 21 37 23 35 25 19 45 17 47 28 49 25 51 33 53
REMARK Flexibility Score: inf
ROOT
ATOM      1  C   UNL     1       7.424   5.900   3.724  1.00  0.00     0.180 C 
ATOM      2  C   UNL     1       7.597   4.652   2.811  1.00  0.00     0.177 C 
ATOM      3  C   UNL     1       9.040   4.442   2.306  1.00  0.00     0.180 C 
ATOM      4  C   UNL     1      10.016   4.609   3.479  1.00  0.00     0.214 C 
ATOM      5  C   UNL     1       9.761   5.929   4.230  1.00  0.00     0.339 C 
ATOM      6  O   UNL     1       8.432   6.019   4.723  1.00  0.00    -0.332 OA
ENDROOT
BRANCH   1   7
ATOM      7  C   UNL     1       7.116   7.250   3.033  1.00  0.00     0.198 C 
BRANCH   7   8
ATOM      8  O   UNL     1       6.086   7.126   2.075  1.00  0.00    -0.347 OA
BRANCH   8   9
ATOM      9  C   UNL     1       6.411   7.833   0.895  1.00  0.00     0.281 C 
ATOM     10  C   UNL     1       9.714   8.951  -0.233  1.00  0.00     0.041 C 
ATOM     11  C   UNL     1       8.204   8.733  -0.304  1.00  0.00     0.150 C 
ATOM     12  C   UNL     1       7.814   8.012  -1.614  1.00  0.00     0.174 C 
ATOM     13  O   UNL     1       7.822   7.955   0.816  1.00  0.00    -0.344 OA
ATOM     14  C   UNL     1       6.301   7.721  -1.624  1.00  0.00     0.179 C 
ATOM     15  C   UNL     1       5.892   7.029  -0.311  1.00  0.00     0.202 C 
BRANCH  12  16
ATOM     16  O   UNL     1       8.154   8.813  -2.717  1.00  0.00    -0.388 OA
ATOM     17  H   UNL     1       7.308   9.018  -3.194  1.00  0.00     0.211 HD
ENDBRANCH  12  16
BRANCH  14  18
ATOM     18  O   UNL     1       5.591   8.924  -1.788  1.00  0.00    -0.387 OA
ATOM     19  H   UNL     1       5.662   9.175  -2.745  1.00  0.00     0.211 HD
ENDBRANCH  14  18
BRANCH  15  20
ATOM     20  O   UNL     1       4.492   6.917  -0.249  1.00  0.00    -0.385 OA
ATOM     21  H   UNL     1       4.143   7.127  -1.154  1.00  0.00     0.211 HD
ENDBRANCH  15  20
ENDBRANCH   8   9
ENDBRANCH   7   8
ENDBRANCH   1   7
BRANCH   2  22
ATOM     22  O   UNL     1       6.654   4.613   1.768  1.00  0.00    -0.387 OA
ATOM     23  H   UNL     1       7.111   4.303   0.945  1.00  0.00     0.211 HD
ENDBRANCH   2  22
BRANCH   3  24
ATOM     24  O   UNL     1       9.372   5.337   1.274  1.00  0.00    -0.387 OA
ATOM     25  H   UNL     1       9.681   6.176   1.704  1.00  0.00     0.211 HD
ENDBRANCH   3  24
BRANCH   5  26
ATOM     26  O   UNL     1      10.082   7.069   3.427  1.00  0.00    -0.454 OA
BRANCH  26  27
ATOM     27  C   UNL     1      11.305   7.753   3.490  1.00  0.00     0.214 A 
ATOM     28  C   UNL     1      11.669   8.545   4.602  1.00  0.00     0.180 A 
ATOM     29  C   UNL     1      12.188   7.664   2.409  1.00  0.00     0.239 A 
ATOM     30  O   UNL     1      12.869   9.117   4.639  1.00  0.00    -0.452 OA
ATOM     31  C   UNL     1      13.440   8.307   2.472  1.00  0.00     0.111 A 
ATOM     32  O   UNL     1      11.856   6.989   1.398  1.00  0.00    -0.285 OA
ATOM     33  C   UNL     1      13.749   9.029   3.648  1.00  0.00     0.146 A 
ATOM     34  C   UNL     1      14.393   8.255   1.427  1.00  0.00     0.134 A 
ATOM     35  C   UNL     1      14.983   9.677   3.775  1.00  0.00     0.094 A 
ATOM     36  C   UNL     1      15.622   8.913   1.572  1.00  0.00     0.093 A 
ATOM     37  C   UNL     1      15.918   9.622   2.741  1.00  0.00     0.123 A 
BRANCH  28  38
ATOM     38  C   UNL     1      10.750   8.802   5.731  1.00  0.00     0.025 A 
ATOM     39  C   UNL     1      10.790   8.009   6.891  1.00  0.00     0.062 A 
ATOM     40  C   UNL     1       9.781   9.810   5.623  1.00  0.00     0.016 A 
ATOM     41  C   UNL     1       9.889   8.234   7.937  1.00  0.00     0.158 A 
ATOM     42  C   UNL     1       8.886  10.043   6.670  1.00  0.00     0.051 A 
ATOM     43  C   UNL     1       8.935   9.260   7.831  1.00  0.00     0.157 A 
BRANCH  41  44
ATOM     44  O   UNL     1       9.955   7.422   9.068  1.00  0.00    -0.504 OA
ATOM     45  H   UNL     1      10.790   7.363   9.640  1.00  0.00     0.293 HD
ENDBRANCH  41  44
BRANCH  43  46
ATOM     46  O   UNL     1       8.040   9.492   8.874  1.00  0.00    -0.504 OA
ATOM     47  H   UNL     1       7.607  10.398   9.013  1.00  0.00     0.293 HD
ENDBRANCH  43  46
ENDBRANCH  28  38
BRANCH  34  48
ATOM     48  O   UNL     1      14.125   7.556   0.249  1.00  0.00    -0.507 OA
ATOM     49  H   UNL     1      13.197   7.212   0.034  1.00  0.00     0.293 HD
ENDBRANCH  34  48
BRANCH  37  50
ATOM     50  O   UNL     1      17.140  10.278   2.883  1.00  0.00    -0.508 OA
ATOM     51  H   UNL     1      17.784  10.371   2.106  1.00  0.00     0.293 HD
ENDBRANCH  37  50
ENDBRANCH  26  27
ENDBRANCH   5  26
BRANCH   4  52
ATOM     52  O   UNL     1      11.346   4.568   3.030  1.00  0.00    -0.384 OA
ATOM     53  H   UNL     1      11.689   5.498   3.070  1.00  0.00     0.211 HD
ENDBRANCH   4  52
TORSDOF 16
ENDMDL
MODEL 8
REMARK VINA RESULT:    -4.630      6.711     11.788
REMARK INTER + INTRA:         -10.509
REMARK INTER:                  -6.732
REMARK INTRA:                  -3.777
REMARK UNBOUND:                -2.901
REMARK SMILES C[C@@H]1O[C@H](OC[C@@H]2O[C@H](Oc3c(-c4ccc(O)c(O)c4)oc4cc(O)cc(O)c4c3=O)[C@H](O)[C@H](O)[C@@H]2O)[C@@H](O)[C@@H](O)[C@H]1O
REMARK SMILES IDX 7 1 36 2 34 3 32 4 9 5 8 6 6 7 5 8 4 9 1 10 2 11 42 12 3 13
REMARK SMILES IDX 40 14 38 15 43 16 41 18 39 20 37 22 35 24 10 26 11 27 12 28
REMARK SMILES IDX 30 29 21 30 29 31 31 32 22 33 27 34 23 35 26 36 24 37 13 38
REMARK SMILES IDX 20 39 14 40 18 41 15 42 16 43 19 44 17 46 28 48 25 50 33 52
REMARK H PARENT 43 17 41 19 39 21 37 23 35 25 19 45 17 47 28 49 25 51 33 53
REMARK Flexibility Score: inf
ROOT
ATOM      1  C   UNL     1       5.933  12.368   7.609  1.00  0.00     0.180 C 
ATOM      2  C   UNL     1       5.509  13.536   8.547  1.00  0.00     0.177 C 
ATOM      3  C   UNL     1       6.156  13.479   9.947  1.00  0.00     0.180 C 
ATOM      4  C   UNL     1       7.656  13.190   9.800  1.00  0.00     0.214 C 
ATOM      5  C   UNL     1       7.899  11.960   8.906  1.00  0.00     0.339 C 
ATOM      6  O   UNL     1       7.334  12.114   7.613  1.00  0.00    -0.332 OA
ENDROOT
BRANCH   1   7
ATOM      7  C   UNL     1       5.097  11.067   7.672  1.00  0.00     0.198 C 
BRANCH   7   8
ATOM      8  O   UNL     1       4.202  11.070   8.764  1.00  0.00    -0.347 OA
BRANCH   8   9
ATOM      9  C   UNL     1       3.643   9.786   8.957  1.00  0.00     0.281 C 
ATOM     10  C   UNL     1       2.415   7.448   6.417  1.00  0.00     0.041 C 
ATOM     11  C   UNL     1       2.770   7.943   7.818  1.00  0.00     0.150 C 
ATOM     12  C   UNL     1       3.698   6.938   8.537  1.00  0.00     0.174 C 
ATOM     13  O   UNL     1       3.413   9.198   7.688  1.00  0.00    -0.344 OA
ATOM     14  C   UNL     1       4.116   7.498   9.910  1.00  0.00     0.179 C 
ATOM     15  C   UNL     1       4.650   8.933   9.750  1.00  0.00     0.202 C 
BRANCH  12  16
ATOM     16  O   UNL     1       3.033   5.711   8.702  1.00  0.00    -0.388 OA
ATOM     17  H   UNL     1       2.131   5.920   9.060  1.00  0.00     0.211 HD
ENDBRANCH  12  16
BRANCH  14  18
ATOM     18  O   UNL     1       3.013   7.476  10.782  1.00  0.00    -0.387 OA
ATOM     19  H   UNL     1       2.996   8.350  11.251  1.00  0.00     0.211 HD
ENDBRANCH  14  18
BRANCH  15  20
ATOM     20  O   UNL     1       4.871   9.501  11.017  1.00  0.00    -0.385 OA
ATOM     21  H   UNL     1       4.256   9.048  11.651  1.00  0.00     0.211 HD
ENDBRANCH  15  20
ENDBRANCH   8   9
ENDBRANCH   7   8
ENDBRANCH   1   7
BRANCH   2  22
ATOM     22  O   UNL     1       4.113  13.698   8.609  1.00  0.00    -0.387 OA
ATOM     23  H   UNL     1       3.711  12.839   8.894  1.00  0.00     0.211 HD
ENDBRANCH   2  22
BRANCH   3  24
ATOM     24  O   UNL     1       5.556  12.505  10.764  1.00  0.00    -0.387 OA
ATOM     25  H   UNL     1       6.264  11.854  11.010  1.00  0.00     0.211 HD
ENDBRANCH   3  24
BRANCH   5  26
ATOM     26  O   UNL     1       7.435  10.754   9.521  1.00  0.00    -0.454 OA
BRANCH  26  27
ATOM     27  C   UNL     1       8.274   9.818  10.146  1.00  0.00     0.214 A 
ATOM     28  C   UNL     1       9.094   8.934   9.411  1.00  0.00     0.180 A 
ATOM     29  C   UNL     1       8.286   9.746  11.542  1.00  0.00     0.239 A 
ATOM     30  O   UNL     1       9.919   8.114  10.055  1.00  0.00    -0.452 OA
ATOM     31  C   UNL     1       9.155   8.845  12.189  1.00  0.00     0.111 A 
ATOM     32  O   UNL     1       7.531  10.508  12.204  1.00  0.00    -0.285 OA
ATOM     33  C   UNL     1       9.986   8.038  11.379  1.00  0.00     0.146 A 
ATOM     34  C   UNL     1       9.236   8.721  13.597  1.00  0.00     0.134 A 
ATOM     35  C   UNL     1      10.880   7.134  11.964  1.00  0.00     0.094 A 
ATOM     36  C   UNL     1      10.135   7.807  14.164  1.00  0.00     0.093 A 
ATOM     37  C   UNL     1      10.955   7.015  13.352  1.00  0.00     0.123 A 
BRANCH  28  38
ATOM     38  C   UNL     1       9.052   8.848   7.937  1.00  0.00     0.025 A 
ATOM     39  C   UNL     1      10.160   9.226   7.159  1.00  0.00     0.062 A 
ATOM     40  C   UNL     1       7.871   8.444   7.297  1.00  0.00     0.016 A 
ATOM     41  C   UNL     1      10.096   9.181   5.762  1.00  0.00     0.158 A 
ATOM     42  C   UNL     1       7.809   8.389   5.902  1.00  0.00     0.051 A 
ATOM     43  C   UNL     1       8.917   8.755   5.128  1.00  0.00     0.157 A 
BRANCH  41  44
ATOM     44  O   UNL     1      11.213   9.571   5.024  1.00  0.00    -0.504 OA
ATOM     45  H   UNL     1      12.091   9.818   5.467  1.00  0.00     0.293 HD
ENDBRANCH  41  44
BRANCH  43  46
ATOM     46  O   UNL     1       8.853   8.701   3.736  1.00  0.00    -0.504 OA
ATOM     47  H   UNL     1       9.437   9.289   3.153  1.00  0.00     0.293 HD
ENDBRANCH  43  46
ENDBRANCH  28  38
BRANCH  34  48
ATOM     48  O   UNL     1       8.430   9.496  14.432  1.00  0.00    -0.507 OA
ATOM     49  H   UNL     1       8.420   9.363  15.436  1.00  0.00     0.293 HD
ENDBRANCH  34  48
BRANCH  37  50
ATOM     50  O   UNL     1      11.847   6.106  13.918  1.00  0.00    -0.508 OA
ATOM     51  H   UNL     1      12.314   6.299  14.797  1.00  0.00     0.293 HD
ENDBRANCH  37  50
ENDBRANCH  26  27
ENDBRANCH   5  26
BRANCH   4  52
ATOM     52  O   UNL     1       8.249  12.988  11.057  1.00  0.00    -0.384 OA
ATOM     53  H   UNL     1       8.871  12.220  10.958  1.00  0.00     0.211 HD
ENDBRANCH   4  52
TORSDOF 16
ENDMDL
MODEL 9
REMARK VINA RESULT:    -4.544      6.423     10.875
REMARK INTER + INTRA:         -10.367
REMARK INTER:                  -6.457
REMARK INTRA:                  -3.910
REMARK UNBOUND:                -2.901
REMARK SMILES C[C@@H]1O[C@H](OC[C@@H]2O[C@H](Oc3c(-c4ccc(O)c(O)c4)oc4cc(O)cc(O)c4c3=O)[C@H](O)[C@H](O)[C@@H]2O)[C@@H](O)[C@@H](O)[C@H]1O
REMARK SMILES IDX 7 1 36 2 34 3 32 4 9 5 8 6 6 7 5 8 4 9 1 10 2 11 42 12 3 13
REMARK SMILES IDX 40 14 38 15 43 16 41 18 39 20 37 22 35 24 10 26 11 27 12 28
REMARK SMILES IDX 30 29 21 30 29 31 31 32 22 33 27 34 23 35 26 36 24 37 13 38
REMARK SMILES IDX 20 39 14 40 18 41 15 42 16 43 19 44 17 46 28 48 25 50 33 52
REMARK H PARENT 43 17 41 19 39 21 37 23 35 25 19 45 17 47 28 49 25 51 33 53
REMARK Flexibility Score: inf
ROOT
ATOM      1  C   UNL     1       8.068   5.037   9.005  1.00  0.00     0.180 C 
ATOM      2  C   UNL     1       9.143   5.104  10.129  1.00  0.00     0.177 C 
ATOM      3  C   UNL     1       9.289   6.499  10.772  1.00  0.00     0.180 C 
ATOM      4  C   UNL     1       7.896   7.060  11.084  1.00  0.00     0.214 C 
ATOM      5  C   UNL     1       6.980   6.992   9.847  1.00  0.00     0.339 C 
ATOM      6  O   UNL     1       6.840   5.668   9.354  1.00  0.00    -0.332 OA
ENDROOT
BRANCH   1   7
ATOM      7  C   UNL     1       8.521   5.382   7.566  1.00  0.00     0.198 C 
BRANCH   7   8
ATOM      8  O   UNL     1       9.764   6.053   7.554  1.00  0.00    -0.347 OA
BRANCH   8   9
ATOM      9  C   UNL     1       9.953   6.734   6.330  1.00  0.00     0.281 C 
ATOM     10  C   UNL     1       8.758   5.778   3.000  1.00  0.00     0.041 C 
ATOM     11  C   UNL     1       9.446   6.648   4.051  1.00  0.00     0.150 C 
ATOM     12  C   UNL     1       8.887   8.088   4.022  1.00  0.00     0.174 C 
ATOM     13  O   UNL     1       9.222   6.060   5.319  1.00  0.00    -0.344 OA
ATOM     14  C   UNL     1       9.528   8.923   5.148  1.00  0.00     0.179 C 
ATOM     15  C   UNL     1       9.419   8.170   6.486  1.00  0.00     0.202 C 
BRANCH  12  16
ATOM     16  O   UNL     1       9.156   8.679   2.776  1.00  0.00    -0.388 OA
ATOM     17  H   UNL     1       9.130   7.949   2.102  1.00  0.00     0.211 HD
ENDBRANCH  12  16
BRANCH  14  18
ATOM     18  O   UNL     1      10.876   9.179   4.834  1.00  0.00    -0.387 OA
ATOM     19  H   UNL     1      10.937   9.243   3.847  1.00  0.00     0.211 HD
ENDBRANCH  14  18
BRANCH  15  20
ATOM     20  O   UNL     1      10.150   8.852   7.475  1.00  0.00    -0.385 OA
ATOM     21  H   UNL     1       9.583   9.602   7.790  1.00  0.00     0.211 HD
ENDBRANCH  15  20
ENDBRANCH   8   9
ENDBRANCH   7   8
ENDBRANCH   1   7
BRANCH   2  22
ATOM     22  O   UNL     1      10.380   4.569   9.723  1.00  0.00    -0.387 OA
ATOM     23  H   UNL     1      10.867   4.261  10.529  1.00  0.00     0.211 HD
ENDBRANCH   2  22
BRANCH   3  24
ATOM     24  O   UNL     1       9.992   7.390   9.943  1.00  0.00    -0.387 OA
ATOM     25  H   UNL     1      10.368   6.857   9.194  1.00  0.00     0.211 HD
ENDBRANCH   3  24
BRANCH   5  26
ATOM     26  O   UNL     1       7.418   7.876   8.810  1.00  0.00    -0.454 OA
BRANCH  26  27
ATOM     27  C   UNL     1       6.768   9.073   8.473  1.00  0.00     0.214 A 
ATOM     28  C   UNL     1       5.571   9.094   7.723  1.00  0.00     0.180 A 
ATOM     29  C   UNL     1       7.332  10.287   8.876  1.00  0.00     0.239 A 
ATOM     30  O   UNL     1       4.961  10.252   7.489  1.00  0.00    -0.452 OA
ATOM     31  C   UNL     1       6.671  11.497   8.586  1.00  0.00     0.111 A 
ATOM     32  O   UNL     1       8.419  10.278   9.515  1.00  0.00    -0.285 OA
ATOM     33  C   UNL     1       5.446  11.424   7.883  1.00  0.00     0.146 A 
ATOM     34  C   UNL     1       7.169  12.765   8.969  1.00  0.00     0.134 A 
ATOM     35  C   UNL     1       4.736  12.591   7.578  1.00  0.00     0.094 A 
ATOM     36  C   UNL     1       6.445  13.922   8.651  1.00  0.00     0.093 A 
ATOM     37  C   UNL     1       5.232  13.838   7.958  1.00  0.00     0.123 A 
BRANCH  28  38
ATOM     38  C   UNL     1       4.972   7.872   7.145  1.00  0.00     0.025 A 
ATOM     39  C   UNL     1       5.644   7.139   6.151  1.00  0.00     0.062 A 
ATOM     40  C   UNL     1       3.690   7.470   7.544  1.00  0.00     0.016 A 
ATOM     41  C   UNL     1       5.052   6.008   5.580  1.00  0.00     0.158 A 
ATOM     42  C   UNL     1       3.101   6.334   6.983  1.00  0.00     0.051 A 
ATOM     43  C   UNL     1       3.776   5.598   6.001  1.00  0.00     0.157 A 
BRANCH  41  44
ATOM     44  O   UNL     1       5.745   5.311   4.591  1.00  0.00    -0.504 OA
ATOM     45  H   UNL     1       6.046   5.755   3.731  1.00  0.00     0.293 HD
ENDBRANCH  41  44
BRANCH  43  46
ATOM     46  O   UNL     1       3.185   4.466   5.440  1.00  0.00    -0.504 OA
ATOM     47  H   UNL     1       2.196   4.435   5.220  1.00  0.00     0.293 HD
ENDBRANCH  43  46
ENDBRANCH  28  38
BRANCH  34  48
ATOM     48  O   UNL     1       8.376  12.880   9.660  1.00  0.00    -0.507 OA
ATOM     49  H   UNL     1       9.183  13.334   9.249  1.00  0.00     0.293 HD
ENDBRANCH  34  48
BRANCH  37  50
ATOM     50  O   UNL     1       4.515  14.990   7.641  1.00  0.00    -0.508 OA
ATOM     51  H   UNL     1       3.538  15.091   7.892  1.00  0.00     0.293 HD
ENDBRANCH  37  50
ENDBRANCH  26  27
ENDBRANCH   5  26
BRANCH   4  52
ATOM     52  O   UNL     1       7.983   8.387  11.537  1.00  0.00    -0.384 OA
ATOM     53  H   UNL     1       7.158   8.564  12.060  1.00  0.00     0.211 HD
ENDBRANCH   4  52
TORSDOF 16
ENDMDL
