MODEL 1
REMARK VINA RESULT:    -4.622      0.000      0.000
REMARK INTER + INTRA:         -10.792
REMARK INTER:                  -8.946
REMARK INTRA:                  -1.846
REMARK UNBOUND:                -1.846
REMARK SMILES CCCCCCCCCCCCCCCCCC(=O)[O-]
REMARK SMILES IDX 10 1 11 2 12 3 13 4 14 5 15 6 16 7 17 8 18 9 19 10 20 11
REMARK SMILES IDX 9 12 8 13 7 14 6 15 5 16 4 17 3 18 2 19 1 20
REMARK H PARENT
REMARK Flexibility Score: inf
ROOT
ATOM      1  C   UNL     1      -9.523   8.580   4.997  1.00  0.00     0.000 C 
ENDROOT
BRANCH   1   2
ATOM      2  C   UNL     1      -9.273   7.352   5.889  1.00  0.00     0.000 C 
BRANCH   2   3
ATOM      3  C   UNL     1     -10.032   6.107   5.404  1.00  0.00     0.000 C 
BRANCH   3   4
ATOM      4  C   UNL     1      -9.927   4.969   6.426  1.00  0.00     0.000 C 
BRANCH   4   5
ATOM      5  C   UNL     1     -11.055   5.061   7.466  1.00  0.00     0.000 C 
BRANCH   5   6
ATOM      6  C   UNL     1     -11.675   3.694   7.801  1.00  0.00     0.000 C 
BRANCH   6   7
ATOM      7  C   UNL     1     -12.572   3.091   6.703  1.00  0.00     0.006 C 
BRANCH   7   8
ATOM      8  C   UNL     1     -13.342   4.138   5.876  1.00  0.00     0.053 C 
BRANCH   8   9
ATOM      9  C   UNL     1     -13.057   4.031   4.408  1.00  0.00     0.041 C 
ATOM     10  O   UNL     1     -13.849   4.536   3.570  1.00  0.00    -0.550 OA
ATOM     11  O   UNL     1     -11.894   3.411   3.966  1.00  0.00    -0.550 OA
ENDBRANCH   8   9
ENDBRANCH   7   8
ENDBRANCH   6   7
ENDBRANCH   5   6
ENDBRANCH   4   5
ENDBRANCH   3   4
ENDBRANCH   2   3
ENDBRANCH   1   2
BRANCH   1  12
ATOM     12  C   UNL     1      -8.280   9.481   4.873  1.00  0.00     0.000 C 
BRANCH  12  13
ATOM     13  C   UNL     1      -7.365   9.399   6.105  1.00  0.00    -0.000 C 
BRANCH  13  14
ATOM     14  C   UNL     1      -6.901  10.783   6.589  1.00  0.00    -0.000 C 
BRANCH  14  15
ATOM     15  C   UNL     1      -7.753  11.328   7.747  1.00  0.00    -0.000 C 
BRANCH  15  16
ATOM     16  C   UNL     1      -8.869  12.292   7.294  1.00  0.00    -0.000 C 
BRANCH  16  17
ATOM     17  C   UNL     1     -10.268  11.662   7.430  1.00  0.00    -0.000 C 
BRANCH  17  18
ATOM     18  C   UNL     1     -11.073  11.725   6.124  1.00  0.00    -0.000 C 
BRANCH  18  19
ATOM     19  C   UNL     1     -10.399  12.606   5.061  1.00  0.00    -0.003 C 
ATOM     20  C   UNL     1     -11.129  12.508   3.724  1.00  0.00     0.004 C 
ENDBRANCH  18  19
ENDBRANCH  17  18
ENDBRANCH  16  17
ENDBRANCH  15  16
ENDBRANCH  14  15
ENDBRANCH  13  14
ENDBRANCH  12  13
ENDBRANCH   1  12
TORSDOF 16
ENDMDL
MODEL 2
REMARK VINA RESULT:    -4.591      1.532      2.455
REMARK INTER + INTRA:         -10.731
REMARK INTER:                  -8.510
REMARK INTRA:                  -2.220
REMARK UNBOUND:                -1.846
REMARK SMILES CCCCCCCCCCCCCCCCCC(=O)[O-]
REMARK SMILES IDX 10 1 11 2 12 3 13 4 14 5 15 6 16 7 17 8 18 9 19 10 20 11
REMARK SMILES IDX 9 12 8 13 7 14 6 15 5 16 4 17 3 18 2 19 1 20
REMARK H PARENT
REMARK Flexibility Score: inf
ROOT
ATOM      1  C   UNL     1      -7.682   9.388   5.272  1.00  0.00     0.000 C 
ENDROOT
BRANCH   1   2
ATOM      2  C   UNL     1      -8.620   8.360   5.927  1.00  0.00     0.000 C 
BRANCH   2   3
ATOM      3  C   UNL     1      -9.367   7.501   4.895  1.00  0.00     0.000 C 
BRANCH   3   4
ATOM      4  C   UNL     1     -10.413   6.611   5.576  1.00  0.00     0.000 C 
BRANCH   4   5
ATOM      5  C   UNL     1      -9.738   5.532   6.436  1.00  0.00     0.000 C 
BRANCH   5   6
ATOM      6  C   UNL     1     -10.746   4.585   7.110  1.00  0.00     0.000 C 
BRANCH   6   7
ATOM      7  C   UNL     1     -12.230   4.910   6.848  1.00  0.00     0.006 C 
BRANCH   7   8
ATOM      8  C   UNL     1     -12.990   3.808   6.088  1.00  0.00     0.053 C 
BRANCH   8   9
ATOM      9  C   UNL     1     -12.757   3.869   4.607  1.00  0.00     0.041 C 
ATOM     10  O   UNL     1     -13.580   4.460   3.860  1.00  0.00    -0.550 OA
ATOM     11  O   UNL     1     -11.610   3.310   4.058  1.00  0.00    -0.550 OA
ENDBRANCH   8   9
ENDBRANCH   7   8
ENDBRANCH   6   7
ENDBRANCH   5   6
ENDBRANCH   4   5
ENDBRANCH   3   4
ENDBRANCH   2   3
ENDBRANCH   1   2
BRANCH   1  12
ATOM     12  C   UNL     1      -7.110  10.395   6.287  1.00  0.00     0.000 C 
BRANCH  12  13
ATOM     13  C   UNL     1      -8.097  10.716   7.422  1.00  0.00    -0.000 C 
BRANCH  13  14
ATOM     14  C   UNL     1      -8.963  11.950   7.118  1.00  0.00    -0.000 C 
BRANCH  14  15
ATOM     15  C   UNL     1     -10.374  11.583   6.628  1.00  0.00    -0.000 C 
BRANCH  15  16
ATOM     16  C   UNL     1     -10.529  11.631   5.094  1.00  0.00    -0.000 C 
BRANCH  16  17
ATOM     17  C   UNL     1     -11.419  10.490   4.567  1.00  0.00    -0.000 C 
BRANCH  17  18
ATOM     18  C   UNL     1     -12.447  10.016   5.604  1.00  0.00    -0.000 C 
BRANCH  18  19
ATOM     19  C   UNL     1     -13.651   9.314   4.957  1.00  0.00    -0.003 C 
ATOM     20  C   UNL     1     -13.834   7.908   5.521  1.00  0.00     0.004 C 
ENDBRANCH  18  19
ENDBRANCH  17  18
ENDBRANCH  16  17
ENDBRANCH  15  16
ENDBRANCH  14  15
ENDBRANCH  13  14
ENDBRANCH  12  13
ENDBRANCH   1  12
TORSDOF 16
ENDMDL
MODEL 3
REMARK VINA RESULT:    -4.511      3.300      6.571
REMARK INTER + INTRA:         -10.576
REMARK INTER:                  -8.426
REMARK INTRA:                  -2.150
REMARK UNBOUND:                -1.846
REMARK SMILES CCCCCCCCCCCCCCCCCC(=O)[O-]
REMARK SMILES IDX 10 1 11 2 12 3 13 4 14 5 15 6 16 7 17 8 18 9 19 10 20 11
REMARK SMILES IDX 9 12 8 13 7 14 6 15 5 16 4 17 3 18 2 19 1 20
REMARK H PARENT
REMARK Flexibility Score: inf
ROOT
ATOM      1  C   UNL     1     -12.799   3.571   4.848  1.00  0.00     0.000 C 
ENDROOT
BRANCH   1   2
ATOM      2  C   UNL     1     -13.605   4.795   4.383  1.00  0.00     0.000 C 
BRANCH   2   3
ATOM      3  C   UNL     1     -13.742   5.863   5.479  1.00  0.00     0.000 C 
BRANCH   3   4
ATOM      4  C   UNL     1     -14.608   7.033   4.999  1.00  0.00     0.000 C 
BRANCH   4   5
ATOM      5  C   UNL     1     -14.123   8.359   5.605  1.00  0.00     0.000 C 
BRANCH   5   6
ATOM      6  C   UNL     1     -13.910   9.459   4.551  1.00  0.00     0.000 C 
BRANCH   6   7
ATOM      7  C   UNL     1     -14.536   9.175   3.171  1.00  0.00     0.006 C 
BRANCH   7   8
ATOM      8  C   UNL     1     -14.828  10.440   2.342  1.00  0.00     0.053 C 
BRANCH   8   9
ATOM      9  C   UNL     1     -13.588  11.228   2.043  1.00  0.00     0.041 C 
ATOM     10  O   UNL     1     -12.625  10.689   1.437  1.00  0.00    -0.550 OA
ATOM     11  O   UNL     1     -13.512  12.570   2.395  1.00  0.00    -0.550 OA
ENDBRANCH   8   9
ENDBRANCH   7   8
ENDBRANCH   6   7
ENDBRANCH   5   6
ENDBRANCH   4   5
ENDBRANCH   3   4
ENDBRANCH   2   3
ENDBRANCH   1   2
BRANCH   1  12
ATOM     12  C   UNL     1     -12.936   3.313   6.359  1.00  0.00     0.000 C 
BRANCH  12  13
ATOM     13  C   UNL     1     -11.602   2.924   7.017  1.00  0.00    -0.000 C 
BRANCH  13  14
ATOM     14  C   UNL     1     -11.103   3.985   8.011  1.00  0.00    -0.000 C 
BRANCH  14  15
ATOM     15  C   UNL     1     -10.640   5.280   7.322  1.00  0.00    -0.000 C 
BRANCH  15  16
ATOM     16  C   UNL     1      -9.678   5.043   6.141  1.00  0.00    -0.000 C 
BRANCH  16  17
ATOM     17  C   UNL     1      -9.933   6.022   4.980  1.00  0.00    -0.000 C 
BRANCH  17  18
ATOM     18  C   UNL     1     -10.349   7.418   5.466  1.00  0.00    -0.000 C 
BRANCH  18  19
ATOM     19  C   UNL     1      -9.487   8.533   4.853  1.00  0.00    -0.003 C 
ATOM     20  C   UNL     1      -8.412   8.996   5.833  1.00  0.00     0.004 C 
ENDBRANCH  18  19
ENDBRANCH  17  18
ENDBRANCH  16  17
ENDBRANCH  15  16
ENDBRANCH  14  15
ENDBRANCH  13  14
ENDBRANCH  12  13
ENDBRANCH   1  12
TORSDOF 16
ENDMDL
MODEL 4
REMARK VINA RESULT:    -4.503      2.919      5.692
REMARK INTER + INTRA:         -10.561
REMARK INTER:                  -8.317
REMARK INTRA:                  -2.244
REMARK UNBOUND:                -1.846
REMARK SMILES CCCCCCCCCCCCCCCCCC(=O)[O-]
REMARK SMILES IDX 10 1 11 2 12 3 13 4 14 5 15 6 16 7 17 8 18 9 19 10 20 11
REMARK SMILES IDX 9 12 8 13 7 14 6 15 5 16 4 17 3 18 2 19 1 20
REMARK H PARENT
REMARK Flexibility Score: inf
ROOT
ATOM      1  C   UNL     1     -11.632   3.003   6.879  1.00  0.00     0.000 C 
ENDROOT
BRANCH   1   2
ATOM      2  C   UNL     1     -13.002   3.369   6.284  1.00  0.00     0.000 C 
BRANCH   2   3
ATOM      3  C   UNL     1     -12.925   3.699   4.785  1.00  0.00     0.000 C 
BRANCH   3   4
ATOM      4  C   UNL     1     -13.853   4.867   4.433  1.00  0.00     0.000 C 
BRANCH   4   5
ATOM      5  C   UNL     1     -13.860   5.919   5.552  1.00  0.00     0.000 C 
BRANCH   5   6
ATOM      6  C   UNL     1     -14.242   7.323   5.054  1.00  0.00     0.000 C 
BRANCH   6   7
ATOM      7  C   UNL     1     -13.637   8.492   5.856  1.00  0.00     0.006 C 
BRANCH   7   8
ATOM      8  C   UNL     1     -13.586   9.824   5.084  1.00  0.00     0.053 C 
BRANCH   8   9
ATOM      9  C   UNL     1     -12.966  10.928   5.889  1.00  0.00     0.041 C 
ATOM     10  O   UNL     1     -12.447  10.682   7.009  1.00  0.00    -0.550 OA
ATOM     11  O   UNL     1     -12.925  12.221   5.383  1.00  0.00    -0.550 OA
ENDBRANCH   8   9
ENDBRANCH   7   8
ENDBRANCH   6   7
ENDBRANCH   5   6
ENDBRANCH   4   5
ENDBRANCH   3   4
ENDBRANCH   2   3
ENDBRANCH   1   2
BRANCH   1  12
ATOM     12  C   UNL     1     -11.243   3.908   8.063  1.00  0.00     0.000 C 
BRANCH  12  13
ATOM     13  C   UNL     1     -10.821   5.317   7.615  1.00  0.00    -0.000 C 
BRANCH  13  14
ATOM     14  C   UNL     1      -9.830   5.291   6.440  1.00  0.00    -0.000 C 
BRANCH  14  15
ATOM     15  C   UNL     1     -10.285   6.160   5.255  1.00  0.00    -0.000 C 
BRANCH  15  16
ATOM     16  C   UNL     1      -9.319   7.319   4.931  1.00  0.00    -0.000 C 
BRANCH  16  17
ATOM     17  C   UNL     1     -10.031   8.684   4.934  1.00  0.00    -0.000 C 
BRANCH  17  18
ATOM     18  C   UNL     1      -9.300   9.729   5.789  1.00  0.00    -0.000 C 
BRANCH  18  19
ATOM     19  C   UNL     1      -7.931   9.234   6.279  1.00  0.00    -0.003 C 
ATOM     20  C   UNL     1      -6.805  10.110   5.738  1.00  0.00     0.004 C 
ENDBRANCH  18  19
ENDBRANCH  17  18
ENDBRANCH  16  17
ENDBRANCH  15  16
ENDBRANCH  14  15
ENDBRANCH  13  14
ENDBRANCH  12  13
ENDBRANCH   1  12
TORSDOF 16
ENDMDL
MODEL 5
REMARK VINA RESULT:    -4.483      2.514      7.157
REMARK INTER + INTRA:         -10.522
REMARK INTER:                  -8.438
REMARK INTRA:                  -2.084
REMARK UNBOUND:                -1.846
REMARK SMILES CCCCCCCCCCCCCCCCCC(=O)[O-]
REMARK SMILES IDX 10 1 11 2 12 3 13 4 14 5 15 6 16 7 17 8 18 9 19 10 20 11
REMARK SMILES IDX 9 12 8 13 7 14 6 15 5 16 4 17 3 18 2 19 1 20
REMARK H PARENT
REMARK Flexibility Score: inf
ROOT
ATOM      1  C   UNL     1      -9.344   6.377   6.419  1.00  0.00     0.000 C 
ENDROOT
BRANCH   1   2
ATOM      2  C   UNL     1      -9.674   6.945   5.029  1.00  0.00     0.000 C 
BRANCH   2   3
ATOM      3  C   UNL     1      -9.384   8.450   4.922  1.00  0.00     0.000 C 
BRANCH   3   4
ATOM      4  C   UNL     1      -8.017   8.789   5.527  1.00  0.00     0.000 C 
BRANCH   4   5
ATOM      5  C   UNL     1      -7.793  10.308   5.561  1.00  0.00     0.000 C 
BRANCH   5   6
ATOM      6  C   UNL     1      -8.202  10.945   6.900  1.00  0.00     0.000 C 
BRANCH   6   7
ATOM      7  C   UNL     1      -9.221  12.098   6.796  1.00  0.00     0.006 C 
BRANCH   7   8
ATOM      8  C   UNL     1     -10.621  11.750   7.334  1.00  0.00     0.053 C 
BRANCH   8   9
ATOM      9  C   UNL     1     -11.502  11.139   6.285  1.00  0.00     0.041 C 
ATOM     10  O   UNL     1     -12.450  10.380   6.617  1.00  0.00    -0.550 OA
ATOM     11  O   UNL     1     -11.302  11.441   4.943  1.00  0.00    -0.550 OA
ENDBRANCH   8   9
ENDBRANCH   7   8
ENDBRANCH   6   7
ENDBRANCH   5   6
ENDBRANCH   4   5
ENDBRANCH   3   4
ENDBRANCH   2   3
ENDBRANCH   1   2
BRANCH   1  12
ATOM     12  C   UNL     1     -10.168   5.121   6.755  1.00  0.00     0.000 C 
BRANCH  12  13
ATOM     13  C   UNL     1     -10.730   5.148   8.186  1.00  0.00    -0.000 C 
BRANCH  13  14
ATOM     14  C   UNL     1     -11.738   4.016   8.445  1.00  0.00    -0.000 C 
BRANCH  14  15
ATOM     15  C   UNL     1     -11.789   2.987   7.302  1.00  0.00    -0.000 C 
BRANCH  15  16
ATOM     16  C   UNL     1     -13.044   3.109   6.414  1.00  0.00    -0.000 C 
BRANCH  16  17
ATOM     17  C   UNL     1     -12.688   3.444   4.954  1.00  0.00    -0.000 C 
BRANCH  17  18
ATOM     18  C   UNL     1     -13.215   4.819   4.517  1.00  0.00    -0.000 C 
BRANCH  18  19
ATOM     19  C   UNL     1     -13.876   5.588   5.672  1.00  0.00    -0.003 C 
ATOM     20  C   UNL     1     -13.276   6.983   5.815  1.00  0.00     0.004 C 
ENDBRANCH  18  19
ENDBRANCH  17  18
ENDBRANCH  16  17
ENDBRANCH  15  16
ENDBRANCH  14  15
ENDBRANCH  13  14
ENDBRANCH  12  13
ENDBRANCH   1  12
TORSDOF 16
ENDMDL
MODEL 6
REMARK VINA RESULT:    -4.471      2.573      6.719
REMARK INTER + INTRA:         -10.499
REMARK INTER:                  -8.345
REMARK INTRA:                  -2.155
REMARK UNBOUND:                -1.846
REMARK SMILES CCCCCCCCCCCCCCCCCC(=O)[O-]
REMARK SMILES IDX 10 1 11 2 12 3 13 4 14 5 15 6 16 7 17 8 18 9 19 10 20 11
REMARK SMILES IDX 9 12 8 13 7 14 6 15 5 16 4 17 3 18 2 19 1 20
REMARK H PARENT
REMARK Flexibility Score: inf
ROOT
ATOM      1  C   UNL     1      -8.112   9.366   5.201  1.00  0.00     0.000 C 
ENDROOT
BRANCH   1   2
ATOM      2  C   UNL     1      -8.202   9.359   6.736  1.00  0.00     0.000 C 
BRANCH   2   3
ATOM      3  C   UNL     1      -8.152  10.773   7.336  1.00  0.00     0.000 C 
BRANCH   3   4
ATOM      4  C   UNL     1      -9.109  11.715   6.598  1.00  0.00     0.000 C 
BRANCH   4   5
ATOM      5  C   UNL     1     -10.529  11.618   7.177  1.00  0.00     0.000 C 
BRANCH   5   6
ATOM      6  C   UNL     1     -11.532  10.977   6.203  1.00  0.00     0.000 C 
BRANCH   6   7
ATOM      7  C   UNL     1     -11.487  11.519   4.761  1.00  0.00     0.006 C 
BRANCH   7   8
ATOM      8  C   UNL     1     -12.061  10.554   3.708  1.00  0.00     0.053 C 
BRANCH   8   9
ATOM      9  C   UNL     1     -12.556  11.269   2.486  1.00  0.00     0.041 C 
ATOM     10  O   UNL     1     -13.104  12.398   2.590  1.00  0.00    -0.550 OA
ATOM     11  O   UNL     1     -12.376  10.707   1.228  1.00  0.00    -0.550 OA
ENDBRANCH   8   9
ENDBRANCH   7   8
ENDBRANCH   6   7
ENDBRANCH   5   6
ENDBRANCH   4   5
ENDBRANCH   3   4
ENDBRANCH   2   3
ENDBRANCH   1   2
BRANCH   1  12
ATOM     12  C   UNL     1      -9.137   8.421   4.546  1.00  0.00     0.000 C 
BRANCH  12  13
ATOM     13  C   UNL     1      -9.986   7.662   5.579  1.00  0.00    -0.000 C 
BRANCH  13  14
ATOM     14  C   UNL     1     -10.104   6.163   5.258  1.00  0.00    -0.000 C 
BRANCH  14  15
ATOM     15  C   UNL     1      -9.684   5.264   6.433  1.00  0.00    -0.000 C 
BRANCH  15  16
ATOM     16  C   UNL     1     -10.873   4.642   7.193  1.00  0.00    -0.000 C 
BRANCH  16  17
ATOM     17  C   UNL     1     -11.556   3.525   6.383  1.00  0.00    -0.000 C 
BRANCH  17  18
ATOM     18  C   UNL     1     -13.077   3.715   6.281  1.00  0.00    -0.000 C 
BRANCH  18  19
ATOM     19  C   UNL     1     -13.486   4.508   5.030  1.00  0.00    -0.003 C 
ATOM     20  C   UNL     1     -13.879   5.937   5.391  1.00  0.00     0.004 C 
ENDBRANCH  18  19
ENDBRANCH  17  18
ENDBRANCH  16  17
ENDBRANCH  15  16
ENDBRANCH  14  15
ENDBRANCH  13  14
ENDBRANCH  12  13
ENDBRANCH   1  12
TORSDOF 16
ENDMDL
MODEL 7
REMARK VINA RESULT:    -4.469      2.042      2.685
REMARK INTER + INTRA:         -10.495
REMARK INTER:                  -8.580
REMARK INTRA:                  -1.915
REMARK UNBOUND:                -1.846
REMARK SMILES CCCCCCCCCCCCCCCCCC(=O)[O-]
REMARK SMILES IDX 10 1 11 2 12 3 13 4 14 5 15 6 16 7 17 8 18 9 19 10 20 11
REMARK SMILES IDX 9 12 8 13 7 14 6 15 5 16 4 17 3 18 2 19 1 20
REMARK H PARENT
REMARK Flexibility Score: inf
ROOT
ATOM      1  C   UNL     1      -9.351   7.501   4.902  1.00  0.00     0.000 C 
ENDROOT
BRANCH   1   2
ATOM      2  C   UNL     1      -9.377   6.760   6.249  1.00  0.00     0.000 C 
BRANCH   2   3
ATOM      3  C   UNL     1      -9.640   5.255   6.089  1.00  0.00     0.000 C 
BRANCH   3   4
ATOM      4  C   UNL     1     -10.606   4.987   4.930  1.00  0.00     0.000 C 
BRANCH   4   5
ATOM      5  C   UNL     1     -12.066   5.096   5.396  1.00  0.00     0.000 C 
BRANCH   5   6
ATOM      6  C   UNL     1     -12.785   3.737   5.440  1.00  0.00     0.000 C 
BRANCH   6   7
ATOM      7  C   UNL     1     -13.098   3.205   6.853  1.00  0.00     0.006 C 
BRANCH   7   8
ATOM      8  C   UNL     1     -11.849   2.919   7.707  1.00  0.00     0.053 C 
BRANCH   8   9
ATOM      9  C   UNL     1     -11.828   3.718   8.976  1.00  0.00     0.041 C 
ATOM     10  O   UNL     1     -12.019   3.153  10.085  1.00  0.00    -0.550 OA
ATOM     11  O   UNL     1     -11.557   5.080   8.938  1.00  0.00    -0.550 OA
ENDBRANCH   8   9
ENDBRANCH   7   8
ENDBRANCH   6   7
ENDBRANCH   5   6
ENDBRANCH   4   5
ENDBRANCH   3   4
ENDBRANCH   2   3
ENDBRANCH   1   2
BRANCH   1  12
ATOM     12  C   UNL     1      -8.686   8.887   5.004  1.00  0.00     0.000 C 
BRANCH  12  13
ATOM     13  C   UNL     1      -7.996   9.113   6.358  1.00  0.00    -0.000 C 
BRANCH  13  14
ATOM     14  C   UNL     1      -6.937  10.226   6.302  1.00  0.00    -0.000 C 
BRANCH  14  15
ATOM     15  C   UNL     1      -7.144  11.304   7.380  1.00  0.00    -0.000 C 
BRANCH  15  16
ATOM     16  C   UNL     1      -8.626  11.558   7.725  1.00  0.00    -0.000 C 
BRANCH  16  17
ATOM     17  C   UNL     1      -9.250  12.643   6.829  1.00  0.00    -0.000 C 
BRANCH  17  18
ATOM     18  C   UNL     1     -10.362  12.093   5.923  1.00  0.00    -0.000 C 
BRANCH  18  19
ATOM     19  C   UNL     1     -11.267  11.086   6.650  1.00  0.00    -0.003 C 
ATOM     20  C   UNL     1     -12.052  10.237   5.654  1.00  0.00     0.004 C 
ENDBRANCH  18  19
ENDBRANCH  17  18
ENDBRANCH  16  17
ENDBRANCH  15  16
ENDBRANCH  14  15
ENDBRANCH  13  14
ENDBRANCH  12  13
ENDBRANCH   1  12
TORSDOF 16
ENDMDL
MODEL 8
REMARK VINA RESULT:    -4.468      3.627      6.947
REMARK INTER + INTRA:         -10.492
REMARK INTER:                  -8.688
REMARK INTRA:                  -1.804
REMARK UNBOUND:                -1.846
REMARK SMILES CCCCCCCCCCCCCCCCCC(=O)[O-]
REMARK SMILES IDX 10 1 11 2 12 3 13 4 14 5 15 6 16 7 17 8 18 9 19 10 20 11
REMARK SMILES IDX 9 12 8 13 7 14 6 15 5 16 4 17 3 18 2 19 1 20
REMARK H PARENT
REMARK Flexibility Score: inf
ROOT
ATOM      1  C   UNL     1     -11.263   3.243   7.096  1.00  0.00     0.000 C 
ENDROOT
BRANCH   1   2
ATOM      2  C   UNL     1     -10.859   4.670   7.502  1.00  0.00     0.000 C 
BRANCH   2   3
ATOM      3  C   UNL     1      -9.792   5.268   6.572  1.00  0.00     0.000 C 
BRANCH   3   4
ATOM      4  C   UNL     1     -10.420   6.257   5.584  1.00  0.00     0.000 C 
BRANCH   4   5
ATOM      5  C   UNL     1      -9.340   7.105   4.895  1.00  0.00     0.000 C 
BRANCH   5   6
ATOM      6  C   UNL     1      -8.779   8.215   5.801  1.00  0.00     0.000 C 
BRANCH   6   7
ATOM      7  C   UNL     1      -8.327   9.494   5.070  1.00  0.00     0.006 C 
BRANCH   7   8
ATOM      8  C   UNL     1      -8.381  10.766   5.937  1.00  0.00     0.053 C 
BRANCH   8   9
ATOM      9  C   UNL     1      -7.161  10.925   6.795  1.00  0.00     0.041 C 
ATOM     10  O   UNL     1      -6.019  10.686   6.324  1.00  0.00    -0.550 OA
ATOM     11  O   UNL     1      -7.283  11.379   8.103  1.00  0.00    -0.550 OA
ENDBRANCH   8   9
ENDBRANCH   7   8
ENDBRANCH   6   7
ENDBRANCH   5   6
ENDBRANCH   4   5
ENDBRANCH   3   4
ENDBRANCH   2   3
ENDBRANCH   1   2
BRANCH   1  12
ATOM     12  C   UNL     1     -12.624   3.197   6.376  1.00  0.00     0.000 C 
BRANCH  12  13
ATOM     13  C   UNL     1     -12.506   3.496   4.872  1.00  0.00    -0.000 C 
BRANCH  13  14
ATOM     14  C   UNL     1     -13.560   4.506   4.388  1.00  0.00    -0.000 C 
BRANCH  14  15
ATOM     15  C   UNL     1     -13.837   5.619   5.413  1.00  0.00    -0.000 C 
BRANCH  15  16
ATOM     16  C   UNL     1     -14.905   6.632   4.952  1.00  0.00    -0.000 C 
BRANCH  16  17
ATOM     17  C   UNL     1     -14.570   8.067   5.398  1.00  0.00    -0.000 C 
BRANCH  17  18
ATOM     18  C   UNL     1     -13.213   8.164   6.111  1.00  0.00    -0.000 C 
BRANCH  18  19
ATOM     19  C   UNL     1     -12.371   9.348   5.612  1.00  0.00    -0.003 C 
ATOM     20  C   UNL     1     -13.185  10.247   4.685  1.00  0.00     0.004 C 
ENDBRANCH  18  19
ENDBRANCH  17  18
ENDBRANCH  16  17
ENDBRANCH  15  16
ENDBRANCH  14  15
ENDBRANCH  13  14
ENDBRANCH  12  13
ENDBRANCH   1  12
TORSDOF 16
ENDMDL
MODEL 9
REMARK VINA RESULT:    -4.417      2.160      4.093
REMARK INTER + INTRA:         -10.395
REMARK INTER:                  -8.565
REMARK INTRA:                  -1.830
REMARK UNBOUND:                -1.846
REMARK SMILES CCCCCCCCCCCCCCCCCC(=O)[O-]
REMARK SMILES IDX 10 1 11 2 12 3 13 4 14 5 15 6 16 7 17 8 18 9 19 10 20 11
REMARK SMILES IDX 9 12 8 13 7 14 6 15 5 16 4 17 3 18 2 19 1 20
REMARK H PARENT
REMARK Flexibility Score: inf
ROOT
ATOM      1  C   UNL     1     -10.822   5.336   7.461  1.00  0.00     0.000 C 
ENDROOT
BRANCH   1   2
ATOM      2  C   UNL     1     -11.195   3.955   8.027  1.00  0.00     0.000 C 
BRANCH   2   3
ATOM      3  C   UNL     1     -11.598   2.957   6.931  1.00  0.00     0.000 C 
BRANCH   3   4
ATOM      4  C   UNL     1     -12.974   3.306   6.352  1.00  0.00     0.000 C 
BRANCH   4   5
ATOM      5  C   UNL     1     -12.872   3.639   4.856  1.00  0.00     0.000 C 
BRANCH   5   6
ATOM      6  C   UNL     1     -13.769   4.819   4.442  1.00  0.00     0.000 C 
BRANCH   6   7
ATOM      7  C   UNL     1     -13.770   6.016   5.413  1.00  0.00     0.006 C 
BRANCH   7   8
ATOM      8  C   UNL     1     -14.698   7.169   4.988  1.00  0.00     0.053 C 
BRANCH   8   9
ATOM      9  C   UNL     1     -14.053   8.513   5.151  1.00  0.00     0.041 C 
ATOM     10  O   UNL     1     -14.150   9.377   4.240  1.00  0.00    -0.550 OA
ATOM     11  O   UNL     1     -13.382   8.827   6.326  1.00  0.00    -0.550 OA
ENDBRANCH   8   9
ENDBRANCH   7   8
ENDBRANCH   6   7
ENDBRANCH   5   6
ENDBRANCH   4   5
ENDBRANCH   3   4
ENDBRANCH   2   3
ENDBRANCH   1   2
BRANCH   1  12
ATOM     12  C   UNL     1      -9.728   5.255   6.381  1.00  0.00     0.000 C 
BRANCH  12  13
ATOM     13  C   UNL     1     -10.081   6.063   5.121  1.00  0.00    -0.000 C 
BRANCH  13  14
ATOM     14  C   UNL     1     -10.017   7.581   5.357  1.00  0.00    -0.000 C 
BRANCH  14  15
ATOM     15  C   UNL     1      -8.577   8.112   5.448  1.00  0.00    -0.000 C 
BRANCH  15  16
ATOM     16  C   UNL     1      -8.460   9.630   5.199  1.00  0.00    -0.000 C 
BRANCH  16  17
ATOM     17  C   UNL     1      -7.429  10.292   6.132  1.00  0.00    -0.000 C 
BRANCH  17  18
ATOM     18  C   UNL     1      -8.076  10.923   7.373  1.00  0.00    -0.000 C 
BRANCH  18  19
ATOM     19  C   UNL     1      -9.063  12.044   7.015  1.00  0.00    -0.003 C 
ATOM     20  C   UNL     1     -10.481  11.688   7.453  1.00  0.00     0.004 C 
ENDBRANCH  18  19
ENDBRANCH  17  18
ENDBRANCH  16  17
ENDBRANCH  15  16
ENDBRANCH  14  15
ENDBRANCH  13  14
ENDBRANCH  12  13
ENDBRANCH   1  12
TORSDOF 16
ENDMDL
