MODEL 1
REMARK VINA RESULT:    -2.733      0.000      0.000
REMARK INTER + INTRA:          -3.283
REMARK INTER:                  -3.212
REMARK INTRA:                  -0.070
REMARK UNBOUND:                -0.070
REMARK SMILES CCCCC(=O)[O-]
REMARK SMILES IDX 4 1 5 2 6 3 7 4 3 5 2 6 1 7
REMARK H PARENT
REMARK Flexibility Score: inf
ROOT
ATOM      1  C   UNL     1       2.228  -3.788   2.089  1.00  0.00     0.053 C 
ENDROOT
BRANCH   1   2
ATOM      2  C   UNL     1       3.427  -3.800   1.194  1.00  0.00     0.041 C 
ATOM      3  O   UNL     1       4.113  -4.848   1.067  1.00  0.00    -0.550 OA
ATOM      4  O   UNL     1       3.759  -2.667   0.462  1.00  0.00    -0.550 OA
ENDBRANCH   1   2
BRANCH   1   5
ATOM      5  C   UNL     1       1.047  -3.106   1.395  1.00  0.00     0.006 C 
BRANCH   5   6
ATOM      6  C   UNL     1       0.302  -4.089   0.485  1.00  0.00    -0.003 C 
ATOM      7  C   UNL     1       0.647  -3.852  -0.982  1.00  0.00     0.004 C 
ENDBRANCH   5   6
ENDBRANCH   1   5
TORSDOF 3
ENDMDL
MODEL 2
REMARK VINA RESULT:    -2.687      1.942      3.207
REMARK INTER + INTRA:          -3.229
REMARK INTER:                  -3.186
REMARK INTRA:                  -0.043
REMARK UNBOUND:                -0.070
REMARK SMILES CCCCC(=O)[O-]
REMARK SMILES IDX 4 1 5 2 6 3 7 4 3 5 2 6 1 7
REMARK H PARENT
REMARK Flexibility Score: inf
ROOT
ATOM      1  C   UNL     1       0.937  -3.243   1.152  1.00  0.00     0.053 C 
ENDROOT
BRANCH   1   2
ATOM      2  C   UNL     1       1.896  -3.259   0.004  1.00  0.00     0.041 C 
ATOM      3  O   UNL     1       1.531  -3.693  -1.120  1.00  0.00    -0.550 OA
ATOM      4  O   UNL     1       3.178  -2.748   0.163  1.00  0.00    -0.550 OA
ENDBRANCH   1   2
BRANCH   1   5
ATOM      5  C   UNL     1       1.682  -3.429   2.477  1.00  0.00     0.006 C 
BRANCH   5   6
ATOM      6  C   UNL     1       1.334  -2.309   3.465  1.00  0.00    -0.003 C 
ATOM      7  C   UNL     1       1.816  -2.647   4.872  1.00  0.00     0.004 C 
ENDBRANCH   5   6
ENDBRANCH   1   5
TORSDOF 3
ENDMDL
MODEL 3
REMARK VINA RESULT:    -2.675      2.007      3.169
REMARK INTER + INTRA:          -3.214
REMARK INTER:                  -3.189
REMARK INTRA:                  -0.025
REMARK UNBOUND:                -0.070
REMARK SMILES CCCCC(=O)[O-]
REMARK SMILES IDX 4 1 5 2 6 3 7 4 3 5 2 6 1 7
REMARK H PARENT
REMARK Flexibility Score: inf
ROOT
ATOM      1  C   UNL     1       0.996  -3.282   1.250  1.00  0.00     0.053 C 
ENDROOT
BRANCH   1   2
ATOM      2  C   UNL     1       1.883  -3.106   0.058  1.00  0.00     0.041 C 
ATOM      3  O   UNL     1       3.093  -2.793   0.209  1.00  0.00    -0.550 OA
ATOM      4  O   UNL     1       1.385  -3.337  -1.218  1.00  0.00    -0.550 OA
ENDBRANCH   1   2
BRANCH   1   5
ATOM      5  C   UNL     1       1.825  -3.305   2.537  1.00  0.00     0.006 C 
BRANCH   5   6
ATOM      6  C   UNL     1       0.952  -2.996   3.758  1.00  0.00    -0.003 C 
ATOM      7  C   UNL     1       1.381  -1.693   4.427  1.00  0.00     0.004 C 
ENDBRANCH   5   6
ENDBRANCH   1   5
TORSDOF 3
ENDMDL
MODEL 4
REMARK VINA RESULT:    -2.541      1.332      2.302
REMARK INTER + INTRA:          -3.057
REMARK INTER:                  -3.021
REMARK INTRA:                  -0.036
REMARK UNBOUND:                -0.070
REMARK SMILES CCCCC(=O)[O-]
REMARK SMILES IDX 4 1 5 2 6 3 7 4 3 5 2 6 1 7
REMARK H PARENT
REMARK Flexibility Score: inf
ROOT
ATOM      1  C   UNL     1       2.088  -3.352   2.094  1.00  0.00     0.053 C 
ENDROOT
BRANCH   1   2
ATOM      2  C   UNL     1       3.143  -3.651   1.075  1.00  0.00     0.041 C 
ATOM      3  O   UNL     1       3.730  -2.711   0.478  1.00  0.00    -0.550 OA
ATOM      4  O   UNL     1       3.512  -4.966   0.822  1.00  0.00    -0.550 OA
ENDBRANCH   1   2
BRANCH   1   5
ATOM      5  C   UNL     1       0.696  -3.428   1.462  1.00  0.00     0.006 C 
BRANCH   5   6
ATOM      6  C   UNL     1      -0.200  -4.412   2.224  1.00  0.00    -0.003 C 
ATOM      7  C   UNL     1      -0.495  -3.909   3.634  1.00  0.00     0.004 C 
ENDBRANCH   5   6
ENDBRANCH   1   5
TORSDOF 3
ENDMDL
MODEL 5
REMARK VINA RESULT:    -2.507     17.859     18.590
REMARK INTER + INTRA:          -3.017
REMARK INTER:                  -2.958
REMARK INTRA:                  -0.060
REMARK UNBOUND:                -0.070
REMARK SMILES CCCCC(=O)[O-]
REMARK SMILES IDX 4 1 5 2 6 3 7 4 3 5 2 6 1 7
REMARK H PARENT
REMARK Flexibility Score: inf
ROOT
ATOM      1  C   UNL     1      -3.029  12.798  -0.324  1.00  0.00     0.053 C 
ENDROOT
BRANCH   1   2
ATOM      2  C   UNL     1      -2.381  14.053   0.169  1.00  0.00     0.041 C 
ATOM      3  O   UNL     1      -1.808  14.830  -0.639  1.00  0.00    -0.550 OA
ATOM      4  O   UNL     1      -2.452  14.389   1.515  1.00  0.00    -0.550 OA
ENDBRANCH   1   2
BRANCH   1   5
ATOM      5  C   UNL     1      -4.543  12.851  -0.098  1.00  0.00     0.006 C 
BRANCH   5   6
ATOM      6  C   UNL     1      -5.267  13.356  -1.351  1.00  0.00    -0.003 C 
ATOM      7  C   UNL     1      -6.541  14.111  -0.984  1.00  0.00     0.004 C 
ENDBRANCH   5   6
ENDBRANCH   1   5
TORSDOF 3
ENDMDL
MODEL 6
REMARK VINA RESULT:    -2.499     12.244     12.911
REMARK INTER + INTRA:          -3.008
REMARK INTER:                  -2.899
REMARK INTRA:                  -0.109
REMARK UNBOUND:                -0.070
REMARK SMILES CCCCC(=O)[O-]
REMARK SMILES IDX 4 1 5 2 6 3 7 4 3 5 2 6 1 7
REMARK H PARENT
REMARK Flexibility Score: inf
ROOT
ATOM      1  C   UNL     1       8.343   7.793   1.921  1.00  0.00     0.053 C 
ENDROOT
BRANCH   1   2
ATOM      2  C   UNL     1       8.660   6.772   0.874  1.00  0.00     0.041 C 
ATOM      3  O   UNL     1       8.760   5.556   1.185  1.00  0.00    -0.550 OA
ATOM      4  O   UNL     1       8.796   7.157  -0.454  1.00  0.00    -0.550 OA
ENDBRANCH   1   2
BRANCH   1   5
ATOM      5  C   UNL     1       6.854   8.149   1.891  1.00  0.00     0.006 C 
BRANCH   5   6
ATOM      6  C   UNL     1       6.644   9.592   1.420  1.00  0.00    -0.003 C 
ATOM      7  C   UNL     1       6.273   9.641  -0.059  1.00  0.00     0.004 C 
ENDBRANCH   5   6
ENDBRANCH   1   5
TORSDOF 3
ENDMDL
MODEL 7
REMARK VINA RESULT:    -2.454     13.596     14.500
REMARK INTER + INTRA:          -2.955
REMARK INTER:                  -2.928
REMARK INTRA:                  -0.027
REMARK UNBOUND:                -0.070
REMARK SMILES CCCCC(=O)[O-]
REMARK SMILES IDX 4 1 5 2 6 3 7 4 3 5 2 6 1 7
REMARK H PARENT
REMARK Flexibility Score: inf
ROOT
ATOM      1  C   UNL     1       7.318   9.925   2.251  1.00  0.00     0.053 C 
ENDROOT
BRANCH   1   2
ATOM      2  C   UNL     1       6.378   9.112   1.417  1.00  0.00     0.041 C 
ATOM      3  O   UNL     1       5.808   8.103   1.908  1.00  0.00    -0.550 OA
ATOM      4  O   UNL     1       6.094   9.499   0.114  1.00  0.00    -0.550 OA
ENDBRANCH   1   2
BRANCH   1   5
ATOM      5  C   UNL     1       7.729   9.151   3.506  1.00  0.00     0.006 C 
BRANCH   5   6
ATOM      6  C   UNL     1       8.113  10.108   4.641  1.00  0.00    -0.003 C 
ATOM      7  C   UNL     1       7.810   9.494   6.005  1.00  0.00     0.004 C 
ENDBRANCH   5   6
ENDBRANCH   1   5
TORSDOF 3
ENDMDL
MODEL 8
REMARK VINA RESULT:    -2.450      1.621      2.161
REMARK INTER + INTRA:          -2.950
REMARK INTER:                  -2.870
REMARK INTRA:                  -0.081
REMARK UNBOUND:                -0.070
REMARK SMILES CCCCC(=O)[O-]
REMARK SMILES IDX 4 1 5 2 6 3 7 4 3 5 2 6 1 7
REMARK H PARENT
REMARK Flexibility Score: inf
ROOT
ATOM      1  C   UNL     1       1.637  -4.770   0.712  1.00  0.00     0.053 C 
ENDROOT
BRANCH   1   2
ATOM      2  C   UNL     1       2.007  -3.329   0.866  1.00  0.00     0.041 C 
ATOM      3  O   UNL     1       1.332  -2.579   1.619  1.00  0.00    -0.550 OA
ATOM      4  O   UNL     1       3.126  -2.826   0.216  1.00  0.00    -0.550 OA
ENDBRANCH   1   2
BRANCH   1   5
ATOM      5  C   UNL     1       0.159  -4.908   0.336  1.00  0.00     0.006 C 
BRANCH   5   6
ATOM      6  C   UNL     1      -0.091  -4.419  -1.095  1.00  0.00    -0.003 C 
ATOM      7  C   UNL     1      -1.577  -4.466  -1.442  1.00  0.00     0.004 C 
ENDBRANCH   5   6
ENDBRANCH   1   5
TORSDOF 3
ENDMDL
MODEL 9
REMARK VINA RESULT:    -2.376     12.385     13.232
REMARK INTER + INTRA:          -2.864
REMARK INTER:                  -2.757
REMARK INTRA:                  -0.107
REMARK UNBOUND:                -0.070
REMARK SMILES CCCCC(=O)[O-]
REMARK SMILES IDX 4 1 5 2 6 3 7 4 3 5 2 6 1 7
REMARK H PARENT
REMARK Flexibility Score: inf
ROOT
ATOM      1  C   UNL     1       8.206   7.801   0.991  1.00  0.00     0.053 C 
ENDROOT
BRANCH   1   2
ATOM      2  C   UNL     1       8.926   6.619   1.561  1.00  0.00     0.041 C 
ATOM      3  O   UNL     1       8.843   5.496   0.998  1.00  0.00    -0.550 OA
ATOM      4  O   UNL     1       9.728   6.769   2.685  1.00  0.00    -0.550 OA
ENDBRANCH   1   2
BRANCH   1   5
ATOM      5  C   UNL     1       7.053   8.220   1.907  1.00  0.00     0.006 C 
BRANCH   5   6
ATOM      6  C   UNL     1       7.342   9.571   2.571  1.00  0.00    -0.003 C 
ATOM      7  C   UNL     1       7.779   9.390   4.022  1.00  0.00     0.004 C 
ENDBRANCH   5   6
ENDBRANCH   1   5
TORSDOF 3
ENDMDL
