MODEL 1
REMARK VINA RESULT:    -1.107      0.000      0.000
REMARK INTER + INTRA:          -2.139
REMARK INTER:                  -1.496
REMARK INTRA:                  -0.643
REMARK UNBOUND:                -0.643
REMARK SMILES CCCCCCCC(=O)[O-]
REMARK SMILES IDX 5 1 6 2 7 3 8 4 9 5 10 6 4 7 3 8 2 9 1 10
REMARK H PARENT
REMARK Flexibility Score: inf
ROOT
ATOM      1  C   UNL     1     -13.532 -22.064  84.624  1.00  0.00     0.000 C 
ENDROOT
BRANCH   1   2
ATOM      2  C   UNL     1     -14.294 -22.890  85.674  1.00  0.00     0.006 C 
BRANCH   2   3
ATOM      3  C   UNL     1     -15.782 -22.518  85.734  1.00  0.00     0.053 C 
BRANCH   3   4
ATOM      4  C   UNL     1     -16.552 -23.106  84.592  1.00  0.00     0.041 C 
ATOM      5  O   UNL     1     -16.220 -24.223  84.114  1.00  0.00    -0.550 OA
ATOM      6  O   UNL     1     -17.616 -22.408  84.035  1.00  0.00    -0.550 OA
ENDBRANCH   3   4
ENDBRANCH   2   3
ENDBRANCH   1   2
BRANCH   1   7
ATOM      7  C   UNL     1     -12.875 -22.941  83.545  1.00  0.00     0.000 C 
BRANCH   7   8
ATOM      8  C   UNL     1     -13.501 -22.741  82.157  1.00  0.00    -0.000 C 
BRANCH   8   9
ATOM      9  C   UNL     1     -14.196 -21.378  82.059  1.00  0.00    -0.003 C 
ATOM     10  C   UNL     1     -15.533 -21.490  81.332  1.00  0.00     0.004 C 
ENDBRANCH   8   9
ENDBRANCH   7   8
ENDBRANCH   1   7
TORSDOF 6
ENDMDL
MODEL 2
REMARK VINA RESULT:    -1.097      2.657      4.045
REMARK INTER + INTRA:          -2.125
REMARK INTER:                  -1.675
REMARK INTRA:                  -0.450
REMARK UNBOUND:                -0.643
REMARK SMILES CCCCCCCC(=O)[O-]
REMARK SMILES IDX 5 1 6 2 7 3 8 4 9 5 10 6 4 7 3 8 2 9 1 10
REMARK H PARENT
REMARK Flexibility Score: inf
ROOT
ATOM      1  C   UNL     1     -12.875 -21.235  84.088  1.00  0.00     0.000 C 
ENDROOT
BRANCH   1   2
ATOM      2  C   UNL     1     -13.163 -20.900  82.614  1.00  0.00     0.006 C 
BRANCH   2   3
ATOM      3  C   UNL     1     -14.417 -21.614  82.092  1.00  0.00     0.053 C 
BRANCH   3   4
ATOM      4  C   UNL     1     -14.865 -21.063  80.773  1.00  0.00     0.041 C 
ATOM      5  O   UNL     1     -15.084 -19.829  80.645  1.00  0.00    -0.550 OA
ATOM      6  O   UNL     1     -15.070 -21.914  79.695  1.00  0.00    -0.550 OA
ENDBRANCH   3   4
ENDBRANCH   2   3
ENDBRANCH   1   2
BRANCH   1   7
ATOM      7  C   UNL     1     -13.945 -22.149  84.705  1.00  0.00     0.000 C 
BRANCH   7   8
ATOM      8  C   UNL     1     -13.341 -23.314  85.505  1.00  0.00    -0.000 C 
BRANCH   8   9
ATOM      9  C   UNL     1     -12.876 -24.437  84.571  1.00  0.00    -0.003 C 
ATOM     10  C   UNL     1     -14.022 -24.940  83.699  1.00  0.00     0.004 C 
ENDBRANCH   8   9
ENDBRANCH   7   8
ENDBRANCH   1   7
TORSDOF 6
ENDMDL
MODEL 3
REMARK VINA RESULT:    -1.059      2.511      3.309
REMARK INTER + INTRA:          -2.074
REMARK INTER:                  -1.417
REMARK INTRA:                  -0.657
REMARK UNBOUND:                -0.643
REMARK SMILES CCCCCCCC(=O)[O-]
REMARK SMILES IDX 5 1 6 2 7 3 8 4 9 5 10 6 4 7 3 8 2 9 1 10
REMARK H PARENT
REMARK Flexibility Score: inf
ROOT
ATOM      1  C   UNL     1     -16.201 -24.336  84.387  1.00  0.00     0.000 C 
ENDROOT
BRANCH   1   2
ATOM      2  C   UNL     1     -15.803 -23.944  85.821  1.00  0.00     0.006 C 
BRANCH   2   3
ATOM      3  C   UNL     1     -15.168 -22.548  85.884  1.00  0.00     0.053 C 
BRANCH   3   4
ATOM      4  C   UNL     1     -13.823 -22.516  85.226  1.00  0.00     0.041 C 
ATOM      5  O   UNL     1     -12.942 -23.358  85.545  1.00  0.00    -0.550 OA
ATOM      6  O   UNL     1     -13.531 -21.538  84.283  1.00  0.00    -0.550 OA
ENDBRANCH   3   4
ENDBRANCH   2   3
ENDBRANCH   1   2
BRANCH   1   7
ATOM      7  C   UNL     1     -15.772 -25.767  84.025  1.00  0.00     0.000 C 
BRANCH   7   8
ATOM      8  C   UNL     1     -14.429 -25.813  83.280  1.00  0.00    -0.000 C 
BRANCH   8   9
ATOM      9  C   UNL     1     -14.344 -24.695  82.235  1.00  0.00    -0.003 C 
ATOM     10  C   UNL     1     -12.905 -24.225  82.046  1.00  0.00     0.004 C 
ENDBRANCH   8   9
ENDBRANCH   7   8
ENDBRANCH   1   7
TORSDOF 6
ENDMDL
MODEL 4
REMARK VINA RESULT:    -1.018      1.910      3.544
REMARK INTER + INTRA:          -2.018
REMARK INTER:                  -1.452
REMARK INTRA:                  -0.566
REMARK UNBOUND:                -0.643
REMARK SMILES CCCCCCCC(=O)[O-]
REMARK SMILES IDX 5 1 6 2 7 3 8 4 9 5 10 6 4 7 3 8 2 9 1 10
REMARK H PARENT
REMARK Flexibility Score: inf
ROOT
ATOM      1  C   UNL     1     -13.589 -22.589  84.954  1.00  0.00     0.000 C 
ENDROOT
BRANCH   1   2
ATOM      2  C   UNL     1     -13.260 -21.340  84.118  1.00  0.00     0.006 C 
BRANCH   2   3
ATOM      3  C   UNL     1     -12.876 -21.693  82.675  1.00  0.00     0.053 C 
BRANCH   3   4
ATOM      4  C   UNL     1     -14.025 -22.291  81.922  1.00  0.00     0.041 C 
ATOM      5  O   UNL     1     -13.888 -23.393  81.328  1.00  0.00    -0.550 OA
ATOM      6  O   UNL     1     -15.238 -21.617  81.851  1.00  0.00    -0.550 OA
ENDBRANCH   3   4
ENDBRANCH   2   3
ENDBRANCH   1   2
BRANCH   1   7
ATOM      7  C   UNL     1     -14.924 -22.463  85.706  1.00  0.00     0.000 C 
BRANCH   7   8
ATOM      8  C   UNL     1     -15.770 -23.742  85.632  1.00  0.00    -0.000 C 
BRANCH   8   9
ATOM      9  C   UNL     1     -16.504 -23.837  84.289  1.00  0.00    -0.003 C 
ATOM     10  C   UNL     1     -16.089 -25.087  83.520  1.00  0.00     0.004 C 
ENDBRANCH   8   9
ENDBRANCH   7   8
ENDBRANCH   1   7
TORSDOF 6
ENDMDL
MODEL 5
REMARK VINA RESULT:    -0.998      1.725      3.634
REMARK INTER + INTRA:          -1.991
REMARK INTER:                  -1.526
REMARK INTRA:                  -0.465
REMARK UNBOUND:                -0.643
REMARK SMILES CCCCCCCC(=O)[O-]
REMARK SMILES IDX 5 1 6 2 7 3 8 4 9 5 10 6 4 7 3 8 2 9 1 10
REMARK H PARENT
REMARK Flexibility Score: inf
ROOT
ATOM      1  C   UNL     1     -13.244 -22.028  82.845  1.00  0.00     0.000 C 
ENDROOT
BRANCH   1   2
ATOM      2  C   UNL     1     -14.234 -21.190  82.017  1.00  0.00     0.006 C 
BRANCH   2   3
ATOM      3  C   UNL     1     -15.411 -22.029  81.501  1.00  0.00     0.053 C 
BRANCH   3   4
ATOM      4  C   UNL     1     -16.624 -21.188  81.243  1.00  0.00     0.041 C 
ATOM      5  O   UNL     1     -17.714 -21.459  81.812  1.00  0.00    -0.550 OA
ATOM      6  O   UNL     1     -16.559 -20.125  80.350  1.00  0.00    -0.550 OA
ENDBRANCH   3   4
ENDBRANCH   2   3
ENDBRANCH   1   2
BRANCH   1   7
ATOM      7  C   UNL     1     -13.268 -21.664  84.338  1.00  0.00     0.000 C 
BRANCH   7   8
ATOM      8  C   UNL     1     -13.864 -22.779  85.211  1.00  0.00    -0.000 C 
BRANCH   8   9
ATOM      9  C   UNL     1     -15.224 -22.359  85.783  1.00  0.00    -0.003 C 
ATOM     10  C   UNL     1     -16.370 -23.007  85.012  1.00  0.00     0.004 C 
ENDBRANCH   8   9
ENDBRANCH   7   8
ENDBRANCH   1   7
TORSDOF 6
ENDMDL
MODEL 6
REMARK VINA RESULT:    -0.990      1.933      4.075
REMARK INTER + INTRA:          -1.981
REMARK INTER:                  -1.445
REMARK INTRA:                  -0.536
REMARK UNBOUND:                -0.643
REMARK SMILES CCCCCCCC(=O)[O-]
REMARK SMILES IDX 5 1 6 2 7 3 8 4 9 5 10 6 4 7 3 8 2 9 1 10
REMARK H PARENT
REMARK Flexibility Score: inf
ROOT
ATOM      1  C   UNL     1     -13.257 -21.299  83.292  1.00  0.00     0.000 C 
ENDROOT
BRANCH   1   2
ATOM      2  C   UNL     1     -13.958 -22.153  82.222  1.00  0.00     0.006 C 
BRANCH   2   3
ATOM      3  C   UNL     1     -13.085 -23.328  81.756  1.00  0.00     0.053 C 
BRANCH   3   4
ATOM      4  C   UNL     1     -13.816 -24.633  81.839  1.00  0.00     0.041 C 
ATOM      5  O   UNL     1     -15.067 -24.649  81.983  1.00  0.00    -0.550 OA
ATOM      6  O   UNL     1     -13.113 -25.830  81.787  1.00  0.00    -0.550 OA
ENDBRANCH   3   4
ENDBRANCH   2   3
ENDBRANCH   1   2
BRANCH   1   7
ATOM      7  C   UNL     1     -13.041 -22.062  84.609  1.00  0.00     0.000 C 
BRANCH   7   8
ATOM      8  C   UNL     1     -14.358 -22.514  85.256  1.00  0.00    -0.000 C 
BRANCH   8   9
ATOM      9  C   UNL     1     -14.144 -23.759  86.125  1.00  0.00    -0.003 C 
ATOM     10  C   UNL     1     -13.329 -24.815  85.384  1.00  0.00     0.004 C 
ENDBRANCH   8   9
ENDBRANCH   7   8
ENDBRANCH   1   7
TORSDOF 6
ENDMDL
MODEL 7
REMARK VINA RESULT:    -0.981      1.214      3.057
REMARK INTER + INTRA:          -1.969
REMARK INTER:                  -1.377
REMARK INTRA:                  -0.592
REMARK UNBOUND:                -0.643
REMARK SMILES CCCCCCCC(=O)[O-]
REMARK SMILES IDX 5 1 6 2 7 3 8 4 9 5 10 6 4 7 3 8 2 9 1 10
REMARK H PARENT
REMARK Flexibility Score: inf
ROOT
ATOM      1  C   UNL     1     -14.031 -21.141  81.772  1.00  0.00     0.000 C 
ENDROOT
BRANCH   1   2
ATOM      2  C   UNL     1     -15.065 -22.053  81.089  1.00  0.00     0.006 C 
BRANCH   2   3
ATOM      3  C   UNL     1     -16.465 -21.899  81.698  1.00  0.00     0.053 C 
BRANCH   3   4
ATOM      4  C   UNL     1     -16.728 -22.924  82.759  1.00  0.00     0.041 C 
ATOM      5  O   UNL     1     -16.319 -24.107  82.611  1.00  0.00    -0.550 OA
ATOM      6  O   UNL     1     -17.449 -22.582  83.896  1.00  0.00    -0.550 OA
ENDBRANCH   3   4
ENDBRANCH   2   3
ENDBRANCH   1   2
BRANCH   1   7
ATOM      7  C   UNL     1     -13.087 -21.914  82.707  1.00  0.00     0.000 C 
BRANCH   7   8
ATOM      8  C   UNL     1     -13.127 -21.394  84.152  1.00  0.00    -0.000 C 
BRANCH   8   9
ATOM      9  C   UNL     1     -13.908 -22.354  85.058  1.00  0.00    -0.003 C 
ATOM     10  C   UNL     1     -13.536 -23.806  84.775  1.00  0.00     0.004 C 
ENDBRANCH   8   9
ENDBRANCH   7   8
ENDBRANCH   1   7
TORSDOF 6
ENDMDL
MODEL 8
REMARK VINA RESULT:    -0.972      2.237      2.963
REMARK INTER + INTRA:          -1.957
REMARK INTER:                  -1.356
REMARK INTRA:                  -0.600
REMARK UNBOUND:                -0.643
REMARK SMILES CCCCCCCC(=O)[O-]
REMARK SMILES IDX 5 1 6 2 7 3 8 4 9 5 10 6 4 7 3 8 2 9 1 10
REMARK H PARENT
REMARK Flexibility Score: inf
ROOT
ATOM      1  C   UNL     1     -14.319 -24.938  83.290  1.00  0.00     0.000 C 
ENDROOT
BRANCH   1   2
ATOM      2  C   UNL     1     -12.958 -24.300  83.618  1.00  0.00     0.006 C 
BRANCH   2   3
ATOM      3  C   UNL     1     -12.952 -23.626  84.997  1.00  0.00     0.053 C 
BRANCH   3   4
ATOM      4  C   UNL     1     -13.713 -22.336  84.991  1.00  0.00     0.041 C 
ATOM      5  O   UNL     1     -14.791 -22.234  85.635  1.00  0.00    -0.550 OA
ATOM      6  O   UNL     1     -13.248 -21.255  84.252  1.00  0.00    -0.550 OA
ENDBRANCH   3   4
ENDBRANCH   2   3
ENDBRANCH   1   2
BRANCH   1   7
ATOM      7  C   UNL     1     -14.807 -24.594  81.874  1.00  0.00     0.000 C 
BRANCH   7   8
ATOM      8  C   UNL     1     -16.117 -23.792  81.876  1.00  0.00    -0.000 C 
BRANCH   8   9
ATOM      9  C   UNL     1     -15.838 -22.287  81.969  1.00  0.00    -0.003 C 
ATOM     10  C   UNL     1     -14.679 -21.883  81.063  1.00  0.00     0.004 C 
ENDBRANCH   8   9
ENDBRANCH   7   8
ENDBRANCH   1   7
TORSDOF 6
ENDMDL
MODEL 9
REMARK VINA RESULT:    -0.967      2.516      4.272
REMARK INTER + INTRA:          -1.949
REMARK INTER:                  -1.375
REMARK INTRA:                  -0.574
REMARK UNBOUND:                -0.643
REMARK SMILES CCCCCCCC(=O)[O-]
REMARK SMILES IDX 5 1 6 2 7 3 8 4 9 5 10 6 4 7 3 8 2 9 1 10
REMARK H PARENT
REMARK Flexibility Score: inf
ROOT
ATOM      1  C   UNL     1     -15.980 -23.966  82.674  1.00  0.00     0.000 C 
ENDROOT
BRANCH   1   2
ATOM      2  C   UNL     1     -15.154 -23.195  81.629  1.00  0.00     0.006 C 
BRANCH   2   3
ATOM      3  C   UNL     1     -15.570 -21.720  81.536  1.00  0.00     0.053 C 
BRANCH   3   4
ATOM      4  C   UNL     1     -14.383 -20.807  81.504  1.00  0.00     0.041 C 
ATOM      5  O   UNL     1     -13.467 -20.930  82.359  1.00  0.00    -0.550 OA
ATOM      6  O   UNL     1     -14.303 -19.801  80.549  1.00  0.00    -0.550 OA
ENDBRANCH   3   4
ENDBRANCH   2   3
ENDBRANCH   1   2
BRANCH   1   7
ATOM      7  C   UNL     1     -16.513 -23.057  83.792  1.00  0.00     0.000 C 
BRANCH   7   8
ATOM      8  C   UNL     1     -15.829 -23.314  85.143  1.00  0.00    -0.000 C 
BRANCH   8   9
ATOM      9  C   UNL     1     -14.656 -22.349  85.356  1.00  0.00    -0.003 C 
ATOM     10  C   UNL     1     -13.318 -23.072  85.232  1.00  0.00     0.004 C 
ENDBRANCH   8   9
ENDBRANCH   7   8
ENDBRANCH   1   7
TORSDOF 6
ENDMDL
