MODEL 1
REMARK VINA RESULT:    -4.630      0.000      0.000
REMARK INTER + INTRA:          -6.254
REMARK INTER:                  -6.525
REMARK INTRA:                   0.271
REMARK UNBOUND:                 0.271
REMARK SMILES CC1=CCC(=C(C)C)C(=O)CC(C)=CCC1
REMARK SMILES IDX 12 1 14 2 13 3 15 4 16 5 2 6 1 7 3 8 11 10 9 11 10 12 5 13
REMARK SMILES IDX 6 14 7 15 8 16 4 17
REMARK H PARENT
REMARK Flexibility Score: 60.00
ROOT
ATOM      1  C   UNL     1     -22.845   6.921 -12.134  1.00  0.00    -0.070 C 
ATOM      2  C   UNL     1     -21.961   6.618 -13.111  1.00  0.00    -0.027 C 
ATOM      3  C   UNL     1     -23.979   5.960 -11.887  1.00  0.00     0.039 C 
ENDROOT
BRANCH   2   4
ATOM      4  C   UNL     1     -20.819   7.497 -13.571  1.00  0.00     0.032 C 
BRANCH   4   5
ATOM      5  C   UNL     1     -19.533   7.386 -12.725  1.00  0.00     0.034 C 
BRANCH   5   6
ATOM      6  C   UNL     1     -18.921   8.735 -12.391  1.00  0.00    -0.077 C 
ATOM      7  C   UNL     1     -18.244   9.493 -13.505  1.00  0.00     0.039 C 
ATOM      8  C   UNL     1     -18.885   9.271 -11.146  1.00  0.00    -0.023 CG0
ATOM      9  G   UNL     1     -19.510   8.702  -9.888  1.00  0.00     0.000 G0
ENDBRANCH   5   6
ENDBRANCH   4   5
ENDBRANCH   2   4
BRANCH   1  10
ATOM     10  C   UNL     1     -22.801   8.214 -11.346  1.00  0.00     0.111 C 
BRANCH  10  11
ATOM     11  C   UNL     1     -21.970   8.076 -10.097  1.00  0.00     0.163 C 
ATOM     12  O   UNL     1     -22.190   7.089  -9.343  1.00  0.00    -0.294 OA
BRANCH  11  13
ATOM     13  C   UNL     1     -20.949   9.089  -9.698  1.00  0.00    -0.002 C 
ATOM     14  C   UNL     1     -21.325  10.334  -9.279  1.00  0.00    -0.069 C 
ATOM     15  C   UNL     1     -20.316  11.431  -9.020  1.00  0.00     0.039 C 
ATOM     16  C   UNL     1     -22.782  10.679  -9.054  1.00  0.00     0.039 C 
BRANCH  13  17
ATOM     17  C   UNL     1     -19.486   8.707  -9.868  1.00  0.00     0.066 CG0
ATOM     18  G   UNL     1     -18.888   9.269 -11.142  1.00  0.00     0.000 G0
ENDBRANCH  13  17
ENDBRANCH  11  13
ENDBRANCH  10  11
ENDBRANCH   1  10
TORSDOF 0
ENDMDL
MODEL 2
REMARK VINA RESULT:    -4.399      1.786      4.132
REMARK INTER + INTRA:          -5.928
REMARK INTER:                  -6.143
REMARK INTRA:                   0.215
REMARK UNBOUND:                 0.271
REMARK SMILES CC1=CCC(=C(C)C)C(=O)CC(C)=CCC1
REMARK SMILES IDX 12 1 14 2 13 3 15 4 16 5 2 6 1 7 3 8 11 10 9 11 10 12 5 13
REMARK SMILES IDX 6 14 7 15 8 16 4 17
REMARK H PARENT
REMARK Flexibility Score: 60.00
ROOT
ATOM      1  C   UNL     1     -20.716  10.159  -9.503  1.00  0.00    -0.070 C 
ATOM      2  C   UNL     1     -19.515  10.273 -10.113  1.00  0.00    -0.027 C 
ATOM      3  C   UNL     1     -21.222  11.339  -8.714  1.00  0.00     0.039 C 
ENDROOT
BRANCH   2   4
ATOM      4  C   UNL     1     -18.799   9.174 -10.866  1.00  0.00     0.032 C 
BRANCH   4   5
ATOM      5  C   UNL     1     -19.361   8.877 -12.272  1.00  0.00     0.034 C 
BRANCH   5   6
ATOM      6  C   UNL     1     -19.729   7.417 -12.471  1.00  0.00    -0.077 C 
ATOM      7  C   UNL     1     -18.610   6.406 -12.469  1.00  0.00     0.039 C 
ATOM      8  C   UNL     1     -20.986   6.972 -12.717  1.00  0.00    -0.023 CG0
ATOM      9  G   UNL     1     -22.257   7.796 -12.747  1.00  0.00     0.000 G0
ENDBRANCH   5   6
ENDBRANCH   4   5
ENDBRANCH   2   4
BRANCH   1  10
ATOM     10  C   UNL     1     -21.527   8.878  -9.499  1.00  0.00     0.111 C 
BRANCH  10  11
ATOM     11  C   UNL     1     -22.674   8.944 -10.473  1.00  0.00     0.163 C 
ATOM     12  O   UNL     1     -23.413   9.967 -10.453  1.00  0.00    -0.294 OA
BRANCH  11  13
ATOM     13  C   UNL     1     -22.998   7.826 -11.407  1.00  0.00    -0.002 C 
ATOM     14  C   UNL     1     -23.847   6.823 -11.031  1.00  0.00    -0.069 C 
ATOM     15  C   UNL     1     -24.070   5.598 -11.890  1.00  0.00     0.039 C 
ATOM     16  C   UNL     1     -24.608   6.889  -9.724  1.00  0.00     0.039 C 
BRANCH  13  17
ATOM     17  C   UNL     1     -22.273   7.805 -12.744  1.00  0.00     0.066 CG0
ATOM     18  G   UNL     1     -21.004   6.978 -12.699  1.00  0.00     0.000 G0
ENDBRANCH  13  17
ENDBRANCH  11  13
ENDBRANCH  10  11
ENDBRANCH   1  10
TORSDOF 0
ENDMDL
MODEL 3
REMARK VINA RESULT:    -4.308      1.673      4.690
REMARK INTER + INTRA:          -5.800
REMARK INTER:                  -6.409
REMARK INTRA:                   0.609
REMARK UNBOUND:                 0.271
REMARK SMILES CC1=CCC(=C(C)C)C(=O)CC(C)=CCC1
REMARK SMILES IDX 12 1 14 2 13 3 15 4 16 5 2 6 1 7 3 8 11 10 9 11 10 12 5 13
REMARK SMILES IDX 6 14 7 15 8 16 4 17
REMARK H PARENT
REMARK Flexibility Score: 60.00
ROOT
ATOM      1  C   UNL     1     -18.581   8.318 -12.339  1.00  0.00    -0.070 C 
ATOM      2  C   UNL     1     -18.254   8.592 -11.056  1.00  0.00    -0.027 C 
ATOM      3  C   UNL     1     -18.251   9.351 -13.387  1.00  0.00     0.039 C 
ENDROOT
BRANCH   2   4
ATOM      4  C   UNL     1     -18.587   7.731  -9.858  1.00  0.00     0.032 C 
BRANCH   4   5
ATOM      5  C   UNL     1     -19.605   8.349  -8.876  1.00  0.00     0.034 C 
BRANCH   5   6
ATOM      6  C   UNL     1     -20.731   9.092  -9.575  1.00  0.00    -0.077 C 
ATOM      7  C   UNL     1     -20.816  10.584  -9.375  1.00  0.00     0.039 C 
ATOM      8  C   UNL     1     -21.700   8.494 -10.310  1.00  0.00    -0.023 CG0
ATOM      9  G   UNL     1     -21.807   7.023 -10.658  1.00  0.00     0.000 G0
ENDBRANCH   5   6
ENDBRANCH   4   5
ENDBRANCH   2   4
BRANCH   1  10
ATOM     10  C   UNL     1     -19.338   7.074 -12.756  1.00  0.00     0.111 C 
BRANCH  10  11
ATOM     11  C   UNL     1     -20.797   7.365 -12.994  1.00  0.00     0.163 C 
ATOM     12  O   UNL     1     -21.099   8.184 -13.904  1.00  0.00    -0.294 OA
BRANCH  11  13
ATOM     13  C   UNL     1     -21.880   6.768 -12.158  1.00  0.00    -0.002 C 
ATOM     14  C   UNL     1     -22.924   6.102 -12.736  1.00  0.00    -0.069 C 
ATOM     15  C   UNL     1     -24.114   5.625 -11.932  1.00  0.00     0.039 C 
ATOM     16  C   UNL     1     -22.941   5.810 -14.221  1.00  0.00     0.039 C 
BRANCH  13  17
ATOM     17  C   UNL     1     -21.817   7.015 -10.658  1.00  0.00     0.066 CG0
ATOM     18  G   UNL     1     -21.702   8.488 -10.321  1.00  0.00     0.000 G0
ENDBRANCH  13  17
ENDBRANCH  11  13
ENDBRANCH  10  11
ENDBRANCH   1  10
TORSDOF 0
ENDMDL
MODEL 4
REMARK VINA RESULT:    -4.306      1.910      3.734
REMARK INTER + INTRA:          -5.797
REMARK INTER:                  -6.007
REMARK INTRA:                   0.209
REMARK UNBOUND:                 0.271
REMARK SMILES CC1=CCC(=C(C)C)C(=O)CC(C)=CCC1
REMARK SMILES IDX 12 1 14 2 13 3 15 4 16 5 2 6 1 7 3 8 11 10 9 11 10 12 5 13
REMARK SMILES IDX 6 14 7 15 8 16 4 17
REMARK H PARENT
REMARK Flexibility Score: 60.00
ROOT
ATOM      1  C   UNL     1     -21.612   7.436 -13.481  1.00  0.00    -0.070 C 
ATOM      2  C   UNL     1     -22.907   7.295 -13.122  1.00  0.00    -0.027 C 
ATOM      3  C   UNL     1     -21.257   8.567 -14.412  1.00  0.00     0.039 C 
ENDROOT
BRANCH   2   4
ATOM      4  C   UNL     1     -23.472   6.174 -12.278  1.00  0.00     0.032 C 
BRANCH   4   5
ATOM      5  C   UNL     1     -22.793   5.989 -10.905  1.00  0.00     0.034 C 
BRANCH   5   6
ATOM      6  C   UNL     1     -22.786   7.257 -10.068  1.00  0.00    -0.077 C 
ATOM      7  C   UNL     1     -24.117   7.854  -9.688  1.00  0.00     0.039 C 
ATOM      8  C   UNL     1     -21.664   7.922  -9.698  1.00  0.00    -0.023 CG0
ATOM      9  G   UNL     1     -20.229   7.504  -9.949  1.00  0.00     0.000 G0
ENDBRANCH   5   6
ENDBRANCH   4   5
ENDBRANCH   2   4
BRANCH   1  10
ATOM     10  C   UNL     1     -20.524   6.465 -13.067  1.00  0.00     0.111 C 
BRANCH  10  11
ATOM     11  C   UNL     1     -19.398   7.163 -12.350  1.00  0.00     0.163 C 
ATOM     12  O   UNL     1     -18.216   6.898 -12.700  1.00  0.00    -0.294 OA
BRANCH  11  13
ATOM     13  C   UNL     1     -19.632   8.101 -11.213  1.00  0.00    -0.002 C 
ATOM     14  C   UNL     1     -19.256   9.412 -11.298  1.00  0.00    -0.069 C 
ATOM     15  C   UNL     1     -19.334  10.347 -10.111  1.00  0.00     0.039 C 
ATOM     16  C   UNL     1     -18.737   9.996 -12.594  1.00  0.00     0.039 C 
BRANCH  13  17
ATOM     17  C   UNL     1     -20.215   7.515  -9.936  1.00  0.00     0.066 CG0
ATOM     18  G   UNL     1     -21.657   7.925  -9.719  1.00  0.00     0.000 G0
ENDBRANCH  13  17
ENDBRANCH  11  13
ENDBRANCH  10  11
ENDBRANCH   1  10
TORSDOF 0
ENDMDL
MODEL 5
REMARK VINA RESULT:    -4.291      2.769      4.922
REMARK INTER + INTRA:          -5.776
REMARK INTER:                  -5.943
REMARK INTRA:                   0.167
REMARK UNBOUND:                 0.271
REMARK SMILES CC1=CCC(=C(C)C)C(=O)CC(C)=CCC1
REMARK SMILES IDX 12 1 14 2 13 3 15 4 16 5 2 6 1 7 3 8 11 10 9 11 10 12 5 13
REMARK SMILES IDX 6 14 7 15 8 16 4 17
REMARK H PARENT
REMARK Flexibility Score: 60.00
ROOT
ATOM      1  C   UNL     1     -18.975   7.774 -12.669  1.00  0.00    -0.070 C 
ATOM      2  C   UNL     1     -18.111   7.164 -11.828  1.00  0.00    -0.027 C 
ATOM      3  C   UNL     1     -18.639   9.167 -13.138  1.00  0.00     0.039 C 
ENDROOT
BRANCH   2   4
ATOM      4  C   UNL     1     -18.317   5.814 -11.177  1.00  0.00     0.032 C 
BRANCH   4   5
ATOM      5  C   UNL     1     -19.004   5.859  -9.795  1.00  0.00     0.034 C 
BRANCH   5   6
ATOM      6  C   UNL     1     -20.032   4.757  -9.604  1.00  0.00    -0.077 C 
ATOM      7  C   UNL     1     -19.525   3.368  -9.313  1.00  0.00     0.039 C 
ATOM      8  C   UNL     1     -21.369   4.928  -9.746  1.00  0.00    -0.023 CG0
ATOM      9  G   UNL     1     -22.101   6.227 -10.017  1.00  0.00     0.000 G0
ENDBRANCH   5   6
ENDBRANCH   4   5
ENDBRANCH   2   4
BRANCH   1  10
ATOM     10  C   UNL     1     -20.300   7.166 -13.085  1.00  0.00     0.111 C 
BRANCH  10  11
ATOM     11  C   UNL     1     -21.402   7.525 -12.123  1.00  0.00     0.163 C 
ATOM     12  O   UNL     1     -21.529   8.735 -11.790  1.00  0.00    -0.294 OA
BRANCH  11  13
ATOM     13  C   UNL     1     -22.300   6.499 -11.514  1.00  0.00    -0.002 C 
ATOM     14  C   UNL     1     -23.285   5.904 -12.251  1.00  0.00    -0.069 C 
ATOM     15  C   UNL     1     -24.308   4.982 -11.625  1.00  0.00     0.039 C 
ATOM     16  C   UNL     1     -23.402   6.143 -13.741  1.00  0.00     0.039 C 
BRANCH  13  17
ATOM     17  C   UNL     1     -22.130   6.221 -10.028  1.00  0.00     0.066 CG0
ATOM     18  G   UNL     1     -21.365   4.940  -9.766  1.00  0.00     0.000 G0
ENDBRANCH  13  17
ENDBRANCH  11  13
ENDBRANCH  10  11
ENDBRANCH   1  10
TORSDOF 0
ENDMDL
MODEL 6
REMARK VINA RESULT:    -4.189      2.324      3.807
REMARK INTER + INTRA:          -5.632
REMARK INTER:                  -5.814
REMARK INTRA:                   0.182
REMARK UNBOUND:                 0.271
REMARK SMILES CC1=CCC(=C(C)C)C(=O)CC(C)=CCC1
REMARK SMILES IDX 12 1 14 2 13 3 15 4 16 5 2 6 1 7 3 8 11 10 9 11 10 12 5 13
REMARK SMILES IDX 6 14 7 15 8 16 4 17
REMARK H PARENT
REMARK Flexibility Score: 60.00
ROOT
ATOM      1  C   UNL     1     -19.036   8.216 -12.458  1.00  0.00    -0.070 C 
ATOM      2  C   UNL     1     -18.276   7.125 -12.216  1.00  0.00    -0.027 C 
ATOM      3  C   UNL     1     -18.452   9.305 -13.322  1.00  0.00     0.039 C 
ENDROOT
BRANCH   2   4
ATOM      4  C   UNL     1     -18.645   5.978 -11.301  1.00  0.00     0.032 C 
BRANCH   4   5
ATOM      5  C   UNL     1     -18.406   6.242  -9.800  1.00  0.00     0.034 C 
BRANCH   5   6
ATOM      6  C   UNL     1     -19.571   5.810  -8.926  1.00  0.00    -0.077 C 
ATOM      7  C   UNL     1     -19.870   4.336  -8.834  1.00  0.00     0.039 C 
ATOM      8  C   UNL     1     -20.399   6.667  -8.278  1.00  0.00    -0.023 CG0
ATOM      9  G   UNL     1     -20.283   8.177  -8.213  1.00  0.00     0.000 G0
ENDBRANCH   5   6
ENDBRANCH   4   5
ENDBRANCH   2   4
BRANCH   1  10
ATOM     10  C   UNL     1     -20.399   8.436 -11.831  1.00  0.00     0.111 C 
BRANCH  10  11
ATOM     11  C   UNL     1     -20.302   9.232 -10.556  1.00  0.00     0.163 C 
ATOM     12  O   UNL     1     -19.507  10.211 -10.526  1.00  0.00    -0.294 OA
BRANCH  11  13
ATOM     13  C   UNL     1     -21.062   8.867  -9.324  1.00  0.00    -0.002 C 
ATOM     14  C   UNL     1     -22.377   9.212  -9.185  1.00  0.00    -0.069 C 
ATOM     15  C   UNL     1     -23.129   8.998  -7.890  1.00  0.00     0.039 C 
ATOM     16  C   UNL     1     -23.150   9.832 -10.329  1.00  0.00     0.039 C 
BRANCH  13  17
ATOM     17  C   UNL     1     -20.288   8.186  -8.206  1.00  0.00     0.066 CG0
ATOM     18  G   UNL     1     -20.390   6.676  -8.271  1.00  0.00     0.000 G0
ENDBRANCH  13  17
ENDBRANCH  11  13
ENDBRANCH  10  11
ENDBRANCH   1  10
TORSDOF 0
ENDMDL
MODEL 7
REMARK VINA RESULT:    -4.115      2.579      4.153
REMARK INTER + INTRA:          -5.528
REMARK INTER:                  -5.752
REMARK INTRA:                   0.224
REMARK UNBOUND:                 0.271
REMARK SMILES CC1=CCC(=C(C)C)C(=O)CC(C)=CCC1
REMARK SMILES IDX 12 1 14 2 13 3 15 4 16 5 2 6 1 7 3 8 11 10 9 11 10 12 5 13
REMARK SMILES IDX 6 14 7 15 8 16 4 17
REMARK H PARENT
REMARK Flexibility Score: 60.00
ROOT
ATOM      1  C   UNL     1     -19.449   8.073 -12.849  1.00  0.00    -0.070 C 
ATOM      2  C   UNL     1     -20.637   8.433 -13.383  1.00  0.00    -0.027 C 
ATOM      3  C   UNL     1     -18.512   9.170 -12.410  1.00  0.00     0.039 C 
ENDROOT
BRANCH   2   4
ATOM      4  C   UNL     1     -21.665   7.488 -13.966  1.00  0.00     0.032 C 
BRANCH   4   5
ATOM      5  C   UNL     1     -22.196   6.421 -12.985  1.00  0.00     0.034 C 
BRANCH   5   6
ATOM      6  C   UNL     1     -22.644   7.003 -11.656  1.00  0.00    -0.077 C 
ATOM      7  C   UNL     1     -23.791   7.982 -11.670  1.00  0.00     0.039 C 
ATOM      8  C   UNL     1     -22.038   6.754 -10.469  1.00  0.00    -0.023 CG0
ATOM      9  G   UNL     1     -20.889   5.799 -10.213  1.00  0.00     0.000 G0
ENDBRANCH   5   6
ENDBRANCH   4   5
ENDBRANCH   2   4
BRANCH   1  10
ATOM     10  C   UNL     1     -18.980   6.635 -12.757  1.00  0.00     0.111 C 
BRANCH  10  11
ATOM     11  C   UNL     1     -18.622   6.257 -11.344  1.00  0.00     0.163 C 
ATOM     12  O   UNL     1     -17.529   5.658 -11.148  1.00  0.00    -0.294 OA
BRANCH  11  13
ATOM     13  C   UNL     1     -19.535   6.510 -10.191  1.00  0.00    -0.002 C 
ATOM     14  C   UNL     1     -19.132   7.276  -9.134  1.00  0.00    -0.069 C 
ATOM     15  C   UNL     1     -19.970   7.421  -7.883  1.00  0.00     0.039 C 
ATOM     16  C   UNL     1     -17.814   8.021  -9.163  1.00  0.00     0.039 C 
BRANCH  13  17
ATOM     17  C   UNL     1     -20.883   5.806 -10.204  1.00  0.00     0.066 CG0
ATOM     18  G   UNL     1     -22.028   6.758 -10.487  1.00  0.00     0.000 G0
ENDBRANCH  13  17
ENDBRANCH  11  13
ENDBRANCH  10  11
ENDBRANCH   1  10
TORSDOF 0
ENDMDL
MODEL 8
REMARK VINA RESULT:    -4.052      1.912      4.655
REMARK INTER + INTRA:          -5.438
REMARK INTER:                  -5.880
REMARK INTRA:                   0.441
REMARK UNBOUND:                 0.271
REMARK SMILES CC1=CCC(=C(C)C)C(=O)CC(C)=CCC1
REMARK SMILES IDX 12 1 14 2 13 3 15 4 16 5 2 6 1 7 3 8 11 10 9 11 10 12 5 13
REMARK SMILES IDX 6 14 7 15 8 16 4 17
REMARK H PARENT
REMARK Flexibility Score: 60.00
ROOT
ATOM      1  C   UNL     1     -19.442   9.026 -12.226  1.00  0.00    -0.070 C 
ATOM      2  C   UNL     1     -19.298   9.531 -10.981  1.00  0.00    -0.027 C 
ATOM      3  C   UNL     1     -18.237   9.030 -13.133  1.00  0.00     0.039 C 
ENDROOT
BRANCH   2   4
ATOM      4  C   UNL     1     -20.405   9.702  -9.965  1.00  0.00     0.032 C 
BRANCH   4   5
ATOM      5  C   UNL     1     -20.259   8.839  -8.693  1.00  0.00     0.034 C 
BRANCH   5   6
ATOM      6  C   UNL     1     -19.837   7.410  -8.988  1.00  0.00    -0.077 C 
ATOM      7  C   UNL     1     -18.462   6.979  -8.546  1.00  0.00     0.039 C 
ATOM      8  C   UNL     1     -20.589   6.519  -9.681  1.00  0.00    -0.023 CG0
ATOM      9  G   UNL     1     -21.997   6.723 -10.204  1.00  0.00     0.000 G0
ENDBRANCH   5   6
ENDBRANCH   4   5
ENDBRANCH   2   4
BRANCH   1  10
ATOM     10  C   UNL     1     -20.768   8.546 -12.781  1.00  0.00     0.111 C 
BRANCH  10  11
ATOM     11  C   UNL     1     -20.964   7.070 -12.552  1.00  0.00     0.163 C 
ATOM     12  O   UNL     1     -20.176   6.270 -13.125  1.00  0.00    -0.294 OA
BRANCH  11  13
ATOM     13  C   UNL     1     -22.085   6.530 -11.727  1.00  0.00    -0.002 C 
ATOM     14  C   UNL     1     -23.177   5.959 -12.318  1.00  0.00    -0.069 C 
ATOM     15  C   UNL     1     -24.395   5.547 -11.521  1.00  0.00     0.039 C 
ATOM     16  C   UNL     1     -23.222   5.713 -13.810  1.00  0.00     0.039 C 
BRANCH  13  17
ATOM     17  C   UNL     1     -21.998   6.727 -10.221  1.00  0.00     0.066 CG0
ATOM     18  G   UNL     1     -20.592   6.524  -9.693  1.00  0.00     0.000 G0
ENDBRANCH  13  17
ENDBRANCH  11  13
ENDBRANCH  10  11
ENDBRANCH   1  10
TORSDOF 0
ENDMDL
MODEL 9
REMARK VINA RESULT:    -4.032      1.750      3.545
REMARK INTER + INTRA:          -5.411
REMARK INTER:                  -5.860
REMARK INTRA:                   0.449
REMARK UNBOUND:                 0.271
REMARK SMILES CC1=CCC(=C(C)C)C(=O)CC(C)=CCC1
REMARK SMILES IDX 12 1 14 2 13 3 15 4 16 5 2 6 1 7 3 8 11 10 9 11 10 12 5 13
REMARK SMILES IDX 6 14 7 15 8 16 4 17
REMARK H PARENT
REMARK Flexibility Score: 60.00
ROOT
ATOM      1  C   UNL     1     -19.545   7.842 -12.169  1.00  0.00    -0.070 C 
ATOM      2  C   UNL     1     -20.596   7.320 -12.840  1.00  0.00    -0.027 C 
ATOM      3  C   UNL     1     -18.328   6.973 -11.978  1.00  0.00     0.039 C 
ENDROOT
BRANCH   2   4
ATOM      4  C   UNL     1     -21.933   7.996 -13.049  1.00  0.00     0.032 C 
BRANCH   4   5
ATOM      5  C   UNL     1     -23.124   7.309 -12.348  1.00  0.00     0.034 C 
BRANCH   5   6
ATOM      6  C   UNL     1     -22.831   6.934 -10.906  1.00  0.00    -0.077 C 
ATOM      7  C   UNL     1     -22.773   5.467 -10.561  1.00  0.00     0.039 C 
ATOM      8  C   UNL     1     -22.686   7.829  -9.898  1.00  0.00    -0.023 CG0
ATOM      9  G   UNL     1     -22.687   9.340 -10.010  1.00  0.00     0.000 G0
ENDBRANCH   5   6
ENDBRANCH   4   5
ENDBRANCH   2   4
BRANCH   1  10
ATOM     10  C   UNL     1     -19.568   9.214 -11.525  1.00  0.00     0.111 C 
BRANCH  10  11
ATOM     11  C   UNL     1     -20.116   9.161 -10.123  1.00  0.00     0.163 C 
ATOM     12  O   UNL     1     -19.566   8.381  -9.298  1.00  0.00    -0.294 OA
BRANCH  11  13
ATOM     13  C   UNL     1     -21.314   9.946  -9.700  1.00  0.00    -0.002 C 
ATOM     14  C   UNL     1     -21.175  11.115  -9.006  1.00  0.00    -0.069 C 
ATOM     15  C   UNL     1     -22.365  11.849  -8.428  1.00  0.00     0.039 C 
ATOM     16  C   UNL     1     -19.813  11.734  -8.779  1.00  0.00     0.039 C 
BRANCH  13  17
ATOM     17  C   UNL     1     -22.679   9.342  -9.992  1.00  0.00     0.066 CG0
ATOM     18  G   UNL     1     -22.677   7.831  -9.885  1.00  0.00     0.000 G0
ENDBRANCH  13  17
ENDBRANCH  11  13
ENDBRANCH  10  11
ENDBRANCH   1  10
TORSDOF 0
ENDMDL
