MODEL 1
REMARK VINA RESULT:    -5.471      0.000      0.000
REMARK INTER + INTRA:          -5.791
REMARK INTER:                  -5.791
REMARK INTRA:                   0.000
REMARK UNBOUND:                 0.000
REMARK SMILES O=c1ccc2cc(O)c(O)cc2o1
REMARK SMILES IDX 4 1 3 2 2 3 1 4 13 5 12 6 11 7 9 8 7 9 6 10 5 11 8 12 10 14
REMARK H PARENT 8 13 10 15
REMARK Flexibility Score: inf
ROOT
ATOM      1  C   UNL     1     -45.471   3.885 117.824  1.00  0.00     0.019 A 
ATOM      2  C   UNL     1     -45.697   3.150 118.987  1.00  0.00     0.094 A 
ATOM      3  C   UNL     1     -46.794   2.283 119.039  1.00  0.00     0.336 A 
ATOM      4  O   UNL     1     -47.015   1.611 120.080  1.00  0.00    -0.246 OA
ATOM      5  O   UNL     1     -47.608   2.163 117.993  1.00  0.00    -0.423 OA
ATOM      6  C   UNL     1     -47.429   2.846 116.865  1.00  0.00     0.142 A 
ATOM      7  C   UNL     1     -48.318   2.679 115.798  1.00  0.00     0.098 A 
ATOM      8  C   UNL     1     -48.133   3.396 114.606  1.00  0.00     0.161 A 
ATOM      9  C   UNL     1     -47.054   4.284 114.482  1.00  0.00     0.158 A 
ATOM     10  C   UNL     1     -46.159   4.455 115.549  1.00  0.00     0.062 A 
ATOM     11  C   UNL     1     -46.343   3.739 116.740  1.00  0.00     0.022 A 
ENDROOT
BRANCH   9  12
ATOM     12  O   UNL     1     -46.878   4.993 113.295  1.00  0.00    -0.504 OA
ATOM     13  H   UNL     1     -46.131   4.769 112.649  1.00  0.00     0.293 HD
ENDBRANCH   9  12
BRANCH   8  14
ATOM     14  O   UNL     1     -49.017   3.232 113.543  1.00  0.00    -0.504 OA
ATOM     15  H   UNL     1     -49.348   4.022 113.000  1.00  0.00     0.293 HD
ENDBRANCH   8  14
TORSDOF 2
ENDMDL
MODEL 2
REMARK VINA RESULT:    -5.432      1.982      2.657
REMARK INTER + INTRA:          -5.749
REMARK INTER:                  -5.749
REMARK INTRA:                   0.000
REMARK UNBOUND:                 0.000
REMARK SMILES O=c1ccc2cc(O)c(O)cc2o1
REMARK SMILES IDX 4 1 3 2 2 3 1 4 13 5 12 6 11 7 9 8 7 9 6 10 5 11 8 12 10 14
REMARK H PARENT 8 13 10 15
REMARK Flexibility Score: inf
ROOT
ATOM      1  C   UNL     1     -47.576   5.554 115.821  1.00  0.00     0.019 A 
ATOM      2  C   UNL     1     -47.133   5.862 117.107  1.00  0.00     0.094 A 
ATOM      3  C   UNL     1     -46.966   4.827 118.033  1.00  0.00     0.336 A 
ATOM      4  O   UNL     1     -46.566   5.085 119.198  1.00  0.00    -0.246 OA
ATOM      5  O   UNL     1     -47.228   3.568 117.691  1.00  0.00    -0.423 OA
ATOM      6  C   UNL     1     -47.654   3.230 116.476  1.00  0.00     0.142 A 
ATOM      7  C   UNL     1     -47.914   1.890 116.174  1.00  0.00     0.098 A 
ATOM      8  C   UNL     1     -48.362   1.528 114.894  1.00  0.00     0.161 A 
ATOM      9  C   UNL     1     -48.551   2.514 113.913  1.00  0.00     0.158 A 
ATOM     10  C   UNL     1     -48.292   3.860 114.211  1.00  0.00     0.062 A 
ATOM     11  C   UNL     1     -47.844   4.222 115.489  1.00  0.00     0.022 A 
ENDROOT
BRANCH   9  12
ATOM     12  O   UNL     1     -48.998   2.147 112.645  1.00  0.00    -0.504 OA
ATOM     13  H   UNL     1     -48.972   2.793 111.866  1.00  0.00     0.293 HD
ENDBRANCH   9  12
BRANCH   8  14
ATOM     14  O   UNL     1     -48.622   0.194 114.590  1.00  0.00    -0.504 OA
ATOM     15  H   UNL     1     -49.512  -0.237 114.811  1.00  0.00     0.293 HD
ENDBRANCH   8  14
TORSDOF 2
ENDMDL
MODEL 3
REMARK VINA RESULT:    -5.425      1.858      2.657
REMARK INTER + INTRA:          -5.742
REMARK INTER:                  -5.742
REMARK INTRA:                   0.000
REMARK UNBOUND:                 0.000
REMARK SMILES O=c1ccc2cc(O)c(O)cc2o1
REMARK SMILES IDX 4 1 3 2 2 3 1 4 13 5 12 6 11 7 9 8 7 9 6 10 5 11 8 12 10 14
REMARK H PARENT 8 13 10 15
REMARK Flexibility Score: inf
ROOT
ATOM      1  C   UNL     1     -46.515   1.617 117.678  1.00  0.00     0.019 A 
ATOM      2  C   UNL     1     -45.249   1.877 118.200  1.00  0.00     0.094 A 
ATOM      3  C   UNL     1     -44.564   3.022 117.778  1.00  0.00     0.336 A 
ATOM      4  O   UNL     1     -43.420   3.275 118.238  1.00  0.00    -0.246 OA
ATOM      5  O   UNL     1     -45.115   3.848 116.892  1.00  0.00    -0.423 OA
ATOM      6  C   UNL     1     -46.320   3.637 116.369  1.00  0.00     0.142 A 
ATOM      7  C   UNL     1     -46.848   4.540 115.440  1.00  0.00     0.098 A 
ATOM      8  C   UNL     1     -48.118   4.321 114.886  1.00  0.00     0.161 A 
ATOM      9  C   UNL     1     -48.863   3.194 115.263  1.00  0.00     0.158 A 
ATOM     10  C   UNL     1     -48.339   2.284 116.194  1.00  0.00     0.062 A 
ATOM     11  C   UNL     1     -47.070   2.502 116.748  1.00  0.00     0.022 A 
ENDROOT
BRANCH   9  12
ATOM     12  O   UNL     1     -50.124   2.984 114.707  1.00  0.00    -0.504 OA
ATOM     13  H   UNL     1     -50.238   2.715 113.737  1.00  0.00     0.293 HD
ENDBRANCH   9  12
BRANCH   8  14
ATOM     14  O   UNL     1     -48.646   5.219 113.961  1.00  0.00    -0.504 OA
ATOM     15  H   UNL     1     -48.122   5.510 113.144  1.00  0.00     0.293 HD
ENDBRANCH   8  14
TORSDOF 2
ENDMDL
MODEL 4
REMARK VINA RESULT:    -5.414      2.020      2.995
REMARK INTER + INTRA:          -5.730
REMARK INTER:                  -5.730
REMARK INTRA:                   0.000
REMARK UNBOUND:                 0.000
REMARK SMILES O=c1ccc2cc(O)c(O)cc2o1
REMARK SMILES IDX 4 1 3 2 2 3 1 4 13 5 12 6 11 7 9 8 7 9 6 10 5 11 8 12 10 14
REMARK H PARENT 8 13 10 15
REMARK Flexibility Score: inf
ROOT
ATOM      1  C   UNL     1     -48.061   1.122 114.961  1.00  0.00     0.019 A 
ATOM      2  C   UNL     1     -47.340   0.265 115.792  1.00  0.00     0.094 A 
ATOM      3  C   UNL     1     -46.509   0.814 116.775  1.00  0.00     0.336 A 
ATOM      4  O   UNL     1     -45.851   0.058 117.534  1.00  0.00    -0.246 OA
ATOM      5  O   UNL     1     -46.410   2.134 116.912  1.00  0.00    -0.423 OA
ATOM      6  C   UNL     1     -47.080   2.987 116.140  1.00  0.00     0.142 A 
ATOM      7  C   UNL     1     -46.934   4.365 116.331  1.00  0.00     0.098 A 
ATOM      8  C   UNL     1     -47.639   5.268 115.520  1.00  0.00     0.161 A 
ATOM      9  C   UNL     1     -48.491   4.790 114.514  1.00  0.00     0.158 A 
ATOM     10  C   UNL     1     -48.640   3.408 114.318  1.00  0.00     0.062 A 
ATOM     11  C   UNL     1     -47.937   2.506 115.128  1.00  0.00     0.022 A 
ENDROOT
BRANCH   9  12
ATOM     12  O   UNL     1     -49.186   5.693 113.713  1.00  0.00    -0.504 OA
ATOM     13  H   UNL     1     -50.067   6.097 114.010  1.00  0.00     0.293 HD
ENDBRANCH   9  12
BRANCH   8  14
ATOM     14  O   UNL     1     -47.496   6.641 115.708  1.00  0.00    -0.504 OA
ATOM     15  H   UNL     1     -48.089   7.153 116.351  1.00  0.00     0.293 HD
ENDBRANCH   8  14
TORSDOF 2
ENDMDL
MODEL 5
REMARK VINA RESULT:    -5.394      2.443      4.279
REMARK INTER + INTRA:          -5.709
REMARK INTER:                  -5.709
REMARK INTRA:                   0.000
REMARK UNBOUND:                 0.000
REMARK SMILES O=c1ccc2cc(O)c(O)cc2o1
REMARK SMILES IDX 4 1 3 2 2 3 1 4 13 5 12 6 11 7 9 8 7 9 6 10 5 11 8 12 10 14
REMARK H PARENT 8 13 10 15
REMARK Flexibility Score: inf
ROOT
ATOM      1  C   UNL     1     -46.270   3.654 116.092  1.00  0.00     0.019 A 
ATOM      2  C   UNL     1     -46.911   4.791 115.600  1.00  0.00     0.094 A 
ATOM      3  C   UNL     1     -48.038   4.634 114.785  1.00  0.00     0.336 A 
ATOM      4  O   UNL     1     -48.630   5.647 114.331  1.00  0.00    -0.246 OA
ATOM      5  O   UNL     1     -48.489   3.419 114.486  1.00  0.00    -0.423 OA
ATOM      6  C   UNL     1     -47.908   2.309 114.935  1.00  0.00     0.142 A 
ATOM      7  C   UNL     1     -48.427   1.057 114.587  1.00  0.00     0.098 A 
ATOM      8  C   UNL     1     -47.818  -0.116 115.057  1.00  0.00     0.161 A 
ATOM      9  C   UNL     1     -46.684  -0.036 115.879  1.00  0.00     0.158 A 
ATOM     10  C   UNL     1     -46.158   1.216 116.231  1.00  0.00     0.062 A 
ATOM     11  C   UNL     1     -46.766   2.389 115.762  1.00  0.00     0.022 A 
ENDROOT
BRANCH   9  12
ATOM     12  O   UNL     1     -46.084  -1.206 116.342  1.00  0.00    -0.504 OA
ATOM     13  H   UNL     1     -45.077  -1.318 116.351  1.00  0.00     0.293 HD
ENDBRANCH   9  12
BRANCH   8  14
ATOM     14  O   UNL     1     -48.333  -1.363 114.712  1.00  0.00    -0.504 OA
ATOM     15  H   UNL     1     -49.186  -1.454 114.172  1.00  0.00     0.293 HD
ENDBRANCH   8  14
TORSDOF 2
ENDMDL
MODEL 6
REMARK VINA RESULT:    -5.377      2.513      2.979
REMARK INTER + INTRA:          -5.692
REMARK INTER:                  -5.692
REMARK INTRA:                   0.000
REMARK UNBOUND:                 0.000
REMARK SMILES O=c1ccc2cc(O)c(O)cc2o1
REMARK SMILES IDX 4 1 3 2 2 3 1 4 13 5 12 6 11 7 9 8 7 9 6 10 5 11 8 12 10 14
REMARK H PARENT 8 13 10 15
REMARK Flexibility Score: inf
ROOT
ATOM      1  C   UNL     1     -46.390   1.984 116.566  1.00  0.00     0.019 A 
ATOM      2  C   UNL     1     -46.614   0.640 116.269  1.00  0.00     0.094 A 
ATOM      3  C   UNL     1     -47.550   0.311 115.282  1.00  0.00     0.336 A 
ATOM      4  O   UNL     1     -47.766  -0.896 114.999  1.00  0.00    -0.246 OA
ATOM      5  O   UNL     1     -48.214   1.267 114.638  1.00  0.00    -0.423 OA
ATOM      6  C   UNL     1     -48.031   2.561 114.891  1.00  0.00     0.142 A 
ATOM      7  C   UNL     1     -48.760   3.522 114.183  1.00  0.00     0.098 A 
ATOM      8  C   UNL     1     -48.570   4.887 114.445  1.00  0.00     0.161 A 
ATOM      9  C   UNL     1     -47.648   5.292 115.422  1.00  0.00     0.158 A 
ATOM     10  C   UNL     1     -46.914   4.332 116.136  1.00  0.00     0.062 A 
ATOM     11  C   UNL     1     -47.103   2.969 115.874  1.00  0.00     0.022 A 
ENDROOT
BRANCH   9  12
ATOM     12  O   UNL     1     -47.466   6.650 115.677  1.00  0.00    -0.504 OA
ATOM     13  H   UNL     1     -48.121   7.346 115.341  1.00  0.00     0.293 HD
ENDBRANCH   9  12
BRANCH   8  14
ATOM     14  O   UNL     1     -49.294   5.846 113.741  1.00  0.00    -0.504 OA
ATOM     15  H   UNL     1     -49.566   6.725 114.167  1.00  0.00     0.293 HD
ENDBRANCH   8  14
TORSDOF 2
ENDMDL
MODEL 7
REMARK VINA RESULT:    -5.354      8.780      9.648
REMARK INTER + INTRA:          -5.667
REMARK INTER:                  -5.667
REMARK INTRA:                   0.000
REMARK UNBOUND:                 0.000
REMARK SMILES O=c1ccc2cc(O)c(O)cc2o1
REMARK SMILES IDX 4 1 3 2 2 3 1 4 13 5 12 6 11 7 9 8 7 9 6 10 5 11 8 12 10 14
REMARK H PARENT 8 13 10 15
REMARK Flexibility Score: inf
ROOT
ATOM      1  C   UNL     1     -36.100   0.520 118.074  1.00  0.00     0.019 A 
ATOM      2  C   UNL     1     -35.802   1.434 119.083  1.00  0.00     0.094 A 
ATOM      3  C   UNL     1     -36.688   2.491 119.323  1.00  0.00     0.336 A 
ATOM      4  O   UNL     1     -36.438   3.326 120.230  1.00  0.00    -0.246 OA
ATOM      5  O   UNL     1     -37.796   2.618 118.598  1.00  0.00    -0.423 OA
ATOM      6  C   UNL     1     -38.118   1.768 117.625  1.00  0.00     0.142 A 
ATOM      7  C   UNL     1     -39.296   1.954 116.895  1.00  0.00     0.098 A 
ATOM      8  C   UNL     1     -39.639   1.060 115.869  1.00  0.00     0.161 A 
ATOM      9  C   UNL     1     -38.799  -0.023 115.573  1.00  0.00     0.158 A 
ATOM     10  C   UNL     1     -37.615  -0.214 116.301  1.00  0.00     0.062 A 
ATOM     11  C   UNL     1     -37.272   0.678 117.326  1.00  0.00     0.022 A 
ENDROOT
BRANCH   9  12
ATOM     12  O   UNL     1     -39.146  -0.906 114.551  1.00  0.00    -0.504 OA
ATOM     13  H   UNL     1     -39.931  -1.540 114.642  1.00  0.00     0.293 HD
ENDBRANCH   9  12
BRANCH   8  14
ATOM     14  O   UNL     1     -40.812   1.242 115.141  1.00  0.00    -0.504 OA
ATOM     15  H   UNL     1     -40.865   1.017 114.154  1.00  0.00     0.293 HD
ENDBRANCH   8  14
TORSDOF 2
ENDMDL
MODEL 8
REMARK VINA RESULT:    -5.316     10.272     12.297
REMARK INTER + INTRA:          -5.626
REMARK INTER:                  -5.626
REMARK INTRA:                   0.000
REMARK UNBOUND:                 0.000
REMARK SMILES O=c1ccc2cc(O)c(O)cc2o1
REMARK SMILES IDX 4 1 3 2 2 3 1 4 13 5 12 6 11 7 9 8 7 9 6 10 5 11 8 12 10 14
REMARK H PARENT 8 13 10 15
REMARK Flexibility Score: inf
ROOT
ATOM      1  C   UNL     1     -35.519   1.183 118.652  1.00  0.00     0.019 A 
ATOM      2  C   UNL     1     -36.483   1.858 117.903  1.00  0.00     0.094 A 
ATOM      3  C   UNL     1     -37.806   1.404 117.936  1.00  0.00     0.336 A 
ATOM      4  O   UNL     1     -38.691   1.999 117.269  1.00  0.00    -0.246 OA
ATOM      5  O   UNL     1     -38.137   0.345 118.671  1.00  0.00    -0.423 OA
ATOM      6  C   UNL     1     -37.248  -0.327 119.399  1.00  0.00     0.142 A 
ATOM      7  C   UNL     1     -37.654  -1.434 120.152  1.00  0.00     0.098 A 
ATOM      8  C   UNL     1     -36.721  -2.146 120.921  1.00  0.00     0.161 A 
ATOM      9  C   UNL     1     -35.376  -1.748 120.937  1.00  0.00     0.158 A 
ATOM     10  C   UNL     1     -34.963  -0.639 120.183  1.00  0.00     0.062 A 
ATOM     11  C   UNL     1     -35.895   0.073 119.415  1.00  0.00     0.022 A 
ENDROOT
BRANCH   9  12
ATOM     12  O   UNL     1     -34.456  -2.460 121.703  1.00  0.00    -0.504 OA
ATOM     13  H   UNL     1     -34.057  -2.073 122.550  1.00  0.00     0.293 HD
ENDBRANCH   9  12
BRANCH   8  14
ATOM     14  O   UNL     1     -37.123  -3.248 121.672  1.00  0.00    -0.504 OA
ATOM     15  H   UNL     1     -36.449  -3.870 122.105  1.00  0.00     0.293 HD
ENDBRANCH   8  14
TORSDOF 2
ENDMDL
MODEL 9
REMARK VINA RESULT:    -5.302      9.151     10.324
REMARK INTER + INTRA:          -5.612
REMARK INTER:                  -5.612
REMARK INTRA:                   0.000
REMARK UNBOUND:                 0.000
REMARK SMILES O=c1ccc2cc(O)c(O)cc2o1
REMARK SMILES IDX 4 1 3 2 2 3 1 4 13 5 12 6 11 7 9 8 7 9 6 10 5 11 8 12 10 14
REMARK H PARENT 8 13 10 15
REMARK Flexibility Score: inf
ROOT
ATOM      1  C   UNL     1     -35.913   1.799 118.073  1.00  0.00     0.019 A 
ATOM      2  C   UNL     1     -36.547   0.557 118.094  1.00  0.00     0.094 A 
ATOM      3  C   UNL     1     -37.889   0.488 118.484  1.00  0.00     0.336 A 
ATOM      4  O   UNL     1     -38.479  -0.623 118.509  1.00  0.00    -0.246 OA
ATOM      5  O   UNL     1     -38.548   1.591 118.829  1.00  0.00    -0.423 OA
ATOM      6  C   UNL     1     -37.981   2.795 118.824  1.00  0.00     0.142 A 
ATOM      7  C   UNL     1     -38.724   3.920 119.198  1.00  0.00     0.098 A 
ATOM      8  C   UNL     1     -38.130   5.191 119.193  1.00  0.00     0.161 A 
ATOM      9  C   UNL     1     -36.788   5.337 118.814  1.00  0.00     0.158 A 
ATOM     10  C   UNL     1     -36.038   4.213 118.438  1.00  0.00     0.062 A 
ATOM     11  C   UNL     1     -36.630   2.942 118.442  1.00  0.00     0.022 A 
ENDROOT
BRANCH   9  12
ATOM     12  O   UNL     1     -36.206   6.604 118.813  1.00  0.00    -0.504 OA
ATOM     13  H   UNL     1     -35.714   6.961 118.002  1.00  0.00     0.293 HD
ENDBRANCH   9  12
BRANCH   8  14
ATOM     14  O   UNL     1     -38.868   6.313 119.565  1.00  0.00    -0.504 OA
ATOM     15  H   UNL     1     -39.599   6.688 118.972  1.00  0.00     0.293 HD
ENDBRANCH   8  14
TORSDOF 2
ENDMDL
