MODEL 1
REMARK VINA RESULT:    -4.241      0.000      0.000
REMARK INTER + INTRA:         -15.883
REMARK INTER:                 -10.686
REMARK INTRA:                  -5.196
REMARK UNBOUND:                -5.196
REMARK SMILES CCCCCCCCCCCCCCCCCCCCCCCCCCCC(=O)[O-]
REMARK SMILES IDX 15 1 16 2 17 3 18 4 19 5 20 6 21 7 22 8 23 9 24 10 25 11
REMARK SMILES IDX 26 12 27 13 28 14 29 15 30 16 14 17 13 18 12 19 11 20 10 21
REMARK SMILES IDX 9 22 8 23 7 24 6 25 5 26 4 27 3 28 2 29 1 30
REMARK H PARENT
REMARK Flexibility Score: inf
ROOT
ATOM      1  C   UNL     1       7.967  33.438  -2.087  1.00  0.00     0.000 C 
ENDROOT
BRANCH   1   2
ATOM      2  C   UNL     1       8.365  34.234  -0.835  1.00  0.00     0.000 C 
BRANCH   2   3
ATOM      3  C   UNL     1       9.882  34.185  -0.614  1.00  0.00     0.000 C 
BRANCH   3   4
ATOM      4  C   UNL     1      10.540  35.516  -0.999  1.00  0.00     0.000 C 
BRANCH   4   5
ATOM      5  C   UNL     1       9.490  36.625  -1.144  1.00  0.00     0.000 C 
BRANCH   5   6
ATOM      6  C   UNL     1      10.041  37.974  -0.659  1.00  0.00     0.000 C 
BRANCH   6   7
ATOM      7  C   UNL     1      11.289  37.819   0.225  1.00  0.00     0.000 C 
BRANCH   7   8
ATOM      8  C   UNL     1      11.010  38.147   1.703  1.00  0.00     0.000 C 
BRANCH   8   9
ATOM      9  C   UNL     1       9.542  38.529   1.957  1.00  0.00     0.000 C 
BRANCH   9  10
ATOM     10  C   UNL     1       9.390  39.956   2.505  1.00  0.00     0.000 C 
BRANCH  10  11
ATOM     11  C   UNL     1       8.027  40.135   3.191  1.00  0.00     0.000 C 
BRANCH  11  12
ATOM     12  C   UNL     1       7.463  38.815   3.751  1.00  0.00     0.006 C 
BRANCH  12  13
ATOM     13  C   UNL     1       6.338  38.997   4.784  1.00  0.00     0.053 C 
BRANCH  13  14
ATOM     14  C   UNL     1       5.059  38.353   4.343  1.00  0.00     0.041 C 
ATOM     15  O   UNL     1       4.297  38.945   3.534  1.00  0.00    -0.550 OA
ATOM     16  O   UNL     1       4.701  37.106   4.842  1.00  0.00    -0.550 OA
ENDBRANCH  13  14
ENDBRANCH  12  13
ENDBRANCH  11  12
ENDBRANCH  10  11
ENDBRANCH   9  10
ENDBRANCH   8   9
ENDBRANCH   7   8
ENDBRANCH   6   7
ENDBRANCH   5   6
ENDBRANCH   4   5
ENDBRANCH   3   4
ENDBRANCH   2   3
ENDBRANCH   1   2
BRANCH   1  17
ATOM     17  C   UNL     1       6.462  33.521  -2.398  1.00  0.00     0.000 C 
BRANCH  17  18
ATOM     18  C   UNL     1       5.892  34.951  -2.480  1.00  0.00     0.000 C 
BRANCH  18  19
ATOM     19  C   UNL     1       4.361  35.054  -2.320  1.00  0.00     0.000 C 
BRANCH  19  20
ATOM     20  C   UNL     1       3.815  36.489  -2.186  1.00  0.00     0.000 C 
BRANCH  20  21
ATOM     21  C   UNL     1       2.976  36.749  -0.919  1.00  0.00     0.000 C 
BRANCH  21  22
ATOM     22  C   UNL     1       3.052  35.645   0.155  1.00  0.00    -0.000 C 
BRANCH  22  23
ATOM     23  C   UNL     1       3.948  35.970   1.363  1.00  0.00    -0.000 C 
BRANCH  23  24
ATOM     24  C   UNL     1       5.379  35.434   1.206  1.00  0.00    -0.000 C 
BRANCH  24  25
ATOM     25  C   UNL     1       6.405  36.557   1.398  1.00  0.00    -0.000 C 
BRANCH  25  26
ATOM     26  C   UNL     1       6.516  37.428   0.138  1.00  0.00    -0.000 C 
BRANCH  26  27
ATOM     27  C   UNL     1       5.929  38.840   0.350  1.00  0.00    -0.000 C 
BRANCH  27  28
ATOM     28  C   UNL     1       6.280  39.832  -0.776  1.00  0.00    -0.000 C 
BRANCH  28  29
ATOM     29  C   UNL     1       7.022  41.097  -0.313  1.00  0.00    -0.003 C 
ATOM     30  C   UNL     1       6.294  42.386  -0.690  1.00  0.00     0.004 C 
ENDBRANCH  28  29
ENDBRANCH  27  28
ENDBRANCH  26  27
ENDBRANCH  25  26
ENDBRANCH  24  25
ENDBRANCH  23  24
ENDBRANCH  22  23
ENDBRANCH  21  22
ENDBRANCH  20  21
ENDBRANCH  19  20
ENDBRANCH  18  19
ENDBRANCH  17  18
ENDBRANCH   1  17
TORSDOF 26
ENDMDL
MODEL 2
REMARK VINA RESULT:    -4.223      2.554      4.991
REMARK INTER + INTRA:         -15.837
REMARK INTER:                 -10.586
REMARK INTRA:                  -5.251
REMARK UNBOUND:                -5.196
REMARK SMILES CCCCCCCCCCCCCCCCCCCCCCCCCCCC(=O)[O-]
REMARK SMILES IDX 15 1 16 2 17 3 18 4 19 5 20 6 21 7 22 8 23 9 24 10 25 11
REMARK SMILES IDX 26 12 27 13 28 14 29 15 30 16 14 17 13 18 12 19 11 20 10 21
REMARK SMILES IDX 9 22 8 23 7 24 6 25 5 26 4 27 3 28 2 29 1 30
REMARK H PARENT
REMARK Flexibility Score: inf
ROOT
ATOM      1  C   UNL     1       6.613  38.360  -1.191  1.00  0.00     0.000 C 
ENDROOT
BRANCH   1   2
ATOM      2  C   UNL     1       6.839  39.288   0.011  1.00  0.00     0.000 C 
BRANCH   2   3
ATOM      3  C   UNL     1       6.754  40.760  -0.410  1.00  0.00     0.000 C 
BRANCH   3   4
ATOM      4  C   UNL     1       7.949  41.558   0.127  1.00  0.00     0.000 C 
BRANCH   4   5
ATOM      5  C   UNL     1       9.166  40.649   0.336  1.00  0.00     0.000 C 
BRANCH   5   6
ATOM      6  C   UNL     1       9.821  40.907   1.701  1.00  0.00     0.000 C 
BRANCH   6   7
ATOM      7  C   UNL     1      10.381  39.627   2.340  1.00  0.00     0.000 C 
BRANCH   7   8
ATOM      8  C   UNL     1      10.415  38.443   1.357  1.00  0.00     0.000 C 
BRANCH   8   9
ATOM      9  C   UNL     1       9.924  37.132   1.992  1.00  0.00     0.000 C 
BRANCH   9  10
ATOM     10  C   UNL     1      10.337  35.892   1.185  1.00  0.00     0.000 C 
BRANCH  10  11
ATOM     11  C   UNL     1      10.436  36.223  -0.311  1.00  0.00     0.000 C 
BRANCH  11  12
ATOM     12  C   UNL     1       9.198  35.767  -1.107  1.00  0.00     0.006 C 
BRANCH  12  13
ATOM     13  C   UNL     1       8.384  34.654  -0.426  1.00  0.00     0.053 C 
BRANCH  13  14
ATOM     14  C   UNL     1       8.636  33.313  -1.043  1.00  0.00     0.041 C 
ATOM     15  O   UNL     1       9.361  32.470  -0.451  1.00  0.00    -0.550 OA
ATOM     16  O   UNL     1       8.085  33.001  -2.280  1.00  0.00    -0.550 OA
ENDBRANCH  13  14
ENDBRANCH  12  13
ENDBRANCH  11  12
ENDBRANCH  10  11
ENDBRANCH   9  10
ENDBRANCH   8   9
ENDBRANCH   7   8
ENDBRANCH   6   7
ENDBRANCH   5   6
ENDBRANCH   4   5
ENDBRANCH   3   4
ENDBRANCH   2   3
ENDBRANCH   1   2
BRANCH   1  17
ATOM     17  C   UNL     1       5.188  38.456  -1.764  1.00  0.00     0.000 C 
BRANCH  17  18
ATOM     18  C   UNL     1       4.808  37.338  -2.756  1.00  0.00     0.000 C 
BRANCH  18  19
ATOM     19  C   UNL     1       5.667  36.061  -2.660  1.00  0.00     0.000 C 
BRANCH  19  20
ATOM     20  C   UNL     1       5.016  34.895  -1.891  1.00  0.00     0.000 C 
BRANCH  20  21
ATOM     21  C   UNL     1       3.655  35.223  -1.244  1.00  0.00     0.000 C 
BRANCH  21  22
ATOM     22  C   UNL     1       3.702  35.508   0.270  1.00  0.00    -0.000 C 
BRANCH  22  23
ATOM     23  C   UNL     1       5.113  35.561   0.881  1.00  0.00    -0.000 C 
BRANCH  23  24
ATOM     24  C   UNL     1       5.243  36.613   1.992  1.00  0.00    -0.000 C 
BRANCH  24  25
ATOM     25  C   UNL     1       4.043  37.568   1.981  1.00  0.00    -0.000 C 
BRANCH  25  26
ATOM     26  C   UNL     1       3.833  38.209   3.361  1.00  0.00    -0.000 C 
BRANCH  26  27
ATOM     27  C   UNL     1       4.731  37.572   4.443  1.00  0.00    -0.000 C 
BRANCH  27  28
ATOM     28  C   UNL     1       5.643  38.583   5.165  1.00  0.00    -0.000 C 
BRANCH  28  29
ATOM     29  C   UNL     1       6.973  38.875   4.450  1.00  0.00    -0.003 C 
ATOM     30  C   UNL     1       6.994  40.243   3.769  1.00  0.00     0.004 C 
ENDBRANCH  28  29
ENDBRANCH  27  28
ENDBRANCH  26  27
ENDBRANCH  25  26
ENDBRANCH  24  25
ENDBRANCH  23  24
ENDBRANCH  22  23
ENDBRANCH  21  22
ENDBRANCH  20  21
ENDBRANCH  19  20
ENDBRANCH  18  19
ENDBRANCH  17  18
ENDBRANCH   1  17
TORSDOF 26
ENDMDL
MODEL 3
REMARK VINA RESULT:    -4.212      2.214      5.151
REMARK INTER + INTRA:         -15.811
REMARK INTER:                 -10.843
REMARK INTRA:                  -4.968
REMARK UNBOUND:                -5.196
REMARK SMILES CCCCCCCCCCCCCCCCCCCCCCCCCCCC(=O)[O-]
REMARK SMILES IDX 15 1 16 2 17 3 18 4 19 5 20 6 21 7 22 8 23 9 24 10 25 11
REMARK SMILES IDX 26 12 27 13 28 14 29 15 30 16 14 17 13 18 12 19 11 20 10 21
REMARK SMILES IDX 9 22 8 23 7 24 6 25 5 26 4 27 3 28 2 29 1 30
REMARK H PARENT
REMARK Flexibility Score: inf
ROOT
ATOM      1  C   UNL     1       5.273  37.386  -2.594  1.00  0.00     0.000 C 
ENDROOT
BRANCH   1   2
ATOM      2  C   UNL     1       4.022  36.742  -1.981  1.00  0.00     0.000 C 
BRANCH   2   3
ATOM      3  C   UNL     1       3.985  35.235  -2.267  1.00  0.00     0.000 C 
BRANCH   3   4
ATOM      4  C   UNL     1       5.103  34.502  -1.515  1.00  0.00     0.000 C 
BRANCH   4   5
ATOM      5  C   UNL     1       6.084  33.847  -2.495  1.00  0.00     0.000 C 
BRANCH   5   6
ATOM      6  C   UNL     1       7.516  34.352  -2.262  1.00  0.00     0.000 C 
BRANCH   6   7
ATOM      7  C   UNL     1       8.337  33.409  -1.368  1.00  0.00     0.000 C 
BRANCH   7   8
ATOM      8  C   UNL     1       8.718  34.054  -0.023  1.00  0.00     0.000 C 
BRANCH   8   9
ATOM      9  C   UNL     1       9.828  35.108  -0.166  1.00  0.00     0.000 C 
BRANCH   9  10
ATOM     10  C   UNL     1      10.052  35.909   1.125  1.00  0.00     0.000 C 
BRANCH  10  11
ATOM     11  C   UNL     1      10.697  37.269   0.819  1.00  0.00     0.000 C 
BRANCH  11  12
ATOM     12  C   UNL     1      10.331  37.803  -0.579  1.00  0.00     0.006 C 
BRANCH  12  13
ATOM     13  C   UNL     1      11.023  39.125  -0.951  1.00  0.00     0.053 C 
BRANCH  13  14
ATOM     14  C   UNL     1      10.184  40.316  -0.607  1.00  0.00     0.041 C 
ATOM     15  O   UNL     1       8.948  40.184  -0.399  1.00  0.00    -0.550 OA
ATOM     16  O   UNL     1      10.763  41.578  -0.533  1.00  0.00    -0.550 OA
ENDBRANCH  13  14
ENDBRANCH  12  13
ENDBRANCH  11  12
ENDBRANCH  10  11
ENDBRANCH   9  10
ENDBRANCH   8   9
ENDBRANCH   7   8
ENDBRANCH   6   7
ENDBRANCH   5   6
ENDBRANCH   4   5
ENDBRANCH   3   4
ENDBRANCH   2   3
ENDBRANCH   1   2
BRANCH   1  17
ATOM     17  C   UNL     1       5.869  38.498  -1.713  1.00  0.00     0.000 C 
BRANCH  17  18
ATOM     18  C   UNL     1       5.014  38.889  -0.491  1.00  0.00     0.000 C 
BRANCH  18  19
ATOM     19  C   UNL     1       5.690  38.663   0.877  1.00  0.00     0.000 C 
BRANCH  19  20
ATOM     20  C   UNL     1       6.691  37.492   0.923  1.00  0.00     0.000 C 
BRANCH  20  21
ATOM     21  C   UNL     1       6.107  36.160   1.436  1.00  0.00     0.000 C 
BRANCH  21  22
ATOM     22  C   UNL     1       4.605  36.194   1.783  1.00  0.00    -0.000 C 
BRANCH  22  23
ATOM     23  C   UNL     1       4.275  35.974   3.270  1.00  0.00    -0.000 C 
BRANCH  23  24
ATOM     24  C   UNL     1       3.788  37.253   3.968  1.00  0.00    -0.000 C 
BRANCH  24  25
ATOM     25  C   UNL     1       4.794  37.710   5.032  1.00  0.00    -0.000 C 
BRANCH  25  26
ATOM     26  C   UNL     1       5.413  39.066   4.663  1.00  0.00    -0.000 C 
BRANCH  26  27
ATOM     27  C   UNL     1       6.954  39.051   4.761  1.00  0.00    -0.000 C 
BRANCH  27  28
ATOM     28  C   UNL     1       7.642  40.099   3.866  1.00  0.00    -0.000 C 
BRANCH  28  29
ATOM     29  C   UNL     1       8.762  39.546   2.969  1.00  0.00    -0.003 C 
ATOM     30  C   UNL     1       9.999  40.443   2.941  1.00  0.00     0.004 C 
ENDBRANCH  28  29
ENDBRANCH  27  28
ENDBRANCH  26  27
ENDBRANCH  25  26
ENDBRANCH  24  25
ENDBRANCH  23  24
ENDBRANCH  22  23
ENDBRANCH  21  22
ENDBRANCH  20  21
ENDBRANCH  19  20
ENDBRANCH  18  19
ENDBRANCH  17  18
ENDBRANCH   1  17
TORSDOF 26
ENDMDL
MODEL 4
REMARK VINA RESULT:    -4.204      1.459      4.489
REMARK INTER + INTRA:         -15.789
REMARK INTER:                 -10.672
REMARK INTRA:                  -5.117
REMARK UNBOUND:                -5.196
REMARK SMILES CCCCCCCCCCCCCCCCCCCCCCCCCCCC(=O)[O-]
REMARK SMILES IDX 15 1 16 2 17 3 18 4 19 5 20 6 21 7 22 8 23 9 24 10 25 11
REMARK SMILES IDX 26 12 27 13 28 14 29 15 30 16 14 17 13 18 12 19 11 20 10 21
REMARK SMILES IDX 9 22 8 23 7 24 6 25 5 26 4 27 3 28 2 29 1 30
REMARK H PARENT
REMARK Flexibility Score: inf
ROOT
ATOM      1  C   UNL     1       5.421  38.530  -1.710  1.00  0.00     0.000 C 
ENDROOT
BRANCH   1   2
ATOM      2  C   UNL     1       3.993  38.807  -1.220  1.00  0.00     0.000 C 
BRANCH   2   3
ATOM      3  C   UNL     1       3.874  38.564   0.290  1.00  0.00     0.000 C 
BRANCH   3   4
ATOM      4  C   UNL     1       2.919  37.401   0.589  1.00  0.00     0.000 C 
BRANCH   4   5
ATOM      5  C   UNL     1       3.697  36.146   1.003  1.00  0.00     0.000 C 
BRANCH   5   6
ATOM      6  C   UNL     1       4.948  36.515   1.816  1.00  0.00     0.000 C 
BRANCH   6   7
ATOM      7  C   UNL     1       6.204  35.770   1.337  1.00  0.00     0.000 C 
BRANCH   7   8
ATOM      8  C   UNL     1       7.295  36.725   0.819  1.00  0.00     0.000 C 
BRANCH   8   9
ATOM      9  C   UNL     1       7.232  38.111   1.482  1.00  0.00     0.000 C 
BRANCH   9  10
ATOM     10  C   UNL     1       8.223  38.255   2.646  1.00  0.00     0.000 C 
BRANCH  10  11
ATOM     11  C   UNL     1       7.935  39.530   3.454  1.00  0.00     0.000 C 
BRANCH  11  12
ATOM     12  C   UNL     1       7.097  39.259   4.718  1.00  0.00     0.006 C 
BRANCH  12  13
ATOM     13  C   UNL     1       5.645  39.758   4.632  1.00  0.00     0.053 C 
BRANCH  13  14
ATOM     14  C   UNL     1       4.658  38.634   4.684  1.00  0.00     0.041 C 
ATOM     15  O   UNL     1       3.521  38.762   4.157  1.00  0.00    -0.550 OA
ATOM     16  O   UNL     1       4.987  37.448   5.331  1.00  0.00    -0.550 OA
ENDBRANCH  13  14
ENDBRANCH  12  13
ENDBRANCH  11  12
ENDBRANCH  10  11
ENDBRANCH   9  10
ENDBRANCH   8   9
ENDBRANCH   7   8
ENDBRANCH   6   7
ENDBRANCH   5   6
ENDBRANCH   4   5
ENDBRANCH   3   4
ENDBRANCH   2   3
ENDBRANCH   1   2
BRANCH   1  17
ATOM     17  C   UNL     1       5.561  37.168  -2.412  1.00  0.00     0.000 C 
BRANCH  17  18
ATOM     18  C   UNL     1       4.243  36.570  -2.943  1.00  0.00     0.000 C 
BRANCH  18  19
ATOM     19  C   UNL     1       3.871  35.191  -2.362  1.00  0.00     0.000 C 
BRANCH  19  20
ATOM     20  C   UNL     1       5.058  34.374  -1.813  1.00  0.00     0.000 C 
BRANCH  20  21
ATOM     21  C   UNL     1       5.681  33.381  -2.815  1.00  0.00     0.000 C 
BRANCH  21  22
ATOM     22  C   UNL     1       7.222  33.394  -2.877  1.00  0.00    -0.000 C 
BRANCH  22  23
ATOM     23  C   UNL     1       7.911  34.233  -1.786  1.00  0.00    -0.000 C 
BRANCH  23  24
ATOM     24  C   UNL     1       8.675  33.374  -0.767  1.00  0.00    -0.000 C 
BRANCH  24  25
ATOM     25  C   UNL     1       9.716  34.214  -0.018  1.00  0.00    -0.000 C 
BRANCH  25  26
ATOM     26  C   UNL     1      10.724  34.843  -0.992  1.00  0.00    -0.000 C 
BRANCH  26  27
ATOM     27  C   UNL     1      11.287  36.182  -0.466  1.00  0.00    -0.000 C 
BRANCH  27  28
ATOM     28  C   UNL     1      10.473  37.413  -0.910  1.00  0.00    -0.000 C 
BRANCH  28  29
ATOM     29  C   UNL     1      10.727  38.685  -0.085  1.00  0.00    -0.003 C 
ATOM     30  C   UNL     1      10.679  39.960  -0.927  1.00  0.00     0.004 C 
ENDBRANCH  28  29
ENDBRANCH  27  28
ENDBRANCH  26  27
ENDBRANCH  25  26
ENDBRANCH  24  25
ENDBRANCH  23  24
ENDBRANCH  22  23
ENDBRANCH  21  22
ENDBRANCH  20  21
ENDBRANCH  19  20
ENDBRANCH  18  19
ENDBRANCH  17  18
ENDBRANCH   1  17
TORSDOF 26
ENDMDL
MODEL 5
REMARK VINA RESULT:    -4.165      1.661      5.001
REMARK INTER + INTRA:         -15.691
REMARK INTER:                 -10.139
REMARK INTRA:                  -5.552
REMARK UNBOUND:                -5.196
REMARK SMILES CCCCCCCCCCCCCCCCCCCCCCCCCCCC(=O)[O-]
REMARK SMILES IDX 15 1 16 2 17 3 18 4 19 5 20 6 21 7 22 8 23 9 24 10 25 11
REMARK SMILES IDX 26 12 27 13 28 14 29 15 30 16 14 17 13 18 12 19 11 20 10 21
REMARK SMILES IDX 9 22 8 23 7 24 6 25 5 26 4 27 3 28 2 29 1 30
REMARK H PARENT
REMARK Flexibility Score: inf
ROOT
ATOM      1  C   UNL     1       6.553  38.120  -0.706  1.00  0.00     0.000 C 
ENDROOT
BRANCH   1   2
ATOM      2  C   UNL     1       6.040  37.864   0.719  1.00  0.00     0.000 C 
BRANCH   2   3
ATOM      3  C   UNL     1       6.661  36.590   1.304  1.00  0.00     0.000 C 
BRANCH   3   4
ATOM      4  C   UNL     1       5.588  35.691   1.932  1.00  0.00     0.000 C 
BRANCH   4   5
ATOM      5  C   UNL     1       4.385  36.519   2.401  1.00  0.00     0.000 C 
BRANCH   5   6
ATOM      6  C   UNL     1       4.058  36.232   3.875  1.00  0.00     0.000 C 
BRANCH   6   7
ATOM      7  C   UNL     1       4.186  37.480   4.762  1.00  0.00     0.000 C 
BRANCH   7   8
ATOM      8  C   UNL     1       4.212  38.785   3.946  1.00  0.00     0.000 C 
BRANCH   8   9
ATOM      9  C   UNL     1       5.413  39.679   4.298  1.00  0.00     0.000 C 
BRANCH   9  10
ATOM     10  C   UNL     1       6.637  38.871   4.754  1.00  0.00     0.000 C 
BRANCH  10  11
ATOM     11  C   UNL     1       7.781  38.991   3.736  1.00  0.00     0.000 C 
BRANCH  11  12
ATOM     12  C   UNL     1       8.027  40.443   3.282  1.00  0.00     0.006 C 
BRANCH  12  13
ATOM     13  C   UNL     1       8.385  40.587   1.794  1.00  0.00     0.053 C 
BRANCH  13  14
ATOM     14  C   UNL     1       7.445  41.504   1.074  1.00  0.00     0.041 C 
ATOM     15  O   UNL     1       7.893  42.413   0.327  1.00  0.00    -0.550 OA
ATOM     16  O   UNL     1       6.072  41.365   1.243  1.00  0.00    -0.550 OA
ENDBRANCH  13  14
ENDBRANCH  12  13
ENDBRANCH  11  12
ENDBRANCH  10  11
ENDBRANCH   9  10
ENDBRANCH   8   9
ENDBRANCH   7   8
ENDBRANCH   6   7
ENDBRANCH   5   6
ENDBRANCH   4   5
ENDBRANCH   3   4
ENDBRANCH   2   3
ENDBRANCH   1   2
BRANCH   1  17
ATOM     17  C   UNL     1       5.437  38.537  -1.680  1.00  0.00     0.000 C 
BRANCH  17  18
ATOM     18  C   UNL     1       4.850  37.390  -2.528  1.00  0.00     0.000 C 
BRANCH  18  19
ATOM     19  C   UNL     1       3.723  36.586  -1.848  1.00  0.00     0.000 C 
BRANCH  19  20
ATOM     20  C   UNL     1       4.165  35.252  -1.216  1.00  0.00     0.000 C 
BRANCH  20  21
ATOM     21  C   UNL     1       4.351  34.091  -2.214  1.00  0.00     0.000 C 
BRANCH  21  22
ATOM     22  C   UNL     1       5.816  33.743  -2.546  1.00  0.00    -0.000 C 
BRANCH  22  23
ATOM     23  C   UNL     1       6.868  34.438  -1.664  1.00  0.00    -0.000 C 
BRANCH  23  24
ATOM     24  C   UNL     1       8.038  33.514  -1.292  1.00  0.00    -0.000 C 
BRANCH  24  25
ATOM     25  C   UNL     1       9.010  34.223  -0.341  1.00  0.00    -0.000 C 
BRANCH  25  26
ATOM     26  C   UNL     1      10.416  34.311  -0.953  1.00  0.00    -0.000 C 
BRANCH  26  27
ATOM     27  C   UNL     1      11.091  35.671  -0.674  1.00  0.00    -0.000 C 
BRANCH  27  28
ATOM     28  C   UNL     1      10.173  36.882  -0.930  1.00  0.00    -0.000 C 
BRANCH  28  29
ATOM     29  C   UNL     1      10.063  37.868   0.245  1.00  0.00    -0.003 C 
ATOM     30  C   UNL     1      10.329  37.211   1.599  1.00  0.00     0.004 C 
ENDBRANCH  28  29
ENDBRANCH  27  28
ENDBRANCH  26  27
ENDBRANCH  25  26
ENDBRANCH  24  25
ENDBRANCH  23  24
ENDBRANCH  22  23
ENDBRANCH  21  22
ENDBRANCH  20  21
ENDBRANCH  19  20
ENDBRANCH  18  19
ENDBRANCH  17  18
ENDBRANCH   1  17
TORSDOF 26
ENDMDL
MODEL 6
REMARK VINA RESULT:    -4.138      2.304      4.636
REMARK INTER + INTRA:         -15.625
REMARK INTER:                  -9.541
REMARK INTRA:                  -6.084
REMARK UNBOUND:                -5.196
REMARK SMILES CCCCCCCCCCCCCCCCCCCCCCCCCCCC(=O)[O-]
REMARK SMILES IDX 15 1 16 2 17 3 18 4 19 5 20 6 21 7 22 8 23 9 24 10 25 11
REMARK SMILES IDX 26 12 27 13 28 14 29 15 30 16 14 17 13 18 12 19 11 20 10 21
REMARK SMILES IDX 9 22 8 23 7 24 6 25 5 26 4 27 3 28 2 29 1 30
REMARK H PARENT
REMARK Flexibility Score: inf
ROOT
ATOM      1  C   UNL     1       6.896  36.620  -2.032  1.00  0.00     0.000 C 
ENDROOT
BRANCH   1   2
ATOM      2  C   UNL     1       6.775  38.008  -1.387  1.00  0.00     0.000 C 
BRANCH   2   3
ATOM      3  C   UNL     1       5.457  38.684  -1.783  1.00  0.00     0.000 C 
BRANCH   3   4
ATOM      4  C   UNL     1       5.165  39.894  -0.887  1.00  0.00     0.000 C 
BRANCH   4   5
ATOM      5  C   UNL     1       6.222  40.026   0.217  1.00  0.00     0.000 C 
BRANCH   5   6
ATOM      6  C   UNL     1       6.221  41.441   0.815  1.00  0.00     0.000 C 
BRANCH   6   7
ATOM      7  C   UNL     1       6.166  41.433   2.351  1.00  0.00     0.000 C 
BRANCH   7   8
ATOM      8  C   UNL     1       5.329  40.266   2.906  1.00  0.00     0.000 C 
BRANCH   8   9
ATOM      9  C   UNL     1       6.100  39.421   3.932  1.00  0.00     0.000 C 
BRANCH   9  10
ATOM     10  C   UNL     1       7.621  39.603   3.824  1.00  0.00     0.000 C 
BRANCH  10  11
ATOM     11  C   UNL     1       8.238  38.522   2.924  1.00  0.00     0.000 C 
BRANCH  11  12
ATOM     12  C   UNL     1       9.517  38.999   2.209  1.00  0.00     0.006 C 
BRANCH  12  13
ATOM     13  C   UNL     1       9.915  40.449   2.527  1.00  0.00     0.053 C 
BRANCH  13  14
ATOM     14  C   UNL     1       9.925  41.312   1.303  1.00  0.00     0.041 C 
ATOM     15  O   UNL     1       9.711  42.550   1.397  1.00  0.00    -0.550 OA
ATOM     16  O   UNL     1      10.152  40.746   0.054  1.00  0.00    -0.550 OA
ENDBRANCH  13  14
ENDBRANCH  12  13
ENDBRANCH  11  12
ENDBRANCH  10  11
ENDBRANCH   9  10
ENDBRANCH   8   9
ENDBRANCH   7   8
ENDBRANCH   6   7
ENDBRANCH   5   6
ENDBRANCH   4   5
ENDBRANCH   3   4
ENDBRANCH   2   3
ENDBRANCH   1   2
BRANCH   1  17
ATOM     17  C   UNL     1       5.549  36.072  -2.535  1.00  0.00     0.000 C 
BRANCH  17  18
ATOM     18  C   UNL     1       5.254  34.609  -2.146  1.00  0.00     0.000 C 
BRANCH  18  19
ATOM     19  C   UNL     1       3.790  34.320  -1.758  1.00  0.00     0.000 C 
BRANCH  19  20
ATOM     20  C   UNL     1       3.069  35.471  -1.029  1.00  0.00     0.000 C 
BRANCH  20  21
ATOM     21  C   UNL     1       3.314  35.530   0.493  1.00  0.00     0.000 C 
BRANCH  21  22
ATOM     22  C   UNL     1       3.997  36.817   0.997  1.00  0.00    -0.000 C 
BRANCH  22  23
ATOM     23  C   UNL     1       5.336  36.603   1.724  1.00  0.00    -0.000 C 
BRANCH  23  24
ATOM     24  C   UNL     1       6.002  35.267   1.364  1.00  0.00    -0.000 C 
BRANCH  24  25
ATOM     25  C   UNL     1       7.521  35.433   1.233  1.00  0.00    -0.000 C 
BRANCH  25  26
ATOM     26  C   UNL     1       8.124  34.330   0.350  1.00  0.00    -0.000 C 
BRANCH  26  27
ATOM     27  C   UNL     1       9.558  34.671  -0.113  1.00  0.00    -0.000 C 
BRANCH  27  28
ATOM     28  C   UNL     1      10.094  35.998   0.458  1.00  0.00    -0.000 C 
BRANCH  28  29
ATOM     29  C   UNL     1      10.696  36.953  -0.586  1.00  0.00    -0.003 C 
ATOM     30  C   UNL     1      12.090  37.448  -0.205  1.00  0.00     0.004 C 
ENDBRANCH  28  29
ENDBRANCH  27  28
ENDBRANCH  26  27
ENDBRANCH  25  26
ENDBRANCH  24  25
ENDBRANCH  23  24
ENDBRANCH  22  23
ENDBRANCH  21  22
ENDBRANCH  20  21
ENDBRANCH  19  20
ENDBRANCH  18  19
ENDBRANCH  17  18
ENDBRANCH   1  17
TORSDOF 26
ENDMDL
MODEL 7
REMARK VINA RESULT:    -4.137      2.114      5.523
REMARK INTER + INTRA:         -15.622
REMARK INTER:                 -10.290
REMARK INTRA:                  -5.332
REMARK UNBOUND:                -5.196
REMARK SMILES CCCCCCCCCCCCCCCCCCCCCCCCCCCC(=O)[O-]
REMARK SMILES IDX 15 1 16 2 17 3 18 4 19 5 20 6 21 7 22 8 23 9 24 10 25 11
REMARK SMILES IDX 26 12 27 13 28 14 29 15 30 16 14 17 13 18 12 19 11 20 10 21
REMARK SMILES IDX 9 22 8 23 7 24 6 25 5 26 4 27 3 28 2 29 1 30
REMARK H PARENT
REMARK Flexibility Score: inf
ROOT
ATOM      1  C   UNL     1       7.971  36.334   1.225  1.00  0.00     0.000 C 
ENDROOT
BRANCH   1   2
ATOM      2  C   UNL     1       6.560  36.939   1.211  1.00  0.00     0.000 C 
BRANCH   2   3
ATOM      3  C   UNL     1       5.566  36.030   1.944  1.00  0.00     0.000 C 
BRANCH   3   4
ATOM      4  C   UNL     1       4.118  36.433   1.636  1.00  0.00     0.000 C 
BRANCH   4   5
ATOM      5  C   UNL     1       3.987  37.956   1.514  1.00  0.00     0.000 C 
BRANCH   5   6
ATOM      6  C   UNL     1       3.085  38.523   2.620  1.00  0.00     0.000 C 
BRANCH   6   7
ATOM      7  C   UNL     1       3.806  39.558   3.497  1.00  0.00     0.000 C 
BRANCH   7   8
ATOM      8  C   UNL     1       4.094  39.033   4.915  1.00  0.00     0.000 C 
BRANCH   8   9
ATOM      9  C   UNL     1       5.435  38.286   5.008  1.00  0.00     0.000 C 
BRANCH   9  10
ATOM     10  C   UNL     1       6.639  39.238   5.051  1.00  0.00     0.000 C 
BRANCH  10  11
ATOM     11  C   UNL     1       7.561  39.008   3.844  1.00  0.00     0.000 C 
BRANCH  11  12
ATOM     12  C   UNL     1       7.651  40.238   2.920  1.00  0.00     0.006 C 
BRANCH  12  13
ATOM     13  C   UNL     1       9.068  40.819   2.779  1.00  0.00     0.053 C 
BRANCH  13  14
ATOM     14  C   UNL     1       9.312  41.384   1.413  1.00  0.00     0.041 C 
ATOM     15  O   UNL     1       8.744  40.881   0.408  1.00  0.00    -0.550 OA
ATOM     16  O   UNL     1      10.182  42.455   1.249  1.00  0.00    -0.550 OA
ENDBRANCH  13  14
ENDBRANCH  12  13
ENDBRANCH  11  12
ENDBRANCH  10  11
ENDBRANCH   9  10
ENDBRANCH   8   9
ENDBRANCH   7   8
ENDBRANCH   6   7
ENDBRANCH   5   6
ENDBRANCH   4   5
ENDBRANCH   3   4
ENDBRANCH   2   3
ENDBRANCH   1   2
BRANCH   1  17
ATOM     17  C   UNL     1       9.074  37.374   0.961  1.00  0.00     0.000 C 
BRANCH  17  18
ATOM     18  C   UNL     1       9.433  37.580  -0.524  1.00  0.00     0.000 C 
BRANCH  18  19
ATOM     19  C   UNL     1       9.462  36.293  -1.373  1.00  0.00     0.000 C 
BRANCH  19  20
ATOM     20  C   UNL     1      10.633  35.338  -1.068  1.00  0.00     0.000 C 
BRANCH  20  21
ATOM     21  C   UNL     1      10.263  33.841  -1.052  1.00  0.00     0.000 C 
BRANCH  21  22
ATOM     22  C   UNL     1       8.751  33.541  -1.022  1.00  0.00    -0.000 C 
BRANCH  22  23
ATOM     23  C   UNL     1       8.165  33.014  -2.344  1.00  0.00    -0.000 C 
BRANCH  23  24
ATOM     24  C   UNL     1       6.757  33.556  -2.630  1.00  0.00    -0.000 C 
BRANCH  24  25
ATOM     25  C   UNL     1       6.278  34.459  -1.486  1.00  0.00    -0.000 C 
BRANCH  25  26
ATOM     26  C   UNL     1       4.765  34.709  -1.575  1.00  0.00    -0.000 C 
BRANCH  26  27
ATOM     27  C   UNL     1       4.424  35.903  -2.494  1.00  0.00    -0.000 C 
BRANCH  27  28
ATOM     28  C   UNL     1       5.486  37.019  -2.480  1.00  0.00    -0.000 C 
BRANCH  28  29
ATOM     29  C   UNL     1       4.995  38.370  -1.936  1.00  0.00    -0.003 C 
ATOM     30  C   UNL     1       6.120  39.218  -1.345  1.00  0.00     0.004 C 
ENDBRANCH  28  29
ENDBRANCH  27  28
ENDBRANCH  26  27
ENDBRANCH  25  26
ENDBRANCH  24  25
ENDBRANCH  23  24
ENDBRANCH  22  23
ENDBRANCH  21  22
ENDBRANCH  20  21
ENDBRANCH  19  20
ENDBRANCH  18  19
ENDBRANCH  17  18
ENDBRANCH   1  17
TORSDOF 26
ENDMDL
MODEL 8
REMARK VINA RESULT:    -4.120      1.661      4.795
REMARK INTER + INTRA:         -15.579
REMARK INTER:                 -10.688
REMARK INTRA:                  -4.892
REMARK UNBOUND:                -5.196
REMARK SMILES CCCCCCCCCCCCCCCCCCCCCCCCCCCC(=O)[O-]
REMARK SMILES IDX 15 1 16 2 17 3 18 4 19 5 20 6 21 7 22 8 23 9 24 10 25 11
REMARK SMILES IDX 26 12 27 13 28 14 29 15 30 16 14 17 13 18 12 19 11 20 10 21
REMARK SMILES IDX 9 22 8 23 7 24 6 25 5 26 4 27 3 28 2 29 1 30
REMARK H PARENT
REMARK Flexibility Score: inf
ROOT
ATOM      1  C   UNL     1       3.870  35.706  -2.510  1.00  0.00     0.000 C 
ENDROOT
BRANCH   1   2
ATOM      2  C   UNL     1       3.291  36.698  -1.492  1.00  0.00     0.000 C 
BRANCH   2   3
ATOM      3  C   UNL     1       4.200  37.924  -1.343  1.00  0.00     0.000 C 
BRANCH   3   4
ATOM      4  C   UNL     1       5.532  37.717  -2.075  1.00  0.00     0.000 C 
BRANCH   4   5
ATOM      5  C   UNL     1       6.703  37.681  -1.085  1.00  0.00     0.000 C 
BRANCH   5   6
ATOM      6  C   UNL     1       6.204  37.795   0.363  1.00  0.00     0.000 C 
BRANCH   6   7
ATOM      7  C   UNL     1       6.540  36.553   1.204  1.00  0.00     0.000 C 
BRANCH   7   8
ATOM      8  C   UNL     1       5.300  35.692   1.507  1.00  0.00     0.000 C 
BRANCH   8   9
ATOM      9  C   UNL     1       4.184  36.488   2.203  1.00  0.00     0.000 C 
BRANCH   9  10
ATOM     10  C   UNL     1       4.431  36.657   3.710  1.00  0.00     0.000 C 
BRANCH  10  11
ATOM     11  C   UNL     1       4.407  38.142   4.103  1.00  0.00     0.000 C 
BRANCH  11  12
ATOM     12  C   UNL     1       5.626  38.554   4.950  1.00  0.00     0.006 C 
BRANCH  12  13
ATOM     13  C   UNL     1       6.931  38.702   4.150  1.00  0.00     0.053 C 
BRANCH  13  14
ATOM     14  C   UNL     1       7.185  40.120   3.742  1.00  0.00     0.041 C 
ATOM     15  O   UNL     1       7.994  40.832   4.394  1.00  0.00    -0.550 OA
ATOM     16  O   UNL     1       6.513  40.662   2.653  1.00  0.00    -0.550 OA
ENDBRANCH  13  14
ENDBRANCH  12  13
ENDBRANCH  11  12
ENDBRANCH  10  11
ENDBRANCH   9  10
ENDBRANCH   8   9
ENDBRANCH   7   8
ENDBRANCH   6   7
ENDBRANCH   5   6
ENDBRANCH   4   5
ENDBRANCH   3   4
ENDBRANCH   2   3
ENDBRANCH   1   2
BRANCH   1  17
ATOM     17  C   UNL     1       4.346  34.392  -1.865  1.00  0.00     0.000 C 
BRANCH  17  18
ATOM     18  C   UNL     1       5.665  33.828  -2.430  1.00  0.00     0.000 C 
BRANCH  18  19
ATOM     19  C   UNL     1       6.917  34.122  -1.579  1.00  0.00     0.000 C 
BRANCH  19  20
ATOM     20  C   UNL     1       8.138  33.233  -1.890  1.00  0.00     0.000 C 
BRANCH  20  21
ATOM     21  C   UNL     1       9.241  33.246  -0.813  1.00  0.00     0.000 C 
BRANCH  21  22
ATOM     22  C   UNL     1      10.616  33.755  -1.290  1.00  0.00    -0.000 C 
BRANCH  22  23
ATOM     23  C   UNL     1      10.965  35.191  -0.861  1.00  0.00    -0.000 C 
BRANCH  23  24
ATOM     24  C   UNL     1       9.871  35.838   0.002  1.00  0.00    -0.000 C 
BRANCH  24  25
ATOM     25  C   UNL     1      10.359  36.032   1.443  1.00  0.00    -0.000 C 
BRANCH  25  26
ATOM     26  C   UNL     1      10.127  37.475   1.915  1.00  0.00    -0.000 C 
BRANCH  26  27
ATOM     27  C   UNL     1       9.929  38.451   0.735  1.00  0.00    -0.000 C 
BRANCH  27  28
ATOM     28  C   UNL     1       9.813  39.927   1.164  1.00  0.00    -0.000 C 
BRANCH  28  29
ATOM     29  C   UNL     1       9.613  40.921   0.008  1.00  0.00    -0.003 C 
ATOM     30  C   UNL     1      10.737  40.864  -1.026  1.00  0.00     0.004 C 
ENDBRANCH  28  29
ENDBRANCH  27  28
ENDBRANCH  26  27
ENDBRANCH  25  26
ENDBRANCH  24  25
ENDBRANCH  23  24
ENDBRANCH  22  23
ENDBRANCH  21  22
ENDBRANCH  20  21
ENDBRANCH  19  20
ENDBRANCH  18  19
ENDBRANCH  17  18
ENDBRANCH   1  17
TORSDOF 26
ENDMDL
MODEL 9
REMARK VINA RESULT:    -4.113      2.959      6.348
REMARK INTER + INTRA:         -15.562
REMARK INTER:                 -10.532
REMARK INTRA:                  -5.030
REMARK UNBOUND:                -5.196
REMARK SMILES CCCCCCCCCCCCCCCCCCCCCCCCCCCC(=O)[O-]
REMARK SMILES IDX 15 1 16 2 17 3 18 4 19 5 20 6 21 7 22 8 23 9 24 10 25 11
REMARK SMILES IDX 26 12 27 13 28 14 29 15 30 16 14 17 13 18 12 19 11 20 10 21
REMARK SMILES IDX 9 22 8 23 7 24 6 25 5 26 4 27 3 28 2 29 1 30
REMARK H PARENT
REMARK Flexibility Score: inf
ROOT
ATOM      1  C   UNL     1      10.468  40.702  -0.603  1.00  0.00     0.000 C 
ENDROOT
BRANCH   1   2
ATOM      2  C   UNL     1      11.015  39.326  -1.008  1.00  0.00     0.000 C 
BRANCH   2   3
ATOM      3  C   UNL     1      10.613  38.254   0.012  1.00  0.00     0.000 C 
BRANCH   3   4
ATOM      4  C   UNL     1       9.592  37.277  -0.585  1.00  0.00     0.000 C 
BRANCH   4   5
ATOM      5  C   UNL     1       8.761  36.611   0.519  1.00  0.00     0.000 C 
BRANCH   5   6
ATOM      6  C   UNL     1       7.259  36.689   0.202  1.00  0.00     0.000 C 
BRANCH   6   7
ATOM      7  C   UNL     1       6.983  36.962  -1.285  1.00  0.00     0.000 C 
BRANCH   7   8
ATOM      8  C   UNL     1       5.784  36.157  -1.820  1.00  0.00     0.000 C 
BRANCH   8   9
ATOM      9  C   UNL     1       6.005  34.638  -1.731  1.00  0.00     0.000 C 
BRANCH   9  10
ATOM     10  C   UNL     1       6.771  34.080  -2.939  1.00  0.00     0.000 C 
BRANCH  10  11
ATOM     11  C   UNL     1       7.891  33.133  -2.486  1.00  0.00     0.000 C 
BRANCH  11  12
ATOM     12  C   UNL     1       8.435  33.477  -1.086  1.00  0.00     0.006 C 
BRANCH  12  13
ATOM     13  C   UNL     1       9.937  33.199  -0.905  1.00  0.00     0.053 C 
BRANCH  13  14
ATOM     14  C   UNL     1      10.242  31.733  -0.901  1.00  0.00     0.041 C 
ATOM     15  O   UNL     1      10.818  31.202  -1.888  1.00  0.00    -0.550 OA
ATOM     16  O   UNL     1       9.874  30.948   0.185  1.00  0.00    -0.550 OA
ENDBRANCH  13  14
ENDBRANCH  12  13
ENDBRANCH  11  12
ENDBRANCH  10  11
ENDBRANCH   9  10
ENDBRANCH   8   9
ENDBRANCH   7   8
ENDBRANCH   6   7
ENDBRANCH   5   6
ENDBRANCH   4   5
ENDBRANCH   3   4
ENDBRANCH   2   3
ENDBRANCH   1   2
BRANCH   1  17
ATOM     17  C   UNL     1       9.709  40.676   0.736  1.00  0.00     0.000 C 
BRANCH  17  18
ATOM     18  C   UNL     1       8.284  41.261   0.688  1.00  0.00     0.000 C 
BRANCH  18  19
ATOM     19  C   UNL     1       7.306  40.520  -0.246  1.00  0.00     0.000 C 
BRANCH  19  20
ATOM     20  C   UNL     1       5.948  40.158   0.387  1.00  0.00     0.000 C 
BRANCH  20  21
ATOM     21  C   UNL     1       4.857  39.731  -0.615  1.00  0.00     0.000 C 
BRANCH  21  22
ATOM     22  C   UNL     1       3.784  38.779  -0.049  1.00  0.00    -0.000 C 
BRANCH  22  23
ATOM     23  C   UNL     1       4.037  38.293   1.389  1.00  0.00    -0.000 C 
BRANCH  23  24
ATOM     24  C   UNL     1       3.876  36.773   1.541  1.00  0.00    -0.000 C 
BRANCH  24  25
ATOM     25  C   UNL     1       4.392  36.305   2.908  1.00  0.00    -0.000 C 
BRANCH  25  26
ATOM     26  C   UNL     1       3.929  37.250   4.027  1.00  0.00    -0.000 C 
BRANCH  26  27
ATOM     27  C   UNL     1       5.076  37.614   4.995  1.00  0.00    -0.000 C 
BRANCH  27  28
ATOM     28  C   UNL     1       5.514  39.090   4.909  1.00  0.00    -0.000 C 
BRANCH  28  29
ATOM     29  C   UNL     1       7.018  39.303   4.672  1.00  0.00    -0.003 C 
ATOM     30  C   UNL     1       7.512  38.665   3.375  1.00  0.00     0.004 C 
ENDBRANCH  28  29
ENDBRANCH  27  28
ENDBRANCH  26  27
ENDBRANCH  25  26
ENDBRANCH  24  25
ENDBRANCH  23  24
ENDBRANCH  22  23
ENDBRANCH  21  22
ENDBRANCH  20  21
ENDBRANCH  19  20
ENDBRANCH  18  19
ENDBRANCH  17  18
ENDBRANCH   1  17
TORSDOF 26
ENDMDL
