MODEL 1
REMARK VINA RESULT:    -5.110      0.000      0.000
REMARK INTER + INTRA:          -7.834
REMARK INTER:                  -6.304
REMARK INTRA:                  -1.529
REMARK UNBOUND:                -1.529
REMARK SMILES CC(C)=CCC[C@@H](C)[C@H]1C=CC(C)=CC1
REMARK SMILES IDX 6 1 7 2 8 3 9 4 13 5 12 6 14 7 11 8 15 9 10 10 5 11 4 12
REMARK SMILES IDX 2 13 1 14 3 15
REMARK H PARENT
REMARK Flexibility Score: inf
ROOT
ATOM      1  C   UNL     1       0.549   5.061  13.025  1.00  0.00     0.008 C 
ENDROOT
BRANCH   1   2
ATOM      2  C   UNL     1       0.435   4.490  14.466  1.00  0.00    -0.007 C 
ATOM      3  C   UNL     1      -0.536   5.366  15.286  1.00  0.00     0.008 C 
BRANCH   2   4
ATOM      4  C   UNL     1      -0.004   2.992  14.437  1.00  0.00     0.018 C 
ATOM      5  C   UNL     1      -2.392  -0.607  13.902  1.00  0.00     0.044 C 
ATOM      6  C   UNL     1      -1.686   0.714  13.965  1.00  0.00    -0.055 C 
ATOM      7  C   UNL     1      -0.786   1.049  13.028  1.00  0.00    -0.023 C 
ATOM      8  C   UNL     1      -2.041   1.691  15.016  1.00  0.00    -0.001 C 
ATOM      9  C   UNL     1      -0.176   2.427  13.002  1.00  0.00     0.035 C 
ATOM     10  C   UNL     1      -1.300   2.788  15.206  1.00  0.00    -0.023 C 
ENDBRANCH   2   4
ENDBRANCH   1   2
BRANCH   1  11
ATOM     11  C   UNL     1      -0.603   6.019  12.685  1.00  0.00     0.027 C 
BRANCH  11  12
ATOM     12  C   UNL     1      -1.381   5.520  11.492  1.00  0.00    -0.028 C 
ATOM     13  C   UNL     1      -2.575   4.893  11.570  1.00  0.00    -0.080 C 
ATOM     14  C   UNL     1      -3.283   4.678  12.888  1.00  0.00     0.039 C 
ATOM     15  C   UNL     1      -3.220   4.416  10.294  1.00  0.00     0.039 C 
ENDBRANCH  11  12
ENDBRANCH   1  11
TORSDOF 4
ENDMDL
MODEL 2
REMARK VINA RESULT:    -5.018      1.375      2.008
REMARK INTER + INTRA:          -7.720
REMARK INTER:                  -6.809
REMARK INTRA:                  -0.911
REMARK UNBOUND:                -1.529
REMARK SMILES CC(C)=CCC[C@@H](C)[C@H]1C=CC(C)=CC1
REMARK SMILES IDX 6 1 7 2 8 3 9 4 13 5 12 6 14 7 11 8 15 9 10 10 5 11 4 12
REMARK SMILES IDX 2 13 1 14 3 15
REMARK H PARENT
REMARK Flexibility Score: inf
ROOT
ATOM      1  C   UNL     1      -1.297   4.169  10.748  1.00  0.00     0.008 C 
ENDROOT
BRANCH   1   2
ATOM      2  C   UNL     1      -0.308   3.985  11.933  1.00  0.00    -0.007 C 
ATOM      3  C   UNL     1      -0.645   5.004  13.043  1.00  0.00     0.008 C 
BRANCH   2   4
ATOM      4  C   UNL     1      -0.334   2.514  12.456  1.00  0.00     0.018 C 
ATOM      5  C   UNL     1      -1.753  -1.303  13.993  1.00  0.00     0.044 C 
ATOM      6  C   UNL     1      -1.439   0.040  13.404  1.00  0.00    -0.055 C 
ATOM      7  C   UNL     1      -1.173   0.161  12.094  1.00  0.00    -0.023 C 
ATOM      8  C   UNL     1      -1.504   1.251  14.248  1.00  0.00    -0.001 C 
ATOM      9  C   UNL     1      -0.995   1.519  11.465  1.00  0.00     0.035 C 
ATOM     10  C   UNL     1      -1.047   2.423  13.795  1.00  0.00    -0.023 C 
ENDBRANCH   2   4
ENDBRANCH   1   2
BRANCH   1  11
ATOM     11  C   UNL     1      -1.971   5.550  10.762  1.00  0.00     0.027 C 
BRANCH  11  12
ATOM     12  C   UNL     1      -3.399   5.454  10.285  1.00  0.00    -0.028 C 
ATOM     13  C   UNL     1      -4.456   5.211  11.089  1.00  0.00    -0.080 C 
ATOM     14  C   UNL     1      -4.307   5.062  12.586  1.00  0.00     0.039 C 
ATOM     15  C   UNL     1      -5.824   5.106  10.466  1.00  0.00     0.039 C 
ENDBRANCH  11  12
ENDBRANCH   1  11
TORSDOF 4
ENDMDL
MODEL 3
REMARK VINA RESULT:    -4.722      1.340      4.978
REMARK INTER + INTRA:          -7.356
REMARK INTER:                  -6.345
REMARK INTRA:                  -1.010
REMARK UNBOUND:                -1.529
REMARK SMILES CC(C)=CCC[C@@H](C)[C@H]1C=CC(C)=CC1
REMARK SMILES IDX 6 1 7 2 8 3 9 4 13 5 12 6 14 7 11 8 15 9 10 10 5 11 4 12
REMARK SMILES IDX 2 13 1 14 3 15
REMARK H PARENT
REMARK Flexibility Score: inf
ROOT
ATOM      1  C   UNL     1      -1.250   3.188  14.594  1.00  0.00     0.008 C 
ENDROOT
BRANCH   1   2
ATOM      2  C   UNL     1      -1.192   4.282  13.492  1.00  0.00    -0.007 C 
ATOM      3  C   UNL     1       0.086   4.088  12.647  1.00  0.00     0.008 C 
BRANCH   2   4
ATOM      4  C   UNL     1      -2.485   4.261  12.617  1.00  0.00     0.018 C 
ATOM      5  C   UNL     1      -5.606   5.440   9.823  1.00  0.00     0.044 C 
ATOM      6  C   UNL     1      -4.422   5.159  10.699  1.00  0.00    -0.055 C 
ATOM      7  C   UNL     1      -3.459   4.319  10.289  1.00  0.00    -0.023 C 
ATOM      8  C   UNL     1      -4.269   5.872  11.984  1.00  0.00    -0.001 C 
ATOM      9  C   UNL     1      -2.200   4.137  11.097  1.00  0.00     0.035 C 
ATOM     10  C   UNL     1      -3.329   5.502  12.861  1.00  0.00    -0.023 C 
ENDBRANCH   2   4
ENDBRANCH   1   2
BRANCH   1  11
ATOM     11  C   UNL     1      -2.490   2.291  14.458  1.00  0.00     0.027 C 
BRANCH  11  12
ATOM     12  C   UNL     1      -2.121   0.838  14.626  1.00  0.00    -0.028 C 
ATOM     13  C   UNL     1      -1.641   0.055  13.636  1.00  0.00    -0.080 C 
ATOM     14  C   UNL     1      -1.373   0.591  12.248  1.00  0.00     0.039 C 
ATOM     15  C   UNL     1      -1.348  -1.392  13.942  1.00  0.00     0.039 C 
ENDBRANCH  11  12
ENDBRANCH   1  11
TORSDOF 4
ENDMDL
MODEL 4
REMARK VINA RESULT:    -4.717      1.713      2.821
REMARK INTER + INTRA:          -7.350
REMARK INTER:                  -6.748
REMARK INTRA:                  -0.602
REMARK UNBOUND:                -1.529
REMARK SMILES CC(C)=CCC[C@@H](C)[C@H]1C=CC(C)=CC1
REMARK SMILES IDX 6 1 7 2 8 3 9 4 13 5 12 6 14 7 11 8 15 9 10 10 5 11 4 12
REMARK SMILES IDX 2 13 1 14 3 15
REMARK H PARENT
REMARK Flexibility Score: inf
ROOT
ATOM      1  C   UNL     1      -1.774   4.727  10.553  1.00  0.00     0.008 C 
ENDROOT
BRANCH   1   2
ATOM      2  C   UNL     1      -0.693   3.968  11.373  1.00  0.00    -0.007 C 
ATOM      3  C   UNL     1       0.006   4.956  12.332  1.00  0.00     0.008 C 
BRANCH   2   4
ATOM      4  C   UNL     1      -1.319   2.755  12.130  1.00  0.00     0.018 C 
ATOM      5  C   UNL     1      -1.777  -1.098  14.102  1.00  0.00     0.044 C 
ATOM      6  C   UNL     1      -1.437   0.213  13.458  1.00  0.00    -0.055 C 
ATOM      7  C   UNL     1      -1.287   1.318  14.205  1.00  0.00    -0.023 C 
ATOM      8  C   UNL     1      -1.182   0.276  12.004  1.00  0.00    -0.001 C 
ATOM      9  C   UNL     1      -0.808   2.606  13.587  1.00  0.00     0.035 C 
ATOM     10  C   UNL     1      -1.065   1.455  11.383  1.00  0.00    -0.023 C 
ENDBRANCH   2   4
ENDBRANCH   1   2
BRANCH   1  11
ATOM     11  C   UNL     1      -3.024   5.042  11.388  1.00  0.00     0.027 C 
BRANCH  11  12
ATOM     12  C   UNL     1      -4.275   4.893  10.558  1.00  0.00    -0.028 C 
ATOM     13  C   UNL     1      -5.481   5.397  10.899  1.00  0.00    -0.080 C 
ATOM     14  C   UNL     1      -5.679   6.223  12.150  1.00  0.00     0.039 C 
ATOM     15  C   UNL     1      -6.652   5.138   9.987  1.00  0.00     0.039 C 
ENDBRANCH  11  12
ENDBRANCH   1  11
TORSDOF 4
ENDMDL
MODEL 5
REMARK VINA RESULT:    -4.682      1.545      2.364
REMARK INTER + INTRA:          -7.306
REMARK INTER:                  -6.389
REMARK INTRA:                  -0.917
REMARK UNBOUND:                -1.529
REMARK SMILES CC(C)=CCC[C@@H](C)[C@H]1C=CC(C)=CC1
REMARK SMILES IDX 6 1 7 2 8 3 9 4 13 5 12 6 14 7 11 8 15 9 10 10 5 11 4 12
REMARK SMILES IDX 2 13 1 14 3 15
REMARK H PARENT
REMARK Flexibility Score: inf
ROOT
ATOM      1  C   UNL     1      -1.756   4.663  12.455  1.00  0.00     0.008 C 
ENDROOT
BRANCH   1   2
ATOM      2  C   UNL     1      -0.307   4.100  12.452  1.00  0.00    -0.007 C 
ATOM      3  C   UNL     1       0.569   4.942  13.405  1.00  0.00     0.008 C 
BRANCH   2   4
ATOM      4  C   UNL     1      -0.298   2.585  12.827  1.00  0.00     0.018 C 
ATOM      5  C   UNL     1      -1.629  -1.409  13.931  1.00  0.00     0.044 C 
ATOM      6  C   UNL     1      -1.344  -0.005  13.487  1.00  0.00    -0.055 C 
ATOM      7  C   UNL     1      -1.040   0.253  12.206  1.00  0.00    -0.023 C 
ATOM      8  C   UNL     1      -1.480   1.113  14.444  1.00  0.00    -0.001 C 
ATOM      9  C   UNL     1      -0.891   1.672  11.720  1.00  0.00     0.035 C 
ATOM     10  C   UNL     1      -1.051   2.339  14.125  1.00  0.00    -0.023 C 
ENDBRANCH   2   4
ENDBRANCH   1   2
BRANCH   1  11
ATOM     11  C   UNL     1      -2.296   4.887  11.034  1.00  0.00     0.027 C 
BRANCH  11  12
ATOM     12  C   UNL     1      -1.172   5.186  10.074  1.00  0.00    -0.028 C 
ATOM     13  C   UNL     1      -0.786   6.431   9.717  1.00  0.00    -0.080 C 
ATOM     14  C   UNL     1      -1.426   7.668  10.303  1.00  0.00     0.039 C 
ATOM     15  C   UNL     1       0.333   6.576   8.718  1.00  0.00     0.039 C 
ENDBRANCH  11  12
ENDBRANCH   1  11
TORSDOF 4
ENDMDL
MODEL 6
REMARK VINA RESULT:    -4.619      1.602      5.317
REMARK INTER + INTRA:          -7.228
REMARK INTER:                  -6.481
REMARK INTRA:                  -0.747
REMARK UNBOUND:                -1.529
REMARK SMILES CC(C)=CCC[C@@H](C)[C@H]1C=CC(C)=CC1
REMARK SMILES IDX 6 1 7 2 8 3 9 4 13 5 12 6 14 7 11 8 15 9 10 10 5 11 4 12
REMARK SMILES IDX 2 13 1 14 3 15
REMARK H PARENT
REMARK Flexibility Score: inf
ROOT
ATOM      1  C   UNL     1      -1.270   2.923  11.330  1.00  0.00     0.008 C 
ENDROOT
BRANCH   1   2
ATOM      2  C   UNL     1      -1.504   4.185  12.206  1.00  0.00    -0.007 C 
ATOM      3  C   UNL     1      -0.244   5.076  12.164  1.00  0.00     0.008 C 
BRANCH   2   4
ATOM      4  C   UNL     1      -2.784   4.951  11.745  1.00  0.00     0.018 C 
ATOM      5  C   UNL     1      -6.798   5.797  10.290  1.00  0.00     0.044 C 
ATOM      6  C   UNL     1      -5.480   5.337  10.839  1.00  0.00    -0.055 C 
ATOM      7  C   UNL     1      -5.233   5.407  12.156  1.00  0.00    -0.023 C 
ATOM      8  C   UNL     1      -4.479   4.726   9.941  1.00  0.00    -0.001 C 
ATOM      9  C   UNL     1      -3.972   4.820  12.736  1.00  0.00     0.035 C 
ATOM     10  C   UNL     1      -3.235   4.485  10.370  1.00  0.00    -0.023 C 
ENDBRANCH   2   4
ENDBRANCH   1   2
BRANCH   1  11
ATOM     11  C   UNL     1      -0.282   1.940  11.978  1.00  0.00     0.027 C 
BRANCH  11  12
ATOM     12  C   UNL     1      -0.994   0.695  12.447  1.00  0.00    -0.028 C 
ATOM     13  C   UNL     1      -1.456   0.510  13.703  1.00  0.00    -0.080 C 
ATOM     14  C   UNL     1      -1.346   1.580  14.763  1.00  0.00     0.039 C 
ATOM     15  C   UNL     1      -2.118  -0.802  14.038  1.00  0.00     0.039 C 
ENDBRANCH  11  12
ENDBRANCH   1  11
TORSDOF 4
ENDMDL
MODEL 7
REMARK VINA RESULT:    -4.602      1.230      4.562
REMARK INTER + INTRA:          -7.207
REMARK INTER:                  -5.696
REMARK INTRA:                  -1.512
REMARK UNBOUND:                -1.529
REMARK SMILES CC(C)=CCC[C@@H](C)[C@H]1C=CC(C)=CC1
REMARK SMILES IDX 6 1 7 2 8 3 9 4 13 5 12 6 14 7 11 8 15 9 10 10 5 11 4 12
REMARK SMILES IDX 2 13 1 14 3 15
REMARK H PARENT
REMARK Flexibility Score: inf
ROOT
ATOM      1  C   UNL     1      -1.384   3.612  15.201  1.00  0.00     0.008 C 
ENDROOT
BRANCH   1   2
ATOM      2  C   UNL     1      -0.972   5.082  14.911  1.00  0.00    -0.007 C 
ATOM      3  C   UNL     1       0.553   5.148  14.681  1.00  0.00     0.008 C 
BRANCH   2   4
ATOM      4  C   UNL     1      -1.776   5.657  13.702  1.00  0.00     0.018 C 
ATOM      5  C   UNL     1      -3.214   6.369   9.656  1.00  0.00     0.044 C 
ATOM      6  C   UNL     1      -2.658   5.958  10.987  1.00  0.00    -0.055 C 
ATOM      7  C   UNL     1      -3.373   5.172  11.808  1.00  0.00    -0.023 C 
ATOM      8  C   UNL     1      -1.285   6.349  11.366  1.00  0.00    -0.001 C 
ATOM      9  C   UNL     1      -2.770   4.639  13.082  1.00  0.00     0.035 C 
ATOM     10  C   UNL     1      -0.841   6.158  12.613  1.00  0.00    -0.023 C 
ENDBRANCH   2   4
ENDBRANCH   1   2
BRANCH   1  11
ATOM     11  C   UNL     1      -0.272   2.613  14.842  1.00  0.00     0.027 C 
BRANCH  11  12
ATOM     12  C   UNL     1      -0.787   1.555  13.898  1.00  0.00    -0.028 C 
ATOM     13  C   UNL     1      -0.653   1.603  12.555  1.00  0.00    -0.080 C 
ATOM     14  C   UNL     1       0.090   2.723  11.863  1.00  0.00     0.039 C 
ATOM     15  C   UNL     1      -1.250   0.490  11.733  1.00  0.00     0.039 C 
ENDBRANCH  11  12
ENDBRANCH   1  11
TORSDOF 4
ENDMDL
MODEL 8
REMARK VINA RESULT:    -4.563      1.865      4.056
REMARK INTER + INTRA:          -7.159
REMARK INTER:                  -6.479
REMARK INTRA:                  -0.680
REMARK UNBOUND:                -1.529
REMARK SMILES CC(C)=CCC[C@@H](C)[C@H]1C=CC(C)=CC1
REMARK SMILES IDX 6 1 7 2 8 3 9 4 13 5 12 6 14 7 11 8 15 9 10 10 5 11 4 12
REMARK SMILES IDX 2 13 1 14 3 15
REMARK H PARENT
REMARK Flexibility Score: inf
ROOT
ATOM      1  C   UNL     1      -0.905   5.275  14.763  1.00  0.00     0.008 C 
ENDROOT
BRANCH   1   2
ATOM      2  C   UNL     1      -1.785   4.923  13.531  1.00  0.00    -0.007 C 
ATOM      3  C   UNL     1      -1.096   5.435  12.248  1.00  0.00     0.008 C 
BRANCH   2   4
ATOM      4  C   UNL     1      -2.074   3.389  13.473  1.00  0.00     0.018 C 
ATOM      5  C   UNL     1      -1.676  -0.914  13.984  1.00  0.00     0.044 C 
ATOM      6  C   UNL     1      -1.694   0.585  13.952  1.00  0.00    -0.055 C 
ATOM      7  C   UNL     1      -2.497   1.271  14.780  1.00  0.00    -0.023 C 
ATOM      8  C   UNL     1      -0.766   1.316  13.065  1.00  0.00    -0.001 C 
ATOM      9  C   UNL     1      -2.422   2.775  14.855  1.00  0.00     0.035 C 
ATOM     10  C   UNL     1      -0.895   2.634  12.881  1.00  0.00    -0.023 C 
ENDBRANCH   2   4
ENDBRANCH   1   2
BRANCH   1  11
ATOM     11  C   UNL     1       0.235   6.241  14.407  1.00  0.00     0.027 C 
BRANCH  11  12
ATOM     12  C   UNL     1       1.578   5.607  14.676  1.00  0.00    -0.028 C 
ATOM     13  C   UNL     1       2.610   6.236  15.279  1.00  0.00    -0.080 C 
ATOM     14  C   UNL     1       2.492   7.650  15.801  1.00  0.00     0.039 C 
ATOM     15  C   UNL     1       3.907   5.487  15.450  1.00  0.00     0.039 C 
ENDBRANCH  11  12
ENDBRANCH   1  11
TORSDOF 4
ENDMDL
MODEL 9
REMARK VINA RESULT:    -4.463      1.519      5.069
REMARK INTER + INTRA:          -7.036
REMARK INTER:                  -5.915
REMARK INTRA:                  -1.121
REMARK UNBOUND:                -1.529
REMARK SMILES CC(C)=CCC[C@@H](C)[C@H]1C=CC(C)=CC1
REMARK SMILES IDX 6 1 7 2 8 3 9 4 13 5 12 6 14 7 11 8 15 9 10 10 5 11 4 12
REMARK SMILES IDX 2 13 1 14 3 15
REMARK H PARENT
REMARK Flexibility Score: inf
ROOT
ATOM      1  C   UNL     1      -1.033   3.239  11.135  1.00  0.00     0.008 C 
ENDROOT
BRANCH   1   2
ATOM      2  C   UNL     1      -1.359   4.563  11.881  1.00  0.00    -0.007 C 
ATOM      3  C   UNL     1      -2.713   4.418  12.609  1.00  0.00     0.008 C 
BRANCH   2   4
ATOM      4  C   UNL     1      -0.203   4.951  12.856  1.00  0.00     0.018 C 
ATOM      5  C   UNL     1       2.381   7.253  15.496  1.00  0.00     0.044 C 
ATOM      6  C   UNL     1       1.360   6.590  14.620  1.00  0.00    -0.055 C 
ATOM      7  C   UNL     1       0.428   5.786  15.154  1.00  0.00    -0.023 C 
ATOM      8  C   UNL     1       1.325   6.886  13.173  1.00  0.00    -0.001 C 
ATOM      9  C   UNL     1      -0.686   5.227  14.305  1.00  0.00     0.035 C 
ATOM     10  C   UNL     1       0.554   6.168  12.348  1.00  0.00    -0.023 C 
ENDBRANCH   2   4
ENDBRANCH   1   2
BRANCH   1  11
ATOM     11  C   UNL     1      -0.179   2.286  11.986  1.00  0.00     0.027 C 
BRANCH  11  12
ATOM     12  C   UNL     1      -0.964   1.054  12.362  1.00  0.00    -0.028 C 
ATOM     13  C   UNL     1      -1.398   0.779  13.611  1.00  0.00    -0.080 C 
ATOM     14  C   UNL     1      -1.177   1.731  14.764  1.00  0.00     0.039 C 
ATOM     15  C   UNL     1      -2.142  -0.511  13.845  1.00  0.00     0.039 C 
ENDBRANCH  11  12
ENDBRANCH   1  11
TORSDOF 4
ENDMDL
