MODEL 1
REMARK VINA RESULT:    18.228      0.000      0.000
REMARK INTER + INTRA:          21.886
REMARK INTER:                  21.957
REMARK INTRA:                  -0.071
REMARK UNBOUND:                -0.071
REMARK SMILES O=c1ccn([C@H]2O[C@@H](CO)[C@H](O)[C@H]2O)c(=O)[nH]1
REMARK SMILES IDX 6 1 13 2 11 3 8 4 7 5 5 6 3 7 4 8 2 9 17 10 1 11 15 12 16 14
REMARK SMILES IDX 14 15 12 17 9 19 10 20
REMARK H PARENT 17 13 14 16 12 18 10 21
REMARK Flexibility Score: inf
ROOT
ATOM      1  C   UNL     1      48.989  33.486   3.458  1.00  0.00     0.255 C 
ATOM      2  C   UNL     1      49.877  33.946   4.626  1.00  0.00     0.196 C 
ATOM      3  C   UNL     1      51.270  33.675   4.124  1.00  0.00     0.179 C 
ATOM      4  C   UNL     1      51.039  32.546   3.130  1.00  0.00     0.178 C 
ATOM      5  O   UNL     1      49.765  32.724   2.553  1.00  0.00    -0.347 OA
ENDROOT
BRANCH   1   6
ATOM      6  N   UNL     1      48.363  34.627   2.753  1.00  0.00    -0.271 N 
ATOM      7  C   UNL     1      48.311  36.122   0.875  1.00  0.00     0.090 A 
ATOM      8  C   UNL     1      48.865  35.036   1.547  1.00  0.00     0.099 A 
ATOM      9  C   UNL     1      47.244  36.793   1.461  1.00  0.00     0.253 A 
ATOM     10  N   UNL     1      46.769  36.385   2.666  1.00  0.00    -0.274 N 
ATOM     11  O   UNL     1      46.721  37.778   0.875  1.00  0.00    -0.269 OA
ATOM     12  C   UNL     1      47.319  35.321   3.317  1.00  0.00     0.330 A 
ATOM     13  H   UNL     1      45.971  36.899   3.105  1.00  0.00     0.175 HD
ATOM     14  O   UNL     1      46.860  34.989   4.444  1.00  0.00    -0.248 OA
ENDBRANCH   1   6
BRANCH   2  15
ATOM     15  O   UNL     1      49.718  35.307   4.937  1.00  0.00    -0.386 OA
ATOM     16  H   UNL     1      50.249  35.811   4.267  1.00  0.00     0.211 HD
ENDBRANCH   2  15
BRANCH   3  17
ATOM     17  O   UNL     1      52.120  33.261   5.162  1.00  0.00    -0.387 OA
ATOM     18  H   UNL     1      53.032  33.561   4.913  1.00  0.00     0.211 HD
ENDBRANCH   3  17
BRANCH   4  19
ATOM     19  C   UNL     1      52.104  32.511   2.025  1.00  0.00     0.191 C 
BRANCH  19  20
ATOM     20  O   UNL     1      51.725  33.317   0.942  1.00  0.00    -0.394 OA
ATOM     21  H   UNL     1      50.731  33.328   0.930  1.00  0.00     0.210 HD
ENDBRANCH  19  20
ENDBRANCH   4  19
TORSDOF 5
ENDMDL
