MODEL 1
REMARK VINA RESULT:    -7.104      0.000      0.000
REMARK INTER + INTRA:         -11.678
REMARK INTER:                 -10.842
REMARK INTRA:                  -0.836
REMARK UNBOUND:                -0.836
REMARK SMILES CC(=O)CCC=C(C)CCC=C(C)CCC=C(C)C
REMARK SMILES IDX 10 1 11 2 12 3 13 4 14 5 15 6 16 7 18 8 17 9 19 10 9 11 7 12
REMARK SMILES IDX 6 13 8 14 5 15 4 16 2 17 3 18 1 19
REMARK H PARENT
REMARK Flexibility Score: inf
ROOT
ATOM      1  C   UNL     1     -10.290  74.513  29.144  1.00  0.00     0.032 C 
ENDROOT
BRANCH   1   2
ATOM      2  C   UNL     1      -9.553  73.720  28.093  1.00  0.00    -0.028 C 
ATOM      3  C   UNL     1      -9.678  73.957  26.769  1.00  0.00    -0.077 C 
ATOM      4  C   UNL     1     -10.586  75.045  26.245  1.00  0.00     0.039 C 
BRANCH   3   5
ATOM      5  C   UNL     1      -8.891  73.114  25.785  1.00  0.00     0.034 C 
BRANCH   5   6
ATOM      6  C   UNL     1      -9.698  72.812  24.515  1.00  0.00     0.032 C 
BRANCH   6   7
ATOM      7  C   UNL     1      -8.852  72.937  23.269  1.00  0.00    -0.028 C 
ATOM      8  C   UNL     1     -10.300  74.713  22.257  1.00  0.00     0.039 C 
ATOM      9  C   UNL     1      -9.089  73.814  22.268  1.00  0.00    -0.080 C 
ATOM     10  C   UNL     1      -8.155  73.869  21.087  1.00  0.00     0.039 C 
ENDBRANCH   6   7
ENDBRANCH   5   6
ENDBRANCH   3   5
ENDBRANCH   1   2
BRANCH   1  11
ATOM     11  C   UNL     1     -11.293  73.635  29.900  1.00  0.00     0.034 C 
BRANCH  11  12
ATOM     12  C   UNL     1     -11.221  73.893  31.390  1.00  0.00    -0.077 C 
ATOM     13  C   UNL     1     -11.577  72.907  32.245  1.00  0.00    -0.028 C 
ATOM     14  C   UNL     1     -10.740  75.239  31.881  1.00  0.00     0.039 C 
BRANCH  13  15
ATOM     15  C   UNL     1     -11.593  73.040  33.749  1.00  0.00     0.035 C 
BRANCH  15  16
ATOM     16  C   UNL     1     -10.418  72.299  34.400  1.00  0.00     0.079 C 
BRANCH  16  17
ATOM     17  C   UNL     1     -10.611  72.148  35.886  1.00  0.00     0.130 C 
ATOM     18  O   UNL     1      -9.993  71.285  36.491  1.00  0.00    -0.300 OA
ATOM     19  C   UNL     1     -11.519  73.069  36.644  1.00  0.00     0.087 C 
ENDBRANCH  16  17
ENDBRANCH  15  16
ENDBRANCH  13  15
ENDBRANCH  11  12
ENDBRANCH   1  11
TORSDOF 9
ENDMDL
MODEL 2
REMARK VINA RESULT:    -7.074      3.382      9.998
REMARK INTER + INTRA:         -11.632
REMARK INTER:                 -10.542
REMARK INTRA:                  -1.090
REMARK UNBOUND:                -0.836
REMARK SMILES CC(=O)CCC=C(C)CCC=C(C)CCC=C(C)C
REMARK SMILES IDX 10 1 11 2 12 3 13 4 14 5 15 6 16 7 18 8 17 9 19 10 9 11 7 12
REMARK SMILES IDX 6 13 8 14 5 15 4 16 2 17 3 18 1 19
REMARK H PARENT
REMARK Flexibility Score: inf
ROOT
ATOM      1  C   UNL     1     -10.579  72.146  30.520  1.00  0.00     0.032 C 
ENDROOT
BRANCH   1   2
ATOM      2  C   UNL     1     -11.173  72.314  31.897  1.00  0.00    -0.028 C 
ATOM      3  C   UNL     1     -11.321  73.517  32.494  1.00  0.00    -0.077 C 
ATOM      4  C   UNL     1     -10.886  74.793  31.812  1.00  0.00     0.039 C 
BRANCH   3   5
ATOM      5  C   UNL     1     -11.937  73.589  33.877  1.00  0.00     0.034 C 
BRANCH   5   6
ATOM      6  C   UNL     1     -10.955  73.134  34.965  1.00  0.00     0.032 C 
BRANCH   6   7
ATOM      7  C   UNL     1     -11.637  72.970  36.304  1.00  0.00    -0.028 C 
ATOM      8  C   UNL     1     -10.138  71.099  37.031  1.00  0.00     0.039 C 
ATOM      9  C   UNL     1     -11.254  72.088  37.255  1.00  0.00    -0.080 C 
ATOM     10  C   UNL     1     -11.994  72.038  38.567  1.00  0.00     0.039 C 
ENDBRANCH   6   7
ENDBRANCH   5   6
ENDBRANCH   3   5
ENDBRANCH   1   2
BRANCH   1  11
ATOM     11  C   UNL     1     -11.663  72.207  29.437  1.00  0.00     0.034 C 
BRANCH  11  12
ATOM     12  C   UNL     1     -11.258  73.145  28.320  1.00  0.00    -0.077 C 
ATOM     13  C   UNL     1      -9.945  73.280  28.021  1.00  0.00    -0.028 C 
ATOM     14  C   UNL     1     -12.331  73.892  27.561  1.00  0.00     0.039 C 
BRANCH  13  15
ATOM     15  C   UNL     1      -9.398  74.209  26.962  1.00  0.00     0.035 C 
BRANCH  15  16
ATOM     16  C   UNL     1      -8.891  73.440  25.736  1.00  0.00     0.079 C 
BRANCH  16  17
ATOM     17  C   UNL     1      -9.581  73.889  24.474  1.00  0.00     0.130 C 
ATOM     18  O   UNL     1      -9.042  74.715  23.754  1.00  0.00    -0.300 OA
ATOM     19  C   UNL     1     -10.900  73.306  24.066  1.00  0.00     0.087 C 
ENDBRANCH  16  17
ENDBRANCH  15  16
ENDBRANCH  13  15
ENDBRANCH  11  12
ENDBRANCH   1  11
TORSDOF 9
ENDMDL
MODEL 3
REMARK VINA RESULT:    -7.055      1.007      1.337
REMARK INTER + INTRA:         -11.603
REMARK INTER:                 -10.845
REMARK INTRA:                  -0.758
REMARK UNBOUND:                -0.836
REMARK SMILES CC(=O)CCC=C(C)CCC=C(C)CCC=C(C)C
REMARK SMILES IDX 10 1 11 2 12 3 13 4 14 5 15 6 16 7 18 8 17 9 19 10 9 11 7 12
REMARK SMILES IDX 6 13 8 14 5 15 4 16 2 17 3 18 1 19
REMARK H PARENT
REMARK Flexibility Score: inf
ROOT
ATOM      1  C   UNL     1     -10.014  74.287  28.418  1.00  0.00     0.032 C 
ENDROOT
BRANCH   1   2
ATOM      2  C   UNL     1     -10.290  74.755  27.010  1.00  0.00    -0.028 C 
ATOM      3  C   UNL     1      -9.747  74.171  25.920  1.00  0.00    -0.077 C 
ATOM      4  C   UNL     1      -8.805  72.996  26.043  1.00  0.00     0.039 C 
BRANCH   3   5
ATOM      5  C   UNL     1     -10.089  74.704  24.543  1.00  0.00     0.034 C 
BRANCH   5   6
ATOM      6  C   UNL     1     -10.182  73.581  23.501  1.00  0.00     0.032 C 
BRANCH   6   7
ATOM      7  C   UNL     1      -9.207  73.787  22.365  1.00  0.00    -0.028 C 
ATOM      8  C   UNL     1     -10.904  74.880  20.882  1.00  0.00     0.039 C 
ATOM      9  C   UNL     1      -9.508  74.405  21.201  1.00  0.00    -0.080 C 
ATOM     10  C   UNL     1      -8.442  74.581  20.151  1.00  0.00     0.039 C 
ENDBRANCH   6   7
ENDBRANCH   5   6
ENDBRANCH   3   5
ENDBRANCH   1   2
BRANCH   1  11
ATOM     11  C   UNL     1     -11.271  73.689  29.061  1.00  0.00     0.034 C 
BRANCH  11  12
ATOM     12  C   UNL     1     -11.211  73.799  30.569  1.00  0.00    -0.077 C 
ATOM     13  C   UNL     1     -11.692  72.782  31.321  1.00  0.00    -0.028 C 
ATOM     14  C   UNL     1     -10.603  75.034  31.193  1.00  0.00     0.039 C 
BRANCH  13  15
ATOM     15  C   UNL     1     -11.733  72.775  32.830  1.00  0.00     0.035 C 
BRANCH  15  16
ATOM     16  C   UNL     1     -10.537  72.025  33.430  1.00  0.00     0.079 C 
BRANCH  16  17
ATOM     17  C   UNL     1     -10.463  72.203  34.924  1.00  0.00     0.130 C 
ATOM     18  O   UNL     1      -9.601  71.615  35.560  1.00  0.00    -0.300 OA
ATOM     19  C   UNL     1     -11.404  73.124  35.640  1.00  0.00     0.087 C 
ENDBRANCH  16  17
ENDBRANCH  15  16
ENDBRANCH  13  15
ENDBRANCH  11  12
ENDBRANCH   1  11
TORSDOF 9
ENDMDL
MODEL 4
REMARK VINA RESULT:    -7.044      3.628      9.877
REMARK INTER + INTRA:         -11.586
REMARK INTER:                 -10.642
REMARK INTRA:                  -0.944
REMARK UNBOUND:                -0.836
REMARK SMILES CC(=O)CCC=C(C)CCC=C(C)CCC=C(C)C
REMARK SMILES IDX 10 1 11 2 12 3 13 4 14 5 15 6 16 7 18 8 17 9 19 10 9 11 7 12
REMARK SMILES IDX 6 13 8 14 5 15 4 16 2 17 3 18 1 19
REMARK H PARENT
REMARK Flexibility Score: inf
ROOT
ATOM      1  C   UNL     1      -9.679  74.583  26.874  1.00  0.00     0.032 C 
ENDROOT
BRANCH   1   2
ATOM      2  C   UNL     1      -9.884  74.583  28.369  1.00  0.00    -0.028 C 
ATOM      3  C   UNL     1     -10.992  74.084  28.960  1.00  0.00    -0.077 C 
ATOM      4  C   UNL     1     -12.119  73.490  28.148  1.00  0.00     0.039 C 
BRANCH   3   5
ATOM      5  C   UNL     1     -11.107  74.118  30.471  1.00  0.00     0.034 C 
BRANCH   5   6
ATOM      6  C   UNL     1     -11.645  72.796  31.035  1.00  0.00     0.032 C 
BRANCH   6   7
ATOM      7  C   UNL     1     -10.813  72.300  32.194  1.00  0.00    -0.028 C 
ATOM      8  C   UNL     1     -12.233  73.431  33.920  1.00  0.00     0.039 C 
ATOM      9  C   UNL     1     -11.089  72.545  33.495  1.00  0.00    -0.080 C 
ATOM     10  C   UNL     1     -10.202  71.968  34.568  1.00  0.00     0.039 C 
ENDBRANCH   6   7
ENDBRANCH   5   6
ENDBRANCH   3   5
ENDBRANCH   1   2
BRANCH   1  11
ATOM     11  C   UNL     1      -8.913  73.335  26.420  1.00  0.00     0.034 C 
BRANCH  11  12
ATOM     12  C   UNL     1      -9.201  73.024  24.966  1.00  0.00    -0.077 C 
ATOM     13  C   UNL     1     -10.246  73.632  24.360  1.00  0.00    -0.028 C 
ATOM     14  C   UNL     1      -8.303  72.057  24.229  1.00  0.00     0.039 C 
BRANCH  13  15
ATOM     15  C   UNL     1     -10.671  73.385  22.932  1.00  0.00     0.035 C 
BRANCH  15  16
ATOM     16  C   UNL     1     -10.525  74.643  22.067  1.00  0.00     0.079 C 
BRANCH  16  17
ATOM     17  C   UNL     1      -9.190  74.686  21.371  1.00  0.00     0.130 C 
ATOM     18  O   UNL     1      -8.165  74.747  22.033  1.00  0.00    -0.300 OA
ATOM     19  C   UNL     1      -9.096  74.612  19.876  1.00  0.00     0.087 C 
ENDBRANCH  16  17
ENDBRANCH  15  16
ENDBRANCH  13  15
ENDBRANCH  11  12
ENDBRANCH   1  11
TORSDOF 9
ENDMDL
MODEL 5
REMARK VINA RESULT:    -7.033      3.877     10.278
REMARK INTER + INTRA:         -11.570
REMARK INTER:                 -10.709
REMARK INTRA:                  -0.861
REMARK UNBOUND:                -0.836
REMARK SMILES CC(=O)CCC=C(C)CCC=C(C)CCC=C(C)C
REMARK SMILES IDX 10 1 11 2 12 3 13 4 14 5 15 6 16 7 18 8 17 9 19 10 9 11 7 12
REMARK SMILES IDX 6 13 8 14 5 15 4 16 2 17 3 18 1 19
REMARK H PARENT
REMARK Flexibility Score: inf
ROOT
ATOM      1  C   UNL     1     -11.401  73.626  28.005  1.00  0.00     0.032 C 
ENDROOT
BRANCH   1   2
ATOM      2  C   UNL     1     -11.493  73.921  29.482  1.00  0.00    -0.028 C 
ATOM      3  C   UNL     1     -10.632  73.412  30.390  1.00  0.00    -0.077 C 
ATOM      4  C   UNL     1      -9.507  72.492  29.979  1.00  0.00     0.039 C 
BRANCH   3   5
ATOM      5  C   UNL     1     -10.796  73.772  31.853  1.00  0.00     0.034 C 
BRANCH   5   6
ATOM      6  C   UNL     1     -11.705  72.778  32.588  1.00  0.00     0.032 C 
BRANCH   6   7
ATOM      7  C   UNL     1     -11.918  73.173  34.031  1.00  0.00    -0.028 C 
ATOM      8  C   UNL     1     -10.014  71.779  34.872  1.00  0.00     0.039 C 
ATOM      9  C   UNL     1     -11.141  72.763  35.060  1.00  0.00    -0.080 C 
ATOM     10  C   UNL     1     -11.433  73.250  36.456  1.00  0.00     0.039 C 
ENDBRANCH   6   7
ENDBRANCH   5   6
ENDBRANCH   3   5
ENDBRANCH   1   2
BRANCH   1  11
ATOM     11  C   UNL     1     -10.676  74.752  27.258  1.00  0.00     0.034 C 
BRANCH  11  12
ATOM     12  C   UNL     1      -9.924  74.209  26.062  1.00  0.00    -0.077 C 
ATOM     13  C   UNL     1     -10.192  74.712  24.835  1.00  0.00    -0.028 C 
ATOM     14  C   UNL     1      -8.885  73.132  26.273  1.00  0.00     0.039 C 
BRANCH  13  15
ATOM     15  C   UNL     1      -9.549  74.236  23.554  1.00  0.00     0.035 C 
BRANCH  15  16
ATOM     16  C   UNL     1     -10.591  73.921  22.475  1.00  0.00     0.079 C 
BRANCH  16  17
ATOM     17  C   UNL     1     -10.309  74.663  21.195  1.00  0.00     0.130 C 
ATOM     18  O   UNL     1      -9.172  74.681  20.746  1.00  0.00    -0.300 OA
ATOM     19  C   UNL     1     -11.409  75.344  20.438  1.00  0.00     0.087 C 
ENDBRANCH  16  17
ENDBRANCH  15  16
ENDBRANCH  13  15
ENDBRANCH  11  12
ENDBRANCH   1  11
TORSDOF 9
ENDMDL
MODEL 6
REMARK VINA RESULT:    -7.029      1.521      2.276
REMARK INTER + INTRA:         -11.563
REMARK INTER:                 -10.425
REMARK INTRA:                  -1.138
REMARK UNBOUND:                -0.836
REMARK SMILES CC(=O)CCC=C(C)CCC=C(C)CCC=C(C)C
REMARK SMILES IDX 10 1 11 2 12 3 13 4 14 5 15 6 16 7 18 8 17 9 19 10 9 11 7 12
REMARK SMILES IDX 6 13 8 14 5 15 4 16 2 17 3 18 1 19
REMARK H PARENT
REMARK Flexibility Score: inf
ROOT
ATOM      1  C   UNL     1     -12.290  73.555  28.610  1.00  0.00     0.032 C 
ENDROOT
BRANCH   1   2
ATOM      2  C   UNL     1     -11.888  73.807  27.177  1.00  0.00    -0.028 C 
ATOM      3  C   UNL     1     -10.739  74.429  26.834  1.00  0.00    -0.077 C 
ATOM      4  C   UNL     1      -9.770  74.928  27.879  1.00  0.00     0.039 C 
BRANCH   3   5
ATOM      5  C   UNL     1     -10.413  74.630  25.367  1.00  0.00     0.034 C 
BRANCH   5   6
ATOM      6  C   UNL     1     -10.247  73.295  24.629  1.00  0.00     0.032 C 
BRANCH   6   7
ATOM      7  C   UNL     1      -8.936  72.624  24.970  1.00  0.00    -0.028 C 
ATOM      8  C   UNL     1      -8.084  72.710  22.616  1.00  0.00     0.039 C 
ATOM      9  C   UNL     1      -7.942  72.392  24.084  1.00  0.00    -0.080 C 
ATOM     10  C   UNL     1      -6.664  71.743  24.549  1.00  0.00     0.039 C 
ENDBRANCH   6   7
ENDBRANCH   5   6
ENDBRANCH   3   5
ENDBRANCH   1   2
BRANCH   1  11
ATOM     11  C   UNL     1     -11.808  72.181  29.088  1.00  0.00     0.034 C 
BRANCH  11  12
ATOM     12  C   UNL     1     -10.937  72.312  30.319  1.00  0.00    -0.077 C 
ATOM     13  C   UNL     1     -11.516  72.618  31.503  1.00  0.00    -0.028 C 
ATOM     14  C   UNL     1      -9.448  72.083  30.194  1.00  0.00     0.039 C 
BRANCH  13  15
ATOM     15  C   UNL     1     -10.765  72.820  32.797  1.00  0.00     0.035 C 
BRANCH  15  16
ATOM     16  C   UNL     1     -11.692  73.285  33.927  1.00  0.00     0.079 C 
BRANCH  16  17
ATOM     17  C   UNL     1     -11.194  72.832  35.275  1.00  0.00     0.130 C 
ATOM     18  O   UNL     1     -11.797  73.166  36.284  1.00  0.00    -0.300 OA
ATOM     19  C   UNL     1      -9.995  71.942  35.397  1.00  0.00     0.087 C 
ENDBRANCH  16  17
ENDBRANCH  15  16
ENDBRANCH  13  15
ENDBRANCH  11  12
ENDBRANCH   1  11
TORSDOF 9
ENDMDL
MODEL 7
REMARK VINA RESULT:    -7.008      3.416      9.572
REMARK INTER + INTRA:         -11.532
REMARK INTER:                 -10.280
REMARK INTRA:                  -1.252
REMARK UNBOUND:                -0.836
REMARK SMILES CC(=O)CCC=C(C)CCC=C(C)CCC=C(C)C
REMARK SMILES IDX 10 1 11 2 12 3 13 4 14 5 15 6 16 7 18 8 17 9 19 10 9 11 7 12
REMARK SMILES IDX 6 13 8 14 5 15 4 16 2 17 3 18 1 19
REMARK H PARENT
REMARK Flexibility Score: inf
ROOT
ATOM      1  C   UNL     1     -11.290  72.755  28.985  1.00  0.00     0.032 C 
ENDROOT
BRANCH   1   2
ATOM      2  C   UNL     1     -11.597  73.275  30.368  1.00  0.00    -0.028 C 
ATOM      3  C   UNL     1     -10.756  74.078  31.056  1.00  0.00    -0.077 C 
ATOM      4  C   UNL     1      -9.429  74.510  30.479  1.00  0.00     0.039 C 
BRANCH   3   5
ATOM      5  C   UNL     1     -11.153  74.559  32.438  1.00  0.00     0.034 C 
BRANCH   5   6
ATOM      6  C   UNL     1     -11.802  73.443  33.268  1.00  0.00     0.032 C 
BRANCH   6   7
ATOM      7  C   UNL     1     -10.768  72.549  33.912  1.00  0.00    -0.028 C 
ATOM      8  C   UNL     1     -11.509  73.084  36.244  1.00  0.00     0.039 C 
ATOM      9  C   UNL     1     -10.653  72.349  35.244  1.00  0.00    -0.080 C 
ATOM     10  C   UNL     1      -9.600  71.407  35.770  1.00  0.00     0.039 C 
ENDBRANCH   6   7
ENDBRANCH   5   6
ENDBRANCH   3   5
ENDBRANCH   1   2
BRANCH   1  11
ATOM     11  C   UNL     1     -11.805  73.714  27.905  1.00  0.00     0.034 C 
BRANCH  11  12
ATOM     12  C   UNL     1     -10.722  74.019  26.892  1.00  0.00    -0.077 C 
ATOM     13  C   UNL     1      -9.841  73.047  26.561  1.00  0.00    -0.028 C 
ATOM     14  C   UNL     1     -10.664  75.395  26.269  1.00  0.00     0.039 C 
BRANCH  13  15
ATOM     15  C   UNL     1      -8.690  73.224  25.600  1.00  0.00     0.035 C 
BRANCH  15  16
ATOM     16  C   UNL     1      -9.031  72.700  24.199  1.00  0.00     0.079 C 
BRANCH  16  17
ATOM     17  C   UNL     1      -8.947  73.790  23.163  1.00  0.00     0.130 C 
ATOM     18  O   UNL     1      -7.866  74.072  22.670  1.00  0.00    -0.300 OA
ATOM     19  C   UNL     1     -10.178  74.506  22.694  1.00  0.00     0.087 C 
ENDBRANCH  16  17
ENDBRANCH  15  16
ENDBRANCH  13  15
ENDBRANCH  11  12
ENDBRANCH   1  11
TORSDOF 9
ENDMDL
MODEL 8
REMARK VINA RESULT:    -6.954      3.021     10.172
REMARK INTER + INTRA:         -11.449
REMARK INTER:                 -10.520
REMARK INTRA:                  -0.929
REMARK UNBOUND:                -0.836
REMARK SMILES CC(=O)CCC=C(C)CCC=C(C)CCC=C(C)C
REMARK SMILES IDX 10 1 11 2 12 3 13 4 14 5 15 6 16 7 18 8 17 9 19 10 9 11 7 12
REMARK SMILES IDX 6 13 8 14 5 15 4 16 2 17 3 18 1 19
REMARK H PARENT
REMARK Flexibility Score: inf
ROOT
ATOM      1  C   UNL     1     -10.408  74.667  31.432  1.00  0.00     0.032 C 
ENDROOT
BRANCH   1   2
ATOM      2  C   UNL     1     -10.976  74.409  32.806  1.00  0.00    -0.028 C 
ATOM      3  C   UNL     1     -11.118  73.169  33.323  1.00  0.00    -0.077 C 
ATOM      4  C   UNL     1     -10.718  71.939  32.543  1.00  0.00     0.039 C 
BRANCH   3   5
ATOM      5  C   UNL     1     -11.690  73.007  34.718  1.00  0.00     0.034 C 
BRANCH   5   6
ATOM      6  C   UNL     1     -10.608  73.136  35.799  1.00  0.00     0.032 C 
BRANCH   6   7
ATOM      7  C   UNL     1     -10.301  71.805  36.447  1.00  0.00    -0.028 C 
ATOM      8  C   UNL     1     -11.939  72.142  38.312  1.00  0.00     0.039 C 
ATOM      9  C   UNL     1     -10.920  71.331  37.552  1.00  0.00    -0.080 C 
ATOM     10  C   UNL     1     -10.551  69.973  38.090  1.00  0.00     0.039 C 
ENDBRANCH   6   7
ENDBRANCH   5   6
ENDBRANCH   3   5
ENDBRANCH   1   2
BRANCH   1  11
ATOM     11  C   UNL     1     -11.509  74.659  30.366  1.00  0.00     0.034 C 
BRANCH  11  12
ATOM     12  C   UNL     1     -11.044  73.945  29.115  1.00  0.00    -0.077 C 
ATOM     13  C   UNL     1     -10.068  74.505  28.364  1.00  0.00    -0.028 C 
ATOM     14  C   UNL     1     -11.672  72.620  28.748  1.00  0.00     0.039 C 
BRANCH  13  15
ATOM     15  C   UNL     1      -9.538  73.925  27.075  1.00  0.00     0.035 C 
BRANCH  15  16
ATOM     16  C   UNL     1     -10.148  74.612  25.847  1.00  0.00     0.079 C 
BRANCH  16  17
ATOM     17  C   UNL     1      -9.920  73.812  24.591  1.00  0.00     0.130 C 
ATOM     18  O   UNL     1      -9.607  72.634  24.675  1.00  0.00    -0.300 OA
ATOM     19  C   UNL     1     -10.112  74.427  23.238  1.00  0.00     0.087 C 
ENDBRANCH  16  17
ENDBRANCH  15  16
ENDBRANCH  13  15
ENDBRANCH  11  12
ENDBRANCH   1  11
TORSDOF 9
ENDMDL
MODEL 9
REMARK VINA RESULT:    -6.935      1.721      3.502
REMARK INTER + INTRA:         -11.421
REMARK INTER:                 -10.246
REMARK INTRA:                  -1.175
REMARK UNBOUND:                -0.836
REMARK SMILES CC(=O)CCC=C(C)CCC=C(C)CCC=C(C)C
REMARK SMILES IDX 10 1 11 2 12 3 13 4 14 5 15 6 16 7 18 8 17 9 19 10 9 11 7 12
REMARK SMILES IDX 6 13 8 14 5 15 4 16 2 17 3 18 1 19
REMARK H PARENT
REMARK Flexibility Score: inf
ROOT
ATOM      1  C   UNL     1     -10.644  74.360  25.804  1.00  0.00     0.032 C 
ENDROOT
BRANCH   1   2
ATOM      2  C   UNL     1      -9.792  74.572  24.576  1.00  0.00    -0.028 C 
ATOM      3  C   UNL     1     -10.061  73.995  23.384  1.00  0.00    -0.077 C 
ATOM      4  C   UNL     1     -11.247  73.078  23.203  1.00  0.00     0.039 C 
BRANCH   3   5
ATOM      5  C   UNL     1      -9.153  74.274  22.203  1.00  0.00     0.034 C 
BRANCH   5   6
ATOM      6  C   UNL     1      -7.722  73.780  22.452  1.00  0.00     0.032 C 
BRANCH   6   7
ATOM      7  C   UNL     1      -7.614  72.279  22.312  1.00  0.00    -0.028 C 
ATOM      8  C   UNL     1      -6.840  71.944  24.670  1.00  0.00     0.039 C 
ATOM      9  C   UNL     1      -7.258  71.441  23.311  1.00  0.00    -0.080 C 
ATOM     10  C   UNL     1      -7.216  69.955  23.061  1.00  0.00     0.039 C 
ENDBRANCH   6   7
ENDBRANCH   5   6
ENDBRANCH   3   5
ENDBRANCH   1   2
BRANCH   1  11
ATOM     11  C   UNL     1      -9.832  74.572  27.086  1.00  0.00     0.034 C 
BRANCH  11  12
ATOM     12  C   UNL     1     -10.653  74.222  28.309  1.00  0.00    -0.077 C 
ATOM     13  C   UNL     1     -10.160  74.513  29.535  1.00  0.00    -0.028 C 
ATOM     14  C   UNL     1     -12.005  73.572  28.126  1.00  0.00     0.039 C 
BRANCH  13  15
ATOM     15  C   UNL     1     -10.850  74.184  30.837  1.00  0.00     0.035 C 
BRANCH  15  16
ATOM     16  C   UNL     1     -10.422  72.815  31.380  1.00  0.00     0.079 C 
BRANCH  16  17
ATOM     17  C   UNL     1     -10.916  72.597  32.787  1.00  0.00     0.130 C 
ATOM     18  O   UNL     1     -10.367  71.768  33.497  1.00  0.00    -0.300 OA
ATOM     19  C   UNL     1     -12.045  73.410  33.344  1.00  0.00     0.087 C 
ENDBRANCH  16  17
ENDBRANCH  15  16
ENDBRANCH  13  15
ENDBRANCH  11  12
ENDBRANCH   1  11
TORSDOF 9
ENDMDL
