MODEL 1
REMARK VINA RESULT:    -3.771      0.000      0.000
REMARK INTER + INTRA:          -4.432
REMARK INTER:                  -4.322
REMARK INTRA:                  -0.110
REMARK UNBOUND:                -0.110
REMARK SMILES COc1cc(C(C)=O)ccc1O
REMARK SMILES IDX 5 1 4 2 3 3 11 4 10 5 9 6 6 7 7 8 8 9 2 10 1 11 12 12
REMARK H PARENT 12 13
REMARK Flexibility Score: inf
ROOT
ATOM      1  C   UNL     1       1.234 -13.572   8.377  1.00  0.00     0.021 A 
ATOM      2  C   UNL     1       2.414 -13.696   9.140  1.00  0.00     0.062 A 
ATOM      3  C   UNL     1       2.603 -14.791  10.007  1.00  0.00     0.161 A 
ATOM      4  C   UNL     1       1.597 -15.769  10.109  1.00  0.00     0.157 A 
ATOM      5  C   UNL     1       0.427 -15.649   9.356  1.00  0.00     0.051 A 
ATOM      6  C   UNL     1       0.245 -14.564   8.499  1.00  0.00     0.016 A 
ENDROOT
BRANCH   1   7
ATOM      7  C   UNL     1       1.022 -12.421   7.458  1.00  0.00     0.159 C 
ATOM      8  C   UNL     1       2.124 -11.877   6.598  1.00  0.00     0.093 C 
ATOM      9  O   UNL     1      -0.113 -11.875   7.390  1.00  0.00    -0.295 OA
ENDBRANCH   1   7
BRANCH   3  10
ATOM     10  O   UNL     1       3.768 -14.938  10.777  1.00  0.00    -0.493 OA
ATOM     11  C   UNL     1       5.054 -15.246  10.248  1.00  0.00     0.278 C 
ENDBRANCH   3  10
BRANCH   4  12
ATOM     12  O   UNL     1       1.744 -16.868  10.955  1.00  0.00    -0.504 OA
ATOM     13  H   UNL     1       2.191 -17.726  10.655  1.00  0.00     0.293 HD
ENDBRANCH   4  12
TORSDOF 3
ENDMDL
MODEL 2
REMARK VINA RESULT:    -3.695      2.182      3.576
REMARK INTER + INTRA:          -4.345
REMARK INTER:                  -4.234
REMARK INTRA:                  -0.112
REMARK UNBOUND:                -0.110
REMARK SMILES COc1cc(C(C)=O)ccc1O
REMARK SMILES IDX 5 1 4 2 3 3 11 4 10 5 9 6 6 7 7 8 8 9 2 10 1 11 12 12
REMARK H PARENT 12 13
REMARK Flexibility Score: inf
ROOT
ATOM      1  C   UNL     1       1.774 -15.335  10.076  1.00  0.00     0.021 A 
ATOM      2  C   UNL     1       1.600 -15.875  11.367  1.00  0.00     0.062 A 
ATOM      3  C   UNL     1       2.712 -16.236  12.156  1.00  0.00     0.161 A 
ATOM      4  C   UNL     1       4.008 -16.054  11.642  1.00  0.00     0.157 A 
ATOM      5  C   UNL     1       4.184 -15.519  10.363  1.00  0.00     0.051 A 
ATOM      6  C   UNL     1       3.081 -15.163   9.587  1.00  0.00     0.016 A 
ENDROOT
BRANCH   1   7
ATOM      7  C   UNL     1       0.609 -14.949   9.234  1.00  0.00     0.159 C 
ATOM      8  C   UNL     1      -0.249 -15.972   8.550  1.00  0.00     0.093 C 
ATOM      9  O   UNL     1       0.323 -13.731   9.080  1.00  0.00    -0.295 OA
ENDBRANCH   1   7
BRANCH   3  10
ATOM     10  O   UNL     1       2.566 -16.776  13.444  1.00  0.00    -0.493 OA
ATOM     11  C   UNL     1       2.084 -18.086  13.724  1.00  0.00     0.278 C 
ENDBRANCH   3  10
BRANCH   4  12
ATOM     12  O   UNL     1       5.134 -16.398  12.388  1.00  0.00    -0.504 OA
ATOM     13  H   UNL     1       5.258 -17.322  12.785  1.00  0.00     0.293 HD
ENDBRANCH   4  12
TORSDOF 3
ENDMDL
MODEL 3
REMARK VINA RESULT:    -3.663      1.462      4.409
REMARK INTER + INTRA:          -4.309
REMARK INTER:                  -4.178
REMARK INTRA:                  -0.131
REMARK UNBOUND:                -0.110
REMARK SMILES COc1cc(C(C)=O)ccc1O
REMARK SMILES IDX 5 1 4 2 3 3 11 4 10 5 9 6 6 7 7 8 8 9 2 10 1 11 12 12
REMARK H PARENT 12 13
REMARK Flexibility Score: inf
ROOT
ATOM      1  C   UNL     1       2.133 -15.256  10.344  1.00  0.00     0.021 A 
ATOM      2  C   UNL     1       2.617 -14.027   9.850  1.00  0.00     0.062 A 
ATOM      3  C   UNL     1       1.923 -13.329   8.840  1.00  0.00     0.161 A 
ATOM      4  C   UNL     1       0.734 -13.872   8.322  1.00  0.00     0.157 A 
ATOM      5  C   UNL     1       0.252 -15.089   8.808  1.00  0.00     0.051 A 
ATOM      6  C   UNL     1       0.942 -15.776   9.808  1.00  0.00     0.016 A 
ENDROOT
BRANCH   1   7
ATOM      7  C   UNL     1       2.856 -16.002  11.409  1.00  0.00     0.159 C 
ATOM      8  C   UNL     1       2.129 -16.785  12.463  1.00  0.00     0.093 C 
ATOM      9  O   UNL     1       4.116 -15.986  11.441  1.00  0.00    -0.295 OA
ENDBRANCH   1   7
BRANCH   3  10
ATOM     10  O   UNL     1       2.383 -12.104   8.332  1.00  0.00    -0.493 OA
ATOM     11  C   UNL     1       3.352 -11.968   7.297  1.00  0.00     0.278 C 
ENDBRANCH   3  10
BRANCH   4  12
ATOM     12  O   UNL     1       0.018 -13.215   7.323  1.00  0.00    -0.504 OA
ATOM     13  H   UNL     1      -0.149 -12.216   7.344  1.00  0.00     0.293 HD
ENDBRANCH   4  12
TORSDOF 3
ENDMDL
MODEL 4
REMARK VINA RESULT:    -3.629      5.515      7.152
REMARK INTER + INTRA:          -4.269
REMARK INTER:                  -4.148
REMARK INTRA:                  -0.121
REMARK UNBOUND:                -0.110
REMARK SMILES COc1cc(C(C)=O)ccc1O
REMARK SMILES IDX 5 1 4 2 3 3 11 4 10 5 9 6 6 7 7 8 8 9 2 10 1 11 12 12
REMARK H PARENT 12 13
REMARK Flexibility Score: inf
ROOT
ATOM      1  C   UNL     1       1.658 -17.707  14.002  1.00  0.00     0.021 A 
ATOM      2  C   UNL     1       2.628 -18.731  14.002  1.00  0.00     0.062 A 
ATOM      3  C   UNL     1       2.552 -19.799  14.920  1.00  0.00     0.161 A 
ATOM      4  C   UNL     1       1.495 -19.836  15.846  1.00  0.00     0.157 A 
ATOM      5  C   UNL     1       0.533 -18.823  15.849  1.00  0.00     0.051 A 
ATOM      6  C   UNL     1       0.612 -17.769  14.939  1.00  0.00     0.016 A 
ENDROOT
BRANCH   1   7
ATOM      7  C   UNL     1       1.726 -16.575  13.039  1.00  0.00     0.159 C 
ATOM      8  C   UNL     1       1.361 -15.174  13.433  1.00  0.00     0.093 C 
ATOM      9  O   UNL     1       2.098 -16.783  11.852  1.00  0.00    -0.295 OA
ENDBRANCH   1   7
BRANCH   3  10
ATOM     10  O   UNL     1       3.504 -20.831  14.939  1.00  0.00    -0.493 OA
ATOM     11  C   UNL     1       3.847 -21.638  13.817  1.00  0.00     0.278 C 
ENDBRANCH   3  10
BRANCH   4  12
ATOM     12  O   UNL     1       1.384 -20.874  16.771  1.00  0.00    -0.504 OA
ATOM     13  H   UNL     1       1.245 -21.837  16.489  1.00  0.00     0.293 HD
ENDBRANCH   4  12
TORSDOF 3
ENDMDL
MODEL 5
REMARK VINA RESULT:    -3.580      1.431      2.470
REMARK INTER + INTRA:          -4.214
REMARK INTER:                  -4.093
REMARK INTRA:                  -0.121
REMARK UNBOUND:                -0.110
REMARK SMILES COc1cc(C(C)=O)ccc1O
REMARK SMILES IDX 5 1 4 2 3 3 11 4 10 5 9 6 6 7 7 8 8 9 2 10 1 11 12 12
REMARK H PARENT 12 13
REMARK Flexibility Score: inf
ROOT
ATOM      1  C   UNL     1       1.631 -13.482   9.025  1.00  0.00     0.021 A 
ATOM      2  C   UNL     1       1.332 -14.607   9.822  1.00  0.00     0.062 A 
ATOM      3  C   UNL     1       2.328 -15.555  10.138  1.00  0.00     0.161 A 
ATOM      4  C   UNL     1       3.633 -15.370   9.648  1.00  0.00     0.157 A 
ATOM      5  C   UNL     1       3.932 -14.257   8.859  1.00  0.00     0.051 A 
ATOM      6  C   UNL     1       2.944 -13.322   8.549  1.00  0.00     0.016 A 
ENDROOT
BRANCH   1   7
ATOM      7  C   UNL     1       0.590 -12.475   8.684  1.00  0.00     0.159 C 
ATOM      8  C   UNL     1       0.243 -12.141   7.264  1.00  0.00     0.093 C 
ATOM      9  O   UNL     1      -0.027 -11.875   9.606  1.00  0.00    -0.295 OA
ENDBRANCH   1   7
BRANCH   3  10
ATOM     10  O   UNL     1       2.056 -16.682  10.929  1.00  0.00    -0.493 OA
ATOM     11  C   UNL     1       2.109 -16.705  12.352  1.00  0.00     0.278 C 
ENDBRANCH   3  10
BRANCH   4  12
ATOM     12  O   UNL     1       4.646 -16.283   9.937  1.00  0.00    -0.504 OA
ATOM     13  H   UNL     1       5.202 -16.226  10.782  1.00  0.00     0.293 HD
ENDBRANCH   4  12
TORSDOF 3
ENDMDL
MODEL 6
REMARK VINA RESULT:    -3.522      5.846      8.434
REMARK INTER + INTRA:          -4.147
REMARK INTER:                  -4.058
REMARK INTRA:                  -0.090
REMARK UNBOUND:                -0.110
REMARK SMILES COc1cc(C(C)=O)ccc1O
REMARK SMILES IDX 5 1 4 2 3 3 11 4 10 5 9 6 6 7 7 8 8 9 2 10 1 11 12 12
REMARK H PARENT 12 13
REMARK Flexibility Score: inf
ROOT
ATOM      1  C   UNL     1       2.567 -19.841  15.026  1.00  0.00     0.021 A 
ATOM      2  C   UNL     1       2.510 -18.779  14.100  1.00  0.00     0.062 A 
ATOM      3  C   UNL     1       1.478 -17.820  14.162  1.00  0.00     0.161 A 
ATOM      4  C   UNL     1       0.495 -17.931  15.162  1.00  0.00     0.157 A 
ATOM      5  C   UNL     1       0.549 -18.982  16.080  1.00  0.00     0.051 A 
ATOM      6  C   UNL     1       1.572 -19.928  16.015  1.00  0.00     0.016 A 
ENDROOT
BRANCH   1   7
ATOM      7  C   UNL     1       3.651 -20.860  14.972  1.00  0.00     0.159 C 
ATOM      8  C   UNL     1       3.898 -21.693  13.750  1.00  0.00     0.093 C 
ATOM      9  O   UNL     1       4.392 -21.040  15.977  1.00  0.00    -0.295 OA
ENDBRANCH   1   7
BRANCH   3  10
ATOM     10  O   UNL     1       1.399 -16.753  13.253  1.00  0.00    -0.493 OA
ATOM     11  C   UNL     1       2.205 -16.622  12.086  1.00  0.00     0.278 C 
ENDBRANCH   3  10
BRANCH   4  12
ATOM     12  O   UNL     1      -0.542 -17.005  15.258  1.00  0.00    -0.504 OA
ATOM     13  H   UNL     1      -1.350 -17.157  15.849  1.00  0.00     0.293 HD
ENDBRANCH   4  12
TORSDOF 3
ENDMDL
MODEL 7
REMARK VINA RESULT:    -3.512      2.475      3.543
REMARK INTER + INTRA:          -4.136
REMARK INTER:                  -4.031
REMARK INTRA:                  -0.105
REMARK UNBOUND:                -0.110
REMARK SMILES COc1cc(C(C)=O)ccc1O
REMARK SMILES IDX 5 1 4 2 3 3 11 4 10 5 9 6 6 7 7 8 8 9 2 10 1 11 12 12
REMARK H PARENT 12 13
REMARK Flexibility Score: inf
ROOT
ATOM      1  C   UNL     1       1.021 -14.762  10.428  1.00  0.00     0.021 A 
ATOM      2  C   UNL     1       1.588 -15.920  11.000  1.00  0.00     0.062 A 
ATOM      3  C   UNL     1       2.138 -15.890  12.298  1.00  0.00     0.161 A 
ATOM      4  C   UNL     1       2.119 -14.688  13.026  1.00  0.00     0.157 A 
ATOM      5  C   UNL     1       1.558 -13.539  12.462  1.00  0.00     0.051 A 
ATOM      6  C   UNL     1       1.015 -13.573  11.178  1.00  0.00     0.016 A 
ENDROOT
BRANCH   1   7
ATOM      7  C   UNL     1       0.437 -14.780   9.059  1.00  0.00     0.159 C 
ATOM      8  C   UNL     1      -0.253 -15.991   8.506  1.00  0.00     0.093 C 
ATOM      9  O   UNL     1       0.517 -13.753   8.331  1.00  0.00    -0.295 OA
ENDBRANCH   1   7
BRANCH   3  10
ATOM     10  O   UNL     1       2.708 -17.029  12.890  1.00  0.00    -0.493 OA
ATOM     11  C   UNL     1       1.988 -17.993  13.651  1.00  0.00     0.278 C 
ENDBRANCH   3  10
BRANCH   4  12
ATOM     12  O   UNL     1       2.653 -14.615  14.312  1.00  0.00    -0.504 OA
ATOM     13  H   UNL     1       2.295 -15.172  15.078  1.00  0.00     0.293 HD
ENDBRANCH   4  12
TORSDOF 3
ENDMDL
MODEL 8
REMARK VINA RESULT:    -3.430      2.103      2.469
REMARK INTER + INTRA:          -4.042
REMARK INTER:                  -3.929
REMARK INTRA:                  -0.112
REMARK UNBOUND:                -0.110
REMARK SMILES COc1cc(C(C)=O)ccc1O
REMARK SMILES IDX 5 1 4 2 3 3 11 4 10 5 9 6 6 7 7 8 8 9 2 10 1 11 12 12
REMARK H PARENT 12 13
REMARK Flexibility Score: inf
ROOT
ATOM      1  C   UNL     1       1.011 -13.920   9.852  1.00  0.00     0.021 A 
ATOM      2  C   UNL     1       1.286 -13.746  11.224  1.00  0.00     0.062 A 
ATOM      3  C   UNL     1       1.629 -14.846  12.038  1.00  0.00     0.161 A 
ATOM      4  C   UNL     1       1.694 -16.129  11.468  1.00  0.00     0.157 A 
ATOM      5  C   UNL     1       1.422 -16.305  10.109  1.00  0.00     0.051 A 
ATOM      6  C   UNL     1       1.084 -15.214   9.308  1.00  0.00     0.016 A 
ENDROOT
BRANCH   1   7
ATOM      7  C   UNL     1       0.649 -12.768   8.982  1.00  0.00     0.159 C 
ATOM      8  C   UNL     1       1.182 -12.628   7.587  1.00  0.00     0.093 C 
ATOM      9  O   UNL     1      -0.128 -11.875   9.416  1.00  0.00    -0.295 OA
ENDBRANCH   1   7
BRANCH   3  10
ATOM     10  O   UNL     1       1.907 -14.700  13.406  1.00  0.00    -0.493 OA
ATOM     11  C   UNL     1       1.236 -13.795  14.278  1.00  0.00     0.278 C 
ENDBRANCH   3  10
BRANCH   4  12
ATOM     12  O   UNL     1       2.028 -17.243  12.237  1.00  0.00    -0.504 OA
ATOM     13  H   UNL     1       2.019 -17.223  13.250  1.00  0.00     0.293 HD
ENDBRANCH   4  12
TORSDOF 3
ENDMDL
MODEL 9
REMARK VINA RESULT:    -3.401      2.119      2.855
REMARK INTER + INTRA:          -4.008
REMARK INTER:                  -3.880
REMARK INTRA:                  -0.128
REMARK UNBOUND:                -0.110
REMARK SMILES COc1cc(C(C)=O)ccc1O
REMARK SMILES IDX 5 1 4 2 3 3 11 4 10 5 9 6 6 7 7 8 8 9 2 10 1 11 12 12
REMARK H PARENT 12 13
REMARK Flexibility Score: inf
ROOT
ATOM      1  C   UNL     1       1.743 -15.281   9.763  1.00  0.00     0.021 A 
ATOM      2  C   UNL     1       3.055 -14.882   9.434  1.00  0.00     0.062 A 
ATOM      3  C   UNL     1       4.143 -15.216  10.267  1.00  0.00     0.161 A 
ATOM      4  C   UNL     1       3.909 -15.956  11.440  1.00  0.00     0.157 A 
ATOM      5  C   UNL     1       2.612 -16.353  11.768  1.00  0.00     0.051 A 
ATOM      6  C   UNL     1       1.538 -16.021  10.942  1.00  0.00     0.016 A 
ENDROOT
BRANCH   1   7
ATOM      7  C   UNL     1       0.586 -14.936   8.893  1.00  0.00     0.159 C 
ATOM      8  C   UNL     1      -0.435 -15.957   8.487  1.00  0.00     0.093 C 
ATOM      9  O   UNL     1       0.447 -13.754   8.477  1.00  0.00    -0.295 OA
ENDBRANCH   1   7
BRANCH   3  10
ATOM     10  O   UNL     1       5.458 -14.831   9.962  1.00  0.00    -0.493 OA
ATOM     11  C   UNL     1       5.988 -13.525  10.167  1.00  0.00     0.278 C 
ENDBRANCH   3  10
BRANCH   4  12
ATOM     12  O   UNL     1       4.957 -16.306  12.291  1.00  0.00    -0.504 OA
ATOM     13  H   UNL     1       4.986 -16.016  13.261  1.00  0.00     0.293 HD
ENDBRANCH   4  12
TORSDOF 3
ENDMDL
