MODEL 1
REMARK VINA RESULT:    -3.461      0.000      0.000
REMARK INTER + INTRA:          -5.526
REMARK INTER:                  -4.877
REMARK INTRA:                  -0.649
REMARK UNBOUND:                -0.649
REMARK SMILES CCCCCCCCC(=O)[O-]
REMARK SMILES IDX 6 1 7 2 8 3 9 4 10 5 11 6 5 7 4 8 3 9 2 10 1 11
REMARK H PARENT
REMARK Flexibility Score: inf
ROOT
ATOM      1  C   UNL     1      22.851  34.871  11.608  1.00  0.00     0.000 C 
ENDROOT
BRANCH   1   2
ATOM      2  C   UNL     1      22.681  34.619  13.114  1.00  0.00     0.006 C 
BRANCH   2   3
ATOM      3  C   UNL     1      23.124  35.821  13.958  1.00  0.00     0.053 C 
BRANCH   3   4
ATOM      4  C   UNL     1      22.077  36.215  14.955  1.00  0.00     0.041 C 
ATOM      5  O   UNL     1      21.054  35.498  15.117  1.00  0.00    -0.550 OA
ATOM      6  O   UNL     1      22.246  37.357  15.727  1.00  0.00    -0.550 OA
ENDBRANCH   3   4
ENDBRANCH   2   3
ENDBRANCH   1   2
BRANCH   1   7
ATOM      7  C   UNL     1      23.758  33.811  10.972  1.00  0.00     0.000 C 
BRANCH   7   8
ATOM      8  C   UNL     1      24.373  32.899  12.044  1.00  0.00    -0.000 C 
BRANCH   8   9
ATOM      9  C   UNL     1      25.871  32.645  11.818  1.00  0.00    -0.000 C 
BRANCH   9  10
ATOM     10  C   UNL     1      26.737  33.865  12.161  1.00  0.00    -0.003 C 
ATOM     11  C   UNL     1      26.492  34.328  13.594  1.00  0.00     0.004 C 
ENDBRANCH   9  10
ENDBRANCH   8   9
ENDBRANCH   7   8
ENDBRANCH   1   7
TORSDOF 7
ENDMDL
MODEL 2
REMARK VINA RESULT:    -3.414      1.517      1.976
REMARK INTER + INTRA:          -5.460
REMARK INTER:                  -4.879
REMARK INTRA:                  -0.581
REMARK UNBOUND:                -0.649
REMARK SMILES CCCCCCCCC(=O)[O-]
REMARK SMILES IDX 6 1 7 2 8 3 9 4 10 5 11 6 5 7 4 8 3 9 2 10 1 11
REMARK H PARENT
REMARK Flexibility Score: inf
ROOT
ATOM      1  C   UNL     1      22.898  35.091  12.312  1.00  0.00     0.000 C 
ENDROOT
BRANCH   1   2
ATOM      2  C   UNL     1      23.077  35.465  13.791  1.00  0.00     0.006 C 
BRANCH   2   3
ATOM      3  C   UNL     1      24.352  36.283  14.034  1.00  0.00     0.053 C 
BRANCH   3   4
ATOM      4  C   UNL     1      24.052  37.742  14.199  1.00  0.00     0.041 C 
ATOM      5  O   UNL     1      23.133  38.117  14.975  1.00  0.00    -0.550 OA
ATOM      6  O   UNL     1      24.807  38.689  13.519  1.00  0.00    -0.550 OA
ENDBRANCH   3   4
ENDBRANCH   2   3
ENDBRANCH   1   2
BRANCH   1   7
ATOM      7  C   UNL     1      23.316  33.638  12.058  1.00  0.00     0.000 C 
BRANCH   7   8
ATOM      8  C   UNL     1      24.159  33.523  10.779  1.00  0.00    -0.000 C 
BRANCH   8   9
ATOM      9  C   UNL     1      25.397  32.632  10.962  1.00  0.00    -0.000 C 
BRANCH   9  10
ATOM     10  C   UNL     1      26.125  32.897  12.287  1.00  0.00    -0.003 C 
ATOM     11  C   UNL     1      27.059  34.098  12.171  1.00  0.00     0.004 C 
ENDBRANCH   9  10
ENDBRANCH   8   9
ENDBRANCH   7   8
ENDBRANCH   1   7
TORSDOF 7
ENDMDL
MODEL 3
REMARK VINA RESULT:    -3.324      3.706      5.222
REMARK INTER + INTRA:          -5.333
REMARK INTER:                  -4.939
REMARK INTRA:                  -0.394
REMARK UNBOUND:                -0.649
REMARK SMILES CCCCCCCCC(=O)[O-]
REMARK SMILES IDX 6 1 7 2 8 3 9 4 10 5 11 6 5 7 4 8 3 9 2 10 1 11
REMARK H PARENT
REMARK Flexibility Score: inf
ROOT
ATOM      1  C   UNL     1      22.870  34.649  11.861  1.00  0.00     0.000 C 
ENDROOT
BRANCH   1   2
ATOM      2  C   UNL     1      23.721  33.370  11.828  1.00  0.00     0.006 C 
BRANCH   2   3
ATOM      3  C   UNL     1      24.478  33.210  10.504  1.00  0.00     0.053 C 
BRANCH   3   4
ATOM      4  C   UNL     1      24.899  31.790  10.274  1.00  0.00     0.041 C 
ATOM      5  O   UNL     1      24.713  31.247   9.153  1.00  0.00    -0.550 OA
ATOM      6  O   UNL     1      25.524  31.077  11.289  1.00  0.00    -0.550 OA
ENDBRANCH   3   4
ENDBRANCH   2   3
ENDBRANCH   1   2
BRANCH   1   7
ATOM      7  C   UNL     1      22.624  35.109  13.302  1.00  0.00     0.000 C 
BRANCH   7   8
ATOM      8  C   UNL     1      23.910  35.015  14.137  1.00  0.00    -0.000 C 
BRANCH   8   9
ATOM      9  C   UNL     1      24.726  36.317  14.118  1.00  0.00    -0.000 C 
BRANCH   9  10
ATOM     10  C   UNL     1      23.864  37.558  14.389  1.00  0.00    -0.003 C 
ATOM     11  C   UNL     1      24.325  38.743  13.546  1.00  0.00     0.004 C 
ENDBRANCH   9  10
ENDBRANCH   8   9
ENDBRANCH   7   8
ENDBRANCH   1   7
TORSDOF 7
ENDMDL
MODEL 4
REMARK VINA RESULT:    -3.302      2.011      3.298
REMARK INTER + INTRA:          -5.303
REMARK INTER:                  -4.731
REMARK INTRA:                  -0.572
REMARK UNBOUND:                -0.649
REMARK SMILES CCCCCCCCC(=O)[O-]
REMARK SMILES IDX 6 1 7 2 8 3 9 4 10 5 11 6 5 7 4 8 3 9 2 10 1 11
REMARK H PARENT
REMARK Flexibility Score: inf
ROOT
ATOM      1  C   UNL     1      26.020  34.959  13.822  1.00  0.00     0.000 C 
ENDROOT
BRANCH   1   2
ATOM      2  C   UNL     1      24.640  35.122  14.477  1.00  0.00     0.006 C 
BRANCH   2   3
ATOM      3  C   UNL     1      23.643  35.843  13.560  1.00  0.00     0.053 C 
BRANCH   3   4
ATOM      4  C   UNL     1      22.865  34.878  12.719  1.00  0.00     0.041 C 
ATOM      5  O   UNL     1      22.281  33.898  13.253  1.00  0.00    -0.550 OA
ATOM      6  O   UNL     1      22.760  35.077  11.348  1.00  0.00    -0.550 OA
ENDBRANCH   3   4
ENDBRANCH   2   3
ENDBRANCH   1   2
BRANCH   1   7
ATOM      7  C   UNL     1      26.293  33.492  13.473  1.00  0.00     0.000 C 
BRANCH   7   8
ATOM      8  C   UNL     1      26.184  33.258  11.959  1.00  0.00    -0.000 C 
BRANCH   8   9
ATOM      9  C   UNL     1      25.212  32.123  11.602  1.00  0.00    -0.000 C 
BRANCH   9  10
ATOM     10  C   UNL     1      24.656  32.246  10.177  1.00  0.00    -0.003 C 
ATOM     11  C   UNL     1      25.095  31.068   9.312  1.00  0.00     0.004 C 
ENDBRANCH   9  10
ENDBRANCH   8   9
ENDBRANCH   7   8
ENDBRANCH   1   7
TORSDOF 7
ENDMDL
MODEL 5
REMARK VINA RESULT:    -3.288      3.546      4.727
REMARK INTER + INTRA:          -5.282
REMARK INTER:                  -4.710
REMARK INTRA:                  -0.572
REMARK UNBOUND:                -0.649
REMARK SMILES CCCCCCCCC(=O)[O-]
REMARK SMILES IDX 6 1 7 2 8 3 9 4 10 5 11 6 5 7 4 8 3 9 2 10 1 11
REMARK H PARENT
REMARK Flexibility Score: inf
ROOT
ATOM      1  C   UNL     1      22.901  34.772  11.802  1.00  0.00     0.000 C 
ENDROOT
BRANCH   1   2
ATOM      2  C   UNL     1      23.519  33.370  11.677  1.00  0.00     0.006 C 
BRANCH   2   3
ATOM      3  C   UNL     1      24.370  33.221  10.410  1.00  0.00     0.053 C 
BRANCH   3   4
ATOM      4  C   UNL     1      24.790  31.800  10.189  1.00  0.00     0.041 C 
ATOM      5  O   UNL     1      24.488  31.209   9.118  1.00  0.00    -0.550 OA
ATOM      6  O   UNL     1      25.541  31.138  11.151  1.00  0.00    -0.550 OA
ENDBRANCH   3   4
ENDBRANCH   2   3
ENDBRANCH   1   2
BRANCH   1   7
ATOM      7  C   UNL     1      23.000  35.290  13.241  1.00  0.00     0.000 C 
BRANCH   7   8
ATOM      8  C   UNL     1      24.065  34.516  14.032  1.00  0.00    -0.000 C 
BRANCH   8   9
ATOM      9  C   UNL     1      25.302  35.369  14.353  1.00  0.00    -0.000 C 
BRANCH   9  10
ATOM     10  C   UNL     1      26.615  34.587  14.208  1.00  0.00    -0.003 C 
ATOM     11  C   UNL     1      26.850  34.170  12.759  1.00  0.00     0.004 C 
ENDBRANCH   9  10
ENDBRANCH   8   9
ENDBRANCH   7   8
ENDBRANCH   1   7
TORSDOF 7
ENDMDL
MODEL 6
REMARK VINA RESULT:    -3.255      3.165      5.199
REMARK INTER + INTRA:          -5.236
REMARK INTER:                  -4.445
REMARK INTRA:                  -0.791
REMARK UNBOUND:                -0.649
REMARK SMILES CCCCCCCCC(=O)[O-]
REMARK SMILES IDX 6 1 7 2 8 3 9 4 10 5 11 6 5 7 4 8 3 9 2 10 1 11
REMARK H PARENT
REMARK Flexibility Score: inf
ROOT
ATOM      1  C   UNL     1      26.533  34.393  13.373  1.00  0.00     0.000 C 
ENDROOT
BRANCH   1   2
ATOM      2  C   UNL     1      26.453  33.595  12.063  1.00  0.00     0.006 C 
BRANCH   2   3
ATOM      3  C   UNL     1      26.131  32.114  12.303  1.00  0.00     0.053 C 
BRANCH   3   4
ATOM      4  C   UNL     1      25.141  31.594  11.306  1.00  0.00     0.041 C 
ATOM      5  O   UNL     1      24.081  31.035  11.697  1.00  0.00    -0.550 OA
ATOM      6  O   UNL     1      25.373  31.753   9.947  1.00  0.00    -0.550 OA
ENDBRANCH   3   4
ENDBRANCH   2   3
ENDBRANCH   1   2
BRANCH   1   7
ATOM      7  C   UNL     1      25.210  34.318  14.144  1.00  0.00     0.000 C 
BRANCH   7   8
ATOM      8  C   UNL     1      24.548  35.701  14.236  1.00  0.00    -0.000 C 
BRANCH   8   9
ATOM      9  C   UNL     1      23.260  35.798  13.403  1.00  0.00    -0.000 C 
BRANCH   9  10
ATOM     10  C   UNL     1      22.862  34.457  12.771  1.00  0.00    -0.003 C 
ATOM     11  C   UNL     1      22.827  34.555  11.248  1.00  0.00     0.004 C 
ENDBRANCH   9  10
ENDBRANCH   8   9
ENDBRANCH   7   8
ENDBRANCH   1   7
TORSDOF 7
ENDMDL
MODEL 7
REMARK VINA RESULT:    -3.255      0.817      2.325
REMARK INTER + INTRA:          -5.236
REMARK INTER:                  -4.634
REMARK INTRA:                  -0.602
REMARK UNBOUND:                -0.649
REMARK SMILES CCCCCCCCC(=O)[O-]
REMARK SMILES IDX 6 1 7 2 8 3 9 4 10 5 11 6 5 7 4 8 3 9 2 10 1 11
REMARK H PARENT
REMARK Flexibility Score: inf
ROOT
ATOM      1  C   UNL     1      25.409  35.424  13.904  1.00  0.00     0.000 C 
ENDROOT
BRANCH   1   2
ATOM      2  C   UNL     1      24.114  34.812  14.461  1.00  0.00     0.006 C 
BRANCH   2   3
ATOM      3  C   UNL     1      22.860  35.465  13.867  1.00  0.00     0.053 C 
BRANCH   3   4
ATOM      4  C   UNL     1      21.948  35.987  14.935  1.00  0.00     0.041 C 
ATOM      5  O   UNL     1      20.990  35.282  15.351  1.00  0.00    -0.550 OA
ATOM      6  O   UNL     1      22.174  37.238  15.493  1.00  0.00    -0.550 OA
ENDBRANCH   3   4
ENDBRANCH   2   3
ENDBRANCH   1   2
BRANCH   1   7
ATOM      7  C   UNL     1      26.527  34.378  13.837  1.00  0.00     0.000 C 
BRANCH   7   8
ATOM      8  C   UNL     1      26.734  33.887  12.396  1.00  0.00    -0.000 C 
BRANCH   8   9
ATOM      9  C   UNL     1      25.933  32.614  12.082  1.00  0.00    -0.000 C 
BRANCH   9  10
ATOM     10  C   UNL     1      25.162  32.711  10.758  1.00  0.00    -0.003 C 
ATOM     11  C   UNL     1      23.949  33.626  10.894  1.00  0.00     0.004 C 
ENDBRANCH   9  10
ENDBRANCH   8   9
ENDBRANCH   7   8
ENDBRANCH   1   7
TORSDOF 7
ENDMDL
MODEL 8
REMARK VINA RESULT:    -3.186      3.144      5.132
REMARK INTER + INTRA:          -5.139
REMARK INTER:                  -4.669
REMARK INTRA:                  -0.470
REMARK UNBOUND:                -0.649
REMARK SMILES CCCCCCCCC(=O)[O-]
REMARK SMILES IDX 6 1 7 2 8 3 9 4 10 5 11 6 5 7 4 8 3 9 2 10 1 11
REMARK H PARENT
REMARK Flexibility Score: inf
ROOT
ATOM      1  C   UNL     1      26.299  34.635  13.461  1.00  0.00     0.000 C 
ENDROOT
BRANCH   1   2
ATOM      2  C   UNL     1      26.610  33.723  12.264  1.00  0.00     0.006 C 
BRANCH   2   3
ATOM      3  C   UNL     1      25.567  32.611  12.094  1.00  0.00     0.053 C 
BRANCH   3   4
ATOM      4  C   UNL     1      24.749  32.804  10.854  1.00  0.00     0.041 C 
ATOM      5  O   UNL     1      23.961  33.782  10.759  1.00  0.00    -0.550 OA
ATOM      6  O   UNL     1      24.879  31.920   9.790  1.00  0.00    -0.550 OA
ENDBRANCH   3   4
ENDBRANCH   2   3
ENDBRANCH   1   2
BRANCH   1   7
ATOM      7  C   UNL     1      25.167  34.052  14.315  1.00  0.00     0.000 C 
BRANCH   7   8
ATOM      8  C   UNL     1      24.300  35.170  14.916  1.00  0.00    -0.000 C 
BRANCH   8   9
ATOM      9  C   UNL     1      23.972  36.275  13.900  1.00  0.00    -0.000 C 
BRANCH   9  10
ATOM     10  C   UNL     1      23.941  37.672  14.536  1.00  0.00    -0.003 C 
ATOM     11  C   UNL     1      24.332  38.746  13.525  1.00  0.00     0.004 C 
ENDBRANCH   9  10
ENDBRANCH   8   9
ENDBRANCH   7   8
ENDBRANCH   1   7
TORSDOF 7
ENDMDL
MODEL 9
REMARK VINA RESULT:    -3.168      1.801      3.070
REMARK INTER + INTRA:          -5.113
REMARK INTER:                  -4.480
REMARK INTRA:                  -0.633
REMARK UNBOUND:                -0.649
REMARK SMILES CCCCCCCCC(=O)[O-]
REMARK SMILES IDX 6 1 7 2 8 3 9 4 10 5 11 6 5 7 4 8 3 9 2 10 1 11
REMARK H PARENT
REMARK Flexibility Score: inf
ROOT
ATOM      1  C   UNL     1      25.934  34.974  13.850  1.00  0.00     0.000 C 
ENDROOT
BRANCH   1   2
ATOM      2  C   UNL     1      24.755  35.508  14.678  1.00  0.00     0.006 C 
BRANCH   2   3
ATOM      3  C   UNL     1      23.899  36.509  13.891  1.00  0.00     0.053 C 
BRANCH   3   4
ATOM      4  C   UNL     1      24.181  37.922  14.300  1.00  0.00     0.041 C 
ATOM      5  O   UNL     1      24.842  38.682  13.543  1.00  0.00    -0.550 OA
ATOM      6  O   UNL     1      23.689  38.409  15.504  1.00  0.00    -0.550 OA
ENDBRANCH   3   4
ENDBRANCH   2   3
ENDBRANCH   1   2
BRANCH   1   7
ATOM      7  C   UNL     1      26.181  33.489  14.140  1.00  0.00     0.000 C 
BRANCH   7   8
ATOM      8  C   UNL     1      26.267  32.681  12.837  1.00  0.00    -0.000 C 
BRANCH   8   9
ATOM      9  C   UNL     1      25.993  33.536  11.590  1.00  0.00    -0.000 C 
BRANCH   9  10
ATOM     10  C   UNL     1      24.757  33.065  10.809  1.00  0.00    -0.003 C 
ATOM     11  C   UNL     1      23.552  33.955  11.099  1.00  0.00     0.004 C 
ENDBRANCH   9  10
ENDBRANCH   8   9
ENDBRANCH   7   8
ENDBRANCH   1   7
TORSDOF 7
ENDMDL
