MODEL 1
REMARK VINA RESULT:     8.495      0.000      0.000
REMARK INTER + INTRA:           8.974
REMARK INTER:                   8.992
REMARK INTRA:                  -0.018
REMARK UNBOUND:                -0.018
REMARK SMILES O=C([O-])c1cccnc1
REMARK SMILES IDX 4 1 5 2 9 3 6 4 8 5 7 6 2 7 1 8 3 9
REMARK H PARENT
REMARK Flexibility Score: inf
ROOT
ATOM      1  C   UNL     1      -1.006  -8.255  25.023  1.00  0.00     0.016 A 
ATOM      2  C   UNL     1      -0.254  -7.083  25.210  1.00  0.00     0.013 A 
ATOM      3  C   UNL     1      -0.728  -9.364  25.840  1.00  0.00     0.120 A 
ATOM      4  C   UNL     1       0.742  -7.038  26.187  1.00  0.00     0.021 A 
ATOM      5  N   UNL     1       0.248  -9.294  26.785  1.00  0.00    -0.264 NA
ATOM      6  C   UNL     1       0.981  -8.166  26.974  1.00  0.00     0.111 A 
ENDROOT
BRANCH   1   7
ATOM      7  C   UNL     1      -2.066  -8.324  23.994  1.00  0.00     0.073 C 
ATOM      8  O   UNL     1      -3.248  -8.625  24.312  1.00  0.00    -0.545 OA
ATOM      9  O   UNL     1      -1.772  -8.059  22.662  1.00  0.00    -0.545 OA
ENDBRANCH   1   7
TORSDOF 1
ENDMDL
