MODEL 1
REMARK VINA RESULT:    -2.144      0.000      0.000
REMARK INTER + INTRA:          -2.144
REMARK INTER:                  -2.144
REMARK INTRA:                   0.000
REMARK UNBOUND:                 0.000
REMARK SMILES CC(=O)[O-]
REMARK SMILES IDX 1 1 2 2 3 3 4 4
REMARK H PARENT
REMARK Flexibility Score: inf
ROOT
ATOM      1  C   UNL     1      20.485  36.261   2.028  1.00  0.00     0.063 C 
ATOM      2  C   UNL     1      21.031  36.825   3.296  1.00  0.00     0.038 C 
ATOM      3  O   UNL     1      20.502  36.530   4.398  1.00  0.00    -0.550 OA
ATOM      4  O   UNL     1      22.158  37.636   3.267  1.00  0.00    -0.550 OA
ENDROOT
TORSDOF 0
ENDMDL
MODEL 2
REMARK VINA RESULT:    -2.144      1.455      2.041
REMARK INTER + INTRA:          -2.144
REMARK INTER:                  -2.144
REMARK INTRA:                   0.000
REMARK UNBOUND:                 0.000
REMARK SMILES CC(=O)[O-]
REMARK SMILES IDX 1 1 2 2 3 3 4 4
REMARK H PARENT
REMARK Flexibility Score: inf
ROOT
ATOM      1  C   UNL     1      22.125  37.458   3.160  1.00  0.00     0.063 C 
ATOM      2  C   UNL     1      20.827  36.732   3.279  1.00  0.00     0.038 C 
ATOM      3  O   UNL     1      20.225  36.342   2.246  1.00  0.00    -0.550 OA
ATOM      4  O   UNL     1      20.307  36.440   4.533  1.00  0.00    -0.550 OA
ENDROOT
TORSDOF 0
ENDMDL
MODEL 3
REMARK VINA RESULT:    -2.065      7.762      7.954
REMARK INTER + INTRA:          -2.065
REMARK INTER:                  -2.065
REMARK INTRA:                   0.000
REMARK UNBOUND:                 0.000
REMARK SMILES CC(=O)[O-]
REMARK SMILES IDX 1 1 2 2 3 3 4 4
REMARK H PARENT
REMARK Flexibility Score: inf
ROOT
ATOM      1  C   UNL     1      15.265  38.635  -1.655  1.00  0.00     0.063 C 
ATOM      2  C   UNL     1      14.601  37.425  -1.092  1.00  0.00     0.038 C 
ATOM      3  O   UNL     1      13.530  37.537  -0.441  1.00  0.00    -0.550 OA
ATOM      4  O   UNL     1      15.135  36.165  -1.329  1.00  0.00    -0.550 OA
ENDROOT
TORSDOF 0
ENDMDL
MODEL 4
REMARK VINA RESULT:    -2.032     12.746     12.928
REMARK INTER + INTRA:          -2.032
REMARK INTER:                  -2.032
REMARK INTRA:                   0.000
REMARK UNBOUND:                 0.000
REMARK SMILES CC(=O)[O-]
REMARK SMILES IDX 1 1 2 2 3 3 4 4
REMARK H PARENT
REMARK Flexibility Score: inf
ROOT
ATOM      1  C   UNL     1      11.091  31.255  -1.524  1.00  0.00     0.063 C 
ATOM      2  C   UNL     1       9.982  31.604  -0.590  1.00  0.00     0.038 C 
ATOM      3  O   UNL     1       9.223  32.575  -0.845  1.00  0.00    -0.550 OA
ATOM      4  O   UNL     1       9.751  30.825   0.536  1.00  0.00    -0.550 OA
ENDROOT
TORSDOF 0
ENDMDL
MODEL 5
REMARK VINA RESULT:    -1.986     12.369     12.568
REMARK INTER + INTRA:          -1.986
REMARK INTER:                  -1.986
REMARK INTRA:                   0.000
REMARK UNBOUND:                 0.000
REMARK SMILES CC(=O)[O-]
REMARK SMILES IDX 1 1 2 2 3 3 4 4
REMARK H PARENT
REMARK Flexibility Score: inf
ROOT
ATOM      1  C   UNL     1      14.123  28.542   8.274  1.00  0.00     0.063 C 
ATOM      2  C   UNL     1      12.700  28.794   7.905  1.00  0.00     0.038 C 
ATOM      3  O   UNL     1      11.923  29.345   8.727  1.00  0.00    -0.550 OA
ATOM      4  O   UNL     1      12.244  28.470   6.634  1.00  0.00    -0.550 OA
ENDROOT
TORSDOF 0
ENDMDL
MODEL 6
REMARK VINA RESULT:    -1.977     12.903     12.989
REMARK INTER + INTRA:          -1.977
REMARK INTER:                  -1.977
REMARK INTRA:                   0.000
REMARK UNBOUND:                 0.000
REMARK SMILES CC(=O)[O-]
REMARK SMILES IDX 1 1 2 2 3 3 4 4
REMARK H PARENT
REMARK Flexibility Score: inf
ROOT
ATOM      1  C   UNL     1       9.177  32.807  -1.069  1.00  0.00     0.063 C 
ATOM      2  C   UNL     1       9.985  31.575  -0.840  1.00  0.00     0.038 C 
ATOM      3  O   UNL     1       9.872  30.937   0.238  1.00  0.00    -0.550 OA
ATOM      4  O   UNL     1      10.825  31.100  -1.839  1.00  0.00    -0.550 OA
ENDROOT
TORSDOF 0
ENDMDL
MODEL 7
REMARK VINA RESULT:    -1.967     12.094     12.649
REMARK INTER + INTRA:          -1.967
REMARK INTER:                  -1.967
REMARK INTRA:                   0.000
REMARK UNBOUND:                 0.000
REMARK SMILES CC(=O)[O-]
REMARK SMILES IDX 1 1 2 2 3 3 4 4
REMARK H PARENT
REMARK Flexibility Score: inf
ROOT
ATOM      1  C   UNL     1      10.127  31.351  -0.641  1.00  0.00     0.063 C 
ATOM      2  C   UNL     1       9.790  32.794  -0.808  1.00  0.00     0.038 C 
ATOM      3  O   UNL     1       8.587  33.163  -0.828  1.00  0.00    -0.550 OA
ATOM      4  O   UNL     1      10.803  33.740  -0.887  1.00  0.00    -0.550 OA
ENDROOT
TORSDOF 0
ENDMDL
MODEL 8
REMARK VINA RESULT:    -1.958     11.508     11.965
REMARK INTER + INTRA:          -1.958
REMARK INTER:                  -1.958
REMARK INTRA:                   0.000
REMARK UNBOUND:                 0.000
REMARK SMILES CC(=O)[O-]
REMARK SMILES IDX 1 1 2 2 3 3 4 4
REMARK H PARENT
REMARK Flexibility Score: inf
ROOT
ATOM      1  C   UNL     1      13.280  29.266   8.815  1.00  0.00     0.063 C 
ATOM      2  C   UNL     1      14.095  28.514   7.818  1.00  0.00     0.038 C 
ATOM      3  O   UNL     1      15.344  28.437   7.952  1.00  0.00    -0.550 OA
ATOM      4  O   UNL     1      13.471  27.853   6.768  1.00  0.00    -0.550 OA
ENDROOT
TORSDOF 0
ENDMDL
MODEL 9
REMARK VINA RESULT:    -1.924      2.168      2.636
REMARK INTER + INTRA:          -1.924
REMARK INTER:                  -1.924
REMARK INTRA:                   0.000
REMARK UNBOUND:                 0.000
REMARK SMILES CC(=O)[O-]
REMARK SMILES IDX 1 1 2 2 3 3 4 4
REMARK H PARENT
REMARK Flexibility Score: inf
ROOT
ATOM      1  C   UNL     1      20.536  36.429   2.255  1.00  0.00     0.063 C 
ATOM      2  C   UNL     1      21.479  35.277   2.343  1.00  0.00     0.038 C 
ATOM      3  O   UNL     1      22.170  34.950   1.344  1.00  0.00    -0.550 OA
ATOM      4  O   UNL     1      21.635  34.597   3.543  1.00  0.00    -0.550 OA
ENDROOT
TORSDOF 0
ENDMDL
