MODEL 1
REMARK VINA RESULT:    -2.888      0.000      0.000
REMARK INTER + INTRA:          -3.527
REMARK INTER:                  -3.479
REMARK INTRA:                  -0.049
REMARK UNBOUND:                -0.049
REMARK SMILES CCCCCO
REMARK SMILES IDX 4 1 3 2 2 3 1 4 5 5 6 6
REMARK H PARENT 6 7
REMARK Flexibility Score: inf
ROOT
ATOM      1  C   UNL     1     171.463 170.742 164.615  1.00  0.00     0.028 C 
ENDROOT
BRANCH   1   2
ATOM      2  C   UNL     1     169.931 170.741 164.679  1.00  0.00     0.002 C 
BRANCH   2   3
ATOM      3  C   UNL     1     169.339 169.755 163.665  1.00  0.00    -0.003 C 
ATOM      4  C   UNL     1     170.065 168.414 163.709  1.00  0.00     0.004 C 
ENDBRANCH   2   3
ENDBRANCH   1   2
BRANCH   1   5
ATOM      5  C   UNL     1     171.979 171.901 163.759  1.00  0.00     0.156 C 
BRANCH   5   6
ATOM      6  O   UNL     1     171.593 173.126 164.319  1.00  0.00    -0.396 OA
ATOM      7  H   UNL     1     170.841 173.467 163.768  1.00  0.00     0.210 HD
ENDBRANCH   5   6
ENDBRANCH   1   5
TORSDOF 4
ENDMDL
MODEL 2
REMARK VINA RESULT:    -2.856      2.151      3.626
REMARK INTER + INTRA:          -3.489
REMARK INTER:                  -3.446
REMARK INTRA:                  -0.043
REMARK UNBOUND:                -0.049
REMARK SMILES CCCCCO
REMARK SMILES IDX 4 1 3 2 2 3 1 4 5 5 6 6
REMARK H PARENT 6 7
REMARK Flexibility Score: inf
ROOT
ATOM      1  C   UNL     1     170.295 170.567 164.514  1.00  0.00     0.028 C 
ENDROOT
BRANCH   1   2
ATOM      2  C   UNL     1     171.780 170.940 164.588  1.00  0.00     0.002 C 
BRANCH   2   3
ATOM      3  C   UNL     1     172.255 171.573 163.275  1.00  0.00    -0.003 C 
ATOM      4  C   UNL     1     172.262 173.095 163.367  1.00  0.00     0.004 C 
ENDBRANCH   2   3
ENDBRANCH   1   2
BRANCH   1   5
ATOM      5  C   UNL     1     170.091 169.258 163.746  1.00  0.00     0.156 C 
BRANCH   5   6
ATOM      6  O   UNL     1     170.819 168.224 164.350  1.00  0.00    -0.396 OA
ATOM      7  H   UNL     1     170.285 167.918 165.130  1.00  0.00     0.210 HD
ENDBRANCH   5   6
ENDBRANCH   1   5
TORSDOF 4
ENDMDL
MODEL 3
REMARK VINA RESULT:    -2.784      1.748      2.612
REMARK INTER + INTRA:          -3.402
REMARK INTER:                  -3.297
REMARK INTRA:                  -0.105
REMARK UNBOUND:                -0.049
REMARK SMILES CCCCCO
REMARK SMILES IDX 4 1 3 2 2 3 1 4 5 5 6 6
REMARK H PARENT 6 7
REMARK Flexibility Score: inf
ROOT
ATOM      1  C   UNL     1     168.755 171.719 163.809  1.00  0.00     0.028 C 
ENDROOT
BRANCH   1   2
ATOM      2  C   UNL     1     169.613 171.129 164.935  1.00  0.00     0.002 C 
BRANCH   2   3
ATOM      3  C   UNL     1     170.774 170.305 164.368  1.00  0.00    -0.003 C 
ATOM      4  C   UNL     1     172.051 171.136 164.284  1.00  0.00     0.004 C 
ENDBRANCH   2   3
ENDBRANCH   1   2
BRANCH   1   5
ATOM      5  C   UNL     1     168.815 173.249 163.812  1.00  0.00     0.156 C 
BRANCH   5   6
ATOM      6  O   UNL     1     169.462 173.705 164.969  1.00  0.00    -0.396 OA
ATOM      7  H   UNL     1     169.612 172.910 165.544  1.00  0.00     0.210 HD
ENDBRANCH   5   6
ENDBRANCH   1   5
TORSDOF 4
ENDMDL
MODEL 4
REMARK VINA RESULT:    -2.772      1.747      3.302
REMARK INTER + INTRA:          -3.388
REMARK INTER:                  -3.346
REMARK INTRA:                  -0.042
REMARK UNBOUND:                -0.049
REMARK SMILES CCCCCO
REMARK SMILES IDX 4 1 3 2 2 3 1 4 5 5 6 6
REMARK H PARENT 6 7
REMARK Flexibility Score: inf
ROOT
ATOM      1  C   UNL     1     170.816 170.153 164.164  1.00  0.00     0.028 C 
ENDROOT
BRANCH   1   2
ATOM      2  C   UNL     1     172.046 171.044 164.363  1.00  0.00     0.002 C 
BRANCH   2   3
ATOM      3  C   UNL     1     171.992 172.271 163.446  1.00  0.00    -0.003 C 
ATOM      4  C   UNL     1     173.244 172.369 162.579  1.00  0.00     0.004 C 
ENDBRANCH   2   3
ENDBRANCH   1   2
BRANCH   1   5
ATOM      5  C   UNL     1     169.560 170.804 164.752  1.00  0.00     0.156 C 
BRANCH   5   6
ATOM      6  O   UNL     1     169.719 171.002 166.130  1.00  0.00    -0.396 OA
ATOM      7  H   UNL     1     168.989 171.612 166.416  1.00  0.00     0.210 HD
ENDBRANCH   5   6
ENDBRANCH   1   5
TORSDOF 4
ENDMDL
MODEL 5
REMARK VINA RESULT:    -2.662      2.479      3.378
REMARK INTER + INTRA:          -3.256
REMARK INTER:                  -3.210
REMARK INTRA:                  -0.045
REMARK UNBOUND:                -0.049
REMARK SMILES CCCCCO
REMARK SMILES IDX 4 1 3 2 2 3 1 4 5 5 6 6
REMARK H PARENT 6 7
REMARK Flexibility Score: inf
ROOT
ATOM      1  C   UNL     1     171.579 170.859 164.374  1.00  0.00     0.028 C 
ENDROOT
BRANCH   1   2
ATOM      2  C   UNL     1     171.180 172.261 163.901  1.00  0.00     0.002 C 
BRANCH   2   3
ATOM      3  C   UNL     1     169.662 172.370 163.722  1.00  0.00    -0.003 C 
ATOM      4  C   UNL     1     169.130 173.679 164.298  1.00  0.00     0.004 C 
ENDBRANCH   2   3
ENDBRANCH   1   2
BRANCH   1   5
ATOM      5  C   UNL     1     170.489 169.834 164.049  1.00  0.00     0.156 C 
BRANCH   5   6
ATOM      6  O   UNL     1     170.930 168.542 164.362  1.00  0.00    -0.396 OA
ATOM      7  H   UNL     1     170.135 168.037 164.676  1.00  0.00     0.210 HD
ENDBRANCH   5   6
ENDBRANCH   1   5
TORSDOF 4
ENDMDL
MODEL 6
REMARK VINA RESULT:    -2.623      8.758      9.665
REMARK INTER + INTRA:          -3.208
REMARK INTER:                  -3.182
REMARK INTRA:                  -0.027
REMARK UNBOUND:                -0.049
REMARK SMILES CCCCCO
REMARK SMILES IDX 4 1 3 2 2 3 1 4 5 5 6 6
REMARK H PARENT 6 7
REMARK Flexibility Score: inf
ROOT
ATOM      1  C   UNL     1     176.845 176.770 168.610  1.00  0.00     0.028 C 
ENDROOT
BRANCH   1   2
ATOM      2  C   UNL     1     177.038 176.097 169.974  1.00  0.00     0.002 C 
BRANCH   2   3
ATOM      3  C   UNL     1     177.217 174.583 169.821  1.00  0.00    -0.003 C 
ATOM      4  C   UNL     1     177.258 174.178 168.350  1.00  0.00     0.004 C 
ENDBRANCH   2   3
ENDBRANCH   1   2
BRANCH   1   5
ATOM      5  C   UNL     1     176.443 178.239 168.770  1.00  0.00     0.156 C 
BRANCH   5   6
ATOM      6  O   UNL     1     175.101 178.415 168.410  1.00  0.00    -0.396 OA
ATOM      7  H   UNL     1     174.860 177.651 167.823  1.00  0.00     0.210 HD
ENDBRANCH   5   6
ENDBRANCH   1   5
TORSDOF 4
ENDMDL
MODEL 7
REMARK VINA RESULT:    -2.609      2.111      2.199
REMARK INTER + INTRA:          -3.191
REMARK INTER:                  -3.092
REMARK INTRA:                  -0.099
REMARK UNBOUND:                -0.049
REMARK SMILES CCCCCO
REMARK SMILES IDX 4 1 3 2 2 3 1 4 5 5 6 6
REMARK H PARENT 6 7
REMARK Flexibility Score: inf
ROOT
ATOM      1  C   UNL     1     170.443 171.652 163.928  1.00  0.00     0.028 C 
ENDROOT
BRANCH   1   2
ATOM      2  C   UNL     1     169.151 171.141 164.575  1.00  0.00     0.002 C 
BRANCH   2   3
ATOM      3  C   UNL     1     168.079 170.858 163.517  1.00  0.00    -0.003 C 
ATOM      4  C   UNL     1     168.707 170.413 162.200  1.00  0.00     0.004 C 
ENDBRANCH   2   3
ENDBRANCH   1   2
BRANCH   1   5
ATOM      5  C   UNL     1     171.656 170.849 164.406  1.00  0.00     0.156 C 
BRANCH   5   6
ATOM      6  O   UNL     1     171.331 169.489 164.496  1.00  0.00    -0.396 OA
ATOM      7  H   UNL     1     170.792 169.379 165.323  1.00  0.00     0.210 HD
ENDBRANCH   5   6
ENDBRANCH   1   5
TORSDOF 4
ENDMDL
MODEL 8
REMARK VINA RESULT:    -2.596      2.497      3.513
REMARK INTER + INTRA:          -3.175
REMARK INTER:                  -3.104
REMARK INTRA:                  -0.071
REMARK UNBOUND:                -0.049
REMARK SMILES CCCCCO
REMARK SMILES IDX 4 1 3 2 2 3 1 4 5 5 6 6
REMARK H PARENT 6 7
REMARK Flexibility Score: inf
ROOT
ATOM      1  C   UNL     1     169.407 169.629 162.825  1.00  0.00     0.028 C 
ENDROOT
BRANCH   1   2
ATOM      2  C   UNL     1     168.085 170.277 163.255  1.00  0.00     0.002 C 
BRANCH   2   3
ATOM      3  C   UNL     1     168.261 171.781 163.490  1.00  0.00    -0.003 C 
ATOM      4  C   UNL     1     169.511 172.069 164.316  1.00  0.00     0.004 C 
ENDBRANCH   2   3
ENDBRANCH   1   2
BRANCH   1   5
ATOM      5  C   UNL     1     169.669 168.339 163.607  1.00  0.00     0.156 C 
BRANCH   5   6
ATOM      6  O   UNL     1     170.849 168.457 164.354  1.00  0.00    -0.396 OA
ATOM      7  H   UNL     1     171.442 167.714 164.068  1.00  0.00     0.210 HD
ENDBRANCH   5   6
ENDBRANCH   1   5
TORSDOF 4
ENDMDL
MODEL 9
REMARK VINA RESULT:    -2.593     13.493     14.714
REMARK INTER + INTRA:          -3.173
REMARK INTER:                  -3.089
REMARK INTRA:                  -0.083
REMARK UNBOUND:                -0.049
REMARK SMILES CCCCCO
REMARK SMILES IDX 4 1 3 2 2 3 1 4 5 5 6 6
REMARK H PARENT 6 7
REMARK Flexibility Score: inf
ROOT
ATOM      1  C   UNL     1     159.587 161.214 167.931  1.00  0.00     0.028 C 
ENDROOT
BRANCH   1   2
ATOM      2  C   UNL     1     161.063 161.444 167.589  1.00  0.00     0.002 C 
BRANCH   2   3
ATOM      3  C   UNL     1     161.282 162.846 167.010  1.00  0.00    -0.003 C 
ATOM      4  C   UNL     1     160.776 163.923 167.965  1.00  0.00     0.004 C 
ENDBRANCH   2   3
ENDBRANCH   1   2
BRANCH   1   5
ATOM      5  C   UNL     1     159.424 160.724 169.373  1.00  0.00     0.156 C 
BRANCH   5   6
ATOM      6  O   UNL     1     159.067 161.790 170.209  1.00  0.00    -0.396 OA
ATOM      7  H   UNL     1     158.268 161.496 170.720  1.00  0.00     0.210 HD
ENDBRANCH   5   6
ENDBRANCH   1   5
TORSDOF 4
ENDMDL
