MODEL 1
REMARK VINA RESULT:    -3.357      0.000      0.000
REMARK INTER + INTRA:          -6.762
REMARK INTER:                  -5.712
REMARK INTRA:                  -1.049
REMARK UNBOUND:                -1.049
REMARK SMILES CCCCCCCCCCCCCC(=O)[O-]
REMARK SMILES IDX 8 1 9 2 10 3 11 4 12 5 13 6 14 7 15 8 16 9 7 10 6 11 5 12
REMARK SMILES IDX 4 13 3 14 2 15 1 16
REMARK H PARENT
REMARK Flexibility Score: inf
ROOT
ATOM      1  C   UNL     1      15.632  -7.306   6.456  1.00  0.00     0.000 C 
ENDROOT
BRANCH   1   2
ATOM      2  C   UNL     1      14.201  -7.750   6.110  1.00  0.00     0.000 C 
BRANCH   2   3
ATOM      3  C   UNL     1      13.761  -7.302   4.706  1.00  0.00     0.000 C 
BRANCH   3   4
ATOM      4  C   UNL     1      12.241  -7.125   4.523  1.00  0.00     0.000 C 
BRANCH   4   5
ATOM      5  C   UNL     1      11.442  -7.190   5.842  1.00  0.00     0.006 C 
BRANCH   5   6
ATOM      6  C   UNL     1       9.927  -7.225   5.604  1.00  0.00     0.053 C 
BRANCH   6   7
ATOM      7  C   UNL     1       9.381  -8.584   5.905  1.00  0.00     0.041 C 
ATOM      8  O   UNL     1       9.313  -9.456   4.998  1.00  0.00    -0.550 OA
ATOM      9  O   UNL     1       8.902  -8.876   7.176  1.00  0.00    -0.550 OA
ENDBRANCH   6   7
ENDBRANCH   5   6
ENDBRANCH   4   5
ENDBRANCH   3   4
ENDBRANCH   2   3
ENDBRANCH   1   2
BRANCH   1  10
ATOM     10  C   UNL     1      16.302  -6.533   5.309  1.00  0.00     0.000 C 
BRANCH  10  11
ATOM     11  C   UNL     1      17.517  -7.274   4.723  1.00  0.00    -0.000 C 
BRANCH  11  12
ATOM     12  C   UNL     1      18.741  -6.360   4.560  1.00  0.00    -0.000 C 
BRANCH  12  13
ATOM     13  C   UNL     1      19.814  -6.611   5.630  1.00  0.00    -0.000 C 
BRANCH  13  14
ATOM     14  C   UNL     1      19.623  -7.987   6.285  1.00  0.00    -0.000 C 
BRANCH  14  15
ATOM     15  C   UNL     1      19.516  -7.904   7.815  1.00  0.00    -0.003 C 
ATOM     16  C   UNL     1      19.021  -6.540   8.300  1.00  0.00     0.004 C 
ENDBRANCH  14  15
ENDBRANCH  13  14
ENDBRANCH  12  13
ENDBRANCH  11  12
ENDBRANCH  10  11
ENDBRANCH   1  10
TORSDOF 12
ENDMDL
MODEL 2
REMARK VINA RESULT:    -3.246      3.813      7.876
REMARK INTER + INTRA:          -6.572
REMARK INTER:                  -5.589
REMARK INTRA:                  -0.983
REMARK UNBOUND:                -1.049
REMARK SMILES CCCCCCCCCCCCCC(=O)[O-]
REMARK SMILES IDX 8 1 9 2 10 3 11 4 12 5 13 6 14 7 15 8 16 9 7 10 6 11 5 12
REMARK SMILES IDX 4 13 3 14 2 15 1 16
REMARK H PARENT
REMARK Flexibility Score: inf
ROOT
ATOM      1  C   UNL     1      15.689  -7.306   6.347  1.00  0.00     0.000 C 
ENDROOT
BRANCH   1   2
ATOM      2  C   UNL     1      16.050  -6.279   5.260  1.00  0.00     0.000 C 
BRANCH   2   3
ATOM      3  C   UNL     1      17.308  -6.669   4.465  1.00  0.00     0.000 C 
BRANCH   3   4
ATOM      4  C   UNL     1      17.941  -8.017   4.864  1.00  0.00     0.000 C 
BRANCH   4   5
ATOM      5  C   UNL     1      19.403  -7.900   5.344  1.00  0.00     0.006 C 
BRANCH   5   6
ATOM      6  C   UNL     1      19.605  -6.732   6.318  1.00  0.00     0.053 C 
BRANCH   6   7
ATOM      7  C   UNL     1      19.324  -7.167   7.721  1.00  0.00     0.041 C 
ATOM      8  O   UNL     1      18.718  -6.397   8.514  1.00  0.00    -0.550 OA
ATOM      9  O   UNL     1      19.772  -8.403   8.170  1.00  0.00    -0.550 OA
ENDBRANCH   6   7
ENDBRANCH   5   6
ENDBRANCH   4   5
ENDBRANCH   3   4
ENDBRANCH   2   3
ENDBRANCH   1   2
BRANCH   1  10
ATOM     10  C   UNL     1      14.320  -7.961   6.105  1.00  0.00     0.000 C 
BRANCH  10  11
ATOM     11  C   UNL     1      13.763  -7.672   4.699  1.00  0.00    -0.000 C 
BRANCH  11  12
ATOM     12  C   UNL     1      12.229  -7.751   4.646  1.00  0.00    -0.000 C 
BRANCH  12  13
ATOM     13  C   UNL     1      11.565  -7.241   5.933  1.00  0.00    -0.000 C 
BRANCH  13  14
ATOM     14  C   UNL     1      10.117  -7.745   6.040  1.00  0.00    -0.000 C 
BRANCH  14  15
ATOM     15  C   UNL     1       9.240  -7.273   4.872  1.00  0.00    -0.003 C 
ATOM     16  C   UNL     1       9.280  -5.757   4.675  1.00  0.00     0.004 C 
ENDBRANCH  14  15
ENDBRANCH  13  14
ENDBRANCH  12  13
ENDBRANCH  11  12
ENDBRANCH  10  11
ENDBRANCH   1  10
TORSDOF 12
ENDMDL
MODEL 3
REMARK VINA RESULT:    -3.133      3.730      8.596
REMARK INTER + INTRA:          -6.379
REMARK INTER:                  -5.711
REMARK INTRA:                  -0.669
REMARK UNBOUND:                -1.049
REMARK SMILES CCCCCCCCCCCCCC(=O)[O-]
REMARK SMILES IDX 8 1 9 2 10 3 11 4 12 5 13 6 14 7 15 8 16 9 7 10 6 11 5 12
REMARK SMILES IDX 4 13 3 14 2 15 1 16
REMARK H PARENT
REMARK Flexibility Score: inf
ROOT
ATOM      1  C   UNL     1      11.212  -7.213   5.483  1.00  0.00     0.000 C 
ENDROOT
BRANCH   1   2
ATOM      2  C   UNL     1      12.193  -7.035   4.312  1.00  0.00     0.000 C 
BRANCH   2   3
ATOM      3  C   UNL     1      13.664  -7.168   4.742  1.00  0.00     0.000 C 
BRANCH   3   4
ATOM      4  C   UNL     1      13.885  -7.804   6.129  1.00  0.00     0.000 C 
BRANCH   4   5
ATOM      5  C   UNL     1      15.363  -8.112   6.445  1.00  0.00     0.006 C 
BRANCH   5   6
ATOM      6  C   UNL     1      16.182  -6.838   6.696  1.00  0.00     0.053 C 
BRANCH   6   7
ATOM      7  C   UNL     1      17.638  -7.101   6.482  1.00  0.00     0.041 C 
ATOM      8  O   UNL     1      18.035  -7.637   5.413  1.00  0.00    -0.550 OA
ATOM      9  O   UNL     1      18.554  -6.800   7.482  1.00  0.00    -0.550 OA
ENDBRANCH   6   7
ENDBRANCH   5   6
ENDBRANCH   4   5
ENDBRANCH   3   4
ENDBRANCH   2   3
ENDBRANCH   1   2
BRANCH   1  10
ATOM     10  C   UNL     1       9.786  -6.759   5.130  1.00  0.00     0.000 C 
BRANCH  10  11
ATOM     11  C   UNL     1       8.872  -7.930   4.729  1.00  0.00    -0.000 C 
BRANCH  11  12
ATOM     12  C   UNL     1       7.397  -7.673   5.077  1.00  0.00    -0.000 C 
BRANCH  12  13
ATOM     13  C   UNL     1       6.873  -8.618   6.168  1.00  0.00    -0.000 C 
BRANCH  13  14
ATOM     14  C   UNL     1       7.889  -9.733   6.463  1.00  0.00    -0.000 C 
BRANCH  14  15
ATOM     15  C   UNL     1       8.312  -9.772   7.939  1.00  0.00    -0.003 C 
ATOM     16  C   UNL     1       7.123  -9.919   8.890  1.00  0.00     0.004 C 
ENDBRANCH  14  15
ENDBRANCH  13  14
ENDBRANCH  12  13
ENDBRANCH  11  12
ENDBRANCH  10  11
ENDBRANCH   1  10
TORSDOF 12
ENDMDL
MODEL 4
REMARK VINA RESULT:    -2.995      3.997      8.344
REMARK INTER + INTRA:          -6.145
REMARK INTER:                  -5.566
REMARK INTRA:                  -0.579
REMARK UNBOUND:                -1.049
REMARK SMILES CCCCCCCCCCCCCC(=O)[O-]
REMARK SMILES IDX 8 1 9 2 10 3 11 4 12 5 13 6 14 7 15 8 16 9 7 10 6 11 5 12
REMARK SMILES IDX 4 13 3 14 2 15 1 16
REMARK H PARENT
REMARK Flexibility Score: inf
ROOT
ATOM      1  C   UNL     1      13.970  -8.502   5.106  1.00  0.00     0.000 C 
ENDROOT
BRANCH   1   2
ATOM      2  C   UNL     1      14.966  -7.845   4.136  1.00  0.00     0.000 C 
BRANCH   2   3
ATOM      3  C   UNL     1      15.577  -6.549   4.696  1.00  0.00     0.000 C 
BRANCH   3   4
ATOM      4  C   UNL     1      16.417  -6.723   5.976  1.00  0.00     0.000 C 
BRANCH   4   5
ATOM      5  C   UNL     1      17.616  -7.680   5.810  1.00  0.00     0.006 C 
BRANCH   5   6
ATOM      6  C   UNL     1      18.946  -7.020   6.198  1.00  0.00     0.053 C 
BRANCH   6   7
ATOM      7  C   UNL     1      19.229  -7.228   7.651  1.00  0.00     0.041 C 
ATOM      8  O   UNL     1      19.789  -8.286   8.043  1.00  0.00    -0.550 OA
ATOM      9  O   UNL     1      18.832  -6.274   8.581  1.00  0.00    -0.550 OA
ENDBRANCH   6   7
ENDBRANCH   5   6
ENDBRANCH   4   5
ENDBRANCH   3   4
ENDBRANCH   2   3
ENDBRANCH   1   2
BRANCH   1  10
ATOM     10  C   UNL     1      12.507  -8.208   4.736  1.00  0.00     0.000 C 
BRANCH  10  11
ATOM     11  C   UNL     1      11.862  -7.155   5.655  1.00  0.00    -0.000 C 
BRANCH  11  12
ATOM     12  C   UNL     1      10.327  -7.175   5.587  1.00  0.00    -0.000 C 
BRANCH  12  13
ATOM     13  C   UNL     1       9.748  -8.592   5.710  1.00  0.00    -0.000 C 
BRANCH  13  14
ATOM     14  C   UNL     1       8.465  -8.588   6.556  1.00  0.00    -0.000 C 
BRANCH  14  15
ATOM     15  C   UNL     1       8.234  -9.919   7.287  1.00  0.00    -0.003 C 
ATOM     16  C   UNL     1       7.400  -9.758   8.559  1.00  0.00     0.004 C 
ENDBRANCH  14  15
ENDBRANCH  13  14
ENDBRANCH  12  13
ENDBRANCH  11  12
ENDBRANCH  10  11
ENDBRANCH   1  10
TORSDOF 12
ENDMDL
MODEL 5
REMARK VINA RESULT:    -2.938      1.171      1.891
REMARK INTER + INTRA:          -6.048
REMARK INTER:                  -5.382
REMARK INTRA:                  -0.666
REMARK UNBOUND:                -1.049
REMARK SMILES CCCCCCCCCCCCCC(=O)[O-]
REMARK SMILES IDX 8 1 9 2 10 3 11 4 12 5 13 6 14 7 15 8 16 9 7 10 6 11 5 12
REMARK SMILES IDX 4 13 3 14 2 15 1 16
REMARK H PARENT
REMARK Flexibility Score: inf
ROOT
ATOM      1  C   UNL     1      14.190  -8.221   5.442  1.00  0.00     0.000 C 
ENDROOT
BRANCH   1   2
ATOM      2  C   UNL     1      12.950  -7.392   5.068  1.00  0.00     0.000 C 
BRANCH   2   3
ATOM      3  C   UNL     1      11.859  -7.429   6.152  1.00  0.00     0.000 C 
BRANCH   3   4
ATOM      4  C   UNL     1      10.433  -7.119   5.655  1.00  0.00     0.000 C 
BRANCH   4   5
ATOM      5  C   UNL     1       9.549  -8.371   5.479  1.00  0.00     0.006 C 
BRANCH   5   6
ATOM      6  C   UNL     1       8.902  -8.818   6.797  1.00  0.00     0.053 C 
BRANCH   6   7
ATOM      7  C   UNL     1       7.423  -8.966   6.630  1.00  0.00     0.041 C 
ATOM      8  O   UNL     1       6.798  -8.221   5.829  1.00  0.00    -0.550 OA
ATOM      9  O   UNL     1       6.726  -9.894   7.394  1.00  0.00    -0.550 OA
ENDBRANCH   6   7
ENDBRANCH   5   6
ENDBRANCH   4   5
ENDBRANCH   3   4
ENDBRANCH   2   3
ENDBRANCH   1   2
BRANCH   1  10
ATOM     10  C   UNL     1      15.196  -7.424   6.288  1.00  0.00     0.000 C 
BRANCH  10  11
ATOM     11  C   UNL     1      16.117  -6.534   5.433  1.00  0.00    -0.000 C 
BRANCH  11  12
ATOM     12  C   UNL     1      17.329  -7.300   4.880  1.00  0.00    -0.000 C 
BRANCH  12  13
ATOM     13  C   UNL     1      18.662  -6.605   5.195  1.00  0.00    -0.000 C 
BRANCH  13  14
ATOM     14  C   UNL     1      19.664  -7.593   5.813  1.00  0.00    -0.000 C 
BRANCH  14  15
ATOM     15  C   UNL     1      19.362  -7.896   7.288  1.00  0.00    -0.003 C 
ATOM     16  C   UNL     1      19.029  -6.639   8.093  1.00  0.00     0.004 C 
ENDBRANCH  14  15
ENDBRANCH  13  14
ENDBRANCH  12  13
ENDBRANCH  11  12
ENDBRANCH  10  11
ENDBRANCH   1  10
TORSDOF 12
ENDMDL
MODEL 6
REMARK VINA RESULT:    -2.780      4.143      9.096
REMARK INTER + INTRA:          -5.779
REMARK INTER:                  -5.275
REMARK INTRA:                  -0.504
REMARK UNBOUND:                -1.049
REMARK SMILES CCCCCCCCCCCCCC(=O)[O-]
REMARK SMILES IDX 8 1 9 2 10 3 11 4 12 5 13 6 14 7 15 8 16 9 7 10 6 11 5 12
REMARK SMILES IDX 4 13 3 14 2 15 1 16
REMARK H PARENT
REMARK Flexibility Score: inf
ROOT
ATOM      1  C   UNL     1      12.400  -7.932   4.812  1.00  0.00     0.000 C 
ENDROOT
BRANCH   1   2
ATOM      2  C   UNL     1      13.857  -7.480   5.009  1.00  0.00     0.000 C 
BRANCH   2   3
ATOM      3  C   UNL     1      14.445  -7.934   6.356  1.00  0.00     0.000 C 
BRANCH   3   4
ATOM      4  C   UNL     1      15.981  -8.067   6.386  1.00  0.00     0.000 C 
BRANCH   4   5
ATOM      5  C   UNL     1      16.726  -6.718   6.311  1.00  0.00     0.006 C 
BRANCH   5   6
ATOM      6  C   UNL     1      18.241  -6.898   6.148  1.00  0.00     0.053 C 
BRANCH   6   7
ATOM      7  C   UNL     1      18.883  -7.153   7.474  1.00  0.00     0.041 C 
ATOM      8  O   UNL     1      18.747  -6.325   8.414  1.00  0.00    -0.550 OA
ATOM      9  O   UNL     1      19.673  -8.281   7.659  1.00  0.00    -0.550 OA
ENDBRANCH   6   7
ENDBRANCH   5   6
ENDBRANCH   4   5
ENDBRANCH   3   4
ENDBRANCH   2   3
ENDBRANCH   1   2
BRANCH   1  10
ATOM     10  C   UNL     1      11.402  -7.052   5.582  1.00  0.00     0.000 C 
BRANCH  10  11
ATOM     11  C   UNL     1      10.182  -7.841   6.089  1.00  0.00    -0.000 C 
BRANCH  11  12
ATOM     12  C   UNL     1       9.080  -7.969   5.025  1.00  0.00    -0.000 C 
BRANCH  12  13
ATOM     13  C   UNL     1       7.896  -8.825   5.501  1.00  0.00    -0.000 C 
BRANCH  13  14
ATOM     14  C   UNL     1       6.576  -8.317   4.900  1.00  0.00    -0.000 C 
BRANCH  14  15
ATOM     15  C   UNL     1       6.578  -6.798   4.670  1.00  0.00    -0.003 C 
ATOM     16  C   UNL     1       5.439  -6.088   5.403  1.00  0.00     0.004 C 
ENDBRANCH  14  15
ENDBRANCH  13  14
ENDBRANCH  12  13
ENDBRANCH  11  12
ENDBRANCH  10  11
ENDBRANCH   1  10
TORSDOF 12
ENDMDL
MODEL 7
REMARK VINA RESULT:    -2.776      1.801      2.702
REMARK INTER + INTRA:          -5.773
REMARK INTER:                  -5.051
REMARK INTRA:                  -0.722
REMARK UNBOUND:                -1.049
REMARK SMILES CCCCCCCCCCCCCC(=O)[O-]
REMARK SMILES IDX 8 1 9 2 10 3 11 4 12 5 13 6 14 7 15 8 16 9 7 10 6 11 5 12
REMARK SMILES IDX 4 13 3 14 2 15 1 16
REMARK H PARENT
REMARK Flexibility Score: inf
ROOT
ATOM      1  C   UNL     1      16.653  -6.530   6.700  1.00  0.00     0.000 C 
ENDROOT
BRANCH   1   2
ATOM      2  C   UNL     1      15.751  -7.437   5.845  1.00  0.00     0.000 C 
BRANCH   2   3
ATOM      3  C   UNL     1      15.406  -6.819   4.480  1.00  0.00     0.000 C 
BRANCH   3   4
ATOM      4  C   UNL     1      13.922  -6.920   4.073  1.00  0.00     0.000 C 
BRANCH   4   5
ATOM      5  C   UNL     1      13.015  -7.519   5.168  1.00  0.00     0.006 C 
BRANCH   5   6
ATOM      6  C   UNL     1      11.661  -7.982   4.614  1.00  0.00     0.053 C 
BRANCH   6   7
ATOM      7  C   UNL     1      10.541  -7.310   5.342  1.00  0.00     0.041 C 
ATOM      8  O   UNL     1      10.092  -6.205   4.935  1.00  0.00    -0.550 OA
ATOM      9  O   UNL     1      10.023  -7.878   6.499  1.00  0.00    -0.550 OA
ENDBRANCH   6   7
ENDBRANCH   5   6
ENDBRANCH   4   5
ENDBRANCH   3   4
ENDBRANCH   2   3
ENDBRANCH   1   2
BRANCH   1  10
ATOM     10  C   UNL     1      18.069  -7.103   6.872  1.00  0.00     0.000 C 
BRANCH  10  11
ATOM     11  C   UNL     1      18.470  -8.049   5.726  1.00  0.00    -0.000 C 
BRANCH  11  12
ATOM     12  C   UNL     1      19.289  -7.339   4.636  1.00  0.00    -0.000 C 
BRANCH  12  13
ATOM     13  C   UNL     1      20.044  -6.111   5.168  1.00  0.00    -0.000 C 
BRANCH  13  14
ATOM     14  C   UNL     1      20.422  -5.161   4.022  1.00  0.00    -0.000 C 
BRANCH  14  15
ATOM     15  C   UNL     1      21.940  -4.966   3.891  1.00  0.00    -0.003 C 
ATOM     16  C   UNL     1      22.739  -6.075   4.578  1.00  0.00     0.004 C 
ENDBRANCH  14  15
ENDBRANCH  13  14
ENDBRANCH  12  13
ENDBRANCH  11  12
ENDBRANCH  10  11
ENDBRANCH   1  10
TORSDOF 12
ENDMDL
MODEL 8
REMARK VINA RESULT:    -2.653      3.291      7.021
REMARK INTER + INTRA:          -5.564
REMARK INTER:                  -4.605
REMARK INTRA:                  -0.959
REMARK UNBOUND:                -1.049
REMARK SMILES CCCCCCCCCCCCCC(=O)[O-]
REMARK SMILES IDX 8 1 9 2 10 3 11 4 12 5 13 6 14 7 15 8 16 9 7 10 6 11 5 12
REMARK SMILES IDX 4 13 3 14 2 15 1 16
REMARK H PARENT
REMARK Flexibility Score: inf
ROOT
ATOM      1  C   UNL     1       6.627  -6.308   5.150  1.00  0.00     0.000 C 
ENDROOT
BRANCH   1   2
ATOM      2  C   UNL     1       5.473  -7.304   5.356  1.00  0.00     0.000 C 
BRANCH   2   3
ATOM      3  C   UNL     1       5.501  -8.466   4.348  1.00  0.00     0.000 C 
BRANCH   3   4
ATOM      4  C   UNL     1       5.405  -9.873   4.970  1.00  0.00     0.000 C 
BRANCH   4   5
ATOM      5  C   UNL     1       5.960  -9.958   6.408  1.00  0.00     0.006 C 
BRANCH   5   6
ATOM      6  C   UNL     1       7.485 -10.125   6.434  1.00  0.00     0.053 C 
BRANCH   6   7
ATOM      7  C   UNL     1       8.092  -9.225   7.463  1.00  0.00     0.041 C 
ATOM      8  O   UNL     1       9.217  -8.696   7.258  1.00  0.00    -0.550 OA
ATOM      9  O   UNL     1       7.439  -9.009   8.670  1.00  0.00    -0.550 OA
ENDBRANCH   6   7
ENDBRANCH   5   6
ENDBRANCH   4   5
ENDBRANCH   3   4
ENDBRANCH   2   3
ENDBRANCH   1   2
BRANCH   1  10
ATOM     10  C   UNL     1       7.483  -6.647   3.919  1.00  0.00     0.000 C 
BRANCH  10  11
ATOM     11  C   UNL     1       8.806  -7.341   4.288  1.00  0.00    -0.000 C 
BRANCH  11  12
ATOM     12  C   UNL     1       9.870  -6.352   4.788  1.00  0.00    -0.000 C 
BRANCH  12  13
ATOM     13  C   UNL     1      11.295  -6.761   4.385  1.00  0.00    -0.000 C 
BRANCH  13  14
ATOM     14  C   UNL     1      12.055  -7.355   5.581  1.00  0.00    -0.000 C 
BRANCH  14  15
ATOM     15  C   UNL     1      13.502  -7.735   5.233  1.00  0.00    -0.003 C 
ATOM     16  C   UNL     1      14.400  -7.831   6.467  1.00  0.00     0.004 C 
ENDBRANCH  14  15
ENDBRANCH  13  14
ENDBRANCH  12  13
ENDBRANCH  11  12
ENDBRANCH  10  11
ENDBRANCH   1  10
TORSDOF 12
ENDMDL
MODEL 9
REMARK VINA RESULT:    -2.429      4.761      8.490
REMARK INTER + INTRA:          -5.183
REMARK INTER:                  -4.660
REMARK INTRA:                  -0.523
REMARK UNBOUND:                -1.049
REMARK SMILES CCCCCCCCCCCCCC(=O)[O-]
REMARK SMILES IDX 8 1 9 2 10 3 11 4 12 5 13 6 14 7 15 8 16 9 7 10 6 11 5 12
REMARK SMILES IDX 4 13 3 14 2 15 1 16
REMARK H PARENT
REMARK Flexibility Score: inf
ROOT
ATOM      1  C   UNL     1      15.593  -8.208   5.776  1.00  0.00     0.000 C 
ENDROOT
BRANCH   1   2
ATOM      2  C   UNL     1      16.342  -6.873   5.629  1.00  0.00     0.000 C 
BRANCH   2   3
ATOM      3  C   UNL     1      17.530  -6.746   6.597  1.00  0.00     0.000 C 
BRANCH   3   4
ATOM      4  C   UNL     1      18.756  -7.611   6.245  1.00  0.00     0.000 C 
BRANCH   4   5
ATOM      5  C   UNL     1      19.214  -7.475   4.778  1.00  0.00     0.006 C 
BRANCH   5   6
ATOM      6  C   UNL     1      19.442  -6.012   4.373  1.00  0.00     0.053 C 
BRANCH   6   7
ATOM      7  C   UNL     1      20.874  -5.631   4.573  1.00  0.00     0.041 C 
ATOM      8  O   UNL     1      21.747  -6.520   4.759  1.00  0.00    -0.550 OA
ATOM      9  O   UNL     1      21.240  -4.291   4.603  1.00  0.00    -0.550 OA
ENDBRANCH   6   7
ENDBRANCH   5   6
ENDBRANCH   4   5
ENDBRANCH   3   4
ENDBRANCH   2   3
ENDBRANCH   1   2
BRANCH   1  10
ATOM     10  C   UNL     1      14.113  -8.015   6.142  1.00  0.00     0.000 C 
BRANCH  10  11
ATOM     11  C   UNL     1      13.170  -8.258   4.950  1.00  0.00    -0.000 C 
BRANCH  11  12
ATOM     12  C   UNL     1      13.153  -7.080   3.962  1.00  0.00    -0.000 C 
BRANCH  12  13
ATOM     13  C   UNL     1      11.778  -6.401   3.875  1.00  0.00    -0.000 C 
BRANCH  13  14
ATOM     14  C   UNL     1      10.907  -6.769   5.086  1.00  0.00    -0.000 C 
BRANCH  14  15
ATOM     15  C   UNL     1       9.447  -6.320   4.921  1.00  0.00    -0.003 C 
ATOM     16  C   UNL     1       8.457  -7.483   5.016  1.00  0.00     0.004 C 
ENDBRANCH  14  15
ENDBRANCH  13  14
ENDBRANCH  12  13
ENDBRANCH  11  12
ENDBRANCH  10  11
ENDBRANCH   1  10
TORSDOF 12
ENDMDL
