MODEL 1
REMARK VINA RESULT:    -4.103      0.000      0.000
REMARK INTER + INTRA:         -16.080
REMARK INTER:                 -10.819
REMARK INTRA:                  -5.261
REMARK UNBOUND:                -5.261
REMARK SMILES CCCCCCCCCCCCCCCCCCCCCCCCCCCCCC(=O)[O-]
REMARK SMILES IDX 16 1 17 2 18 3 19 4 20 5 21 6 22 7 23 8 24 9 25 10 26 11
REMARK SMILES IDX 27 12 28 13 29 14 30 15 31 16 32 17 15 18 14 19 13 20 12 21
REMARK SMILES IDX 11 22 10 23 9 24 8 25 7 26 6 27 5 28 4 29 3 30 2 31 1 32
REMARK H PARENT
REMARK Flexibility Score: inf
ROOT
ATOM      1  C   UNL     1      -5.771 -37.803  -9.327  1.00  0.00     0.000 C 
ENDROOT
BRANCH   1   2
ATOM      2  C   UNL     1      -5.430 -38.964 -10.277  1.00  0.00     0.000 C 
BRANCH   2   3
ATOM      3  C   UNL     1      -5.974 -40.334  -9.827  1.00  0.00     0.000 C 
BRANCH   3   4
ATOM      4  C   UNL     1      -7.314 -40.249  -9.063  1.00  0.00     0.000 C 
BRANCH   4   5
ATOM      5  C   UNL     1      -8.257 -41.421  -9.383  1.00  0.00     0.000 C 
BRANCH   5   6
ATOM      6  C   UNL     1      -7.568 -42.519 -10.212  1.00  0.00     0.000 C 
BRANCH   6   7
ATOM      7  C   UNL     1      -8.443 -43.773 -10.369  1.00  0.00     0.000 C 
BRANCH   7   8
ATOM      8  C   UNL     1      -7.622 -45.046 -10.631  1.00  0.00     0.000 C 
BRANCH   8   9
ATOM      9  C   UNL     1      -6.198 -45.001 -10.031  1.00  0.00     0.000 C 
BRANCH   9  10
ATOM     10  C   UNL     1      -5.150 -45.755 -10.880  1.00  0.00     0.000 C 
BRANCH  10  11
ATOM     11  C   UNL     1      -5.280 -45.521 -12.398  1.00  0.00     0.000 C 
BRANCH  11  12
ATOM     12  C   UNL     1      -5.457 -46.812 -13.222  1.00  0.00     0.000 C 
BRANCH  12  13
ATOM     13  C   UNL     1      -5.356 -46.562 -14.736  1.00  0.00     0.006 C 
BRANCH  13  14
ATOM     14  C   UNL     1      -4.069 -45.820 -15.117  1.00  0.00     0.053 C 
BRANCH  14  15
ATOM     15  C   UNL     1      -4.336 -44.704 -16.080  1.00  0.00     0.041 C 
ATOM     16  O   UNL     1      -5.134 -44.873 -17.038  1.00  0.00    -0.550 OA
ATOM     17  O   UNL     1      -3.687 -43.484 -15.931  1.00  0.00    -0.550 OA
ENDBRANCH  14  15
ENDBRANCH  13  14
ENDBRANCH  12  13
ENDBRANCH  11  12
ENDBRANCH  10  11
ENDBRANCH   9  10
ENDBRANCH   8   9
ENDBRANCH   7   8
ENDBRANCH   6   7
ENDBRANCH   5   6
ENDBRANCH   4   5
ENDBRANCH   3   4
ENDBRANCH   2   3
ENDBRANCH   1   2
BRANCH   1  18
ATOM     18  C   UNL     1      -5.156 -36.453  -9.761  1.00  0.00     0.000 C 
BRANCH  18  19
ATOM     19  C   UNL     1      -5.227 -35.389  -8.655  1.00  0.00     0.000 C 
BRANCH  19  20
ATOM     20  C   UNL     1      -6.503 -34.523  -8.749  1.00  0.00     0.000 C 
BRANCH  20  21
ATOM     21  C   UNL     1      -7.043 -34.366 -10.184  1.00  0.00     0.000 C 
BRANCH  21  22
ATOM     22  C   UNL     1      -8.376 -35.088 -10.459  1.00  0.00     0.000 C 
BRANCH  22  23
ATOM     23  C   UNL     1      -8.876 -36.000  -9.319  1.00  0.00     0.000 C 
BRANCH  23  24
ATOM     24  C   UNL     1      -9.514 -37.324  -9.775  1.00  0.00    -0.000 C 
BRANCH  24  25
ATOM     25  C   UNL     1      -9.612 -37.443 -11.306  1.00  0.00    -0.000 C 
BRANCH  25  26
ATOM     26  C   UNL     1      -9.375 -38.878 -11.811  1.00  0.00    -0.000 C 
BRANCH  26  27
ATOM     27  C   UNL     1      -8.059 -39.084 -12.584  1.00  0.00    -0.000 C 
BRANCH  27  28
ATOM     28  C   UNL     1      -7.920 -40.450 -13.284  1.00  0.00    -0.000 C 
BRANCH  28  29
ATOM     29  C   UNL     1      -6.457 -40.904 -13.477  1.00  0.00    -0.000 C 
BRANCH  29  30
ATOM     30  C   UNL     1      -6.343 -42.398 -13.813  1.00  0.00    -0.000 C 
BRANCH  30  31
ATOM     31  C   UNL     1      -7.728 -43.057 -13.862  1.00  0.00    -0.003 C 
ATOM     32  C   UNL     1      -7.940 -43.795 -15.181  1.00  0.00     0.004 C 
ENDBRANCH  30  31
ENDBRANCH  29  30
ENDBRANCH  28  29
ENDBRANCH  27  28
ENDBRANCH  26  27
ENDBRANCH  25  26
ENDBRANCH  24  25
ENDBRANCH  23  24
ENDBRANCH  22  23
ENDBRANCH  21  22
ENDBRANCH  20  21
ENDBRANCH  19  20
ENDBRANCH  18  19
ENDBRANCH   1  18
TORSDOF 28
ENDMDL
MODEL 2
REMARK VINA RESULT:    -4.035      3.882      7.500
REMARK INTER + INTRA:         -15.901
REMARK INTER:                 -11.460
REMARK INTRA:                  -4.441
REMARK UNBOUND:                -5.261
REMARK SMILES CCCCCCCCCCCCCCCCCCCCCCCCCCCCCC(=O)[O-]
REMARK SMILES IDX 16 1 17 2 18 3 19 4 20 5 21 6 22 7 23 8 24 9 25 10 26 11
REMARK SMILES IDX 27 12 28 13 29 14 30 15 31 16 32 17 15 18 14 19 13 20 12 21
REMARK SMILES IDX 11 22 10 23 9 24 8 25 7 26 6 27 5 28 4 29 3 30 2 31 1 32
REMARK H PARENT
REMARK Flexibility Score: inf
ROOT
ATOM      1  C   UNL     1      -6.187 -42.433 -13.815  1.00  0.00     0.000 C 
ENDROOT
BRANCH   1   2
ATOM      2  C   UNL     1      -5.744 -41.527 -14.977  1.00  0.00     0.000 C 
BRANCH   2   3
ATOM      3  C   UNL     1      -6.445 -41.823 -16.317  1.00  0.00     0.000 C 
BRANCH   3   4
ATOM      4  C   UNL     1      -7.754 -41.029 -16.521  1.00  0.00     0.000 C 
BRANCH   4   5
ATOM      5  C   UNL     1      -7.617 -39.546 -16.135  1.00  0.00     0.000 C 
BRANCH   5   6
ATOM      6  C   UNL     1      -8.980 -38.870 -15.909  1.00  0.00     0.000 C 
BRANCH   6   7
ATOM      7  C   UNL     1      -9.079 -37.500 -16.601  1.00  0.00     0.000 C 
BRANCH   7   8
ATOM      8  C   UNL     1      -9.795 -37.568 -17.959  1.00  0.00     0.000 C 
BRANCH   8   9
ATOM      9  C   UNL     1      -8.836 -37.550 -19.171  1.00  0.00     0.000 C 
BRANCH   9  10
ATOM     10  C   UNL     1      -8.996 -38.772 -20.100  1.00  0.00     0.000 C 
BRANCH  10  11
ATOM     11  C   UNL     1      -7.746 -39.671 -20.184  1.00  0.00     0.000 C 
BRANCH  11  12
ATOM     12  C   UNL     1      -6.498 -39.081 -19.498  1.00  0.00     0.000 C 
BRANCH  12  13
ATOM     13  C   UNL     1      -5.230 -39.906 -19.775  1.00  0.00     0.006 C 
BRANCH  13  14
ATOM     14  C   UNL     1      -4.895 -39.967 -21.271  1.00  0.00     0.053 C 
BRANCH  14  15
ATOM     15  C   UNL     1      -4.294 -41.286 -21.651  1.00  0.00     0.041 C 
ATOM     16  O   UNL     1      -4.725 -41.912 -22.655  1.00  0.00    -0.550 OA
ATOM     17  O   UNL     1      -3.274 -41.834 -20.883  1.00  0.00    -0.550 OA
ENDBRANCH  14  15
ENDBRANCH  13  14
ENDBRANCH  12  13
ENDBRANCH  11  12
ENDBRANCH  10  11
ENDBRANCH   9  10
ENDBRANCH   8   9
ENDBRANCH   7   8
ENDBRANCH   6   7
ENDBRANCH   5   6
ENDBRANCH   4   5
ENDBRANCH   3   4
ENDBRANCH   2   3
ENDBRANCH   1   2
BRANCH   1  18
ATOM     18  C   UNL     1      -6.983 -41.684 -12.721  1.00  0.00     0.000 C 
BRANCH  18  19
ATOM     19  C   UNL     1      -6.644 -40.186 -12.666  1.00  0.00     0.000 C 
BRANCH  19  20
ATOM     20  C   UNL     1      -7.896 -39.304 -12.466  1.00  0.00     0.000 C 
BRANCH  20  21
ATOM     21  C   UNL     1      -9.056 -40.024 -11.751  1.00  0.00     0.000 C 
BRANCH  21  22
ATOM     22  C   UNL     1      -9.107 -39.817 -10.225  1.00  0.00     0.000 C 
BRANCH  22  23
ATOM     23  C   UNL     1      -8.262 -40.809  -9.399  1.00  0.00     0.000 C 
BRANCH  23  24
ATOM     24  C   UNL     1      -6.989 -40.215  -8.770  1.00  0.00    -0.000 C 
BRANCH  24  25
ATOM     25  C   UNL     1      -6.879 -38.694  -8.970  1.00  0.00    -0.000 C 
BRANCH  25  26
ATOM     26  C   UNL     1      -5.631 -38.286  -9.774  1.00  0.00    -0.000 C 
BRANCH  26  27
ATOM     27  C   UNL     1      -4.984 -36.958  -9.340  1.00  0.00    -0.000 C 
BRANCH  27  28
ATOM     28  C   UNL     1      -5.974 -35.812  -9.053  1.00  0.00    -0.000 C 
BRANCH  28  29
ATOM     29  C   UNL     1      -6.271 -34.925 -10.281  1.00  0.00    -0.000 C 
BRANCH  29  30
ATOM     30  C   UNL     1      -7.768 -34.613 -10.434  1.00  0.00    -0.000 C 
BRANCH  30  31
ATOM     31  C   UNL     1      -8.615 -35.876 -10.236  1.00  0.00    -0.003 C 
ATOM     32  C   UNL     1      -9.853 -35.854 -11.128  1.00  0.00     0.004 C 
ENDBRANCH  30  31
ENDBRANCH  29  30
ENDBRANCH  28  29
ENDBRANCH  27  28
ENDBRANCH  26  27
ENDBRANCH  25  26
ENDBRANCH  24  25
ENDBRANCH  23  24
ENDBRANCH  22  23
ENDBRANCH  21  22
ENDBRANCH  20  21
ENDBRANCH  19  20
ENDBRANCH  18  19
ENDBRANCH   1  18
TORSDOF 28
ENDMDL
MODEL 3
REMARK VINA RESULT:    -3.974      1.522      2.779
REMARK INTER + INTRA:         -15.741
REMARK INTER:                 -11.990
REMARK INTRA:                  -3.751
REMARK UNBOUND:                -5.261
REMARK SMILES CCCCCCCCCCCCCCCCCCCCCCCCCCCCCC(=O)[O-]
REMARK SMILES IDX 16 1 17 2 18 3 19 4 20 5 21 6 22 7 23 8 24 9 25 10 26 11
REMARK SMILES IDX 27 12 28 13 29 14 30 15 31 16 32 17 15 18 14 19 13 20 12 21
REMARK SMILES IDX 11 22 10 23 9 24 8 25 7 26 6 27 5 28 4 29 3 30 2 31 1 32
REMARK H PARENT
REMARK Flexibility Score: inf
ROOT
ATOM      1  C   UNL     1      -5.737 -39.861 -10.145  1.00  0.00     0.000 C 
ENDROOT
BRANCH   1   2
ATOM      2  C   UNL     1      -6.758 -39.865  -8.994  1.00  0.00     0.000 C 
BRANCH   2   3
ATOM      3  C   UNL     1      -7.229 -41.269  -8.566  1.00  0.00     0.000 C 
BRANCH   3   4
ATOM      4  C   UNL     1      -8.605 -41.665  -9.145  1.00  0.00     0.000 C 
BRANCH   4   5
ATOM      5  C   UNL     1      -8.559 -42.978  -9.945  1.00  0.00     0.000 C 
BRANCH   5   6
ATOM      6  C   UNL     1      -7.120 -43.435 -10.240  1.00  0.00     0.000 C 
BRANCH   6   7
ATOM      7  C   UNL     1      -7.022 -44.949 -10.483  1.00  0.00     0.000 C 
BRANCH   7   8
ATOM      8  C   UNL     1      -5.598 -45.406 -10.839  1.00  0.00     0.000 C 
BRANCH   8   9
ATOM      9  C   UNL     1      -5.346 -45.525 -12.359  1.00  0.00     0.000 C 
BRANCH   9  10
ATOM     10  C   UNL     1      -6.555 -46.083 -13.141  1.00  0.00     0.000 C 
BRANCH  10  11
ATOM     11  C   UNL     1      -6.271 -47.399 -13.891  1.00  0.00     0.000 C 
BRANCH  11  12
ATOM     12  C   UNL     1      -4.776 -47.765 -13.980  1.00  0.00     0.000 C 
BRANCH  12  13
ATOM     13  C   UNL     1      -4.237 -47.694 -15.418  1.00  0.00     0.006 C 
BRANCH  13  14
ATOM     14  C   UNL     1      -2.739 -47.363 -15.460  1.00  0.00     0.053 C 
BRANCH  14  15
ATOM     15  C   UNL     1      -2.193 -47.442 -16.852  1.00  0.00     0.041 C 
ATOM     16  O   UNL     1      -2.905 -47.100 -17.832  1.00  0.00    -0.550 OA
ATOM     17  O   UNL     1      -0.904 -47.915 -17.069  1.00  0.00    -0.550 OA
ENDBRANCH  14  15
ENDBRANCH  13  14
ENDBRANCH  12  13
ENDBRANCH  11  12
ENDBRANCH  10  11
ENDBRANCH   9  10
ENDBRANCH   8   9
ENDBRANCH   7   8
ENDBRANCH   6   7
ENDBRANCH   5   6
ENDBRANCH   4   5
ENDBRANCH   3   4
ENDBRANCH   2   3
ENDBRANCH   1   2
BRANCH   1  18
ATOM     18  C   UNL     1      -5.128 -38.468 -10.422  1.00  0.00     0.000 C 
BRANCH  18  19
ATOM     19  C   UNL     1      -5.522 -37.430  -9.359  1.00  0.00     0.000 C 
BRANCH  19  20
ATOM     20  C   UNL     1      -4.424 -36.367  -9.136  1.00  0.00     0.000 C 
BRANCH  20  21
ATOM     21  C   UNL     1      -4.805 -35.288  -8.103  1.00  0.00     0.000 C 
BRANCH  21  22
ATOM     22  C   UNL     1      -6.278 -34.842  -8.143  1.00  0.00     0.000 C 
BRANCH  22  23
ATOM     23  C   UNL     1      -6.643 -33.882  -9.295  1.00  0.00     0.000 C 
BRANCH  23  24
ATOM     24  C   UNL     1      -7.541 -34.488 -10.389  1.00  0.00    -0.000 C 
BRANCH  24  25
ATOM     25  C   UNL     1      -8.569 -35.486  -9.831  1.00  0.00    -0.000 C 
BRANCH  25  26
ATOM     26  C   UNL     1      -9.824 -35.609 -10.715  1.00  0.00    -0.000 C 
BRANCH  26  27
ATOM     27  C   UNL     1     -10.123 -37.031 -11.225  1.00  0.00    -0.000 C 
BRANCH  27  28
ATOM     28  C   UNL     1      -8.904 -37.972 -11.289  1.00  0.00    -0.000 C 
BRANCH  28  29
ATOM     29  C   UNL     1      -9.060 -39.123 -12.305  1.00  0.00    -0.000 C 
BRANCH  29  30
ATOM     30  C   UNL     1      -7.724 -39.523 -12.950  1.00  0.00    -0.000 C 
BRANCH  30  31
ATOM     31  C   UNL     1      -7.728 -41.005 -13.347  1.00  0.00    -0.003 C 
ATOM     32  C   UNL     1      -6.316 -41.584 -13.326  1.00  0.00     0.004 C 
ENDBRANCH  30  31
ENDBRANCH  29  30
ENDBRANCH  28  29
ENDBRANCH  27  28
ENDBRANCH  26  27
ENDBRANCH  25  26
ENDBRANCH  24  25
ENDBRANCH  23  24
ENDBRANCH  22  23
ENDBRANCH  21  22
ENDBRANCH  20  21
ENDBRANCH  19  20
ENDBRANCH  18  19
ENDBRANCH   1  18
TORSDOF 28
ENDMDL
MODEL 4
REMARK VINA RESULT:    -3.954      2.740      5.904
REMARK INTER + INTRA:         -15.688
REMARK INTER:                 -11.418
REMARK INTRA:                  -4.271
REMARK UNBOUND:                -5.261
REMARK SMILES CCCCCCCCCCCCCCCCCCCCCCCCCCCCCC(=O)[O-]
REMARK SMILES IDX 16 1 17 2 18 3 19 4 20 5 21 6 22 7 23 8 24 9 25 10 26 11
REMARK SMILES IDX 27 12 28 13 29 14 30 15 31 16 32 17 15 18 14 19 13 20 12 21
REMARK SMILES IDX 11 22 10 23 9 24 8 25 7 26 6 27 5 28 4 29 3 30 2 31 1 32
REMARK H PARENT
REMARK Flexibility Score: inf
ROOT
ATOM      1  C   UNL     1      -6.207 -40.582 -19.030  1.00  0.00     0.000 C 
ENDROOT
BRANCH   1   2
ATOM      2  C   UNL     1      -5.777 -41.298 -17.738  1.00  0.00     0.000 C 
BRANCH   2   3
ATOM      3  C   UNL     1      -6.861 -41.341 -16.644  1.00  0.00     0.000 C 
BRANCH   3   4
ATOM      4  C   UNL     1      -6.356 -40.897 -15.252  1.00  0.00     0.000 C 
BRANCH   4   5
ATOM      5  C   UNL     1      -5.744 -42.054 -14.445  1.00  0.00     0.000 C 
BRANCH   5   6
ATOM      6  C   UNL     1      -6.374 -42.193 -13.048  1.00  0.00     0.000 C 
BRANCH   6   7
ATOM      7  C   UNL     1      -7.803 -42.756 -13.100  1.00  0.00     0.000 C 
BRANCH   7   8
ATOM      8  C   UNL     1      -8.275 -43.314 -11.748  1.00  0.00     0.000 C 
BRANCH   8   9
ATOM      9  C   UNL     1      -7.378 -42.901 -10.558  1.00  0.00     0.000 C 
BRANCH   9  10
ATOM     10  C   UNL     1      -6.621 -44.086  -9.920  1.00  0.00     0.000 C 
BRANCH  10  11
ATOM     11  C   UNL     1      -6.571 -45.352 -10.798  1.00  0.00     0.000 C 
BRANCH  11  12
ATOM     12  C   UNL     1      -5.161 -45.710 -11.309  1.00  0.00     0.000 C 
BRANCH  12  13
ATOM     13  C   UNL     1      -5.196 -46.483 -12.638  1.00  0.00     0.006 C 
BRANCH  13  14
ATOM     14  C   UNL     1      -5.022 -45.559 -13.851  1.00  0.00     0.053 C 
BRANCH  14  15
ATOM     15  C   UNL     1      -4.082 -46.142 -14.861  1.00  0.00     0.041 C 
ATOM     16  O   UNL     1      -3.884 -45.551 -15.955  1.00  0.00    -0.550 OA
ATOM     17  O   UNL     1      -3.442 -47.348 -14.603  1.00  0.00    -0.550 OA
ENDBRANCH  14  15
ENDBRANCH  13  14
ENDBRANCH  12  13
ENDBRANCH  11  12
ENDBRANCH  10  11
ENDBRANCH   9  10
ENDBRANCH   8   9
ENDBRANCH   7   8
ENDBRANCH   6   7
ENDBRANCH   5   6
ENDBRANCH   4   5
ENDBRANCH   3   4
ENDBRANCH   2   3
ENDBRANCH   1   2
BRANCH   1  18
ATOM     18  C   UNL     1      -7.451 -39.682 -18.848  1.00  0.00     0.000 C 
BRANCH  18  19
ATOM     19  C   UNL     1      -7.096 -38.188 -18.798  1.00  0.00     0.000 C 
BRANCH  19  20
ATOM     20  C   UNL     1      -8.098 -37.371 -17.954  1.00  0.00     0.000 C 
BRANCH  20  21
ATOM     21  C   UNL     1      -8.204 -37.838 -16.489  1.00  0.00     0.000 C 
BRANCH  21  22
ATOM     22  C   UNL     1      -9.639 -38.096 -15.992  1.00  0.00     0.000 C 
BRANCH  22  23
ATOM     23  C   UNL     1      -9.998 -39.579 -15.762  1.00  0.00     0.000 C 
BRANCH  23  24
ATOM     24  C   UNL     1     -10.006 -40.027 -14.290  1.00  0.00    -0.000 C 
BRANCH  24  25
ATOM     25  C   UNL     1      -9.559 -38.915 -13.326  1.00  0.00    -0.000 C 
BRANCH  25  26
ATOM     26  C   UNL     1      -8.188 -39.197 -12.683  1.00  0.00    -0.000 C 
BRANCH  26  27
ATOM     27  C   UNL     1      -7.994 -38.597 -11.278  1.00  0.00    -0.000 C 
BRANCH  27  28
ATOM     28  C   UNL     1      -6.749 -39.096 -10.520  1.00  0.00    -0.000 C 
BRANCH  28  29
ATOM     29  C   UNL     1      -6.359 -38.214  -9.315  1.00  0.00    -0.000 C 
BRANCH  29  30
ATOM     30  C   UNL     1      -5.215 -37.243  -9.641  1.00  0.00    -0.000 C 
BRANCH  30  31
ATOM     31  C   UNL     1      -5.580 -35.808  -9.240  1.00  0.00    -0.003 C 
ATOM     32  C   UNL     1      -6.287 -35.080 -10.380  1.00  0.00     0.004 C 
ENDBRANCH  30  31
ENDBRANCH  29  30
ENDBRANCH  28  29
ENDBRANCH  27  28
ENDBRANCH  26  27
ENDBRANCH  25  26
ENDBRANCH  24  25
ENDBRANCH  23  24
ENDBRANCH  22  23
ENDBRANCH  21  22
ENDBRANCH  20  21
ENDBRANCH  19  20
ENDBRANCH  18  19
ENDBRANCH   1  18
TORSDOF 28
ENDMDL
MODEL 5
REMARK VINA RESULT:    -3.952      4.764      7.988
REMARK INTER + INTRA:         -15.682
REMARK INTER:                 -10.647
REMARK INTRA:                  -5.035
REMARK UNBOUND:                -5.261
REMARK SMILES CCCCCCCCCCCCCCCCCCCCCCCCCCCCCC(=O)[O-]
REMARK SMILES IDX 16 1 17 2 18 3 19 4 20 5 21 6 22 7 23 8 24 9 25 10 26 11
REMARK SMILES IDX 27 12 28 13 29 14 30 15 31 16 32 17 15 18 14 19 13 20 12 21
REMARK SMILES IDX 11 22 10 23 9 24 8 25 7 26 6 27 5 28 4 29 3 30 2 31 1 32
REMARK H PARENT
REMARK Flexibility Score: inf
ROOT
ATOM      1  C   UNL     1      -4.933 -42.192 -14.933  1.00  0.00     0.000 C 
ENDROOT
BRANCH   1   2
ATOM      2  C   UNL     1      -5.381 -43.575 -14.431  1.00  0.00     0.000 C 
BRANCH   2   3
ATOM      3  C   UNL     1      -6.363 -43.533 -13.244  1.00  0.00     0.000 C 
BRANCH   3   4
ATOM      4  C   UNL     1      -7.806 -43.940 -13.618  1.00  0.00     0.000 C 
BRANCH   4   5
ATOM      5  C   UNL     1      -8.815 -42.795 -13.428  1.00  0.00     0.000 C 
BRANCH   5   6
ATOM      6  C   UNL     1      -8.431 -41.860 -12.268  1.00  0.00     0.000 C 
BRANCH   6   7
ATOM      7  C   UNL     1      -8.841 -40.402 -12.528  1.00  0.00     0.000 C 
BRANCH   7   8
ATOM      8  C   UNL     1      -7.652 -39.428 -12.470  1.00  0.00     0.000 C 
BRANCH   8   9
ATOM      9  C   UNL     1      -6.322 -40.095 -12.054  1.00  0.00     0.000 C 
BRANCH   9  10
ATOM     10  C   UNL     1      -5.792 -39.608 -10.688  1.00  0.00     0.000 C 
BRANCH  10  11
ATOM     11  C   UNL     1      -6.571 -40.156  -9.476  1.00  0.00     0.000 C 
BRANCH  11  12
ATOM     12  C   UNL     1      -7.281 -39.072  -8.639  1.00  0.00     0.000 C 
BRANCH  12  13
ATOM     13  C   UNL     1      -6.788 -37.654  -8.973  1.00  0.00     0.006 C 
BRANCH  13  14
ATOM     14  C   UNL     1      -7.948 -36.677  -9.204  1.00  0.00     0.053 C 
BRANCH  14  15
ATOM     15  C   UNL     1      -7.591 -35.620 -10.203  1.00  0.00     0.041 C 
ATOM     16  O   UNL     1      -6.385 -35.408 -10.497  1.00  0.00    -0.550 OA
ATOM     17  O   UNL     1      -8.589 -34.854 -10.794  1.00  0.00    -0.550 OA
ENDBRANCH  14  15
ENDBRANCH  13  14
ENDBRANCH  12  13
ENDBRANCH  11  12
ENDBRANCH  10  11
ENDBRANCH   9  10
ENDBRANCH   8   9
ENDBRANCH   7   8
ENDBRANCH   6   7
ENDBRANCH   5   6
ENDBRANCH   4   5
ENDBRANCH   3   4
ENDBRANCH   2   3
ENDBRANCH   1   2
BRANCH   1  18
ATOM     18  C   UNL     1      -5.681 -41.728 -16.204  1.00  0.00     0.000 C 
BRANCH  18  19
ATOM     19  C   UNL     1      -6.752 -40.667 -15.904  1.00  0.00     0.000 C 
BRANCH  19  20
ATOM     20  C   UNL     1      -8.132 -41.040 -16.487  1.00  0.00     0.000 C 
BRANCH  20  21
ATOM     21  C   UNL     1      -9.227 -39.989 -16.216  1.00  0.00     0.000 C 
BRANCH  21  22
ATOM     22  C   UNL     1      -8.704 -38.595 -15.821  1.00  0.00     0.000 C 
BRANCH  22  23
ATOM     23  C   UNL     1      -9.374 -37.411 -16.551  1.00  0.00     0.000 C 
BRANCH  23  24
ATOM     24  C   UNL     1      -9.997 -37.756 -17.915  1.00  0.00    -0.000 C 
BRANCH  24  25
ATOM     25  C   UNL     1      -9.090 -37.378 -19.098  1.00  0.00    -0.000 C 
BRANCH  25  26
ATOM     26  C   UNL     1      -8.183 -38.538 -19.550  1.00  0.00    -0.000 C 
BRANCH  26  27
ATOM     27  C   UNL     1      -6.759 -38.514 -18.965  1.00  0.00    -0.000 C 
BRANCH  27  28
ATOM     28  C   UNL     1      -5.857 -39.687 -19.393  1.00  0.00    -0.000 C 
BRANCH  28  29
ATOM     29  C   UNL     1      -6.462 -40.563 -20.510  1.00  0.00    -0.000 C 
BRANCH  29  30
ATOM     30  C   UNL     1      -5.886 -40.232 -21.895  1.00  0.00    -0.000 C 
BRANCH  30  31
ATOM     31  C   UNL     1      -4.363 -40.410 -21.913  1.00  0.00    -0.003 C 
ATOM     32  C   UNL     1      -3.853 -40.658 -23.330  1.00  0.00     0.004 C 
ENDBRANCH  30  31
ENDBRANCH  29  30
ENDBRANCH  28  29
ENDBRANCH  27  28
ENDBRANCH  26  27
ENDBRANCH  25  26
ENDBRANCH  24  25
ENDBRANCH  23  24
ENDBRANCH  22  23
ENDBRANCH  21  22
ENDBRANCH  20  21
ENDBRANCH  19  20
ENDBRANCH  18  19
ENDBRANCH   1  18
TORSDOF 28
ENDMDL
MODEL 6
REMARK VINA RESULT:    -3.942      5.151      9.463
REMARK INTER + INTRA:         -15.655
REMARK INTER:                 -11.303
REMARK INTRA:                  -4.352
REMARK UNBOUND:                -5.261
REMARK SMILES CCCCCCCCCCCCCCCCCCCCCCCCCCCCCC(=O)[O-]
REMARK SMILES IDX 16 1 17 2 18 3 19 4 20 5 21 6 22 7 23 8 24 9 25 10 26 11
REMARK SMILES IDX 27 12 28 13 29 14 30 15 31 16 32 17 15 18 14 19 13 20 12 21
REMARK SMILES IDX 11 22 10 23 9 24 8 25 7 26 6 27 5 28 4 29 3 30 2 31 1 32
REMARK H PARENT
REMARK Flexibility Score: inf
ROOT
ATOM      1  C   UNL     1      -8.552 -37.115 -17.486  1.00  0.00     0.000 C 
ENDROOT
BRANCH   1   2
ATOM      2  C   UNL     1      -9.725 -37.797 -16.760  1.00  0.00     0.000 C 
BRANCH   2   3
ATOM      3  C   UNL     1      -9.328 -38.541 -15.470  1.00  0.00     0.000 C 
BRANCH   3   4
ATOM      4  C   UNL     1      -7.857 -39.014 -15.454  1.00  0.00     0.000 C 
BRANCH   4   5
ATOM      5  C   UNL     1      -7.713 -40.517 -15.743  1.00  0.00     0.000 C 
BRANCH   5   6
ATOM      6  C   UNL     1      -6.251 -40.991 -15.678  1.00  0.00     0.000 C 
BRANCH   6   7
ATOM      7  C   UNL     1      -5.886 -41.590 -14.311  1.00  0.00     0.000 C 
BRANCH   7   8
ATOM      8  C   UNL     1      -7.121 -41.950 -13.469  1.00  0.00     0.000 C 
BRANCH   8   9
ATOM      9  C   UNL     1      -7.093 -41.362 -12.040  1.00  0.00     0.000 C 
BRANCH   9  10
ATOM     10  C   UNL     1      -7.501 -39.874 -11.980  1.00  0.00     0.000 C 
BRANCH  10  11
ATOM     11  C   UNL     1      -7.087 -39.156 -10.681  1.00  0.00     0.000 C 
BRANCH  11  12
ATOM     12  C   UNL     1      -5.628 -39.415 -10.254  1.00  0.00     0.000 C 
BRANCH  12  13
ATOM     13  C   UNL     1      -4.826 -38.115 -10.083  1.00  0.00     0.006 C 
BRANCH  13  14
ATOM     14  C   UNL     1      -5.593 -37.063  -9.272  1.00  0.00     0.053 C 
BRANCH  14  15
ATOM     15  C   UNL     1      -4.720 -35.901  -8.906  1.00  0.00     0.041 C 
ATOM     16  O   UNL     1      -3.530 -36.094  -8.544  1.00  0.00    -0.550 OA
ATOM     17  O   UNL     1      -5.229 -34.609  -8.943  1.00  0.00    -0.550 OA
ENDBRANCH  14  15
ENDBRANCH  13  14
ENDBRANCH  12  13
ENDBRANCH  11  12
ENDBRANCH  10  11
ENDBRANCH   9  10
ENDBRANCH   8   9
ENDBRANCH   7   8
ENDBRANCH   6   7
ENDBRANCH   5   6
ENDBRANCH   4   5
ENDBRANCH   3   4
ENDBRANCH   2   3
ENDBRANCH   1   2
BRANCH   1  18
ATOM     18  C   UNL     1      -8.328 -37.644 -18.922  1.00  0.00     0.000 C 
BRANCH  18  19
ATOM     19  C   UNL     1      -8.807 -39.093 -19.098  1.00  0.00     0.000 C 
BRANCH  19  20
ATOM     20  C   UNL     1      -7.645 -40.069 -19.386  1.00  0.00     0.000 C 
BRANCH  20  21
ATOM     21  C   UNL     1      -6.251 -39.474 -19.109  1.00  0.00     0.000 C 
BRANCH  21  22
ATOM     22  C   UNL     1      -5.225 -39.670 -20.241  1.00  0.00     0.000 C 
BRANCH  22  23
ATOM     23  C   UNL     1      -5.829 -39.924 -21.639  1.00  0.00     0.000 C 
BRANCH  23  24
ATOM     24  C   UNL     1      -5.166 -41.059 -22.439  1.00  0.00    -0.000 C 
BRANCH  24  25
ATOM     25  C   UNL     1      -3.724 -41.344 -21.987  1.00  0.00    -0.000 C 
BRANCH  25  26
ATOM     26  C   UNL     1      -3.096 -42.548 -22.715  1.00  0.00    -0.000 C 
BRANCH  26  27
ATOM     27  C   UNL     1      -2.399 -43.569 -21.798  1.00  0.00    -0.000 C 
BRANCH  27  28
ATOM     28  C   UNL     1      -3.203 -44.854 -21.519  1.00  0.00    -0.000 C 
BRANCH  28  29
ATOM     29  C   UNL     1      -3.961 -44.834 -20.174  1.00  0.00    -0.000 C 
BRANCH  29  30
ATOM     30  C   UNL     1      -5.362 -44.217 -20.297  1.00  0.00    -0.000 C 
BRANCH  30  31
ATOM     31  C   UNL     1      -5.605 -43.180 -19.194  1.00  0.00    -0.003 C 
ATOM     32  C   UNL     1      -4.296 -42.767 -18.528  1.00  0.00     0.004 C 
ENDBRANCH  30  31
ENDBRANCH  29  30
ENDBRANCH  28  29
ENDBRANCH  27  28
ENDBRANCH  26  27
ENDBRANCH  25  26
ENDBRANCH  24  25
ENDBRANCH  23  24
ENDBRANCH  22  23
ENDBRANCH  21  22
ENDBRANCH  20  21
ENDBRANCH  19  20
ENDBRANCH  18  19
ENDBRANCH   1  18
TORSDOF 28
ENDMDL
MODEL 7
REMARK VINA RESULT:    -3.936      3.124      7.678
REMARK INTER + INTRA:         -15.639
REMARK INTER:                 -10.259
REMARK INTRA:                  -5.381
REMARK UNBOUND:                -5.261
REMARK SMILES CCCCCCCCCCCCCCCCCCCCCCCCCCCCCC(=O)[O-]
REMARK SMILES IDX 16 1 17 2 18 3 19 4 20 5 21 6 22 7 23 8 24 9 25 10 26 11
REMARK SMILES IDX 27 12 28 13 29 14 30 15 31 16 32 17 15 18 14 19 13 20 12 21
REMARK SMILES IDX 11 22 10 23 9 24 8 25 7 26 6 27 5 28 4 29 3 30 2 31 1 32
REMARK H PARENT
REMARK Flexibility Score: inf
ROOT
ATOM      1  C   UNL     1      -7.624 -44.792 -14.914  1.00  0.00     0.000 C 
ENDROOT
BRANCH   1   2
ATOM      2  C   UNL     1      -7.323 -46.273 -14.622  1.00  0.00     0.000 C 
BRANCH   2   3
ATOM      3  C   UNL     1      -6.893 -46.560 -13.171  1.00  0.00     0.000 C 
BRANCH   3   4
ATOM      4  C   UNL     1      -5.430 -46.166 -12.867  1.00  0.00     0.000 C 
BRANCH   4   5
ATOM      5  C   UNL     1      -5.228 -45.700 -11.416  1.00  0.00     0.000 C 
BRANCH   5   6
ATOM      6  C   UNL     1      -6.540 -45.240 -10.759  1.00  0.00     0.000 C 
BRANCH   6   7
ATOM      7  C   UNL     1      -6.315 -44.161  -9.687  1.00  0.00     0.000 C 
BRANCH   7   8
ATOM      8  C   UNL     1      -7.152 -42.895  -9.930  1.00  0.00     0.000 C 
BRANCH   8   9
ATOM      9  C   UNL     1      -6.705 -41.682  -9.083  1.00  0.00     0.000 C 
BRANCH   9  10
ATOM     10  C   UNL     1      -7.454 -40.378  -9.435  1.00  0.00     0.000 C 
BRANCH  10  11
ATOM     11  C   UNL     1      -6.916 -39.657 -10.686  1.00  0.00     0.000 C 
BRANCH  11  12
ATOM     12  C   UNL     1      -5.531 -39.006 -10.493  1.00  0.00     0.000 C 
BRANCH  12  13
ATOM     13  C   UNL     1      -5.528 -37.951  -9.374  1.00  0.00     0.006 C 
BRANCH  13  14
ATOM     14  C   UNL     1      -5.216 -36.546  -9.903  1.00  0.00     0.053 C 
BRANCH  14  15
ATOM     15  C   UNL     1      -6.463 -35.746 -10.121  1.00  0.00     0.041 C 
ATOM     16  O   UNL     1      -7.592 -36.271  -9.934  1.00  0.00    -0.550 OA
ATOM     17  O   UNL     1      -6.379 -34.427 -10.551  1.00  0.00    -0.550 OA
ENDBRANCH  14  15
ENDBRANCH  13  14
ENDBRANCH  12  13
ENDBRANCH  11  12
ENDBRANCH  10  11
ENDBRANCH   9  10
ENDBRANCH   8   9
ENDBRANCH   7   8
ENDBRANCH   6   7
ENDBRANCH   5   6
ENDBRANCH   4   5
ENDBRANCH   3   4
ENDBRANCH   2   3
ENDBRANCH   1   2
BRANCH   1  18
ATOM     18  C   UNL     1      -8.560 -44.139 -13.872  1.00  0.00     0.000 C 
BRANCH  18  19
ATOM     19  C   UNL     1      -7.985 -42.833 -13.300  1.00  0.00     0.000 C 
BRANCH  19  20
ATOM     20  C   UNL     1      -6.471 -42.688 -13.564  1.00  0.00     0.000 C 
BRANCH  20  21
ATOM     21  C   UNL     1      -6.023 -41.240 -13.844  1.00  0.00     0.000 C 
BRANCH  21  22
ATOM     22  C   UNL     1      -7.120 -40.321 -14.414  1.00  0.00     0.000 C 
BRANCH  22  23
ATOM     23  C   UNL     1      -7.053 -40.084 -15.937  1.00  0.00     0.000 C 
BRANCH  23  24
ATOM     24  C   UNL     1      -7.788 -41.131 -16.793  1.00  0.00    -0.000 C 
BRANCH  24  25
ATOM     25  C   UNL     1      -6.849 -42.218 -17.341  1.00  0.00    -0.000 C 
BRANCH  25  26
ATOM     26  C   UNL     1      -5.485 -41.661 -17.790  1.00  0.00    -0.000 C 
BRANCH  26  27
ATOM     27  C   UNL     1      -4.316 -42.659 -17.706  1.00  0.00    -0.000 C 
BRANCH  27  28
ATOM     28  C   UNL     1      -3.704 -42.834 -16.303  1.00  0.00    -0.000 C 
BRANCH  28  29
ATOM     29  C   UNL     1      -4.060 -44.177 -15.632  1.00  0.00    -0.000 C 
BRANCH  29  30
ATOM     30  C   UNL     1      -4.368 -45.282 -16.654  1.00  0.00    -0.000 C 
BRANCH  30  31
ATOM     31  C   UNL     1      -3.214 -46.289 -16.738  1.00  0.00    -0.003 C 
ATOM     32  C   UNL     1      -3.556 -47.442 -17.677  1.00  0.00     0.004 C 
ENDBRANCH  30  31
ENDBRANCH  29  30
ENDBRANCH  28  29
ENDBRANCH  27  28
ENDBRANCH  26  27
ENDBRANCH  25  26
ENDBRANCH  24  25
ENDBRANCH  23  24
ENDBRANCH  22  23
ENDBRANCH  21  22
ENDBRANCH  20  21
ENDBRANCH  19  20
ENDBRANCH  18  19
ENDBRANCH   1  18
TORSDOF 28
ENDMDL
MODEL 8
REMARK VINA RESULT:    -3.931      3.874      7.783
REMARK INTER + INTRA:         -15.628
REMARK INTER:                 -11.161
REMARK INTRA:                  -4.467
REMARK UNBOUND:                -5.261
REMARK SMILES CCCCCCCCCCCCCCCCCCCCCCCCCCCCCC(=O)[O-]
REMARK SMILES IDX 16 1 17 2 18 3 19 4 20 5 21 6 22 7 23 8 24 9 25 10 26 11
REMARK SMILES IDX 27 12 28 13 29 14 30 15 31 16 32 17 15 18 14 19 13 20 12 21
REMARK SMILES IDX 11 22 10 23 9 24 8 25 7 26 6 27 5 28 4 29 3 30 2 31 1 32
REMARK H PARENT
REMARK Flexibility Score: inf
ROOT
ATOM      1  C   UNL     1      -6.510 -40.718 -15.332  1.00  0.00     0.000 C 
ENDROOT
BRANCH   1   2
ATOM      2  C   UNL     1      -6.855 -41.589 -16.552  1.00  0.00     0.000 C 
BRANCH   2   3
ATOM      3  C   UNL     1      -8.361 -41.664 -16.874  1.00  0.00     0.000 C 
BRANCH   3   4
ATOM      4  C   UNL     1      -9.256 -40.975 -15.820  1.00  0.00     0.000 C 
BRANCH   4   5
ATOM      5  C   UNL     1      -9.939 -39.707 -16.358  1.00  0.00     0.000 C 
BRANCH   5   6
ATOM      6  C   UNL     1      -9.359 -38.421 -15.744  1.00  0.00     0.000 C 
BRANCH   6   7
ATOM      7  C   UNL     1      -8.535 -37.607 -16.755  1.00  0.00     0.000 C 
BRANCH   7   8
ATOM      8  C   UNL     1      -9.404 -36.699 -17.639  1.00  0.00     0.000 C 
BRANCH   8   9
ATOM      9  C   UNL     1      -8.953 -36.653 -19.117  1.00  0.00     0.000 C 
BRANCH   9  10
ATOM     10  C   UNL     1      -9.469 -37.844 -19.953  1.00  0.00     0.000 C 
BRANCH  10  11
ATOM     11  C   UNL     1      -8.356 -38.726 -20.552  1.00  0.00     0.000 C 
BRANCH  11  12
ATOM     12  C   UNL     1      -7.611 -39.591 -19.516  1.00  0.00     0.000 C 
BRANCH  12  13
ATOM     13  C   UNL     1      -6.106 -39.279 -19.461  1.00  0.00     0.006 C 
BRANCH  13  14
ATOM     14  C   UNL     1      -5.352 -39.842 -20.673  1.00  0.00     0.053 C 
BRANCH  14  15
ATOM     15  C   UNL     1      -4.762 -41.188 -20.381  1.00  0.00     0.041 C 
ATOM     16  O   UNL     1      -5.493 -42.120 -19.955  1.00  0.00    -0.550 OA
ATOM     17  O   UNL     1      -3.402 -41.406 -20.561  1.00  0.00    -0.550 OA
ENDBRANCH  14  15
ENDBRANCH  13  14
ENDBRANCH  12  13
ENDBRANCH  11  12
ENDBRANCH  10  11
ENDBRANCH   9  10
ENDBRANCH   8   9
ENDBRANCH   7   8
ENDBRANCH   6   7
ENDBRANCH   5   6
ENDBRANCH   4   5
ENDBRANCH   3   4
ENDBRANCH   2   3
ENDBRANCH   1   2
BRANCH   1  18
ATOM     18  C   UNL     1      -6.090 -41.539 -14.090  1.00  0.00     0.000 C 
BRANCH  18  19
ATOM     19  C   UNL     1      -6.349 -40.790 -12.773  1.00  0.00     0.000 C 
BRANCH  19  20
ATOM     20  C   UNL     1      -7.410 -39.679 -12.924  1.00  0.00     0.000 C 
BRANCH  20  21
ATOM     21  C   UNL     1      -8.756 -40.008 -12.248  1.00  0.00     0.000 C 
BRANCH  21  22
ATOM     22  C   UNL     1      -8.989 -41.503 -11.960  1.00  0.00     0.000 C 
BRANCH  22  23
ATOM     23  C   UNL     1      -8.992 -41.893 -10.467  1.00  0.00     0.000 C 
BRANCH  23  24
ATOM     24  C   UNL     1      -7.808 -42.770 -10.020  1.00  0.00    -0.000 C 
BRANCH  24  25
ATOM     25  C   UNL     1      -6.772 -41.995  -9.189  1.00  0.00    -0.000 C 
BRANCH  25  26
ATOM     26  C   UNL     1      -7.258 -40.590  -8.787  1.00  0.00    -0.000 C 
BRANCH  26  27
ATOM     27  C   UNL     1      -6.421 -39.428  -9.352  1.00  0.00    -0.000 C 
BRANCH  27  28
ATOM     28  C   UNL     1      -6.956 -38.019  -9.030  1.00  0.00    -0.000 C 
BRANCH  28  29
ATOM     29  C   UNL     1      -6.667 -36.977 -10.131  1.00  0.00    -0.000 C 
BRANCH  29  30
ATOM     30  C   UNL     1      -5.643 -35.921  -9.688  1.00  0.00    -0.000 C 
BRANCH  30  31
ATOM     31  C   UNL     1      -4.460 -36.573  -8.962  1.00  0.00    -0.003 C 
ATOM     32  C   UNL     1      -3.429 -35.530  -8.540  1.00  0.00     0.004 C 
ENDBRANCH  30  31
ENDBRANCH  29  30
ENDBRANCH  28  29
ENDBRANCH  27  28
ENDBRANCH  26  27
ENDBRANCH  25  26
ENDBRANCH  24  25
ENDBRANCH  23  24
ENDBRANCH  22  23
ENDBRANCH  21  22
ENDBRANCH  20  21
ENDBRANCH  19  20
ENDBRANCH  18  19
ENDBRANCH   1  18
TORSDOF 28
ENDMDL
MODEL 9
REMARK VINA RESULT:    -3.909      1.757      2.365
REMARK INTER + INTRA:         -15.568
REMARK INTER:                 -11.626
REMARK INTRA:                  -3.942
REMARK UNBOUND:                -5.261
REMARK SMILES CCCCCCCCCCCCCCCCCCCCCCCCCCCCCC(=O)[O-]
REMARK SMILES IDX 16 1 17 2 18 3 19 4 20 5 21 6 22 7 23 8 24 9 25 10 26 11
REMARK SMILES IDX 27 12 28 13 29 14 30 15 31 16 32 17 15 18 14 19 13 20 12 21
REMARK SMILES IDX 11 22 10 23 9 24 8 25 7 26 6 27 5 28 4 29 3 30 2 31 1 32
REMARK H PARENT
REMARK Flexibility Score: inf
ROOT
ATOM      1  C   UNL     1      -5.758 -37.399  -9.418  1.00  0.00     0.000 C 
ENDROOT
BRANCH   1   2
ATOM      2  C   UNL     1      -5.241 -38.676 -10.103  1.00  0.00     0.000 C 
BRANCH   2   3
ATOM      3  C   UNL     1      -6.038 -39.949  -9.758  1.00  0.00     0.000 C 
BRANCH   3   4
ATOM      4  C   UNL     1      -7.123 -39.730  -8.680  1.00  0.00     0.000 C 
BRANCH   4   5
ATOM      5  C   UNL     1      -7.803 -41.039  -8.245  1.00  0.00     0.000 C 
BRANCH   5   6
ATOM      6  C   UNL     1      -9.319 -41.029  -8.510  1.00  0.00     0.000 C 
BRANCH   6   7
ATOM      7  C   UNL     1      -9.680 -41.623  -9.881  1.00  0.00     0.000 C 
BRANCH   7   8
ATOM      8  C   UNL     1      -9.377 -43.127  -9.979  1.00  0.00     0.000 C 
BRANCH   8   9
ATOM      9  C   UNL     1      -8.270 -43.474 -10.999  1.00  0.00     0.000 C 
BRANCH   9  10
ATOM     10  C   UNL     1      -7.682 -44.890 -10.810  1.00  0.00     0.000 C 
BRANCH  10  11
ATOM     11  C   UNL     1      -6.229 -44.908 -10.298  1.00  0.00     0.000 C 
BRANCH  11  12
ATOM     12  C   UNL     1      -5.276 -45.786 -11.135  1.00  0.00     0.000 C 
BRANCH  12  13
ATOM     13  C   UNL     1      -5.244 -45.373 -12.616  1.00  0.00     0.006 C 
BRANCH  13  14
ATOM     14  C   UNL     1      -4.639 -46.464 -13.508  1.00  0.00     0.053 C 
BRANCH  14  15
ATOM     15  C   UNL     1      -5.476 -47.707 -13.510  1.00  0.00     0.041 C 
ATOM     16  O   UNL     1      -6.694 -47.648 -13.822  1.00  0.00    -0.550 OA
ATOM     17  O   UNL     1      -4.916 -48.925 -13.146  1.00  0.00    -0.550 OA
ENDBRANCH  14  15
ENDBRANCH  13  14
ENDBRANCH  12  13
ENDBRANCH  11  12
ENDBRANCH  10  11
ENDBRANCH   9  10
ENDBRANCH   8   9
ENDBRANCH   7   8
ENDBRANCH   6   7
ENDBRANCH   5   6
ENDBRANCH   4   5
ENDBRANCH   3   4
ENDBRANCH   2   3
ENDBRANCH   1   2
BRANCH   1  18
ATOM     18  C   UNL     1      -4.665 -36.324  -9.217  1.00  0.00     0.000 C 
BRANCH  18  19
ATOM     19  C   UNL     1      -5.251 -34.924  -8.977  1.00  0.00     0.000 C 
BRANCH  19  20
ATOM     20  C   UNL     1      -6.794 -34.933  -8.912  1.00  0.00     0.000 C 
BRANCH  20  21
ATOM     21  C   UNL     1      -7.474 -34.490 -10.222  1.00  0.00     0.000 C 
BRANCH  21  22
ATOM     22  C   UNL     1      -8.731 -35.293 -10.605  1.00  0.00     0.000 C 
BRANCH  22  23
ATOM     23  C   UNL     1      -9.324 -36.164  -9.478  1.00  0.00     0.000 C 
BRANCH  23  24
ATOM     24  C   UNL     1      -9.759 -37.577  -9.905  1.00  0.00    -0.000 C 
BRANCH  24  25
ATOM     25  C   UNL     1      -9.688 -37.788 -11.427  1.00  0.00    -0.000 C 
BRANCH  25  26
ATOM     26  C   UNL     1      -8.357 -38.415 -11.882  1.00  0.00    -0.000 C 
BRANCH  26  27
ATOM     27  C   UNL     1      -8.493 -39.551 -12.913  1.00  0.00    -0.000 C 
BRANCH  27  28
ATOM     28  C   UNL     1      -7.354 -40.588 -12.899  1.00  0.00    -0.000 C 
BRANCH  28  29
ATOM     29  C   UNL     1      -6.664 -40.773 -14.267  1.00  0.00    -0.000 C 
BRANCH  29  30
ATOM     30  C   UNL     1      -7.346 -39.970 -15.384  1.00  0.00    -0.000 C 
BRANCH  30  31
ATOM     31  C   UNL     1      -6.688 -40.247 -16.741  1.00  0.00    -0.003 C 
ATOM     32  C   UNL     1      -5.875 -41.538 -16.706  1.00  0.00     0.004 C 
ENDBRANCH  30  31
ENDBRANCH  29  30
ENDBRANCH  28  29
ENDBRANCH  27  28
ENDBRANCH  26  27
ENDBRANCH  25  26
ENDBRANCH  24  25
ENDBRANCH  23  24
ENDBRANCH  22  23
ENDBRANCH  21  22
ENDBRANCH  20  21
ENDBRANCH  19  20
ENDBRANCH  18  19
ENDBRANCH   1  18
TORSDOF 28
ENDMDL
