MODEL 1
REMARK VINA RESULT:    -6.089      0.000      0.000
REMARK INTER + INTRA:          -6.828
REMARK INTER:                  -6.801
REMARK INTRA:                  -0.027
REMARK UNBOUND:                -0.027
REMARK SMILES COc1cc2ccc(=O)oc2cc1OC
REMARK SMILES IDX 3 1 13 2 12 3 11 4 5 5 4 6 6 7 7 8 8 9 9 10 10 11 2 12 1 13
REMARK SMILES IDX 14 14 15 15
REMARK H PARENT
REMARK Flexibility Score: inf
ROOT
ATOM      1  C   UNL     1     -11.815  62.880  39.377  1.00  0.00     0.161 A 
ATOM      2  C   UNL     1     -11.640  61.640  40.015  1.00  0.00     0.164 A 
ATOM      3  C   UNL     1     -12.706  60.719  40.058  1.00  0.00     0.098 A 
ATOM      4  C   UNL     1     -13.935  61.031  39.471  1.00  0.00     0.142 A 
ATOM      5  C   UNL     1     -14.110  62.274  38.830  1.00  0.00     0.022 A 
ATOM      6  C   UNL     1     -13.055  63.194  38.785  1.00  0.00     0.062 A 
ATOM      7  C   UNL     1     -15.353  62.557  38.252  1.00  0.00     0.019 A 
ATOM      8  C   UNL     1     -16.373  61.609  38.324  1.00  0.00     0.094 A 
ATOM      9  C   UNL     1     -16.126  60.397  38.976  1.00  0.00     0.336 A 
ATOM     10  O   UNL     1     -17.034  59.528  39.051  1.00  0.00    -0.246 OA
ATOM     11  O   UNL     1     -14.936  60.154  39.517  1.00  0.00    -0.423 OA
ENDROOT
BRANCH   1  12
ATOM     12  O   UNL     1     -10.732  63.772  39.352  1.00  0.00    -0.493 OA
ATOM     13  C   UNL     1      -9.856  63.950  38.244  1.00  0.00     0.278 C 
ENDBRANCH   1  12
BRANCH   2  14
ATOM     14  O   UNL     1     -10.392  61.360  40.595  1.00  0.00    -0.493 OA
ATOM     15  C   UNL     1      -9.955  61.864  41.852  1.00  0.00     0.278 C 
ENDBRANCH   2  14
TORSDOF 2
ENDMDL
MODEL 2
REMARK VINA RESULT:    -6.028      2.886      5.948
REMARK INTER + INTRA:          -6.760
REMARK INTER:                  -6.651
REMARK INTRA:                  -0.110
REMARK UNBOUND:                -0.027
REMARK SMILES COc1cc2ccc(=O)oc2cc1OC
REMARK SMILES IDX 3 1 13 2 12 3 11 4 5 5 4 6 6 7 7 8 8 9 9 10 10 11 2 12 1 13
REMARK SMILES IDX 14 14 15 15
REMARK H PARENT
REMARK Flexibility Score: inf
ROOT
ATOM      1  C   UNL     1     -10.751  61.594  40.357  1.00  0.00     0.161 A 
ATOM      2  C   UNL     1     -10.295  62.185  41.548  1.00  0.00     0.164 A 
ATOM      3  C   UNL     1      -9.607  63.414  41.500  1.00  0.00     0.098 A 
ATOM      4  C   UNL     1      -9.377  64.050  40.278  1.00  0.00     0.142 A 
ATOM      5  C   UNL     1      -9.835  63.458  39.084  1.00  0.00     0.022 A 
ATOM      6  C   UNL     1     -10.518  62.236  39.124  1.00  0.00     0.062 A 
ATOM      7  C   UNL     1      -9.588  64.119  37.875  1.00  0.00     0.019 A 
ATOM      8  C   UNL     1      -8.904  65.334  37.886  1.00  0.00     0.094 A 
ATOM      9  C   UNL     1      -8.479  65.860  39.110  1.00  0.00     0.336 A 
ATOM     10  O   UNL     1      -7.860  66.956  39.142  1.00  0.00    -0.246 OA
ATOM     11  O   UNL     1      -8.727  65.211  40.244  1.00  0.00    -0.423 OA
ENDROOT
BRANCH   1  12
ATOM     12  O   UNL     1     -11.432  60.370  40.441  1.00  0.00    -0.493 OA
ATOM     13  C   UNL     1     -12.660  60.082  39.781  1.00  0.00     0.278 C 
ENDBRANCH   1  12
BRANCH   2  14
ATOM     14  O   UNL     1     -10.543  61.518  42.759  1.00  0.00    -0.493 OA
ATOM     15  C   UNL     1      -9.942  61.855  44.004  1.00  0.00     0.278 C 
ENDBRANCH   2  14
TORSDOF 2
ENDMDL
MODEL 3
REMARK VINA RESULT:    -5.990     18.713     20.510
REMARK INTER + INTRA:          -6.718
REMARK INTER:                  -6.564
REMARK INTRA:                  -0.154
REMARK UNBOUND:                -0.027
REMARK SMILES COc1cc2ccc(=O)oc2cc1OC
REMARK SMILES IDX 3 1 13 2 12 3 11 4 5 5 4 6 6 7 7 8 8 9 9 10 10 11 2 12 1 13
REMARK SMILES IDX 14 14 15 15
REMARK H PARENT
REMARK Flexibility Score: inf
ROOT
ATOM      1  C   UNL     1      -8.408  49.256  55.594  1.00  0.00     0.161 A 
ATOM      2  C   UNL     1      -9.127  48.102  55.952  1.00  0.00     0.164 A 
ATOM      3  C   UNL     1     -10.462  47.950  55.529  1.00  0.00     0.098 A 
ATOM      4  C   UNL     1     -11.077  48.937  54.755  1.00  0.00     0.142 A 
ATOM      5  C   UNL     1     -10.356  50.094  54.394  1.00  0.00     0.022 A 
ATOM      6  C   UNL     1      -9.029  50.252  54.812  1.00  0.00     0.062 A 
ATOM      7  C   UNL     1     -10.999  51.065  53.618  1.00  0.00     0.019 A 
ATOM      8  C   UNL     1     -12.322  50.862  53.227  1.00  0.00     0.094 A 
ATOM      9  C   UNL     1     -12.973  49.690  53.623  1.00  0.00     0.336 A 
ATOM     10  O   UNL     1     -14.168  49.488  53.279  1.00  0.00    -0.246 OA
ATOM     11  O   UNL     1     -12.338  48.783  54.360  1.00  0.00    -0.423 OA
ENDROOT
BRANCH   1  12
ATOM     12  O   UNL     1      -7.080  49.375  56.032  1.00  0.00    -0.493 OA
ATOM     13  C   UNL     1      -6.677  50.060  57.213  1.00  0.00     0.278 C 
ENDBRANCH   1  12
BRANCH   2  14
ATOM     14  O   UNL     1      -8.478  47.131  56.732  1.00  0.00    -0.493 OA
ATOM     15  C   UNL     1      -8.695  46.937  58.125  1.00  0.00     0.278 C 
ENDBRANCH   2  14
TORSDOF 2
ENDMDL
MODEL 4
REMARK VINA RESULT:    -5.964     18.328     19.840
REMARK INTER + INTRA:          -6.689
REMARK INTER:                  -6.585
REMARK INTRA:                  -0.103
REMARK UNBOUND:                -0.027
REMARK SMILES COc1cc2ccc(=O)oc2cc1OC
REMARK SMILES IDX 3 1 13 2 12 3 11 4 5 5 4 6 6 7 7 8 8 9 9 10 10 11 2 12 1 13
REMARK SMILES IDX 14 14 15 15
REMARK H PARENT
REMARK Flexibility Score: inf
ROOT
ATOM      1  C   UNL     1     -11.171  48.533  54.998  1.00  0.00     0.161 A 
ATOM      2  C   UNL     1     -11.359  49.778  54.373  1.00  0.00     0.164 A 
ATOM      3  C   UNL     1     -12.560  50.040  53.685  1.00  0.00     0.098 A 
ATOM      4  C   UNL     1     -13.565  49.072  53.619  1.00  0.00     0.142 A 
ATOM      5  C   UNL     1     -13.377  47.824  54.247  1.00  0.00     0.022 A 
ATOM      6  C   UNL     1     -12.185  47.557  54.932  1.00  0.00     0.062 A 
ATOM      7  C   UNL     1     -14.402  46.875  54.164  1.00  0.00     0.019 A 
ATOM      8  C   UNL     1     -15.571  47.188  53.471  1.00  0.00     0.094 A 
ATOM      9  C   UNL     1     -15.686  48.447  52.873  1.00  0.00     0.336 A 
ATOM     10  O   UNL     1     -16.734  48.750  52.243  1.00  0.00    -0.246 OA
ATOM     11  O   UNL     1     -14.696  49.331  52.967  1.00  0.00    -0.423 OA
ENDROOT
BRANCH   1  12
ATOM     12  O   UNL     1      -9.963  48.306  55.675  1.00  0.00    -0.493 OA
ATOM     13  C   UNL     1      -9.358  47.027  55.842  1.00  0.00     0.278 C 
ENDBRANCH   1  12
BRANCH   2  14
ATOM     14  O   UNL     1     -10.328  50.727  54.457  1.00  0.00    -0.493 OA
ATOM     15  C   UNL     1     -10.342  51.994  53.808  1.00  0.00     0.278 C 
ENDBRANCH   2  14
TORSDOF 2
ENDMDL
MODEL 5
REMARK VINA RESULT:    -5.950      3.241      6.411
REMARK INTER + INTRA:          -6.673
REMARK INTER:                  -6.555
REMARK INTRA:                  -0.118
REMARK UNBOUND:                -0.027
REMARK SMILES COc1cc2ccc(=O)oc2cc1OC
REMARK SMILES IDX 3 1 13 2 12 3 11 4 5 5 4 6 6 7 7 8 8 9 9 10 10 11 2 12 1 13
REMARK SMILES IDX 14 14 15 15
REMARK H PARENT
REMARK Flexibility Score: inf
ROOT
ATOM      1  C   UNL     1     -10.144  62.436  41.964  1.00  0.00     0.161 A 
ATOM      2  C   UNL     1     -10.268  61.946  40.652  1.00  0.00     0.164 A 
ATOM      3  C   UNL     1      -9.878  62.752  39.564  1.00  0.00     0.098 A 
ATOM      4  C   UNL     1      -9.369  64.035  39.780  1.00  0.00     0.142 A 
ATOM      5  C   UNL     1      -9.243  64.526  41.096  1.00  0.00     0.022 A 
ATOM      6  C   UNL     1      -9.629  63.730  42.181  1.00  0.00     0.062 A 
ATOM      7  C   UNL     1      -8.729  65.814  41.280  1.00  0.00     0.019 A 
ATOM      8  C   UNL     1      -8.358  66.569  40.167  1.00  0.00     0.094 A 
ATOM      9  C   UNL     1      -8.511  66.015  38.892  1.00  0.00     0.336 A 
ATOM     10  O   UNL     1      -8.182  66.680  37.875  1.00  0.00    -0.246 OA
ATOM     11  O   UNL     1      -9.003  64.788  38.746  1.00  0.00    -0.423 OA
ENDROOT
BRANCH   1  12
ATOM     12  O   UNL     1     -10.542  61.606  43.023  1.00  0.00    -0.493 OA
ATOM     13  C   UNL     1      -9.861  61.505  44.269  1.00  0.00     0.278 C 
ENDBRANCH   1  12
BRANCH   2  14
ATOM     14  O   UNL     1     -10.785  60.653  40.471  1.00  0.00    -0.493 OA
ATOM     15  C   UNL     1     -12.138  60.364  40.133  1.00  0.00     0.278 C 
ENDBRANCH   2  14
TORSDOF 2
ENDMDL
MODEL 6
REMARK VINA RESULT:    -5.909      1.423      5.576
REMARK INTER + INTRA:          -6.627
REMARK INTER:                  -6.656
REMARK INTRA:                   0.028
REMARK UNBOUND:                -0.027
REMARK SMILES COc1cc2ccc(=O)oc2cc1OC
REMARK SMILES IDX 3 1 13 2 12 3 11 4 5 5 4 6 6 7 7 8 8 9 9 10 10 11 2 12 1 13
REMARK SMILES IDX 14 14 15 15
REMARK H PARENT
REMARK Flexibility Score: inf
ROOT
ATOM      1  C   UNL     1     -14.490  60.927  38.660  1.00  0.00     0.161 A 
ATOM      2  C   UNL     1     -14.600  62.315  38.462  1.00  0.00     0.164 A 
ATOM      3  C   UNL     1     -13.531  63.159  38.820  1.00  0.00     0.098 A 
ATOM      4  C   UNL     1     -12.362  62.628  39.370  1.00  0.00     0.142 A 
ATOM      5  C   UNL     1     -12.251  61.236  39.567  1.00  0.00     0.022 A 
ATOM      6  C   UNL     1     -13.310  60.391  39.214  1.00  0.00     0.062 A 
ATOM      7  C   UNL     1     -11.067  60.734  40.119  1.00  0.00     0.019 A 
ATOM      8  C   UNL     1     -10.040  61.616  40.455  1.00  0.00     0.094 A 
ATOM      9  C   UNL     1     -10.222  62.984  40.231  1.00  0.00     0.336 A 
ATOM     10  O   UNL     1      -9.307  63.797  40.527  1.00  0.00    -0.246 OA
ATOM     11  O   UNL     1     -11.358  63.435  39.704  1.00  0.00    -0.423 OA
ENDROOT
BRANCH   1  12
ATOM     12  O   UNL     1     -15.574  60.116  38.291  1.00  0.00    -0.493 OA
ATOM     13  C   UNL     1     -16.783  59.997  39.032  1.00  0.00     0.278 C 
ENDBRANCH   1  12
BRANCH   2  14
ATOM     14  O   UNL     1     -15.790  62.815  37.908  1.00  0.00    -0.493 OA
ATOM     15  C   UNL     1     -16.148  64.192  37.875  1.00  0.00     0.278 C 
ENDBRANCH   2  14
TORSDOF 2
ENDMDL
MODEL 7
REMARK VINA RESULT:    -5.808     18.731     20.989
REMARK INTER + INTRA:          -6.514
REMARK INTER:                  -6.414
REMARK INTRA:                  -0.101
REMARK UNBOUND:                -0.027
REMARK SMILES COc1cc2ccc(=O)oc2cc1OC
REMARK SMILES IDX 3 1 13 2 12 3 11 4 5 5 4 6 6 7 7 8 8 9 9 10 10 11 2 12 1 13
REMARK SMILES IDX 14 14 15 15
REMARK H PARENT
REMARK Flexibility Score: inf
ROOT
ATOM      1  C   UNL     1     -12.633  48.215  54.367  1.00  0.00     0.161 A 
ATOM      2  C   UNL     1     -12.294  49.518  53.963  1.00  0.00     0.164 A 
ATOM      3  C   UNL     1     -11.048  50.063  54.331  1.00  0.00     0.098 A 
ATOM      4  C   UNL     1     -10.146  49.317  55.093  1.00  0.00     0.142 A 
ATOM      5  C   UNL     1     -10.484  48.009  55.497  1.00  0.00     0.022 A 
ATOM      6  C   UNL     1     -11.722  47.462  55.136  1.00  0.00     0.062 A 
ATOM      7  C   UNL     1      -9.560  47.287  56.259  1.00  0.00     0.019 A 
ATOM      8  C   UNL     1      -8.340  47.875  56.594  1.00  0.00     0.094 A 
ATOM      9  C   UNL     1      -8.074  49.176  56.158  1.00  0.00     0.336 A 
ATOM     10  O   UNL     1      -6.979  49.724  56.450  1.00  0.00    -0.246 OA
ATOM     11  O   UNL     1      -8.971  49.840  55.435  1.00  0.00    -0.423 OA
ENDROOT
BRANCH   1  12
ATOM     12  O   UNL     1     -13.882  47.704  53.983  1.00  0.00    -0.493 OA
ATOM     13  C   UNL     1     -14.101  46.876  52.846  1.00  0.00     0.278 C 
ENDBRANCH   1  12
BRANCH   2  14
ATOM     14  O   UNL     1     -13.225  50.241  53.199  1.00  0.00    -0.493 OA
ATOM     15  C   UNL     1     -13.270  50.245  51.776  1.00  0.00     0.278 C 
ENDBRANCH   2  14
TORSDOF 2
ENDMDL
MODEL 8
REMARK VINA RESULT:    -5.777     18.627     20.744
REMARK INTER + INTRA:          -6.480
REMARK INTER:                  -6.336
REMARK INTRA:                  -0.143
REMARK UNBOUND:                -0.027
REMARK SMILES COc1cc2ccc(=O)oc2cc1OC
REMARK SMILES IDX 3 1 13 2 12 3 11 4 5 5 4 6 6 7 7 8 8 9 9 10 10 11 2 12 1 13
REMARK SMILES IDX 14 14 15 15
REMARK H PARENT
REMARK Flexibility Score: inf
ROOT
ATOM      1  C   UNL     1     -12.389  49.636  53.800  1.00  0.00     0.161 A 
ATOM      2  C   UNL     1     -12.648  48.362  54.334  1.00  0.00     0.164 A 
ATOM      3  C   UNL     1     -11.674  47.725  55.129  1.00  0.00     0.098 A 
ATOM      4  C   UNL     1     -10.453  48.352  55.390  1.00  0.00     0.142 A 
ATOM      5  C   UNL     1     -10.193  49.630  54.855  1.00  0.00     0.022 A 
ATOM      6  C   UNL     1     -11.157  50.268  54.064  1.00  0.00     0.062 A 
ATOM      7  C   UNL     1      -8.961  50.231  55.134  1.00  0.00     0.019 A 
ATOM      8  C   UNL     1      -8.034  49.556  55.928  1.00  0.00     0.094 A 
ATOM      9  C   UNL     1      -8.361  48.291  56.423  1.00  0.00     0.336 A 
ATOM     10  O   UNL     1      -7.538  47.665  57.142  1.00  0.00    -0.246 OA
ATOM     11  O   UNL     1      -9.540  47.742  56.142  1.00  0.00    -0.423 OA
ENDROOT
BRANCH   1  12
ATOM     12  O   UNL     1     -13.381  50.240  53.013  1.00  0.00    -0.493 OA
ATOM     13  C   UNL     1     -13.366  50.290  51.590  1.00  0.00     0.278 C 
ENDBRANCH   1  12
BRANCH   2  14
ATOM     14  O   UNL     1     -13.885  47.761  54.051  1.00  0.00    -0.493 OA
ATOM     15  C   UNL     1     -14.122  46.876  52.962  1.00  0.00     0.278 C 
ENDBRANCH   2  14
TORSDOF 2
ENDMDL
MODEL 9
REMARK VINA RESULT:    -5.761      1.092      2.609
REMARK INTER + INTRA:          -6.462
REMARK INTER:                  -6.391
REMARK INTRA:                  -0.072
REMARK UNBOUND:                -0.027
REMARK SMILES COc1cc2ccc(=O)oc2cc1OC
REMARK SMILES IDX 3 1 13 2 12 3 11 4 5 5 4 6 6 7 7 8 8 9 9 10 10 11 2 12 1 13
REMARK SMILES IDX 14 14 15 15
REMARK H PARENT
REMARK Flexibility Score: inf
ROOT
ATOM      1  C   UNL     1     -11.334  61.758  39.972  1.00  0.00     0.161 A 
ATOM      2  C   UNL     1     -11.570  63.010  39.377  1.00  0.00     0.164 A 
ATOM      3  C   UNL     1     -12.837  63.299  38.834  1.00  0.00     0.098 A 
ATOM      4  C   UNL     1     -13.862  62.350  38.882  1.00  0.00     0.142 A 
ATOM      5  C   UNL     1     -13.626  61.095  39.479  1.00  0.00     0.022 A 
ATOM      6  C   UNL     1     -12.368  60.801  40.020  1.00  0.00     0.062 A 
ATOM      7  C   UNL     1     -14.671  60.166  39.512  1.00  0.00     0.019 A 
ATOM      8  C   UNL     1     -15.907  60.505  38.960  1.00  0.00     0.094 A 
ATOM      9  C   UNL     1     -16.066  61.769  38.385  1.00  0.00     0.336 A 
ATOM     10  O   UNL     1     -17.174  62.095  37.881  1.00  0.00    -0.246 OA
ATOM     11  O   UNL     1     -15.055  62.633  38.367  1.00  0.00    -0.423 OA
ENDROOT
BRANCH   1  12
ATOM     12  O   UNL     1     -10.060  61.505  40.503  1.00  0.00    -0.493 OA
ATOM     13  C   UNL     1      -9.638  61.888  41.807  1.00  0.00     0.278 C 
ENDBRANCH   1  12
BRANCH   2  14
ATOM     14  O   UNL     1     -10.518  63.940  39.345  1.00  0.00    -0.493 OA
ATOM     15  C   UNL     1      -9.662  64.152  38.228  1.00  0.00     0.278 C 
ENDBRANCH   2  14
TORSDOF 2
ENDMDL
