MODEL 1
REMARK VINA RESULT:    -5.978      0.000      0.000
REMARK INTER + INTRA:         -11.281
REMARK INTER:                 -10.522
REMARK INTRA:                  -0.759
REMARK UNBOUND:                -0.759
REMARK SMILES CCCCCCC=CCCCCCCCC(=O)[O-]
REMARK SMILES IDX 10 1 11 2 12 3 13 4 14 5 15 6 16 7 17 8 18 9 9 10 8 11 7 12
REMARK SMILES IDX 6 13 5 14 4 15 3 16 2 17 1 18
REMARK H PARENT
REMARK Flexibility Score: inf
ROOT
ATOM      1  C   UNL     1     -27.771  57.159   1.233  1.00  0.00     0.004 C 
ENDROOT
BRANCH   1   2
ATOM      2  C   UNL     1     -29.075  57.056   0.427  1.00  0.00     0.000 C 
BRANCH   2   3
ATOM      3  C   UNL     1     -30.182  56.310   1.186  1.00  0.00     0.000 C 
BRANCH   3   4
ATOM      4  C   UNL     1     -30.757  57.179   2.313  1.00  0.00     0.000 C 
BRANCH   4   5
ATOM      5  C   UNL     1     -30.546  56.516   3.682  1.00  0.00     0.006 C 
BRANCH   5   6
ATOM      6  C   UNL     1     -30.976  57.425   4.840  1.00  0.00     0.053 C 
BRANCH   6   7
ATOM      7  C   UNL     1     -29.808  58.135   5.454  1.00  0.00     0.041 C 
ATOM      8  O   UNL     1     -29.822  58.436   6.677  1.00  0.00    -0.550 OA
ATOM      9  O   UNL     1     -28.691  58.432   4.685  1.00  0.00    -0.550 OA
ENDBRANCH   6   7
ENDBRANCH   5   6
ENDBRANCH   4   5
ENDBRANCH   3   4
ENDBRANCH   2   3
ENDBRANCH   1   2
BRANCH   1  10
ATOM     10  C   UNL     1     -26.534  56.763   0.414  1.00  0.00     0.027 C 
BRANCH  10  11
ATOM     11  C   UNL     1     -25.268  57.023   1.183  1.00  0.00    -0.031 C 
ATOM     12  C   UNL     1     -25.253  57.897   2.200  1.00  0.00    -0.031 C 
BRANCH  12  13
ATOM     13  C   UNL     1     -23.996  58.183   2.974  1.00  0.00     0.027 C 
BRANCH  13  14
ATOM     14  C   UNL     1     -23.959  57.382   4.284  1.00  0.00     0.004 C 
BRANCH  14  15
ATOM     15  C   UNL     1     -22.527  57.084   4.756  1.00  0.00     0.000 C 
BRANCH  15  16
ATOM     16  C   UNL     1     -22.438  56.863   6.272  1.00  0.00    -0.000 C 
BRANCH  16  17
ATOM     17  C   UNL     1     -23.514  55.879   6.747  1.00  0.00    -0.003 C 
ATOM     18  C   UNL     1     -22.892  54.564   7.208  1.00  0.00     0.004 C 
ENDBRANCH  16  17
ENDBRANCH  15  16
ENDBRANCH  14  15
ENDBRANCH  13  14
ENDBRANCH  12  13
ENDBRANCH  10  11
ENDBRANCH   1  10
TORSDOF 13
ENDMDL
MODEL 2
REMARK VINA RESULT:    -5.891      3.063      4.456
REMARK INTER + INTRA:         -11.127
REMARK INTER:                 -10.246
REMARK INTRA:                  -0.881
REMARK UNBOUND:                -0.759
REMARK SMILES CCCCCCC=CCCCCCCCC(=O)[O-]
REMARK SMILES IDX 10 1 11 2 12 3 13 4 14 5 15 6 16 7 17 8 18 9 9 10 8 11 7 12
REMARK SMILES IDX 6 13 5 14 4 15 3 16 2 17 1 18
REMARK H PARENT
REMARK Flexibility Score: inf
ROOT
ATOM      1  C   UNL     1     -29.340  57.995   3.528  1.00  0.00     0.004 C 
ENDROOT
BRANCH   1   2
ATOM      2  C   UNL     1     -29.145  57.376   2.136  1.00  0.00     0.000 C 
BRANCH   2   3
ATOM      3  C   UNL     1     -30.472  56.960   1.483  1.00  0.00     0.000 C 
BRANCH   3   4
ATOM      4  C   UNL     1     -30.431  57.184  -0.034  1.00  0.00     0.000 C 
BRANCH   4   5
ATOM      5  C   UNL     1     -29.107  57.838  -0.458  1.00  0.00     0.006 C 
BRANCH   5   6
ATOM      6  C   UNL     1     -29.020  58.041  -1.976  1.00  0.00     0.053 C 
BRANCH   6   7
ATOM      7  C   UNL     1     -27.844  57.324  -2.567  1.00  0.00     0.041 C 
ATOM      8  O   UNL     1     -27.915  56.843  -3.729  1.00  0.00    -0.550 OA
ATOM      9  O   UNL     1     -26.661  57.216  -1.848  1.00  0.00    -0.550 OA
ENDBRANCH   6   7
ENDBRANCH   5   6
ENDBRANCH   4   5
ENDBRANCH   3   4
ENDBRANCH   2   3
ENDBRANCH   1   2
BRANCH   1  10
ATOM     10  C   UNL     1     -28.073  58.686   4.053  1.00  0.00     0.027 C 
BRANCH  10  11
ATOM     11  C   UNL     1     -26.894  58.408   3.161  1.00  0.00    -0.031 C 
ATOM     12  C   UNL     1     -25.661  58.294   3.674  1.00  0.00    -0.031 C 
BRANCH  12  13
ATOM     13  C   UNL     1     -24.466  58.029   2.801  1.00  0.00     0.027 C 
BRANCH  13  14
ATOM     14  C   UNL     1     -23.191  57.869   3.642  1.00  0.00     0.004 C 
BRANCH  14  15
ATOM     15  C   UNL     1     -23.412  57.005   4.894  1.00  0.00     0.000 C 
BRANCH  15  16
ATOM     16  C   UNL     1     -22.218  57.045   5.859  1.00  0.00    -0.000 C 
BRANCH  16  17
ATOM     17  C   UNL     1     -22.587  56.428   7.213  1.00  0.00    -0.003 C 
ATOM     18  C   UNL     1     -23.911  55.673   7.133  1.00  0.00     0.004 C 
ENDBRANCH  16  17
ENDBRANCH  15  16
ENDBRANCH  14  15
ENDBRANCH  13  14
ENDBRANCH  12  13
ENDBRANCH  10  11
ENDBRANCH   1  10
TORSDOF 13
ENDMDL
MODEL 3
REMARK VINA RESULT:    -5.794      8.892     11.517
REMARK INTER + INTRA:         -10.957
REMARK INTER:                  -9.844
REMARK INTRA:                  -1.113
REMARK UNBOUND:                -0.759
REMARK SMILES CCCCCCC=CCCCCCCCC(=O)[O-]
REMARK SMILES IDX 10 1 11 2 12 3 13 4 14 5 15 6 16 7 17 8 18 9 9 10 8 11 7 12
REMARK SMILES IDX 6 13 5 14 4 15 3 16 2 17 1 18
REMARK H PARENT
REMARK Flexibility Score: inf
ROOT
ATOM      1  C   UNL     1     -17.379  59.425  -4.783  1.00  0.00     0.004 C 
ENDROOT
BRANCH   1   2
ATOM      2  C   UNL     1     -17.161  58.450  -5.949  1.00  0.00     0.000 C 
BRANCH   2   3
ATOM      3  C   UNL     1     -18.392  58.333  -6.861  1.00  0.00     0.000 C 
BRANCH   3   4
ATOM      4  C   UNL     1     -19.604  59.039  -6.241  1.00  0.00     0.000 C 
BRANCH   4   5
ATOM      5  C   UNL     1     -20.655  58.020  -5.772  1.00  0.00     0.006 C 
BRANCH   5   6
ATOM      6  C   UNL     1     -20.532  57.708  -4.275  1.00  0.00     0.053 C 
BRANCH   6   7
ATOM      7  C   UNL     1     -20.243  56.259  -4.030  1.00  0.00     0.041 C 
ATOM      8  O   UNL     1     -19.066  55.822  -4.136  1.00  0.00    -0.550 OA
ATOM      9  O   UNL     1     -21.266  55.399  -3.653  1.00  0.00    -0.550 OA
ENDBRANCH   6   7
ENDBRANCH   5   6
ENDBRANCH   4   5
ENDBRANCH   3   4
ENDBRANCH   2   3
ENDBRANCH   1   2
BRANCH   1  10
ATOM     10  C   UNL     1     -16.103  60.187  -4.399  1.00  0.00     0.027 C 
BRANCH  10  11
ATOM     11  C   UNL     1     -16.081  60.506  -2.930  1.00  0.00    -0.031 C 
ATOM     12  C   UNL     1     -17.132  60.212  -2.150  1.00  0.00    -0.031 C 
BRANCH  12  13
ATOM     13  C   UNL     1     -17.138  60.533  -0.682  1.00  0.00     0.027 C 
BRANCH  13  14
ATOM     14  C   UNL     1     -17.811  59.413   0.126  1.00  0.00     0.004 C 
BRANCH  14  15
ATOM     15  C   UNL     1     -19.099  59.878   0.824  1.00  0.00     0.000 C 
BRANCH  15  16
ATOM     16  C   UNL     1     -20.170  60.354  -0.168  1.00  0.00    -0.000 C 
BRANCH  16  17
ATOM     17  C   UNL     1     -21.240  61.192   0.541  1.00  0.00    -0.003 C 
ATOM     18  C   UNL     1     -22.086  60.331   1.475  1.00  0.00     0.004 C 
ENDBRANCH  16  17
ENDBRANCH  15  16
ENDBRANCH  14  15
ENDBRANCH  13  14
ENDBRANCH  12  13
ENDBRANCH  10  11
ENDBRANCH   1  10
TORSDOF 13
ENDMDL
MODEL 4
REMARK VINA RESULT:    -5.753      8.880     11.764
REMARK INTER + INTRA:         -10.885
REMARK INTER:                  -9.868
REMARK INTRA:                  -1.018
REMARK UNBOUND:                -0.759
REMARK SMILES CCCCCCC=CCCCCCCCC(=O)[O-]
REMARK SMILES IDX 10 1 11 2 12 3 13 4 14 5 15 6 16 7 17 8 18 9 9 10 8 11 7 12
REMARK SMILES IDX 6 13 5 14 4 15 3 16 2 17 1 18
REMARK H PARENT
REMARK Flexibility Score: inf
ROOT
ATOM      1  C   UNL     1     -15.347  60.333  -3.454  1.00  0.00     0.004 C 
ENDROOT
BRANCH   1   2
ATOM      2  C   UNL     1     -15.986  60.255  -4.848  1.00  0.00     0.000 C 
BRANCH   2   3
ATOM      3  C   UNL     1     -17.201  59.315  -4.891  1.00  0.00     0.000 C 
BRANCH   3   4
ATOM      4  C   UNL     1     -17.510  58.882  -6.330  1.00  0.00     0.000 C 
BRANCH   4   5
ATOM      5  C   UNL     1     -18.803  58.054  -6.390  1.00  0.00     0.006 C 
BRANCH   5   6
ATOM      6  C   UNL     1     -19.552  58.051  -5.051  1.00  0.00     0.053 C 
BRANCH   6   7
ATOM      7  C   UNL     1     -19.667  56.670  -4.482  1.00  0.00     0.041 C 
ATOM      8  O   UNL     1     -20.780  56.246  -4.070  1.00  0.00    -0.550 OA
ATOM      9  O   UNL     1     -18.555  55.839  -4.437  1.00  0.00    -0.550 OA
ENDBRANCH   6   7
ENDBRANCH   5   6
ENDBRANCH   4   5
ENDBRANCH   3   4
ENDBRANCH   2   3
ENDBRANCH   1   2
BRANCH   1  10
ATOM     10  C   UNL     1     -16.145  61.218  -2.485  1.00  0.00     0.027 C 
BRANCH  10  11
ATOM     11  C   UNL     1     -16.592  60.437  -1.280  1.00  0.00    -0.031 C 
ATOM     12  C   UNL     1     -17.811  59.881  -1.238  1.00  0.00    -0.031 C 
BRANCH  12  13
ATOM     13  C   UNL     1     -18.285  59.108  -0.039  1.00  0.00     0.027 C 
BRANCH  13  14
ATOM     14  C   UNL     1     -19.246  59.948   0.816  1.00  0.00     0.004 C 
BRANCH  14  15
ATOM     15  C   UNL     1     -20.339  60.631  -0.020  1.00  0.00     0.000 C 
BRANCH  15  16
ATOM     16  C   UNL     1     -21.699  60.657   0.692  1.00  0.00    -0.000 C 
BRANCH  16  17
ATOM     17  C   UNL     1     -21.588  60.074   2.106  1.00  0.00    -0.003 C 
ATOM     18  C   UNL     1     -22.933  59.539   2.589  1.00  0.00     0.004 C 
ENDBRANCH  16  17
ENDBRANCH  15  16
ENDBRANCH  14  15
ENDBRANCH  13  14
ENDBRANCH  12  13
ENDBRANCH  10  11
ENDBRANCH   1  10
TORSDOF 13
ENDMDL
MODEL 5
REMARK VINA RESULT:    -5.751      3.587      5.433
REMARK INTER + INTRA:         -10.881
REMARK INTER:                 -10.022
REMARK INTRA:                  -0.859
REMARK UNBOUND:                -0.759
REMARK SMILES CCCCCCC=CCCCCCCCC(=O)[O-]
REMARK SMILES IDX 10 1 11 2 12 3 13 4 14 5 15 6 16 7 17 8 18 9 9 10 8 11 7 12
REMARK SMILES IDX 6 13 5 14 4 15 3 16 2 17 1 18
REMARK H PARENT
REMARK Flexibility Score: inf
ROOT
ATOM      1  C   UNL     1     -28.796  58.404   4.307  1.00  0.00     0.004 C 
ENDROOT
BRANCH   1   2
ATOM      2  C   UNL     1     -29.864  57.539   3.622  1.00  0.00     0.000 C 
BRANCH   2   3
ATOM      3  C   UNL     1     -29.460  57.115   2.201  1.00  0.00     0.000 C 
BRANCH   3   4
ATOM      4  C   UNL     1     -30.352  57.790   1.152  1.00  0.00     0.000 C 
BRANCH   4   5
ATOM      5  C   UNL     1     -29.505  58.492   0.079  1.00  0.00     0.006 C 
BRANCH   5   6
ATOM      6  C   UNL     1     -28.885  57.500  -0.912  1.00  0.00     0.053 C 
BRANCH   6   7
ATOM      7  C   UNL     1     -28.739  58.096  -2.279  1.00  0.00     0.041 C 
ATOM      8  O   UNL     1     -29.341  59.162  -2.572  1.00  0.00    -0.550 OA
ATOM      9  O   UNL     1     -27.910  57.493  -3.216  1.00  0.00    -0.550 OA
ENDBRANCH   6   7
ENDBRANCH   5   6
ENDBRANCH   4   5
ENDBRANCH   3   4
ENDBRANCH   2   3
ENDBRANCH   1   2
BRANCH   1  10
ATOM     10  C   UNL     1     -27.732  58.921   3.328  1.00  0.00     0.027 C 
BRANCH  10  11
ATOM     11  C   UNL     1     -26.356  58.466   3.732  1.00  0.00    -0.031 C 
ATOM     12  C   UNL     1     -25.444  58.141   2.804  1.00  0.00    -0.031 C 
BRANCH  12  13
ATOM     13  C   UNL     1     -24.067  57.671   3.184  1.00  0.00     0.027 C 
BRANCH  13  14
ATOM     14  C   UNL     1     -23.103  58.856   3.343  1.00  0.00     0.004 C 
BRANCH  14  15
ATOM     15  C   UNL     1     -22.922  59.650   2.040  1.00  0.00     0.000 C 
BRANCH  15  16
ATOM     16  C   UNL     1     -21.533  60.295   1.930  1.00  0.00    -0.000 C 
BRANCH  16  17
ATOM     17  C   UNL     1     -21.303  60.864   0.524  1.00  0.00    -0.003 C 
ATOM     18  C   UNL     1     -20.023  60.309  -0.094  1.00  0.00     0.004 C 
ENDBRANCH  16  17
ENDBRANCH  15  16
ENDBRANCH  14  15
ENDBRANCH  13  14
ENDBRANCH  12  13
ENDBRANCH  10  11
ENDBRANCH   1  10
TORSDOF 13
ENDMDL
MODEL 6
REMARK VINA RESULT:    -5.651      5.162      8.303
REMARK INTER + INTRA:         -10.704
REMARK INTER:                  -9.978
REMARK INTRA:                  -0.727
REMARK UNBOUND:                -0.759
REMARK SMILES CCCCCCC=CCCCCCCCC(=O)[O-]
REMARK SMILES IDX 10 1 11 2 12 3 13 4 14 5 15 6 16 7 17 8 18 9 9 10 8 11 7 12
REMARK SMILES IDX 6 13 5 14 4 15 3 16 2 17 1 18
REMARK H PARENT
REMARK Flexibility Score: inf
ROOT
ATOM      1  C   UNL     1     -22.023  57.994   9.926  1.00  0.00     0.004 C 
ENDROOT
BRANCH   1   2
ATOM      2  C   UNL     1     -21.719  57.631  11.387  1.00  0.00     0.000 C 
BRANCH   2   3
ATOM      3  C   UNL     1     -22.897  57.928  12.328  1.00  0.00     0.000 C 
BRANCH   3   4
ATOM      4  C   UNL     1     -24.101  58.470  11.546  1.00  0.00     0.000 C 
BRANCH   4   5
ATOM      5  C   UNL     1     -25.086  59.188  12.482  1.00  0.00     0.006 C 
BRANCH   5   6
ATOM      6  C   UNL     1     -25.647  60.472  11.858  1.00  0.00     0.053 C 
BRANCH   6   7
ATOM      7  C   UNL     1     -26.827  60.193  10.978  1.00  0.00     0.041 C 
ATOM      8  O   UNL     1     -27.655  59.297  11.293  1.00  0.00    -0.550 OA
ATOM      9  O   UNL     1     -27.032  60.946   9.829  1.00  0.00    -0.550 OA
ENDBRANCH   6   7
ENDBRANCH   5   6
ENDBRANCH   4   5
ENDBRANCH   3   4
ENDBRANCH   2   3
ENDBRANCH   1   2
BRANCH   1  10
ATOM     10  C   UNL     1     -21.007  57.395   8.942  1.00  0.00     0.027 C 
BRANCH  10  11
ATOM     11  C   UNL     1     -21.557  57.370   7.542  1.00  0.00    -0.031 C 
ATOM     12  C   UNL     1     -22.628  56.622   7.241  1.00  0.00    -0.031 C 
BRANCH  12  13
ATOM     13  C   UNL     1     -23.186  56.571   5.846  1.00  0.00     0.027 C 
BRANCH  13  14
ATOM     14  C   UNL     1     -22.262  57.291   4.854  1.00  0.00     0.004 C 
BRANCH  14  15
ATOM     15  C   UNL     1     -23.038  58.081   3.789  1.00  0.00     0.000 C 
BRANCH  15  16
ATOM     16  C   UNL     1     -22.184  59.170   3.122  1.00  0.00    -0.000 C 
BRANCH  16  17
ATOM     17  C   UNL     1     -22.834  59.655   1.820  1.00  0.00    -0.003 C 
ATOM     18  C   UNL     1     -22.010  60.764   1.172  1.00  0.00     0.004 C 
ENDBRANCH  16  17
ENDBRANCH  15  16
ENDBRANCH  14  15
ENDBRANCH  13  14
ENDBRANCH  12  13
ENDBRANCH  10  11
ENDBRANCH   1  10
TORSDOF 13
ENDMDL
MODEL 7
REMARK VINA RESULT:    -5.540      8.845     11.483
REMARK INTER + INTRA:         -10.510
REMARK INTER:                  -9.732
REMARK INTRA:                  -0.778
REMARK UNBOUND:                -0.759
REMARK SMILES CCCCCCC=CCCCCCCCC(=O)[O-]
REMARK SMILES IDX 10 1 11 2 12 3 13 4 14 5 15 6 16 7 17 8 18 9 9 10 8 11 7 12
REMARK SMILES IDX 6 13 5 14 4 15 3 16 2 17 1 18
REMARK H PARENT
REMARK Flexibility Score: inf
ROOT
ATOM      1  C   UNL     1     -17.006  59.587  -4.562  1.00  0.00     0.004 C 
ENDROOT
BRANCH   1   2
ATOM      2  C   UNL     1     -17.028  58.766  -5.860  1.00  0.00     0.000 C 
BRANCH   2   3
ATOM      3  C   UNL     1     -18.319  57.950  -6.023  1.00  0.00     0.000 C 
BRANCH   3   4
ATOM      4  C   UNL     1     -18.758  57.343  -4.684  1.00  0.00     0.000 C 
BRANCH   4   5
ATOM      5  C   UNL     1     -19.894  58.163  -4.053  1.00  0.00     0.006 C 
BRANCH   5   6
ATOM      6  C   UNL     1     -21.089  58.322  -5.001  1.00  0.00     0.053 C 
BRANCH   6   7
ATOM      7  C   UNL     1     -22.159  57.311  -4.720  1.00  0.00     0.041 C 
ATOM      8  O   UNL     1     -23.345  57.685  -4.519  1.00  0.00    -0.550 OA
ATOM      9  O   UNL     1     -21.854  55.956  -4.715  1.00  0.00    -0.550 OA
ENDBRANCH   6   7
ENDBRANCH   5   6
ENDBRANCH   4   5
ENDBRANCH   3   4
ENDBRANCH   2   3
ENDBRANCH   1   2
BRANCH   1  10
ATOM     10  C   UNL     1     -15.832  60.575  -4.505  1.00  0.00     0.027 C 
BRANCH  10  11
ATOM     11  C   UNL     1     -15.629  61.097  -3.109  1.00  0.00    -0.031 C 
ATOM     12  C   UNL     1     -16.371  60.635  -2.092  1.00  0.00    -0.031 C 
BRANCH  12  13
ATOM     13  C   UNL     1     -16.194  61.151  -0.691  1.00  0.00     0.027 C 
BRANCH  13  14
ATOM     14  C   UNL     1     -17.552  61.363  -0.005  1.00  0.00     0.004 C 
BRANCH  14  15
ATOM     15  C   UNL     1     -18.604  60.332  -0.442  1.00  0.00     0.000 C 
BRANCH  15  16
ATOM     16  C   UNL     1     -19.757  60.200   0.563  1.00  0.00    -0.000 C 
BRANCH  16  17
ATOM     17  C   UNL     1     -21.060  60.758  -0.021  1.00  0.00    -0.003 C 
ATOM     18  C   UNL     1     -22.241  60.487   0.907  1.00  0.00     0.004 C 
ENDBRANCH  16  17
ENDBRANCH  15  16
ENDBRANCH  14  15
ENDBRANCH  13  14
ENDBRANCH  12  13
ENDBRANCH  10  11
ENDBRANCH   1  10
TORSDOF 13
ENDMDL
MODEL 8
REMARK VINA RESULT:    -5.456      3.993      5.636
REMARK INTER + INTRA:         -10.361
REMARK INTER:                  -9.717
REMARK INTRA:                  -0.644
REMARK UNBOUND:                -0.759
REMARK SMILES CCCCCCC=CCCCCCCCC(=O)[O-]
REMARK SMILES IDX 10 1 11 2 12 3 13 4 14 5 15 6 16 7 17 8 18 9 9 10 8 11 7 12
REMARK SMILES IDX 6 13 5 14 4 15 3 16 2 17 1 18
REMARK H PARENT
REMARK Flexibility Score: inf
ROOT
ATOM      1  C   UNL     1     -25.635  58.739   3.744  1.00  0.00     0.004 C 
ENDROOT
BRANCH   1   2
ATOM      2  C   UNL     1     -26.990  58.303   3.168  1.00  0.00     0.000 C 
BRANCH   2   3
ATOM      3  C   UNL     1     -28.169  58.675   4.080  1.00  0.00     0.000 C 
BRANCH   3   4
ATOM      4  C   UNL     1     -29.464  58.004   3.605  1.00  0.00     0.000 C 
BRANCH   4   5
ATOM      5  C   UNL     1     -29.556  58.009   2.071  1.00  0.00     0.006 C 
BRANCH   5   6
ATOM      6  C   UNL     1     -30.366  56.823   1.535  1.00  0.00     0.053 C 
BRANCH   6   7
ATOM      7  C   UNL     1     -31.070  57.162   0.256  1.00  0.00     0.041 C 
ATOM      8  O   UNL     1     -30.469  57.801  -0.647  1.00  0.00    -0.550 OA
ATOM      9  O   UNL     1     -32.378  56.743   0.049  1.00  0.00    -0.550 OA
ENDBRANCH   6   7
ENDBRANCH   5   6
ENDBRANCH   4   5
ENDBRANCH   3   4
ENDBRANCH   2   3
ENDBRANCH   1   2
BRANCH   1  10
ATOM     10  C   UNL     1     -24.447  58.057   3.050  1.00  0.00     0.027 C 
BRANCH  10  11
ATOM     11  C   UNL     1     -23.495  59.073   2.481  1.00  0.00    -0.031 C 
ATOM     12  C   UNL     1     -22.267  59.224   2.998  1.00  0.00    -0.031 C 
BRANCH  12  13
ATOM     13  C   UNL     1     -21.303  60.241   2.454  1.00  0.00     0.027 C 
BRANCH  13  14
ATOM     14  C   UNL     1     -21.757  60.755   1.080  1.00  0.00     0.004 C 
BRANCH  14  15
ATOM     15  C   UNL     1     -20.685  60.571  -0.005  1.00  0.00     0.000 C 
BRANCH  15  16
ATOM     16  C   UNL     1     -19.343  60.089   0.566  1.00  0.00    -0.000 C 
BRANCH  16  17
ATOM     17  C   UNL     1     -18.519  59.368  -0.508  1.00  0.00    -0.003 C 
ATOM     18  C   UNL     1     -17.460  60.293  -1.103  1.00  0.00     0.004 C 
ENDBRANCH  16  17
ENDBRANCH  15  16
ENDBRANCH  14  15
ENDBRANCH  13  14
ENDBRANCH  12  13
ENDBRANCH  10  11
ENDBRANCH   1  10
TORSDOF 13
ENDMDL
MODEL 9
REMARK VINA RESULT:    -5.441      8.363     11.526
REMARK INTER + INTRA:         -10.335
REMARK INTER:                  -9.173
REMARK INTRA:                  -1.162
REMARK UNBOUND:                -0.759
REMARK SMILES CCCCCCC=CCCCCCCCC(=O)[O-]
REMARK SMILES IDX 10 1 11 2 12 3 13 4 14 5 15 6 16 7 17 8 18 9 9 10 8 11 7 12
REMARK SMILES IDX 6 13 5 14 4 15 3 16 2 17 1 18
REMARK H PARENT
REMARK Flexibility Score: inf
ROOT
ATOM      1  C   UNL     1     -17.045  60.244  -2.267  1.00  0.00     0.004 C 
ENDROOT
BRANCH   1   2
ATOM      2  C   UNL     1     -16.678  60.578  -0.813  1.00  0.00     0.000 C 
BRANCH   2   3
ATOM      3  C   UNL     1     -16.993  59.429   0.156  1.00  0.00     0.000 C 
BRANCH   3   4
ATOM      4  C   UNL     1     -18.496  59.124   0.178  1.00  0.00     0.000 C 
BRANCH   4   5
ATOM      5  C   UNL     1     -19.273  60.236   0.900  1.00  0.00     0.006 C 
BRANCH   5   6
ATOM      6  C   UNL     1     -20.269  60.944  -0.026  1.00  0.00     0.053 C 
BRANCH   6   7
ATOM      7  C   UNL     1     -21.688  60.633   0.341  1.00  0.00     0.041 C 
ATOM      8  O   UNL     1     -22.629  60.976  -0.422  1.00  0.00    -0.550 OA
ATOM      9  O   UNL     1     -21.968  59.935   1.508  1.00  0.00    -0.550 OA
ENDBRANCH   6   7
ENDBRANCH   5   6
ENDBRANCH   4   5
ENDBRANCH   3   4
ENDBRANCH   2   3
ENDBRANCH   1   2
BRANCH   1  10
ATOM     10  C   UNL     1     -15.928  60.600  -3.258  1.00  0.00     0.027 C 
BRANCH  10  11
ATOM     11  C   UNL     1     -16.235  60.074  -4.633  1.00  0.00    -0.031 C 
ATOM     12  C   UNL     1     -17.332  59.335  -4.855  1.00  0.00    -0.031 C 
BRANCH  12  13
ATOM     13  C   UNL     1     -17.651  58.789  -6.218  1.00  0.00     0.027 C 
BRANCH  13  14
ATOM     14  C   UNL     1     -18.474  57.495  -6.116  1.00  0.00     0.004 C 
BRANCH  14  15
ATOM     15  C   UNL     1     -18.511  56.929  -4.688  1.00  0.00     0.000 C 
BRANCH  15  16
ATOM     16  C   UNL     1     -19.941  56.777  -4.149  1.00  0.00    -0.000 C 
BRANCH  16  17
ATOM     17  C   UNL     1     -20.967  57.291  -5.166  1.00  0.00    -0.003 C 
ATOM     18  C   UNL     1     -21.362  58.735  -4.868  1.00  0.00     0.004 C 
ENDBRANCH  16  17
ENDBRANCH  15  16
ENDBRANCH  14  15
ENDBRANCH  13  14
ENDBRANCH  12  13
ENDBRANCH  10  11
ENDBRANCH   1  10
TORSDOF 13
ENDMDL
