MODEL 1
REMARK VINA RESULT:    -3.038      0.000      0.000
REMARK INTER + INTRA:          -3.227
REMARK INTER:                  -3.216
REMARK INTRA:                  -0.011
REMARK UNBOUND:                -0.011
REMARK SMILES O=Cc1ccco1
REMARK SMILES IDX 5 1 6 2 7 3 3 4 4 5 2 6 1 7
REMARK H PARENT
REMARK Flexibility Score: inf
ROOT
ATOM      1  C   UNL     1      29.198   2.652  24.489  1.00  0.00     0.043 A 
ATOM      2  C   UNL     1      28.991   2.349  23.157  1.00  0.00     0.196 A 
ATOM      3  O   UNL     1      29.845   1.427  22.775  1.00  0.00    -0.462 OA
ATOM      4  C   UNL     1      30.602   1.111  23.800  1.00  0.00     0.166 A 
ATOM      5  C   UNL     1      30.240   1.851  24.907  1.00  0.00     0.054 A 
ENDROOT
BRANCH   4   6
ATOM      6  C   UNL     1      31.675   0.115  23.758  1.00  0.00     0.298 C 
ATOM      7  O   UNL     1      32.834   0.447  23.395  1.00  0.00    -0.294 OA
ENDBRANCH   4   6
TORSDOF 1
ENDMDL
MODEL 2
REMARK VINA RESULT:    -2.887      1.163      1.706
REMARK INTER + INTRA:          -3.067
REMARK INTER:                  -3.055
REMARK INTRA:                  -0.012
REMARK UNBOUND:                -0.011
REMARK SMILES O=Cc1ccco1
REMARK SMILES IDX 5 1 6 2 7 3 3 4 4 5 2 6 1 7
REMARK H PARENT
REMARK Flexibility Score: inf
ROOT
ATOM      1  C   UNL     1      28.761   0.542  22.373  1.00  0.00     0.043 A 
ATOM      2  C   UNL     1      29.062   1.803  22.848  1.00  0.00     0.196 A 
ATOM      3  O   UNL     1      30.233   1.784  23.443  1.00  0.00    -0.462 OA
ATOM      4  C   UNL     1      30.713   0.564  23.378  1.00  0.00     0.166 A 
ATOM      5  C   UNL     1      29.829  -0.262  22.715  1.00  0.00     0.054 A 
ENDROOT
BRANCH   4   6
ATOM      6  C   UNL     1      32.003   0.154  23.936  1.00  0.00     0.298 C 
ATOM      7  O   UNL     1      33.075   0.511  23.382  1.00  0.00    -0.294 OA
ENDBRANCH   4   6
TORSDOF 1
ENDMDL
MODEL 3
REMARK VINA RESULT:    -2.867      1.636      3.198
REMARK INTER + INTRA:          -3.045
REMARK INTER:                  -3.033
REMARK INTRA:                  -0.012
REMARK UNBOUND:                -0.011
REMARK SMILES O=Cc1ccco1
REMARK SMILES IDX 5 1 6 2 7 3 3 4 4 5 2 6 1 7
REMARK H PARENT
REMARK Flexibility Score: inf
ROOT
ATOM      1  C   UNL     1      32.882   0.531  24.880  1.00  0.00     0.043 A 
ATOM      2  C   UNL     1      31.987   0.943  25.848  1.00  0.00     0.196 A 
ATOM      3  O   UNL     1      30.822   1.192  25.295  1.00  0.00    -0.462 OA
ATOM      4  C   UNL     1      30.915   0.961  24.006  1.00  0.00     0.166 A 
ATOM      5  C   UNL     1      32.190   0.542  23.688  1.00  0.00     0.054 A 
ENDROOT
BRANCH   4   6
ATOM      6  C   UNL     1      29.813   1.130  23.056  1.00  0.00     0.298 C 
ATOM      7  O   UNL     1      29.381   2.280  22.786  1.00  0.00    -0.294 OA
ENDBRANCH   4   6
TORSDOF 1
ENDMDL
MODEL 4
REMARK VINA RESULT:    -2.836      8.401      9.407
REMARK INTER + INTRA:          -3.013
REMARK INTER:                  -3.001
REMARK INTRA:                  -0.012
REMARK UNBOUND:                -0.011
REMARK SMILES O=Cc1ccco1
REMARK SMILES IDX 5 1 6 2 7 3 3 4 4 5 2 6 1 7
REMARK H PARENT
REMARK Flexibility Score: inf
ROOT
ATOM      1  C   UNL     1      25.889  -3.816  15.609  1.00  0.00     0.043 A 
ATOM      2  C   UNL     1      26.908  -4.065  16.507  1.00  0.00     0.196 A 
ATOM      3  O   UNL     1      26.986  -3.078  17.371  1.00  0.00    -0.462 OA
ATOM      4  C   UNL     1      26.062  -2.194  17.078  1.00  0.00     0.166 A 
ATOM      5  C   UNL     1      25.340  -2.606  15.977  1.00  0.00     0.054 A 
ENDROOT
BRANCH   4   6
ATOM      6  C   UNL     1      25.843  -0.952  17.822  1.00  0.00     0.298 C 
ATOM      7  O   UNL     1      26.690  -0.023  17.768  1.00  0.00    -0.294 OA
ENDBRANCH   4   6
TORSDOF 1
ENDMDL
MODEL 5
REMARK VINA RESULT:    -2.828      1.692      3.280
REMARK INTER + INTRA:          -3.005
REMARK INTER:                  -2.989
REMARK INTRA:                  -0.015
REMARK UNBOUND:                -0.011
REMARK SMILES O=Cc1ccco1
REMARK SMILES IDX 5 1 6 2 7 3 3 4 4 5 2 6 1 7
REMARK H PARENT
REMARK Flexibility Score: inf
ROOT
ATOM      1  C   UNL     1      29.978  -0.674  22.660  1.00  0.00     0.043 A 
ATOM      2  C   UNL     1      30.998  -0.169  23.442  1.00  0.00     0.196 A 
ATOM      3  O   UNL     1      30.733   1.076  23.764  1.00  0.00    -0.462 OA
ATOM      4  C   UNL     1      29.582   1.409  23.229  1.00  0.00     0.166 A 
ATOM      5  C   UNL     1      29.060   0.345  22.522  1.00  0.00     0.054 A 
ENDROOT
BRANCH   4   6
ATOM      6  C   UNL     1      28.955   2.725  23.371  1.00  0.00     0.298 C 
ATOM      7  O   UNL     1      29.262   3.472  24.336  1.00  0.00    -0.294 OA
ENDBRANCH   4   6
TORSDOF 1
ENDMDL
MODEL 6
REMARK VINA RESULT:    -2.756      2.202      3.211
REMARK INTER + INTRA:          -2.928
REMARK INTER:                  -2.916
REMARK INTRA:                  -0.012
REMARK UNBOUND:                -0.011
REMARK SMILES O=Cc1ccco1
REMARK SMILES IDX 5 1 6 2 7 3 3 4 4 5 2 6 1 7
REMARK H PARENT
REMARK Flexibility Score: inf
ROOT
ATOM      1  C   UNL     1      29.553  -1.135  22.698  1.00  0.00     0.043 A 
ATOM      2  C   UNL     1      28.783  -0.750  21.618  1.00  0.00     0.196 A 
ATOM      3  O   UNL     1      28.595   0.549  21.650  1.00  0.00    -0.462 OA
ATOM      4  C   UNL     1      29.210   1.033  22.704  1.00  0.00     0.166 A 
ATOM      5  C   UNL     1      29.830   0.017  23.402  1.00  0.00     0.054 A 
ENDROOT
BRANCH   4   6
ATOM      6  C   UNL     1      29.223   2.450  23.074  1.00  0.00     0.298 C 
ATOM      7  O   UNL     1      29.409   2.790  24.271  1.00  0.00    -0.294 OA
ENDBRANCH   4   6
TORSDOF 1
ENDMDL
MODEL 7
REMARK VINA RESULT:    -2.738      1.930      2.605
REMARK INTER + INTRA:          -2.909
REMARK INTER:                  -2.893
REMARK INTRA:                  -0.016
REMARK UNBOUND:                -0.011
REMARK SMILES O=Cc1ccco1
REMARK SMILES IDX 5 1 6 2 7 3 3 4 4 5 2 6 1 7
REMARK H PARENT
REMARK Flexibility Score: inf
ROOT
ATOM      1  C   UNL     1      29.857   1.874  24.645  1.00  0.00     0.043 A 
ATOM      2  C   UNL     1      29.284   2.786  23.781  1.00  0.00     0.196 A 
ATOM      3  O   UNL     1      28.938   2.183  22.667  1.00  0.00    -0.462 OA
ATOM      4  C   UNL     1      29.258   0.914  22.764  1.00  0.00     0.166 A 
ATOM      5  C   UNL     1      29.841   0.661  23.989  1.00  0.00     0.054 A 
ENDROOT
BRANCH   4   6
ATOM      6  C   UNL     1      29.026  -0.079  21.713  1.00  0.00     0.298 C 
ATOM      7  O   UNL     1      28.291   0.200  20.730  1.00  0.00    -0.294 OA
ENDBRANCH   4   6
TORSDOF 1
ENDMDL
MODEL 8
REMARK VINA RESULT:    -2.730      5.613      6.506
REMARK INTER + INTRA:          -2.900
REMARK INTER:                  -2.889
REMARK INTRA:                  -0.011
REMARK UNBOUND:                -0.011
REMARK SMILES O=Cc1ccco1
REMARK SMILES IDX 5 1 6 2 7 3 3 4 4 5 2 6 1 7
REMARK H PARENT
REMARK Flexibility Score: inf
ROOT
ATOM      1  C   UNL     1      26.729  -0.626  17.300  1.00  0.00     0.043 A 
ATOM      2  C   UNL     1      26.751  -1.975  17.599  1.00  0.00     0.196 A 
ATOM      3  O   UNL     1      27.123  -2.145  18.847  1.00  0.00    -0.462 OA
ATOM      4  C   UNL     1      27.346  -0.967  19.380  1.00  0.00     0.166 A 
ATOM      5  C   UNL     1      27.114   0.027  18.452  1.00  0.00     0.054 A 
ENDROOT
BRANCH   4   6
ATOM      6  C   UNL     1      27.780  -0.755  20.762  1.00  0.00     0.298 C 
ATOM      7  O   UNL     1      28.614   0.147  21.033  1.00  0.00    -0.294 OA
ENDBRANCH   4   6
TORSDOF 1
ENDMDL
MODEL 9
REMARK VINA RESULT:    -2.711      7.047      8.032
REMARK INTER + INTRA:          -2.881
REMARK INTER:                  -2.870
REMARK INTRA:                  -0.011
REMARK UNBOUND:                -0.011
REMARK SMILES O=Cc1ccco1
REMARK SMILES IDX 5 1 6 2 7 3 3 4 4 5 2 6 1 7
REMARK H PARENT
REMARK Flexibility Score: inf
ROOT
ATOM      1  C   UNL     1      27.119   0.043  18.850  1.00  0.00     0.043 A 
ATOM      2  C   UNL     1      27.315  -1.132  19.550  1.00  0.00     0.196 A 
ATOM      3  O   UNL     1      27.053  -2.158  18.773  1.00  0.00    -0.462 OA
ATOM      4  C   UNL     1      26.694  -1.707  17.594  1.00  0.00     0.166 A 
ATOM      5  C   UNL     1      26.717  -0.328  17.584  1.00  0.00     0.054 A 
ENDROOT
BRANCH   4   6
ATOM      6  C   UNL     1      26.323  -2.559  16.462  1.00  0.00     0.298 C 
ATOM      7  O   UNL     1      25.167  -2.491  15.970  1.00  0.00    -0.294 OA
ENDBRANCH   4   6
TORSDOF 1
ENDMDL
