MODEL 1
REMARK VINA RESULT:    -3.171      0.000      0.000
REMARK INTER + INTRA:          -5.590
REMARK INTER:                  -5.025
REMARK INTRA:                  -0.565
REMARK UNBOUND:                -0.565
REMARK SMILES CCCCCCCCCCCC(=O)[O-]
REMARK SMILES IDX 7 1 8 2 9 3 10 4 11 5 12 6 13 7 14 8 6 9 5 10 4 11 3 12 2 13
REMARK SMILES IDX 1 14
REMARK H PARENT
REMARK Flexibility Score: inf
ROOT
ATOM      1  C   UNL     1       7.635  -1.158  -2.513  1.00  0.00     0.000 C 
ENDROOT
BRANCH   1   2
ATOM      2  C   UNL     1       7.130   0.290  -2.603  1.00  0.00     0.000 C 
BRANCH   2   3
ATOM      3  C   UNL     1       7.926   1.262  -1.711  1.00  0.00     0.000 C 
BRANCH   3   4
ATOM      4  C   UNL     1       7.358   2.690  -1.626  1.00  0.00     0.006 C 
BRANCH   4   5
ATOM      5  C   UNL     1       7.915   3.487  -0.440  1.00  0.00     0.053 C 
BRANCH   5   6
ATOM      6  C   UNL     1       6.798   4.022   0.400  1.00  0.00     0.041 C 
ATOM      7  O   UNL     1       5.816   4.597  -0.141  1.00  0.00    -0.550 OA
ATOM      8  O   UNL     1       6.816   3.843   1.777  1.00  0.00    -0.550 OA
ENDBRANCH   5   6
ENDBRANCH   4   5
ENDBRANCH   3   4
ENDBRANCH   2   3
ENDBRANCH   1   2
BRANCH   1   9
ATOM      9  C   UNL     1       8.515  -1.408  -1.277  1.00  0.00     0.000 C 
BRANCH   9  10
ATOM     10  C   UNL     1       8.913  -2.888  -1.090  1.00  0.00    -0.000 C 
BRANCH  10  11
ATOM     11  C   UNL     1       9.640  -3.127   0.246  1.00  0.00    -0.000 C 
BRANCH  11  12
ATOM     12  C   UNL     1       8.707  -3.010   1.464  1.00  0.00    -0.000 C 
BRANCH  12  13
ATOM     13  C   UNL     1       9.160  -1.992   2.526  1.00  0.00    -0.003 C 
ATOM     14  C   UNL     1       8.877  -0.545   2.126  1.00  0.00     0.004 C 
ENDBRANCH  12  13
ENDBRANCH  11  12
ENDBRANCH  10  11
ENDBRANCH   9  10
ENDBRANCH   1   9
TORSDOF 10
ENDMDL
MODEL 2
REMARK VINA RESULT:    -3.151      2.300      3.988
REMARK INTER + INTRA:          -5.559
REMARK INTER:                  -5.011
REMARK INTRA:                  -0.548
REMARK UNBOUND:                -0.565
REMARK SMILES CCCCCCCCCCCC(=O)[O-]
REMARK SMILES IDX 7 1 8 2 9 3 10 4 11 5 12 6 13 7 14 8 6 9 5 10 4 11 3 12 2 13
REMARK SMILES IDX 1 14
REMARK H PARENT
REMARK Flexibility Score: inf
ROOT
ATOM      1  C   UNL     1       7.245   0.282  -2.487  1.00  0.00     0.000 C 
ENDROOT
BRANCH   1   2
ATOM      2  C   UNL     1       7.595   1.648  -1.878  1.00  0.00     0.000 C 
BRANCH   2   3
ATOM      3  C   UNL     1       8.798   1.588  -0.917  1.00  0.00     0.000 C 
BRANCH   3   4
ATOM      4  C   UNL     1       8.916   2.771   0.061  1.00  0.00     0.006 C 
BRANCH   4   5
ATOM      5  C   UNL     1       8.237   2.503   1.410  1.00  0.00     0.053 C 
BRANCH   5   6
ATOM      6  C   UNL     1       7.228   3.566   1.708  1.00  0.00     0.041 C 
ATOM      7  O   UNL     1       6.965   3.876   2.900  1.00  0.00    -0.550 OA
ATOM      8  O   UNL     1       6.613   4.252   0.667  1.00  0.00    -0.550 OA
ENDBRANCH   5   6
ENDBRANCH   4   5
ENDBRANCH   3   4
ENDBRANCH   2   3
ENDBRANCH   1   2
BRANCH   1   9
ATOM      9  C   UNL     1       8.100  -0.863  -1.918  1.00  0.00     0.000 C 
BRANCH   9  10
ATOM     10  C   UNL     1       7.744  -2.249  -2.497  1.00  0.00    -0.000 C 
BRANCH  10  11
ATOM     11  C   UNL     1       7.190  -2.152  -3.930  1.00  0.00    -0.000 C 
BRANCH  11  12
ATOM     12  C   UNL     1       6.514  -3.452  -4.400  1.00  0.00    -0.000 C 
BRANCH  12  13
ATOM     13  C   UNL     1       7.085  -4.737  -3.776  1.00  0.00    -0.003 C 
ATOM     14  C   UNL     1       6.113  -5.914  -3.836  1.00  0.00     0.004 C 
ENDBRANCH  12  13
ENDBRANCH  11  12
ENDBRANCH  10  11
ENDBRANCH   9  10
ENDBRANCH   1   9
TORSDOF 10
ENDMDL
MODEL 3
REMARK VINA RESULT:    -3.147      1.638      3.646
REMARK INTER + INTRA:          -5.553
REMARK INTER:                  -4.441
REMARK INTRA:                  -1.112
REMARK UNBOUND:                -0.565
REMARK SMILES CCCCCCCCCCCC(=O)[O-]
REMARK SMILES IDX 7 1 8 2 9 3 10 4 11 5 12 6 13 7 14 8 6 9 5 10 4 11 3 12 2 13
REMARK SMILES IDX 1 14
REMARK H PARENT
REMARK Flexibility Score: inf
ROOT
ATOM      1  C   UNL     1       9.460   1.477  -1.508  1.00  0.00     0.000 C 
ENDROOT
BRANCH   1   2
ATOM      2  C   UNL     1       9.991   0.897  -0.188  1.00  0.00     0.000 C 
BRANCH   2   3
ATOM      3  C   UNL     1       8.883   0.671   0.859  1.00  0.00     0.000 C 
BRANCH   3   4
ATOM      4  C   UNL     1       9.011   1.512   2.141  1.00  0.00     0.006 C 
BRANCH   4   5
ATOM      5  C   UNL     1       8.772   3.008   1.903  1.00  0.00     0.053 C 
BRANCH   5   6
ATOM      6  C   UNL     1       7.342   3.358   2.172  1.00  0.00     0.041 C 
ATOM      7  O   UNL     1       6.822   3.089   3.288  1.00  0.00    -0.550 OA
ATOM      8  O   UNL     1       6.596   4.025   1.209  1.00  0.00    -0.550 OA
ENDBRANCH   5   6
ENDBRANCH   4   5
ENDBRANCH   3   4
ENDBRANCH   2   3
ENDBRANCH   1   2
BRANCH   1   9
ATOM      9  C   UNL     1       7.929   1.622  -1.523  1.00  0.00     0.000 C 
BRANCH   9  10
ATOM     10  C   UNL     1       7.234   0.725  -2.571  1.00  0.00    -0.000 C 
BRANCH  10  11
ATOM     11  C   UNL     1       8.095  -0.491  -2.954  1.00  0.00    -0.000 C 
BRANCH  11  12
ATOM     12  C   UNL     1       7.333  -1.824  -2.842  1.00  0.00    -0.000 C 
BRANCH  12  13
ATOM     13  C   UNL     1       8.162  -2.996  -2.290  1.00  0.00    -0.003 C 
ATOM     14  C   UNL     1       8.892  -2.652  -0.991  1.00  0.00     0.004 C 
ENDBRANCH  12  13
ENDBRANCH  11  12
ENDBRANCH  10  11
ENDBRANCH   9  10
ENDBRANCH   1   9
TORSDOF 10
ENDMDL
MODEL 4
REMARK VINA RESULT:    -3.113      2.779      5.370
REMARK INTER + INTRA:          -5.499
REMARK INTER:                  -4.580
REMARK INTRA:                  -0.919
REMARK UNBOUND:                -0.565
REMARK SMILES CCCCCCCCCCCC(=O)[O-]
REMARK SMILES IDX 7 1 8 2 9 3 10 4 11 5 12 6 13 7 14 8 6 9 5 10 4 11 3 12 2 13
REMARK SMILES IDX 1 14
REMARK H PARENT
REMARK Flexibility Score: inf
ROOT
ATOM      1  C   UNL     1       7.020  -1.734  -3.362  1.00  0.00     0.000 C 
ENDROOT
BRANCH   1   2
ATOM      2  C   UNL     1       8.020  -1.786  -2.197  1.00  0.00     0.000 C 
BRANCH   2   3
ATOM      3  C   UNL     1       8.455  -3.220  -1.839  1.00  0.00     0.000 C 
BRANCH   3   4
ATOM      4  C   UNL     1       9.052  -3.392  -0.431  1.00  0.00     0.006 C 
BRANCH   4   5
ATOM      5  C   UNL     1       9.076  -2.086   0.374  1.00  0.00     0.053 C 
BRANCH   5   6
ATOM      6  C   UNL     1       8.820  -2.361   1.822  1.00  0.00     0.041 C 
ATOM      7  O   UNL     1       8.359  -3.476   2.185  1.00  0.00    -0.550 OA
ATOM      8  O   UNL     1       9.136  -1.404   2.778  1.00  0.00    -0.550 OA
ENDBRANCH   5   6
ENDBRANCH   4   5
ENDBRANCH   3   4
ENDBRANCH   2   3
ENDBRANCH   1   2
BRANCH   1   9
ATOM      9  C   UNL     1       6.620  -0.298  -3.742  1.00  0.00     0.000 C 
BRANCH   9  10
ATOM     10  C   UNL     1       7.624   0.771  -3.261  1.00  0.00    -0.000 C 
BRANCH  10  11
ATOM     11  C   UNL     1       6.918   2.016  -2.695  1.00  0.00    -0.000 C 
BRANCH  11  12
ATOM     12  C   UNL     1       7.573   2.541  -1.405  1.00  0.00    -0.000 C 
BRANCH  12  13
ATOM     13  C   UNL     1       8.629   1.605  -0.791  1.00  0.00    -0.003 C 
ATOM     14  C   UNL     1       8.636   1.632   0.736  1.00  0.00     0.004 C 
ENDBRANCH  12  13
ENDBRANCH  11  12
ENDBRANCH  10  11
ENDBRANCH   9  10
ENDBRANCH   1   9
TORSDOF 10
ENDMDL
MODEL 5
REMARK VINA RESULT:    -3.109      4.281      6.496
REMARK INTER + INTRA:          -5.491
REMARK INTER:                  -4.307
REMARK INTRA:                  -1.185
REMARK UNBOUND:                -0.565
REMARK SMILES CCCCCCCCCCCC(=O)[O-]
REMARK SMILES IDX 7 1 8 2 9 3 10 4 11 5 12 6 13 7 14 8 6 9 5 10 4 11 3 12 2 13
REMARK SMILES IDX 1 14
REMARK H PARENT
REMARK Flexibility Score: inf
ROOT
ATOM      1  C   UNL     1       9.004   0.094   0.038  1.00  0.00     0.000 C 
ENDROOT
BRANCH   1   2
ATOM      2  C   UNL     1       9.155  -1.302   0.665  1.00  0.00     0.000 C 
BRANCH   2   3
ATOM      3  C   UNL     1      10.360  -2.084   0.109  1.00  0.00     0.000 C 
BRANCH   3   4
ATOM      4  C   UNL     1      10.144  -3.600  -0.042  1.00  0.00     0.006 C 
BRANCH   4   5
ATOM      5  C   UNL     1       8.824  -4.082   0.574  1.00  0.00     0.053 C 
BRANCH   5   6
ATOM      6  C   UNL     1       9.086  -4.876   1.814  1.00  0.00     0.041 C 
ATOM      7  O   UNL     1      10.195  -4.784   2.405  1.00  0.00    -0.550 OA
ATOM      8  O   UNL     1       8.088  -5.681   2.349  1.00  0.00    -0.550 OA
ENDBRANCH   5   6
ENDBRANCH   4   5
ENDBRANCH   3   4
ENDBRANCH   2   3
ENDBRANCH   1   2
BRANCH   1   9
ATOM      9  C   UNL     1       8.969   0.057  -1.499  1.00  0.00     0.000 C 
BRANCH   9  10
ATOM     10  C   UNL     1       7.553   0.237  -2.089  1.00  0.00    -0.000 C 
BRANCH  10  11
ATOM     11  C   UNL     1       7.171  -0.914  -3.037  1.00  0.00    -0.000 C 
BRANCH  11  12
ATOM     12  C   UNL     1       7.651  -2.288  -2.535  1.00  0.00    -0.000 C 
BRANCH  12  13
ATOM     13  C   UNL     1       7.377  -3.457  -3.498  1.00  0.00    -0.003 C 
ATOM     14  C   UNL     1       8.054  -4.757  -3.066  1.00  0.00     0.004 C 
ENDBRANCH  12  13
ENDBRANCH  11  12
ENDBRANCH  10  11
ENDBRANCH   9  10
ENDBRANCH   1   9
TORSDOF 10
ENDMDL
MODEL 6
REMARK VINA RESULT:    -3.092      3.990      6.688
REMARK INTER + INTRA:          -5.465
REMARK INTER:                  -4.809
REMARK INTRA:                  -0.657
REMARK UNBOUND:                -0.565
REMARK SMILES CCCCCCCCCCCC(=O)[O-]
REMARK SMILES IDX 7 1 8 2 9 3 10 4 11 5 12 6 13 7 14 8 6 9 5 10 4 11 3 12 2 13
REMARK SMILES IDX 1 14
REMARK H PARENT
REMARK Flexibility Score: inf
ROOT
ATOM      1  C   UNL     1       8.273   0.313  -1.282  1.00  0.00     0.000 C 
ENDROOT
BRANCH   1   2
ATOM      2  C   UNL     1       9.084  -0.808  -0.614  1.00  0.00     0.000 C 
BRANCH   2   3
ATOM      3  C   UNL     1       9.037  -0.751   0.925  1.00  0.00     0.000 C 
BRANCH   3   4
ATOM      4  C   UNL     1       8.760  -2.094   1.623  1.00  0.00     0.006 C 
BRANCH   4   5
ATOM      5  C   UNL     1       8.972  -3.303   0.704  1.00  0.00     0.053 C 
BRANCH   5   6
ATOM      6  C   UNL     1       8.848  -4.577   1.479  1.00  0.00     0.041 C 
ATOM      7  O   UNL     1       9.725  -5.474   1.370  1.00  0.00    -0.550 OA
ATOM      8  O   UNL     1       7.789  -4.754   2.361  1.00  0.00    -0.550 OA
ENDBRANCH   5   6
ENDBRANCH   4   5
ENDBRANCH   3   4
ENDBRANCH   2   3
ENDBRANCH   1   2
BRANCH   1   9
ATOM      9  C   UNL     1       7.438  -0.185  -2.475  1.00  0.00     0.000 C 
BRANCH   9  10
ATOM     10  C   UNL     1       7.456  -1.719  -2.645  1.00  0.00    -0.000 C 
BRANCH  10  11
ATOM     11  C   UNL     1       7.066  -2.148  -4.071  1.00  0.00    -0.000 C 
BRANCH  11  12
ATOM     12  C   UNL     1       6.294  -1.056  -4.834  1.00  0.00    -0.000 C 
BRANCH  12  13
ATOM     13  C   UNL     1       4.862  -1.445  -5.240  1.00  0.00    -0.003 C 
ATOM     14  C   UNL     1       3.893  -0.263  -5.216  1.00  0.00     0.004 C 
ENDBRANCH  12  13
ENDBRANCH  11  12
ENDBRANCH  10  11
ENDBRANCH   9  10
ENDBRANCH   1   9
TORSDOF 10
ENDMDL
MODEL 7
REMARK VINA RESULT:    -3.086      1.689      3.964
REMARK INTER + INTRA:          -5.455
REMARK INTER:                  -4.662
REMARK INTRA:                  -0.794
REMARK UNBOUND:                -0.565
REMARK SMILES CCCCCCCCCCCC(=O)[O-]
REMARK SMILES IDX 7 1 8 2 9 3 10 4 11 5 12 6 13 7 14 8 6 9 5 10 4 11 3 12 2 13
REMARK SMILES IDX 1 14
REMARK H PARENT
REMARK Flexibility Score: inf
ROOT
ATOM      1  C   UNL     1       9.349  -1.585  -0.138  1.00  0.00     0.000 C 
ENDROOT
BRANCH   1   2
ATOM      2  C   UNL     1       9.145  -0.460   0.889  1.00  0.00     0.000 C 
BRANCH   2   3
ATOM      3  C   UNL     1       8.739   0.878   0.242  1.00  0.00     0.000 C 
BRANCH   3   4
ATOM      4  C   UNL     1       8.909   2.118   1.138  1.00  0.00     0.006 C 
BRANCH   4   5
ATOM      5  C   UNL     1       8.168   1.998   2.475  1.00  0.00     0.053 C 
BRANCH   5   6
ATOM      6  C   UNL     1       7.230   3.149   2.657  1.00  0.00     0.041 C 
ATOM      7  O   UNL     1       6.945   3.559   3.814  1.00  0.00    -0.550 OA
ATOM      8  O   UNL     1       6.708   3.804   1.548  1.00  0.00    -0.550 OA
ENDBRANCH   5   6
ENDBRANCH   4   5
ENDBRANCH   3   4
ENDBRANCH   2   3
ENDBRANCH   1   2
BRANCH   1   9
ATOM      9  C   UNL     1       8.847  -1.210  -1.542  1.00  0.00     0.000 C 
BRANCH   9  10
ATOM     10  C   UNL     1       8.047  -2.335  -2.234  1.00  0.00    -0.000 C 
BRANCH  10  11
ATOM     11  C   UNL     1       7.157  -1.798  -3.370  1.00  0.00    -0.000 C 
BRANCH  11  12
ATOM     12  C   UNL     1       7.537  -0.371  -3.804  1.00  0.00    -0.000 C 
BRANCH  12  13
ATOM     13  C   UNL     1       6.464   0.694  -3.522  1.00  0.00    -0.003 C 
ATOM     14  C   UNL     1       7.016   1.921  -2.796  1.00  0.00     0.004 C 
ENDBRANCH  12  13
ENDBRANCH  11  12
ENDBRANCH  10  11
ENDBRANCH   9  10
ENDBRANCH   1   9
TORSDOF 10
ENDMDL
MODEL 8
REMARK VINA RESULT:    -3.086      1.936      4.235
REMARK INTER + INTRA:          -5.455
REMARK INTER:                  -4.851
REMARK INTRA:                  -0.604
REMARK UNBOUND:                -0.565
REMARK SMILES CCCCCCCCCCCC(=O)[O-]
REMARK SMILES IDX 7 1 8 2 9 3 10 4 11 5 12 6 13 7 14 8 6 9 5 10 4 11 3 12 2 13
REMARK SMILES IDX 1 14
REMARK H PARENT
REMARK Flexibility Score: inf
ROOT
ATOM      1  C   UNL     1       9.566  -0.675   0.361  1.00  0.00     0.000 C 
ENDROOT
BRANCH   1   2
ATOM      2  C   UNL     1       9.019  -0.891   1.780  1.00  0.00     0.000 C 
BRANCH   2   3
ATOM      3  C   UNL     1       8.481   0.402   2.422  1.00  0.00     0.000 C 
BRANCH   3   4
ATOM      4  C   UNL     1       8.745   1.690   1.621  1.00  0.00     0.006 C 
BRANCH   4   5
ATOM      5  C   UNL     1       8.784   2.945   2.502  1.00  0.00     0.053 C 
BRANCH   5   6
ATOM      6  C   UNL     1       7.404   3.483   2.707  1.00  0.00     0.041 C 
ATOM      7  O   UNL     1       6.695   3.809   1.718  1.00  0.00    -0.550 OA
ATOM      8  O   UNL     1       6.878   3.578   3.990  1.00  0.00    -0.550 OA
ENDBRANCH   5   6
ENDBRANCH   4   5
ENDBRANCH   3   4
ENDBRANCH   2   3
ENDBRANCH   1   2
BRANCH   1   9
ATOM      9  C   UNL     1       8.718  -1.370  -0.718  1.00  0.00     0.000 C 
BRANCH   9  10
ATOM     10  C   UNL     1       7.962  -0.388  -1.639  1.00  0.00    -0.000 C 
BRANCH  10  11
ATOM     11  C   UNL     1       7.473  -1.066  -2.931  1.00  0.00    -0.000 C 
BRANCH  11  12
ATOM     12  C   UNL     1       7.646  -2.595  -2.907  1.00  0.00    -0.000 C 
BRANCH  12  13
ATOM     13  C   UNL     1       6.925  -3.342  -4.043  1.00  0.00    -0.003 C 
ATOM     14  C   UNL     1       5.945  -2.458  -4.812  1.00  0.00     0.004 C 
ENDBRANCH  12  13
ENDBRANCH  11  12
ENDBRANCH  10  11
ENDBRANCH   9  10
ENDBRANCH   1   9
TORSDOF 10
ENDMDL
MODEL 9
REMARK VINA RESULT:    -3.030      4.207      6.461
REMARK INTER + INTRA:          -5.367
REMARK INTER:                  -4.353
REMARK INTRA:                  -1.014
REMARK UNBOUND:                -0.565
REMARK SMILES CCCCCCCCCCCC(=O)[O-]
REMARK SMILES IDX 7 1 8 2 9 3 10 4 11 5 12 6 13 7 14 8 6 9 5 10 4 11 3 12 2 13
REMARK SMILES IDX 1 14
REMARK H PARENT
REMARK Flexibility Score: inf
ROOT
ATOM      1  C   UNL     1       9.169  -3.196  -1.810  1.00  0.00     0.000 C 
ENDROOT
BRANCH   1   2
ATOM      2  C   UNL     1       9.056  -3.647  -0.345  1.00  0.00     0.000 C 
BRANCH   2   3
ATOM      3  C   UNL     1       9.105  -2.473   0.651  1.00  0.00     0.000 C 
BRANCH   3   4
ATOM      4  C   UNL     1       8.642  -2.807   2.081  1.00  0.00     0.006 C 
BRANCH   4   5
ATOM      5  C   UNL     1       8.287  -4.287   2.266  1.00  0.00     0.053 C 
BRANCH   5   6
ATOM      6  C   UNL     1       9.240  -4.939   3.216  1.00  0.00     0.041 C 
ATOM      7  O   UNL     1      10.475  -4.697   3.143  1.00  0.00    -0.550 OA
ATOM      8  O   UNL     1       8.762  -5.775   4.217  1.00  0.00    -0.550 OA
ENDBRANCH   5   6
ENDBRANCH   4   5
ENDBRANCH   3   4
ENDBRANCH   2   3
ENDBRANCH   1   2
BRANCH   1   9
ATOM      9  C   UNL     1       7.955  -3.612  -2.658  1.00  0.00     0.000 C 
BRANCH   9  10
ATOM     10  C   UNL     1       7.243  -2.426  -3.343  1.00  0.00    -0.000 C 
BRANCH  10  11
ATOM     11  C   UNL     1       8.064  -1.127  -3.251  1.00  0.00    -0.000 C 
BRANCH  11  12
ATOM     12  C   UNL     1       7.273   0.039  -2.631  1.00  0.00    -0.000 C 
BRANCH  12  13
ATOM     13  C   UNL     1       8.057   0.874  -1.604  1.00  0.00    -0.003 C 
ATOM     14  C   UNL     1       9.537   0.500  -1.534  1.00  0.00     0.004 C 
ENDBRANCH  12  13
ENDBRANCH  11  12
ENDBRANCH  10  11
ENDBRANCH   9  10
ENDBRANCH   1   9
TORSDOF 10
ENDMDL
