MODEL 1
REMARK VINA RESULT:     0.996      0.000      0.000
REMARK INTER + INTRA:           1.034
REMARK INTER:                   1.113
REMARK INTRA:                  -0.079
REMARK UNBOUND:                -0.079
REMARK SMILES CCc1ccc(O)cc1O
REMARK SMILES IDX 3 1 9 2 8 3 6 4 5 5 4 6 2 7 1 8 10 9 7 11
REMARK H PARENT 10 10 7 12
REMARK Flexibility Score: inf
ROOT
ATOM      1  C   UNL     1      -3.125  59.645  22.838  1.00  0.00    -0.006 A 
ATOM      2  C   UNL     1      -3.111  58.253  22.620  1.00  0.00     0.122 A 
ATOM      3  C   UNL     1      -3.113  57.375  23.714  1.00  0.00     0.092 A 
ATOM      4  C   UNL     1      -3.113  57.874  25.023  1.00  0.00     0.119 A 
ATOM      5  C   UNL     1      -3.112  59.254  25.238  1.00  0.00     0.047 A 
ATOM      6  C   UNL     1      -3.112  60.136  24.154  1.00  0.00     0.011 A 
ENDROOT
BRANCH   1   7
ATOM      7  C   UNL     1      -3.093  60.612  21.681  1.00  0.00     0.036 C 
ATOM      8  C   UNL     1      -1.659  60.861  21.223  1.00  0.00     0.009 C 
ENDBRANCH   1   7
BRANCH   2   9
ATOM      9  O   UNL     1      -3.096  57.746  21.320  1.00  0.00    -0.508 OA
ATOM     10  H   UNL     1      -2.686  58.264  20.552  1.00  0.00     0.293 HD
ENDBRANCH   2   9
BRANCH   4  11
ATOM     11  O   UNL     1      -3.114  57.008  26.113  1.00  0.00    -0.508 OA
ATOM     12  H   UNL     1      -3.272  57.344  27.056  1.00  0.00     0.293 HD
ENDBRANCH   4  11
TORSDOF 3
ENDMDL
MODEL 2
REMARK VINA RESULT:     3.563     18.039     19.378
REMARK INTER + INTRA:           3.901
REMARK INTER:                   3.988
REMARK INTRA:                  -0.087
REMARK UNBOUND:                -0.079
REMARK SMILES CCc1ccc(O)cc1O
REMARK SMILES IDX 3 1 9 2 8 3 6 4 5 5 4 6 2 7 1 8 10 9 7 11
REMARK H PARENT 10 10 7 12
REMARK Flexibility Score: inf
ROOT
ATOM      1  C   UNL     1       7.226  42.153  24.212  1.00  0.00    -0.006 A 
ATOM      2  C   UNL     1       6.264  43.129  23.884  1.00  0.00     0.122 A 
ATOM      3  C   UNL     1       4.939  42.976  24.318  1.00  0.00     0.092 A 
ATOM      4  C   UNL     1       4.562  41.852  25.063  1.00  0.00     0.119 A 
ATOM      5  C   UNL     1       5.513  40.877  25.375  1.00  0.00     0.047 A 
ATOM      6  C   UNL     1       6.836  41.022  24.949  1.00  0.00     0.011 A 
ENDROOT
BRANCH   1   7
ATOM      7  C   UNL     1       8.651  42.277  23.734  1.00  0.00     0.036 C 
ATOM      8  C   UNL     1       9.260  40.900  23.487  1.00  0.00     0.009 C 
ENDBRANCH   1   7
BRANCH   2   9
ATOM      9  O   UNL     1       6.626  44.246  23.130  1.00  0.00    -0.508 OA
ATOM     10  H   UNL     1       6.471  45.188  23.469  1.00  0.00     0.293 HD
ENDBRANCH   2   9
BRANCH   4  11
ATOM     11  O   UNL     1       3.248  41.694  25.496  1.00  0.00    -0.508 OA
ATOM     12  H   UNL     1       3.023  41.137  26.313  1.00  0.00     0.293 HD
ENDBRANCH   4  11
TORSDOF 3
ENDMDL
