MODEL 1
REMARK VINA RESULT:    -3.312      0.000      0.000
REMARK INTER + INTRA:         -11.835
REMARK INTER:                  -7.571
REMARK INTRA:                  -4.264
REMARK UNBOUND:                -4.264
REMARK SMILES CCCCCCCCCCCCCCCCCCCCCCCC(=O)[O-]
REMARK SMILES IDX 13 1 14 2 15 3 16 4 17 5 18 6 19 7 20 8 21 9 22 10 23 11
REMARK SMILES IDX 24 12 25 13 26 14 12 15 11 16 10 17 9 18 8 19 7 20 6 21 5 22
REMARK SMILES IDX 4 23 3 24 2 25 1 26
REMARK H PARENT
REMARK Flexibility Score: inf
ROOT
ATOM      1  C   UNL     1      -4.166  36.589  44.716  1.00  0.00     0.000 C 
ENDROOT
BRANCH   1   2
ATOM      2  C   UNL     1      -4.605  38.046  44.467  1.00  0.00     0.000 C 
BRANCH   2   3
ATOM      3  C   UNL     1      -5.591  38.241  43.303  1.00  0.00     0.000 C 
BRANCH   3   4
ATOM      4  C   UNL     1      -6.942  38.879  43.688  1.00  0.00     0.000 C 
BRANCH   4   5
ATOM      5  C   UNL     1      -7.371  38.610  45.146  1.00  0.00     0.000 C 
BRANCH   5   6
ATOM      6  C   UNL     1      -8.303  37.392  45.272  1.00  0.00     0.000 C 
BRANCH   6   7
ATOM      7  C   UNL     1      -7.655  36.242  46.062  1.00  0.00     0.000 C 
BRANCH   7   8
ATOM      8  C   UNL     1      -7.786  34.889  45.341  1.00  0.00     0.000 C 
BRANCH   8   9
ATOM      9  C   UNL     1      -7.251  34.942  43.893  1.00  0.00     0.000 C 
BRANCH   9  10
ATOM     10  C   UNL     1      -7.206  33.565  43.202  1.00  0.00     0.006 C 
BRANCH  10  11
ATOM     11  C   UNL     1      -8.452  33.246  42.362  1.00  0.00     0.053 C 
BRANCH  11  12
ATOM     12  C   UNL     1      -9.246  32.116  42.942  1.00  0.00     0.041 C 
ATOM     13  O   UNL     1      -9.641  32.166  44.136  1.00  0.00    -0.550 OA
ATOM     14  O   UNL     1      -9.562  31.011  42.161  1.00  0.00    -0.550 OA
ENDBRANCH  11  12
ENDBRANCH  10  11
ENDBRANCH   9  10
ENDBRANCH   8   9
ENDBRANCH   7   8
ENDBRANCH   6   7
ENDBRANCH   5   6
ENDBRANCH   4   5
ENDBRANCH   3   4
ENDBRANCH   2   3
ENDBRANCH   1   2
BRANCH   1  15
ATOM     15  C   UNL     1      -2.656  36.346  44.507  1.00  0.00     0.000 C 
BRANCH  15  16
ATOM     16  C   UNL     1      -1.994  37.458  43.672  1.00  0.00     0.000 C 
BRANCH  16  17
ATOM     17  C   UNL     1      -1.279  36.913  42.424  1.00  0.00     0.000 C 
BRANCH  17  18
ATOM     18  C   UNL     1      -1.838  37.508  41.121  1.00  0.00    -0.000 C 
BRANCH  18  19
ATOM     19  C   UNL     1      -2.489  36.451  40.213  1.00  0.00    -0.000 C 
BRANCH  19  20
ATOM     20  C   UNL     1      -3.995  36.288  40.478  1.00  0.00    -0.000 C 
BRANCH  20  21
ATOM     21  C   UNL     1      -4.312  35.092  41.392  1.00  0.00    -0.000 C 
BRANCH  21  22
ATOM     22  C   UNL     1      -3.295  33.938  41.320  1.00  0.00    -0.000 C 
BRANCH  22  23
ATOM     23  C   UNL     1      -3.401  32.947  42.499  1.00  0.00    -0.000 C 
BRANCH  23  24
ATOM     24  C   UNL     1      -2.075  32.217  42.761  1.00  0.00    -0.000 C 
BRANCH  24  25
ATOM     25  C   UNL     1      -0.878  33.097  42.379  1.00  0.00    -0.003 C 
ATOM     26  C   UNL     1      -0.193  33.665  43.619  1.00  0.00     0.004 C 
ENDBRANCH  24  25
ENDBRANCH  23  24
ENDBRANCH  22  23
ENDBRANCH  21  22
ENDBRANCH  20  21
ENDBRANCH  19  20
ENDBRANCH  18  19
ENDBRANCH  17  18
ENDBRANCH  16  17
ENDBRANCH  15  16
ENDBRANCH   1  15
TORSDOF 22
ENDMDL
MODEL 2
REMARK VINA RESULT:    -3.251      1.205      5.095
REMARK INTER + INTRA:         -11.696
REMARK INTER:                  -7.634
REMARK INTRA:                  -4.061
REMARK UNBOUND:                -4.264
REMARK SMILES CCCCCCCCCCCCCCCCCCCCCCCC(=O)[O-]
REMARK SMILES IDX 13 1 14 2 15 3 16 4 17 5 18 6 19 7 20 8 21 9 22 10 23 11
REMARK SMILES IDX 24 12 25 13 26 14 12 15 11 16 10 17 9 18 8 19 7 20 6 21 5 22
REMARK SMILES IDX 4 23 3 24 2 25 1 26
REMARK H PARENT
REMARK Flexibility Score: inf
ROOT
ATOM      1  C   UNL     1      -2.334  37.526  40.356  1.00  0.00     0.000 C 
ENDROOT
BRANCH   1   2
ATOM      2  C   UNL     1      -3.663  36.791  40.090  1.00  0.00     0.000 C 
BRANCH   2   3
ATOM      3  C   UNL     1      -3.715  35.336  40.587  1.00  0.00     0.000 C 
BRANCH   3   4
ATOM      4  C   UNL     1      -2.408  34.809  41.214  1.00  0.00     0.000 C 
BRANCH   4   5
ATOM      5  C   UNL     1      -2.567  33.473  41.969  1.00  0.00     0.000 C 
BRANCH   5   6
ATOM      6  C   UNL     1      -4.036  33.146  42.286  1.00  0.00     0.000 C 
BRANCH   6   7
ATOM      7  C   UNL     1      -4.327  33.171  43.797  1.00  0.00     0.000 C 
BRANCH   7   8
ATOM      8  C   UNL     1      -5.828  33.307  44.103  1.00  0.00     0.000 C 
BRANCH   8   9
ATOM      9  C   UNL     1      -6.642  33.744  42.865  1.00  0.00     0.000 C 
BRANCH   9  10
ATOM     10  C   UNL     1      -8.165  33.762  43.103  1.00  0.00     0.006 C 
BRANCH  10  11
ATOM     11  C   UNL     1      -8.935  32.701  42.302  1.00  0.00     0.053 C 
BRANCH  11  12
ATOM     12  C   UNL     1      -9.326  31.530  43.152  1.00  0.00     0.041 C 
ATOM     13  O   UNL     1      -9.869  30.522  42.630  1.00  0.00    -0.550 OA
ATOM     14  O   UNL     1      -9.078  31.544  44.519  1.00  0.00    -0.550 OA
ENDBRANCH  11  12
ENDBRANCH  10  11
ENDBRANCH   9  10
ENDBRANCH   8   9
ENDBRANCH   7   8
ENDBRANCH   6   7
ENDBRANCH   5   6
ENDBRANCH   4   5
ENDBRANCH   3   4
ENDBRANCH   2   3
ENDBRANCH   1   2
BRANCH   1  15
ATOM     15  C   UNL     1      -2.423  38.601  41.460  1.00  0.00     0.000 C 
BRANCH  15  16
ATOM     16  C   UNL     1      -1.963  38.071  42.831  1.00  0.00     0.000 C 
BRANCH  16  17
ATOM     17  C   UNL     1      -3.071  38.148  43.895  1.00  0.00     0.000 C 
BRANCH  17  18
ATOM     18  C   UNL     1      -3.992  36.916  43.873  1.00  0.00    -0.000 C 
BRANCH  18  19
ATOM     19  C   UNL     1      -5.407  37.239  43.363  1.00  0.00    -0.000 C 
BRANCH  19  20
ATOM     20  C   UNL     1      -5.625  38.744  43.130  1.00  0.00    -0.000 C 
BRANCH  20  21
ATOM     21  C   UNL     1      -6.967  39.244  43.693  1.00  0.00    -0.000 C 
BRANCH  21  22
ATOM     22  C   UNL     1      -7.780  38.183  44.459  1.00  0.00    -0.000 C 
BRANCH  22  23
ATOM     23  C   UNL     1      -7.806  38.410  45.986  1.00  0.00    -0.000 C 
BRANCH  23  24
ATOM     24  C   UNL     1      -7.350  37.165  46.763  1.00  0.00    -0.000 C 
BRANCH  24  25
ATOM     25  C   UNL     1      -7.722  35.882  46.011  1.00  0.00    -0.003 C 
ATOM     26  C   UNL     1      -7.716  34.674  46.944  1.00  0.00     0.004 C 
ENDBRANCH  24  25
ENDBRANCH  23  24
ENDBRANCH  22  23
ENDBRANCH  21  22
ENDBRANCH  20  21
ENDBRANCH  19  20
ENDBRANCH  18  19
ENDBRANCH  17  18
ENDBRANCH  16  17
ENDBRANCH  15  16
ENDBRANCH   1  15
TORSDOF 22
ENDMDL
MODEL 3
REMARK VINA RESULT:    -3.211      2.424      5.904
REMARK INTER + INTRA:         -11.605
REMARK INTER:                  -8.066
REMARK INTRA:                  -3.539
REMARK UNBOUND:                -4.264
REMARK SMILES CCCCCCCCCCCCCCCCCCCCCCCC(=O)[O-]
REMARK SMILES IDX 13 1 14 2 15 3 16 4 17 5 18 6 19 7 20 8 21 9 22 10 23 11
REMARK SMILES IDX 24 12 25 13 26 14 12 15 11 16 10 17 9 18 8 19 7 20 6 21 5 22
REMARK SMILES IDX 4 23 3 24 2 25 1 26
REMARK H PARENT
REMARK Flexibility Score: inf
ROOT
ATOM      1  C   UNL     1      -8.328  38.154  44.921  1.00  0.00     0.000 C 
ENDROOT
BRANCH   1   2
ATOM      2  C   UNL     1      -7.152  39.152  44.878  1.00  0.00     0.000 C 
BRANCH   2   3
ATOM      3  C   UNL     1      -6.478  39.308  43.504  1.00  0.00     0.000 C 
BRANCH   3   4
ATOM      4  C   UNL     1      -5.003  38.862  43.443  1.00  0.00     0.000 C 
BRANCH   4   5
ATOM      5  C   UNL     1      -4.755  37.630  42.549  1.00  0.00     0.000 C 
BRANCH   5   6
ATOM      6  C   UNL     1      -3.646  37.868  41.509  1.00  0.00     0.000 C 
BRANCH   6   7
ATOM      7  C   UNL     1      -3.858  37.040  40.230  1.00  0.00     0.000 C 
BRANCH   7   8
ATOM      8  C   UNL     1      -4.153  35.560  40.531  1.00  0.00     0.000 C 
BRANCH   8   9
ATOM      9  C   UNL     1      -2.939  34.835  41.153  1.00  0.00     0.000 C 
BRANCH   9  10
ATOM     10  C   UNL     1      -3.233  33.377  41.559  1.00  0.00     0.006 C 
BRANCH  10  11
ATOM     11  C   UNL     1      -2.106  32.713  42.364  1.00  0.00     0.053 C 
BRANCH  11  12
ATOM     12  C   UNL     1      -2.429  31.293  42.717  1.00  0.00     0.041 C 
ATOM     13  O   UNL     1      -3.408  31.034  43.465  1.00  0.00    -0.550 OA
ATOM     14  O   UNL     1      -1.659  30.253  42.210  1.00  0.00    -0.550 OA
ENDBRANCH  11  12
ENDBRANCH  10  11
ENDBRANCH   9  10
ENDBRANCH   8   9
ENDBRANCH   7   8
ENDBRANCH   6   7
ENDBRANCH   5   6
ENDBRANCH   4   5
ENDBRANCH   3   4
ENDBRANCH   2   3
ENDBRANCH   1   2
BRANCH   1  15
ATOM     15  C   UNL     1      -8.115  36.978  45.898  1.00  0.00     0.000 C 
BRANCH  15  16
ATOM     16  C   UNL     1      -7.000  36.024  45.432  1.00  0.00     0.000 C 
BRANCH  16  17
ATOM     17  C   UNL     1      -7.339  35.323  44.106  1.00  0.00     0.000 C 
BRANCH  17  18
ATOM     18  C   UNL     1      -6.230  34.359  43.652  1.00  0.00    -0.000 C 
BRANCH  18  19
ATOM     19  C   UNL     1      -6.719  33.333  42.616  1.00  0.00    -0.000 C 
BRANCH  19  20
ATOM     20  C   UNL     1      -8.216  33.484  42.293  1.00  0.00    -0.000 C 
BRANCH  20  21
ATOM     21  C   UNL     1      -9.010  32.188  42.535  1.00  0.00    -0.000 C 
BRANCH  21  22
ATOM     22  C   UNL     1      -9.955  32.229  43.750  1.00  0.00    -0.000 C 
BRANCH  22  23
ATOM     23  C   UNL     1      -9.376  31.543  45.006  1.00  0.00    -0.000 C 
BRANCH  23  24
ATOM     24  C   UNL     1      -8.721  32.549  45.965  1.00  0.00    -0.000 C 
BRANCH  24  25
ATOM     25  C   UNL     1      -7.438  31.973  46.574  1.00  0.00    -0.003 C 
ATOM     26  C   UNL     1      -6.691  31.102  45.567  1.00  0.00     0.004 C 
ENDBRANCH  24  25
ENDBRANCH  23  24
ENDBRANCH  22  23
ENDBRANCH  21  22
ENDBRANCH  20  21
ENDBRANCH  19  20
ENDBRANCH  18  19
ENDBRANCH  17  18
ENDBRANCH  16  17
ENDBRANCH  15  16
ENDBRANCH   1  15
TORSDOF 22
ENDMDL
MODEL 4
REMARK VINA RESULT:    -3.162      2.877      5.179
REMARK INTER + INTRA:         -11.493
REMARK INTER:                  -6.809
REMARK INTRA:                  -4.684
REMARK UNBOUND:                -4.264
REMARK SMILES CCCCCCCCCCCCCCCCCCCCCCCC(=O)[O-]
REMARK SMILES IDX 13 1 14 2 15 3 16 4 17 5 18 6 19 7 20 8 21 9 22 10 23 11
REMARK SMILES IDX 24 12 25 13 26 14 12 15 11 16 10 17 9 18 8 19 7 20 6 21 5 22
REMARK SMILES IDX 4 23 3 24 2 25 1 26
REMARK H PARENT
REMARK Flexibility Score: inf
ROOT
ATOM      1  C   UNL     1      -7.791  36.108  45.593  1.00  0.00     0.000 C 
ENDROOT
BRANCH   1   2
ATOM      2  C   UNL     1      -8.428  37.478  45.285  1.00  0.00     0.000 C 
BRANCH   2   3
ATOM      3  C   UNL     1      -7.864  38.657  46.095  1.00  0.00     0.000 C 
BRANCH   3   4
ATOM      4  C   UNL     1      -7.155  39.745  45.262  1.00  0.00     0.000 C 
BRANCH   4   5
ATOM      5  C   UNL     1      -6.952  39.369  43.779  1.00  0.00     0.000 C 
BRANCH   5   6
ATOM      6  C   UNL     1      -5.480  39.072  43.441  1.00  0.00     0.000 C 
BRANCH   6   7
ATOM      7  C   UNL     1      -5.248  37.593  43.092  1.00  0.00     0.000 C 
BRANCH   7   8
ATOM      8  C   UNL     1      -4.109  36.967  43.916  1.00  0.00     0.000 C 
BRANCH   8   9
ATOM      9  C   UNL     1      -4.339  37.110  45.437  1.00  0.00     0.000 C 
BRANCH   9  10
ATOM     10  C   UNL     1      -3.767  35.939  46.261  1.00  0.00     0.006 C 
BRANCH  10  11
ATOM     11  C   UNL     1      -4.666  35.495  47.424  1.00  0.00     0.053 C 
BRANCH  11  12
ATOM     12  C   UNL     1      -4.950  36.618  48.374  1.00  0.00     0.041 C 
ATOM     13  O   UNL     1      -6.138  36.943  48.634  1.00  0.00    -0.550 OA
ATOM     14  O   UNL     1      -3.904  37.299  48.985  1.00  0.00    -0.550 OA
ENDBRANCH  11  12
ENDBRANCH  10  11
ENDBRANCH   9  10
ENDBRANCH   8   9
ENDBRANCH   7   8
ENDBRANCH   6   7
ENDBRANCH   5   6
ENDBRANCH   4   5
ENDBRANCH   3   4
ENDBRANCH   2   3
ENDBRANCH   1   2
BRANCH   1  15
ATOM     15  C   UNL     1      -7.732  35.157  44.377  1.00  0.00     0.000 C 
BRANCH  15  16
ATOM     16  C   UNL     1      -6.543  34.182  44.454  1.00  0.00     0.000 C 
BRANCH  16  17
ATOM     17  C   UNL     1      -6.011  33.790  43.064  1.00  0.00     0.000 C 
BRANCH  17  18
ATOM     18  C   UNL     1      -4.567  33.264  43.116  1.00  0.00    -0.000 C 
BRANCH  18  19
ATOM     19  C   UNL     1      -3.700  33.789  41.958  1.00  0.00    -0.000 C 
BRANCH  19  20
ATOM     20  C   UNL     1      -4.480  34.709  41.003  1.00  0.00    -0.000 C 
BRANCH  20  21
ATOM     21  C   UNL     1      -3.587  35.773  40.342  1.00  0.00    -0.000 C 
BRANCH  21  22
ATOM     22  C   UNL     1      -2.077  35.476  40.404  1.00  0.00    -0.000 C 
BRANCH  22  23
ATOM     23  C   UNL     1      -1.216  36.719  40.718  1.00  0.00    -0.000 C 
BRANCH  23  24
ATOM     24  C   UNL     1      -1.888  38.020  40.250  1.00  0.00    -0.000 C 
BRANCH  24  25
ATOM     25  C   UNL     1      -2.102  38.982  41.425  1.00  0.00    -0.003 C 
ATOM     26  C   UNL     1      -1.135  38.682  42.567  1.00  0.00     0.004 C 
ENDBRANCH  24  25
ENDBRANCH  23  24
ENDBRANCH  22  23
ENDBRANCH  21  22
ENDBRANCH  20  21
ENDBRANCH  19  20
ENDBRANCH  18  19
ENDBRANCH  17  18
ENDBRANCH  16  17
ENDBRANCH  15  16
ENDBRANCH   1  15
TORSDOF 22
ENDMDL
MODEL 5
REMARK VINA RESULT:    -3.159      1.486      2.860
REMARK INTER + INTRA:         -11.486
REMARK INTER:                  -6.849
REMARK INTRA:                  -4.637
REMARK UNBOUND:                -4.264
REMARK SMILES CCCCCCCCCCCCCCCCCCCCCCCC(=O)[O-]
REMARK SMILES IDX 13 1 14 2 15 3 16 4 17 5 18 6 19 7 20 8 21 9 22 10 23 11
REMARK SMILES IDX 24 12 25 13 26 14 12 15 11 16 10 17 9 18 8 19 7 20 6 21 5 22
REMARK SMILES IDX 4 23 3 24 2 25 1 26
REMARK H PARENT
REMARK Flexibility Score: inf
ROOT
ATOM      1  C   UNL     1      -4.891  37.617  42.758  1.00  0.00     0.000 C 
ENDROOT
BRANCH   1   2
ATOM      2  C   UNL     1      -5.060  38.914  43.576  1.00  0.00     0.000 C 
BRANCH   2   3
ATOM      3  C   UNL     1      -6.514  39.310  43.879  1.00  0.00     0.000 C 
BRANCH   3   4
ATOM      4  C   UNL     1      -7.517  38.139  43.926  1.00  0.00     0.000 C 
BRANCH   4   5
ATOM      5  C   UNL     1      -8.352  38.078  45.222  1.00  0.00     0.000 C 
BRANCH   5   6
ATOM      6  C   UNL     1      -7.488  38.221  46.488  1.00  0.00     0.000 C 
BRANCH   6   7
ATOM      7  C   UNL     1      -7.154  36.861  47.123  1.00  0.00     0.000 C 
BRANCH   7   8
ATOM      8  C   UNL     1      -5.917  36.204  46.487  1.00  0.00     0.000 C 
BRANCH   8   9
ATOM      9  C   UNL     1      -6.202  34.766  46.000  1.00  0.00     0.000 C 
BRANCH   9  10
ATOM     10  C   UNL     1      -6.320  34.646  44.467  1.00  0.00     0.006 C 
BRANCH  10  11
ATOM     11  C   UNL     1      -7.767  34.566  43.956  1.00  0.00     0.053 C 
BRANCH  11  12
ATOM     12  C   UNL     1      -8.098  33.207  43.420  1.00  0.00     0.041 C 
ATOM     13  O   UNL     1      -8.728  33.090  42.336  1.00  0.00    -0.550 OA
ATOM     14  O   UNL     1      -7.700  32.066  44.107  1.00  0.00    -0.550 OA
ENDBRANCH  11  12
ENDBRANCH  10  11
ENDBRANCH   9  10
ENDBRANCH   8   9
ENDBRANCH   7   8
ENDBRANCH   6   7
ENDBRANCH   5   6
ENDBRANCH   4   5
ENDBRANCH   3   4
ENDBRANCH   2   3
ENDBRANCH   1   2
BRANCH   1  15
ATOM     15  C   UNL     1      -3.966  37.766  41.531  1.00  0.00     0.000 C 
BRANCH  15  16
ATOM     16  C   UNL     1      -3.910  36.484  40.681  1.00  0.00     0.000 C 
BRANCH  16  17
ATOM     17  C   UNL     1      -4.385  35.242  41.454  1.00  0.00     0.000 C 
BRANCH  17  18
ATOM     18  C   UNL     1      -3.401  34.065  41.335  1.00  0.00    -0.000 C 
BRANCH  18  19
ATOM     19  C   UNL     1      -2.171  34.402  40.476  1.00  0.00    -0.000 C 
BRANCH  19  20
ATOM     20  C   UNL     1      -0.845  34.058  41.177  1.00  0.00    -0.000 C 
BRANCH  20  21
ATOM     21  C   UNL     1      -0.271  35.242  41.976  1.00  0.00    -0.000 C 
BRANCH  21  22
ATOM     22  C   UNL     1      -0.550  35.193  43.490  1.00  0.00    -0.000 C 
BRANCH  22  23
ATOM     23  C   UNL     1      -1.566  36.255  43.964  1.00  0.00    -0.000 C 
BRANCH  23  24
ATOM     24  C   UNL     1      -2.709  35.635  44.782  1.00  0.00    -0.000 C 
BRANCH  24  25
ATOM     25  C   UNL     1      -2.571  34.109  44.852  1.00  0.00    -0.003 C 
ATOM     26  C   UNL     1      -2.631  33.615  46.295  1.00  0.00     0.004 C 
ENDBRANCH  24  25
ENDBRANCH  23  24
ENDBRANCH  22  23
ENDBRANCH  21  22
ENDBRANCH  20  21
ENDBRANCH  19  20
ENDBRANCH  18  19
ENDBRANCH  17  18
ENDBRANCH  16  17
ENDBRANCH  15  16
ENDBRANCH   1  15
TORSDOF 22
ENDMDL
MODEL 6
REMARK VINA RESULT:    -3.155      1.464      2.518
REMARK INTER + INTRA:         -11.477
REMARK INTER:                  -7.390
REMARK INTRA:                  -4.087
REMARK UNBOUND:                -4.264
REMARK SMILES CCCCCCCCCCCCCCCCCCCCCCCC(=O)[O-]
REMARK SMILES IDX 13 1 14 2 15 3 16 4 17 5 18 6 19 7 20 8 21 9 22 10 23 11
REMARK SMILES IDX 24 12 25 13 26 14 12 15 11 16 10 17 9 18 8 19 7 20 6 21 5 22
REMARK SMILES IDX 4 23 3 24 2 25 1 26
REMARK H PARENT
REMARK Flexibility Score: inf
ROOT
ATOM      1  C   UNL     1      -6.576  39.185  43.746  1.00  0.00     0.000 C 
ENDROOT
BRANCH   1   2
ATOM      2  C   UNL     1      -7.653  38.111  43.999  1.00  0.00     0.000 C 
BRANCH   2   3
ATOM      3  C   UNL     1      -8.431  38.264  45.317  1.00  0.00     0.000 C 
BRANCH   3   4
ATOM      4  C   UNL     1      -8.126  37.195  46.386  1.00  0.00     0.000 C 
BRANCH   4   5
ATOM      5  C   UNL     1      -6.948  37.555  47.315  1.00  0.00     0.000 C 
BRANCH   5   6
ATOM      6  C   UNL     1      -5.670  36.767  46.980  1.00  0.00     0.000 C 
BRANCH   6   7
ATOM      7  C   UNL     1      -5.974  35.436  46.271  1.00  0.00     0.000 C 
BRANCH   7   8
ATOM      8  C   UNL     1      -6.564  34.385  47.227  1.00  0.00     0.000 C 
BRANCH   8   9
ATOM      9  C   UNL     1      -7.415  33.330  46.486  1.00  0.00     0.000 C 
BRANCH   9  10
ATOM     10  C   UNL     1      -7.833  33.761  45.066  1.00  0.00     0.006 C 
BRANCH  10  11
ATOM     11  C   UNL     1      -7.770  32.633  44.027  1.00  0.00     0.053 C 
BRANCH  11  12
ATOM     12  C   UNL     1      -8.895  32.714  43.041  1.00  0.00     0.041 C 
ATOM     13  O   UNL     1     -10.060  32.375  43.380  1.00  0.00    -0.550 OA
ATOM     14  O   UNL     1      -8.664  33.176  41.751  1.00  0.00    -0.550 OA
ENDBRANCH  11  12
ENDBRANCH  10  11
ENDBRANCH   9  10
ENDBRANCH   8   9
ENDBRANCH   7   8
ENDBRANCH   6   7
ENDBRANCH   5   6
ENDBRANCH   4   5
ENDBRANCH   3   4
ENDBRANCH   2   3
ENDBRANCH   1   2
BRANCH   1  15
ATOM     15  C   UNL     1      -5.132  38.638  43.756  1.00  0.00     0.000 C 
BRANCH  15  16
ATOM     16  C   UNL     1      -4.669  38.184  42.359  1.00  0.00     0.000 C 
BRANCH  16  17
ATOM     17  C   UNL     1      -3.203  38.553  42.074  1.00  0.00     0.000 C 
BRANCH  17  18
ATOM     18  C   UNL     1      -2.705  37.986  40.734  1.00  0.00    -0.000 C 
BRANCH  18  19
ATOM     19  C   UNL     1      -3.475  36.729  40.296  1.00  0.00    -0.000 C 
BRANCH  19  20
ATOM     20  C   UNL     1      -2.578  35.481  40.216  1.00  0.00    -0.000 C 
BRANCH  20  21
ATOM     21  C   UNL     1      -3.143  34.292  41.013  1.00  0.00    -0.000 C 
BRANCH  21  22
ATOM     22  C   UNL     1      -4.590  34.476  41.506  1.00  0.00    -0.000 C 
BRANCH  22  23
ATOM     23  C   UNL     1      -4.711  34.567  43.043  1.00  0.00    -0.000 C 
BRANCH  23  24
ATOM     24  C   UNL     1      -3.367  34.320  43.743  1.00  0.00    -0.000 C 
BRANCH  24  25
ATOM     25  C   UNL     1      -2.836  35.608  44.385  1.00  0.00    -0.003 C 
ATOM     26  C   UNL     1      -1.412  35.907  43.925  1.00  0.00     0.004 C 
ENDBRANCH  24  25
ENDBRANCH  23  24
ENDBRANCH  22  23
ENDBRANCH  21  22
ENDBRANCH  20  21
ENDBRANCH  19  20
ENDBRANCH  18  19
ENDBRANCH  17  18
ENDBRANCH  16  17
ENDBRANCH  15  16
ENDBRANCH   1  15
TORSDOF 22
ENDMDL
MODEL 7
REMARK VINA RESULT:    -3.137      1.511      2.943
REMARK INTER + INTRA:         -11.435
REMARK INTER:                  -7.424
REMARK INTRA:                  -4.011
REMARK UNBOUND:                -4.264
REMARK SMILES CCCCCCCCCCCCCCCCCCCCCCCC(=O)[O-]
REMARK SMILES IDX 13 1 14 2 15 3 16 4 17 5 18 6 19 7 20 8 21 9 22 10 23 11
REMARK SMILES IDX 24 12 25 13 26 14 12 15 11 16 10 17 9 18 8 19 7 20 6 21 5 22
REMARK SMILES IDX 4 23 3 24 2 25 1 26
REMARK H PARENT
REMARK Flexibility Score: inf
ROOT
ATOM      1  C   UNL     1      -7.007  39.283  43.626  1.00  0.00     0.000 C 
ENDROOT
BRANCH   1   2
ATOM      2  C   UNL     1      -7.741  38.119  44.323  1.00  0.00     0.000 C 
BRANCH   2   3
ATOM      3  C   UNL     1      -8.353  38.458  45.692  1.00  0.00     0.000 C 
BRANCH   3   4
ATOM      4  C   UNL     1      -7.336  38.824  46.793  1.00  0.00     0.000 C 
BRANCH   4   5
ATOM      5  C   UNL     1      -6.797  37.611  47.579  1.00  0.00     0.000 C 
BRANCH   5   6
ATOM      6  C   UNL     1      -5.556  36.984  46.919  1.00  0.00     0.000 C 
BRANCH   6   7
ATOM      7  C   UNL     1      -5.672  35.455  46.795  1.00  0.00     0.000 C 
BRANCH   7   8
ATOM      8  C   UNL     1      -6.753  35.028  45.786  1.00  0.00     0.000 C 
BRANCH   8   9
ATOM      9  C   UNL     1      -7.653  33.899  46.334  1.00  0.00     0.000 C 
BRANCH   9  10
ATOM     10  C   UNL     1      -8.128  32.909  45.252  1.00  0.00     0.006 C 
BRANCH  10  11
ATOM     11  C   UNL     1      -7.847  33.372  43.815  1.00  0.00     0.053 C 
BRANCH  11  12
ATOM     12  C   UNL     1      -8.895  32.894  42.856  1.00  0.00     0.041 C 
ATOM     13  O   UNL     1      -8.694  32.958  41.615  1.00  0.00    -0.550 OA
ATOM     14  O   UNL     1     -10.089  32.366  43.331  1.00  0.00    -0.550 OA
ENDBRANCH  11  12
ENDBRANCH  10  11
ENDBRANCH   9  10
ENDBRANCH   8   9
ENDBRANCH   7   8
ENDBRANCH   6   7
ENDBRANCH   5   6
ENDBRANCH   4   5
ENDBRANCH   3   4
ENDBRANCH   2   3
ENDBRANCH   1   2
BRANCH   1  15
ATOM     15  C   UNL     1      -5.563  38.946  43.198  1.00  0.00     0.000 C 
BRANCH  15  16
ATOM     16  C   UNL     1      -4.513  39.611  44.106  1.00  0.00     0.000 C 
BRANCH  16  17
ATOM     17  C   UNL     1      -3.402  38.637  44.537  1.00  0.00     0.000 C 
BRANCH  17  18
ATOM     18  C   UNL     1      -3.278  37.434  43.587  1.00  0.00    -0.000 C 
BRANCH  18  19
ATOM     19  C   UNL     1      -2.849  36.146  44.311  1.00  0.00    -0.000 C 
BRANCH  19  20
ATOM     20  C   UNL     1      -3.562  34.895  43.769  1.00  0.00    -0.000 C 
BRANCH  20  21
ATOM     21  C   UNL     1      -4.709  35.238  42.802  1.00  0.00    -0.000 C 
BRANCH  21  22
ATOM     22  C   UNL     1      -4.542  34.673  41.378  1.00  0.00    -0.000 C 
BRANCH  22  23
ATOM     23  C   UNL     1      -3.068  34.465  40.967  1.00  0.00    -0.000 C 
BRANCH  23  24
ATOM     24  C   UNL     1      -2.544  35.615  40.093  1.00  0.00    -0.000 C 
BRANCH  24  25
ATOM     25  C   UNL     1      -1.060  35.884  40.370  1.00  0.00    -0.003 C 
ATOM     26  C   UNL     1      -0.558  35.050  41.546  1.00  0.00     0.004 C 
ENDBRANCH  24  25
ENDBRANCH  23  24
ENDBRANCH  22  23
ENDBRANCH  21  22
ENDBRANCH  20  21
ENDBRANCH  19  20
ENDBRANCH  18  19
ENDBRANCH  17  18
ENDBRANCH  16  17
ENDBRANCH  15  16
ENDBRANCH   1  15
TORSDOF 22
ENDMDL
MODEL 8
REMARK VINA RESULT:    -3.128      1.708      2.844
REMARK INTER + INTRA:         -11.414
REMARK INTER:                  -8.944
REMARK INTRA:                  -2.471
REMARK UNBOUND:                -4.264
REMARK SMILES CCCCCCCCCCCCCCCCCCCCCCCC(=O)[O-]
REMARK SMILES IDX 13 1 14 2 15 3 16 4 17 5 18 6 19 7 20 8 21 9 22 10 23 11
REMARK SMILES IDX 24 12 25 13 26 14 12 15 11 16 10 17 9 18 8 19 7 20 6 21 5 22
REMARK SMILES IDX 4 23 3 24 2 25 1 26
REMARK H PARENT
REMARK Flexibility Score: inf
ROOT
ATOM      1  C   UNL     1      -4.581  37.091  42.717  1.00  0.00     0.000 C 
ENDROOT
BRANCH   1   2
ATOM      2  C   UNL     1      -4.787  38.366  43.559  1.00  0.00     0.000 C 
BRANCH   2   3
ATOM      3  C   UNL     1      -6.055  39.170  43.228  1.00  0.00     0.000 C 
BRANCH   3   4
ATOM      4  C   UNL     1      -7.327  38.729  43.981  1.00  0.00     0.000 C 
BRANCH   4   5
ATOM      5  C   UNL     1      -7.050  38.065  45.346  1.00  0.00     0.000 C 
BRANCH   5   6
ATOM      6  C   UNL     1      -8.219  37.184  45.822  1.00  0.00     0.000 C 
BRANCH   6   7
ATOM      7  C   UNL     1      -7.787  35.729  46.075  1.00  0.00     0.000 C 
BRANCH   7   8
ATOM      8  C   UNL     1      -6.580  35.317  45.213  1.00  0.00     0.000 C 
BRANCH   8   9
ATOM      9  C   UNL     1      -7.005  34.764  43.835  1.00  0.00     0.000 C 
BRANCH   9  10
ATOM     10  C   UNL     1      -7.382  33.269  43.860  1.00  0.00     0.006 C 
BRANCH  10  11
ATOM     11  C   UNL     1      -8.874  32.997  43.618  1.00  0.00     0.053 C 
BRANCH  11  12
ATOM     12  C   UNL     1      -9.105  32.200  42.371  1.00  0.00     0.041 C 
ATOM     13  O   UNL     1      -8.839  32.696  41.244  1.00  0.00    -0.550 OA
ATOM     14  O   UNL     1      -9.601  30.905  42.450  1.00  0.00    -0.550 OA
ENDBRANCH  11  12
ENDBRANCH  10  11
ENDBRANCH   9  10
ENDBRANCH   8   9
ENDBRANCH   7   8
ENDBRANCH   6   7
ENDBRANCH   5   6
ENDBRANCH   4   5
ENDBRANCH   3   4
ENDBRANCH   2   3
ENDBRANCH   1   2
BRANCH   1  15
ATOM     15  C   UNL     1      -3.965  37.352  41.326  1.00  0.00     0.000 C 
BRANCH  15  16
ATOM     16  C   UNL     1      -3.851  36.066  40.486  1.00  0.00     0.000 C 
BRANCH  16  17
ATOM     17  C   UNL     1      -4.329  34.819  41.248  1.00  0.00     0.000 C 
BRANCH  17  18
ATOM     18  C   UNL     1      -3.227  33.753  41.379  1.00  0.00    -0.000 C 
BRANCH  18  19
ATOM     19  C   UNL     1      -1.902  34.182  40.726  1.00  0.00    -0.000 C 
BRANCH  19  20
ATOM     20  C   UNL     1      -0.681  33.892  41.615  1.00  0.00    -0.000 C 
BRANCH  20  21
ATOM     21  C   UNL     1      -1.072  33.500  43.051  1.00  0.00    -0.000 C 
BRANCH  21  22
ATOM     22  C   UNL     1      -0.672  32.069  43.459  1.00  0.00    -0.000 C 
BRANCH  22  23
ATOM     23  C   UNL     1      -0.157  31.213  42.282  1.00  0.00    -0.000 C 
BRANCH  23  24
ATOM     24  C   UNL     1       1.202  30.565  42.590  1.00  0.00    -0.000 C 
BRANCH  24  25
ATOM     25  C   UNL     1       1.705  29.748  41.394  1.00  0.00    -0.003 C 
ATOM     26  C   UNL     1       0.568  29.425  40.428  1.00  0.00     0.004 C 
ENDBRANCH  24  25
ENDBRANCH  23  24
ENDBRANCH  22  23
ENDBRANCH  21  22
ENDBRANCH  20  21
ENDBRANCH  19  20
ENDBRANCH  18  19
ENDBRANCH  17  18
ENDBRANCH  16  17
ENDBRANCH  15  16
ENDBRANCH   1  15
TORSDOF 22
ENDMDL
MODEL 9
REMARK VINA RESULT:    -3.115      1.886      4.125
REMARK INTER + INTRA:         -11.385
REMARK INTER:                  -7.222
REMARK INTRA:                  -4.163
REMARK UNBOUND:                -4.264
REMARK SMILES CCCCCCCCCCCCCCCCCCCCCCCC(=O)[O-]
REMARK SMILES IDX 13 1 14 2 15 3 16 4 17 5 18 6 19 7 20 8 21 9 22 10 23 11
REMARK SMILES IDX 24 12 25 13 26 14 12 15 11 16 10 17 9 18 8 19 7 20 6 21 5 22
REMARK SMILES IDX 4 23 3 24 2 25 1 26
REMARK H PARENT
REMARK Flexibility Score: inf
ROOT
ATOM      1  C   UNL     1      -7.392  38.665  46.928  1.00  0.00     0.000 C 
ENDROOT
BRANCH   1   2
ATOM      2  C   UNL     1      -6.480  37.700  47.712  1.00  0.00     0.000 C 
BRANCH   2   3
ATOM      3  C   UNL     1      -5.253  37.187  46.939  1.00  0.00     0.000 C 
BRANCH   3   4
ATOM      4  C   UNL     1      -4.909  35.701  47.166  1.00  0.00     0.000 C 
BRANCH   4   5
ATOM      5  C   UNL     1      -5.887  34.719  46.487  1.00  0.00     0.000 C 
BRANCH   5   6
ATOM      6  C   UNL     1      -5.902  34.865  44.955  1.00  0.00     0.000 C 
BRANCH   6   7
ATOM      7  C   UNL     1      -7.325  34.788  44.376  1.00  0.00     0.000 C 
BRANCH   7   8
ATOM      8  C   UNL     1      -7.365  34.075  43.013  1.00  0.00     0.000 C 
BRANCH   8   9
ATOM      9  C   UNL     1      -8.358  32.892  42.999  1.00  0.00     0.000 C 
BRANCH   9  10
ATOM     10  C   UNL     1      -8.863  32.494  44.400  1.00  0.00     0.006 C 
BRANCH  10  11
ATOM     11  C   UNL     1      -8.350  31.130  44.885  1.00  0.00     0.053 C 
BRANCH  11  12
ATOM     12  C   UNL     1      -6.975  31.224  45.474  1.00  0.00     0.041 C 
ATOM     13  O   UNL     1      -5.966  31.260  44.722  1.00  0.00    -0.550 OA
ATOM     14  O   UNL     1      -6.806  31.287  46.851  1.00  0.00    -0.550 OA
ENDBRANCH  11  12
ENDBRANCH  10  11
ENDBRANCH   9  10
ENDBRANCH   8   9
ENDBRANCH   7   8
ENDBRANCH   6   7
ENDBRANCH   5   6
ENDBRANCH   4   5
ENDBRANCH   3   4
ENDBRANCH   2   3
ENDBRANCH   1   2
BRANCH   1  15
ATOM     15  C   UNL     1      -8.282  37.969  45.875  1.00  0.00     0.000 C 
BRANCH  15  16
ATOM     16  C   UNL     1      -7.891  38.349  44.435  1.00  0.00     0.000 C 
BRANCH  16  17
ATOM     17  C   UNL     1      -7.085  39.658  44.369  1.00  0.00     0.000 C 
BRANCH  17  18
ATOM     18  C   UNL     1      -5.744  39.485  43.636  1.00  0.00    -0.000 C 
BRANCH  18  19
ATOM     19  C   UNL     1      -5.453  38.022  43.263  1.00  0.00    -0.000 C 
BRANCH  19  20
ATOM     20  C   UNL     1      -3.993  37.619  43.535  1.00  0.00    -0.000 C 
BRANCH  20  21
ATOM     21  C   UNL     1      -3.151  37.537  42.249  1.00  0.00    -0.000 C 
BRANCH  21  22
ATOM     22  C   UNL     1      -3.969  37.440  40.948  1.00  0.00    -0.000 C 
BRANCH  22  23
ATOM     23  C   UNL     1      -3.833  36.077  40.234  1.00  0.00    -0.000 C 
BRANCH  23  24
ATOM     24  C   UNL     1      -4.362  34.919  41.095  1.00  0.00    -0.000 C 
BRANCH  24  25
ATOM     25  C   UNL     1      -3.253  33.902  41.389  1.00  0.00    -0.003 C 
ATOM     26  C   UNL     1      -3.589  33.060  42.618  1.00  0.00     0.004 C 
ENDBRANCH  24  25
ENDBRANCH  23  24
ENDBRANCH  22  23
ENDBRANCH  21  22
ENDBRANCH  20  21
ENDBRANCH  19  20
ENDBRANCH  18  19
ENDBRANCH  17  18
ENDBRANCH  16  17
ENDBRANCH  15  16
ENDBRANCH   1  15
TORSDOF 22
ENDMDL
