MODEL 1
REMARK VINA RESULT:    -4.410      0.000      0.000
REMARK INTER + INTRA:          -4.951
REMARK INTER:                  -4.796
REMARK INTRA:                  -0.155
REMARK UNBOUND:                -0.155
REMARK SMILES CC1=CC[C@H](C(C)(C)O)CC1
REMARK SMILES IDX 6 1 7 2 8 3 5 4 1 5 2 6 3 7 11 8 4 9 10 10 9 11
REMARK H PARENT 9 12
REMARK Flexibility Score: inf
ROOT
ATOM      1  C   UNL     1     140.893 135.072 149.782  1.00  0.00     0.062 C 
ATOM      2  C   UNL     1     142.041 134.044 149.724  1.00  0.00     0.042 C 
ATOM      3  C   UNL     1     141.264 136.275 148.875  1.00  0.00     0.042 C 
ENDROOT
BRANCH   1   4
ATOM      4  C   UNL     1     139.537 134.388 149.374  1.00  0.00     0.024 C 
ATOM      5  C   UNL     1     135.627 133.135 148.129  1.00  0.00     0.039 C 
ATOM      6  C   UNL     1     136.800 133.953 148.592  1.00  0.00    -0.077 C 
ATOM      7  C   UNL     1     137.136 133.976 149.892  1.00  0.00    -0.028 C 
ATOM      8  C   UNL     1     137.628 134.756 147.616  1.00  0.00     0.031 C 
ATOM      9  C   UNL     1     138.361 134.731 150.325  1.00  0.00     0.034 C 
ATOM     10  C   UNL     1     139.143 134.588 147.869  1.00  0.00     0.011 C 
ENDBRANCH   1   4
BRANCH   1  11
ATOM     11  O   UNL     1     140.811 135.496 151.125  1.00  0.00    -0.390 OA
ATOM     12  H   UNL     1     140.214 134.878 151.622  1.00  0.00     0.211 HD
ENDBRANCH   1  11
TORSDOF 2
ENDMDL
MODEL 2
REMARK VINA RESULT:    -4.377     14.542     15.241
REMARK INTER + INTRA:          -4.915
REMARK INTER:                  -4.775
REMARK INTRA:                  -0.141
REMARK UNBOUND:                -0.155
REMARK SMILES CC1=CC[C@H](C(C)(C)O)CC1
REMARK SMILES IDX 6 1 7 2 8 3 5 4 1 5 2 6 3 7 11 8 4 9 10 10 9 11
REMARK H PARENT 9 12
REMARK Flexibility Score: inf
ROOT
ATOM      1  C   UNL     1     133.291 141.090 136.463  1.00  0.00     0.062 C 
ATOM      2  C   UNL     1     134.670 140.976 137.144  1.00  0.00     0.042 C 
ATOM      3  C   UNL     1     133.435 140.645 134.984  1.00  0.00     0.042 C 
ENDROOT
BRANCH   1   4
ATOM      4  C   UNL     1     132.227 140.250 137.258  1.00  0.00     0.024 C 
ATOM      5  C   UNL     1     128.876 138.249 139.041  1.00  0.00     0.039 C 
ATOM      6  C   UNL     1     129.740 139.209 138.273  1.00  0.00    -0.077 C 
ATOM      7  C   UNL     1     130.361 140.216 138.908  1.00  0.00    -0.028 C 
ATOM      8  C   UNL     1     129.939 139.062 136.782  1.00  0.00     0.031 C 
ATOM      9  C   UNL     1     131.288 141.114 138.139  1.00  0.00     0.034 C 
ATOM     10  C   UNL     1     131.420 139.233 136.377  1.00  0.00     0.011 C 
ENDBRANCH   1   4
BRANCH   1  11
ATOM     11  O   UNL     1     132.936 142.454 136.517  1.00  0.00    -0.390 OA
ATOM     12  H   UNL     1     133.763 143.003 136.502  1.00  0.00     0.211 HD
ENDBRANCH   1  11
TORSDOF 2
ENDMDL
MODEL 3
REMARK VINA RESULT:    -4.304     13.530     15.532
REMARK INTER + INTRA:          -4.837
REMARK INTER:                  -4.681
REMARK INTRA:                  -0.156
REMARK UNBOUND:                -0.155
REMARK SMILES CC1=CC[C@H](C(C)(C)O)CC1
REMARK SMILES IDX 6 1 7 2 8 3 5 4 1 5 2 6 3 7 11 8 4 9 10 10 9 11
REMARK H PARENT 9 12
REMARK Flexibility Score: inf
ROOT
ATOM      1  C   UNL     1     129.962 138.298 136.432  1.00  0.00     0.062 C 
ATOM      2  C   UNL     1     129.317 137.073 137.110  1.00  0.00     0.042 C 
ATOM      3  C   UNL     1     128.875 139.390 136.251  1.00  0.00     0.042 C 
ENDROOT
BRANCH   1   4
ATOM      4  C   UNL     1     131.196 138.791 137.273  1.00  0.00     0.024 C 
ATOM      5  C   UNL     1     134.456 140.723 139.285  1.00  0.00     0.039 C 
ATOM      6  C   UNL     1     133.347 140.390 138.327  1.00  0.00    -0.077 C 
ATOM      7  C   UNL     1     133.568 139.551 137.303  1.00  0.00    -0.028 C 
ATOM      8  C   UNL     1     131.965 140.979 138.494  1.00  0.00     0.031 C 
ATOM      9  C   UNL     1     132.427 139.163 136.406  1.00  0.00     0.034 C 
ATOM     10  C   UNL     1     130.858 139.916 138.313  1.00  0.00     0.011 C 
ENDBRANCH   1   4
BRANCH   1  11
ATOM     11  O   UNL     1     130.410 137.859 135.169  1.00  0.00    -0.390 OA
ATOM     12  H   UNL     1     130.238 136.885 135.086  1.00  0.00     0.211 HD
ENDBRANCH   1  11
TORSDOF 2
ENDMDL
MODEL 4
REMARK VINA RESULT:    -4.264     14.866     15.487
REMARK INTER + INTRA:          -4.793
REMARK INTER:                  -4.599
REMARK INTRA:                  -0.194
REMARK UNBOUND:                -0.155
REMARK SMILES CC1=CC[C@H](C(C)(C)O)CC1
REMARK SMILES IDX 6 1 7 2 8 3 5 4 1 5 2 6 3 7 11 8 4 9 10 10 9 11
REMARK H PARENT 9 12
REMARK Flexibility Score: inf
ROOT
ATOM      1  C   UNL     1     129.811 139.878 138.014  1.00  0.00     0.062 C 
ATOM      2  C   UNL     1     128.947 138.929 138.870  1.00  0.00     0.042 C 
ATOM      3  C   UNL     1     130.633 140.786 138.967  1.00  0.00     0.042 C 
ENDROOT
BRANCH   1   4
ATOM      4  C   UNL     1     130.710 139.046 137.029  1.00  0.00     0.024 C 
ATOM      5  C   UNL     1     133.308 136.403 134.867  1.00  0.00     0.039 C 
ATOM      6  C   UNL     1     132.601 137.156 135.959  1.00  0.00    -0.077 C 
ATOM      7  C   UNL     1     132.998 138.394 136.293  1.00  0.00    -0.028 C 
ATOM      8  C   UNL     1     131.431 136.548 136.698  1.00  0.00     0.031 C 
ATOM      9  C   UNL     1     132.227 139.164 137.328  1.00  0.00     0.034 C 
ATOM     10  C   UNL     1     130.267 137.550 136.861  1.00  0.00     0.011 C 
ENDBRANCH   1   4
BRANCH   1  11
ATOM     11  O   UNL     1     128.910 140.664 137.266  1.00  0.00    -0.390 OA
ATOM     12  H   UNL     1     128.188 140.986 137.866  1.00  0.00     0.211 HD
ENDBRANCH   1  11
TORSDOF 2
ENDMDL
MODEL 5
REMARK VINA RESULT:    -4.165      8.112     10.875
REMARK INTER + INTRA:          -4.685
REMARK INTER:                  -4.496
REMARK INTRA:                  -0.189
REMARK UNBOUND:                -0.155
REMARK SMILES CC1=CC[C@H](C(C)(C)O)CC1
REMARK SMILES IDX 6 1 7 2 8 3 5 4 1 5 2 6 3 7 11 8 4 9 10 10 9 11
REMARK H PARENT 9 12
REMARK Flexibility Score: inf
ROOT
ATOM      1  C   UNL     1     146.443 138.585 146.828  1.00  0.00     0.062 C 
ATOM      2  C   UNL     1     145.099 137.882 146.544  1.00  0.00     0.042 C 
ATOM      3  C   UNL     1     147.436 137.536 147.394  1.00  0.00     0.042 C 
ENDROOT
BRANCH   1   4
ATOM      4  C   UNL     1     146.968 139.288 145.523  1.00  0.00     0.024 C 
ATOM      5  C   UNL     1     148.546 140.596 141.754  1.00  0.00     0.039 C 
ATOM      6  C   UNL     1     148.206 139.781 142.970  1.00  0.00    -0.077 C 
ATOM      7  C   UNL     1     148.910 139.931 144.102  1.00  0.00    -0.028 C 
ATOM      8  C   UNL     1     147.067 138.787 142.952  1.00  0.00     0.031 C 
ATOM      9  C   UNL     1     148.503 139.170 145.333  1.00  0.00     0.034 C 
ATOM     10  C   UNL     1     146.190 138.891 144.220  1.00  0.00     0.011 C 
ENDBRANCH   1   4
BRANCH   1  11
ATOM     11  O   UNL     1     146.176 139.565 147.806  1.00  0.00    -0.390 OA
ATOM     12  H   UNL     1     146.840 139.478 148.539  1.00  0.00     0.211 HD
ENDBRANCH   1  11
TORSDOF 2
ENDMDL
MODEL 6
REMARK VINA RESULT:    -4.129      1.613      4.555
REMARK INTER + INTRA:          -4.646
REMARK INTER:                  -4.480
REMARK INTRA:                  -0.166
REMARK UNBOUND:                -0.155
REMARK SMILES CC1=CC[C@H](C(C)(C)O)CC1
REMARK SMILES IDX 6 1 7 2 8 3 5 4 1 5 2 6 3 7 11 8 4 9 10 10 9 11
REMARK H PARENT 9 12
REMARK Flexibility Score: inf
ROOT
ATOM      1  C   UNL     1     137.966 134.355 149.403  1.00  0.00     0.062 C 
ATOM      2  C   UNL     1     137.125 135.251 148.470  1.00  0.00     0.042 C 
ATOM      3  C   UNL     1     137.376 132.921 149.368  1.00  0.00     0.042 C 
ENDROOT
BRANCH   1   4
ATOM      4  C   UNL     1     139.479 134.410 148.981  1.00  0.00     0.024 C 
ATOM      5  C   UNL     1     143.511 135.207 147.748  1.00  0.00     0.039 C 
ATOM      6  C   UNL     1     142.034 135.312 148.004  1.00  0.00    -0.077 C 
ATOM      7  C   UNL     1     141.160 134.726 147.170  1.00  0.00    -0.028 C 
ATOM      8  C   UNL     1     141.498 136.067 149.199  1.00  0.00     0.031 C 
ATOM      9  C   UNL     1     139.692 134.770 147.487  1.00  0.00     0.034 C 
ATOM     10  C   UNL     1     140.379 135.285 149.922  1.00  0.00     0.011 C 
ENDBRANCH   1   4
BRANCH   1  11
ATOM     11  O   UNL     1     137.827 134.896 150.698  1.00  0.00    -0.390 OA
ATOM     12  H   UNL     1     138.726 135.131 151.047  1.00  0.00     0.211 HD
ENDBRANCH   1  11
TORSDOF 2
ENDMDL
MODEL 7
REMARK VINA RESULT:    -4.039     13.710     15.450
REMARK INTER + INTRA:          -4.548
REMARK INTER:                  -4.389
REMARK INTRA:                  -0.159
REMARK UNBOUND:                -0.155
REMARK SMILES CC1=CC[C@H](C(C)(C)O)CC1
REMARK SMILES IDX 6 1 7 2 8 3 5 4 1 5 2 6 3 7 11 8 4 9 10 10 9 11
REMARK H PARENT 9 12
REMARK Flexibility Score: inf
ROOT
ATOM      1  C   UNL     1     129.639 139.397 137.546  1.00  0.00     0.062 C 
ATOM      2  C   UNL     1     129.206 138.807 136.189  1.00  0.00     0.042 C 
ATOM      3  C   UNL     1     128.875 138.652 138.672  1.00  0.00     0.042 C 
ENDROOT
BRANCH   1   4
ATOM      4  C   UNL     1     131.201 139.308 137.699  1.00  0.00     0.024 C 
ATOM      5  C   UNL     1     135.487 139.450 137.577  1.00  0.00     0.039 C 
ATOM      6  C   UNL     1     134.031 139.537 137.217  1.00  0.00    -0.077 C 
ATOM      7  C   UNL     1     133.365 138.440 136.823  1.00  0.00    -0.028 C 
ATOM      8  C   UNL     1     133.283 140.848 137.295  1.00  0.00     0.031 C 
ATOM      9  C   UNL     1     131.890 138.529 136.549  1.00  0.00     0.034 C 
ATOM     10  C   UNL     1     131.902 140.686 137.967  1.00  0.00     0.011 C 
ENDBRANCH   1   4
BRANCH   1  11
ATOM     11  O   UNL     1     129.253 140.754 137.527  1.00  0.00    -0.390 OA
ATOM     12  H   UNL     1     129.960 141.284 137.075  1.00  0.00     0.211 HD
ENDBRANCH   1  11
TORSDOF 2
ENDMDL
MODEL 8
REMARK VINA RESULT:    -3.972      2.659      5.102
REMARK INTER + INTRA:          -4.475
REMARK INTER:                  -4.346
REMARK INTRA:                  -0.130
REMARK UNBOUND:                -0.155
REMARK SMILES CC1=CC[C@H](C(C)(C)O)CC1
REMARK SMILES IDX 6 1 7 2 8 3 5 4 1 5 2 6 3 7 11 8 4 9 10 10 9 11
REMARK H PARENT 9 12
REMARK Flexibility Score: inf
ROOT
ATOM      1  C   UNL     1     135.821 131.719 148.459  1.00  0.00     0.062 C 
ATOM      2  C   UNL     1     136.172 130.539 147.531  1.00  0.00     0.042 C 
ATOM      3  C   UNL     1     135.181 131.153 149.754  1.00  0.00     0.042 C 
ENDROOT
BRANCH   1   4
ATOM      4  C   UNL     1     137.104 132.586 148.735  1.00  0.00     0.024 C 
ATOM      5  C   UNL     1     140.187 135.465 149.517  1.00  0.00     0.039 C 
ATOM      6  C   UNL     1     138.887 134.810 149.145  1.00  0.00    -0.077 C 
ATOM      7  C   UNL     1     138.715 134.300 147.915  1.00  0.00    -0.028 C 
ATOM      8  C   UNL     1     137.753 134.703 150.138  1.00  0.00     0.031 C 
ATOM      9  C   UNL     1     137.441 133.574 147.588  1.00  0.00     0.034 C 
ATOM     10  C   UNL     1     137.112 133.297 150.133  1.00  0.00     0.011 C 
ENDBRANCH   1   4
BRANCH   1  11
ATOM     11  O   UNL     1     134.876 132.501 147.763  1.00  0.00    -0.390 OA
ATOM     12  H   UNL     1     134.902 133.428 148.116  1.00  0.00     0.211 HD
ENDBRANCH   1  11
TORSDOF 2
ENDMDL
MODEL 9
REMARK VINA RESULT:    -3.890      6.608      9.677
REMARK INTER + INTRA:          -4.386
REMARK INTER:                  -4.234
REMARK INTRA:                  -0.152
REMARK UNBOUND:                -0.155
REMARK SMILES CC1=CC[C@H](C(C)(C)O)CC1
REMARK SMILES IDX 6 1 7 2 8 3 5 4 1 5 2 6 3 7 11 8 4 9 10 10 9 11
REMARK H PARENT 9 12
REMARK Flexibility Score: inf
ROOT
ATOM      1  C   UNL     1     144.409 137.238 146.397  1.00  0.00     0.062 C 
ATOM      2  C   UNL     1     143.339 137.171 145.288  1.00  0.00     0.042 C 
ATOM      3  C   UNL     1     144.576 135.821 147.005  1.00  0.00     0.042 C 
ENDROOT
BRANCH   1   4
ATOM      4  C   UNL     1     145.750 137.820 145.816  1.00  0.00     0.024 C 
ATOM      5  C   UNL     1     149.125 140.001 144.315  1.00  0.00     0.039 C 
ATOM      6  C   UNL     1     147.746 139.610 144.766  1.00  0.00    -0.077 C 
ATOM      7  C   UNL     1     146.924 138.952 143.934  1.00  0.00    -0.028 C 
ATOM      8  C   UNL     1     147.257 139.937 146.159  1.00  0.00     0.031 C 
ATOM      9  C   UNL     1     145.581 138.495 144.430  1.00  0.00     0.034 C 
ATOM     10  C   UNL     1     146.539 138.736 146.815  1.00  0.00     0.011 C 
ENDBRANCH   1   4
BRANCH   1  11
ATOM     11  O   UNL     1     143.908 138.120 147.376  1.00  0.00    -0.390 OA
ATOM     12  H   UNL     1     143.290 138.764 146.943  1.00  0.00     0.211 HD
ENDBRANCH   1  11
TORSDOF 2
ENDMDL
