MODEL 1
REMARK VINA RESULT:    -4.032      0.000      0.000
REMARK INTER + INTRA:          -7.994
REMARK INTER:                  -6.153
REMARK INTRA:                  -1.841
REMARK UNBOUND:                -1.841
REMARK SMILES CC(=O)CCC=C(C)CCC=C(C)CCC=C(C)C
REMARK SMILES IDX 10 1 11 2 12 3 13 4 14 5 15 6 16 7 18 8 17 9 19 10 9 11 7 12
REMARK SMILES IDX 6 13 8 14 5 15 4 16 2 17 3 18 1 19
REMARK H PARENT
REMARK Flexibility Score: inf
ROOT
ATOM      1  C   UNL     1       7.167 -33.349  15.287  1.00  0.00     0.032 C 
ENDROOT
BRANCH   1   2
ATOM      2  C   UNL     1       8.481 -33.071  14.600  1.00  0.00    -0.028 C 
ATOM      3  C   UNL     1       9.036 -33.867  13.658  1.00  0.00    -0.077 C 
ATOM      4  C   UNL     1       8.343 -35.110  13.154  1.00  0.00     0.039 C 
BRANCH   3   5
ATOM      5  C   UNL     1      10.387 -33.493  13.080  1.00  0.00     0.034 C 
BRANCH   5   6
ATOM      6  C   UNL     1      10.348 -32.130  12.376  1.00  0.00     0.032 C 
BRANCH   6   7
ATOM      7  C   UNL     1      10.949 -31.042  13.236  1.00  0.00    -0.028 C 
ATOM      8  C   UNL     1       9.560 -29.229  12.209  1.00  0.00     0.039 C 
ATOM      9  C   UNL     1      10.628 -29.733  13.150  1.00  0.00    -0.080 C 
ATOM     10  C   UNL     1      11.354 -28.756  14.039  1.00  0.00     0.039 C 
ENDBRANCH   6   7
ENDBRANCH   5   6
ENDBRANCH   3   5
ENDBRANCH   1   2
BRANCH   1  11
ATOM     11  C   UNL     1       6.015 -32.551  14.656  1.00  0.00     0.034 C 
BRANCH  11  12
ATOM     12  C   UNL     1       6.523 -31.361  13.861  1.00  0.00    -0.077 C 
ATOM     13  C   UNL     1       6.861 -30.183  14.436  1.00  0.00    -0.028 C 
ATOM     14  C   UNL     1       6.628 -31.479  12.362  1.00  0.00     0.039 C 
BRANCH  13  15
ATOM     15  C   UNL     1       6.881 -29.922  15.921  1.00  0.00     0.035 C 
BRANCH  15  16
ATOM     16  C   UNL     1       8.321 -29.833  16.436  1.00  0.00     0.079 C 
BRANCH  16  17
ATOM     17  C   UNL     1       8.341 -29.650  17.931  1.00  0.00     0.130 C 
ATOM     18  O   UNL     1       7.517 -30.233  18.619  1.00  0.00    -0.300 OA
ATOM     19  C   UNL     1       9.361 -28.776  18.598  1.00  0.00     0.087 C 
ENDBRANCH  16  17
ENDBRANCH  15  16
ENDBRANCH  13  15
ENDBRANCH  11  12
ENDBRANCH   1  11
TORSDOF 9
ENDMDL
MODEL 2
REMARK VINA RESULT:    -4.001      1.101      3.812
REMARK INTER + INTRA:          -7.948
REMARK INTER:                  -5.856
REMARK INTRA:                  -2.092
REMARK UNBOUND:                -1.841
REMARK SMILES CC(=O)CCC=C(C)CCC=C(C)CCC=C(C)C
REMARK SMILES IDX 10 1 11 2 12 3 13 4 14 5 15 6 16 7 18 8 17 9 19 10 9 11 7 12
REMARK SMILES IDX 6 13 8 14 5 15 4 16 2 17 3 18 1 19
REMARK H PARENT
REMARK Flexibility Score: inf
ROOT
ATOM      1  C   UNL     1      10.504 -30.737  12.170  1.00  0.00     0.032 C 
ENDROOT
BRANCH   1   2
ATOM      2  C   UNL     1       9.950 -32.118  11.915  1.00  0.00    -0.028 C 
ATOM      3  C   UNL     1      10.317 -33.227  12.595  1.00  0.00    -0.077 C 
ATOM      4  C   UNL     1      11.298 -33.173  13.742  1.00  0.00     0.039 C 
BRANCH   3   5
ATOM      5  C   UNL     1       9.714 -34.563  12.206  1.00  0.00     0.034 C 
BRANCH   5   6
ATOM      6  C   UNL     1       8.187 -34.565  12.356  1.00  0.00     0.032 C 
BRANCH   6   7
ATOM      7  C   UNL     1       7.770 -34.551  13.808  1.00  0.00    -0.028 C 
ATOM      8  C   UNL     1       6.646 -32.320  13.640  1.00  0.00     0.039 C 
ATOM      9  C   UNL     1       7.106 -33.538  14.405  1.00  0.00    -0.080 C 
ATOM     10  C   UNL     1       6.807 -33.645  15.879  1.00  0.00     0.039 C 
ENDBRANCH   6   7
ENDBRANCH   5   6
ENDBRANCH   3   5
ENDBRANCH   1   2
BRANCH   1  11
ATOM     11  C   UNL     1       9.539 -29.883  13.006  1.00  0.00     0.034 C 
BRANCH  11  12
ATOM     12  C   UNL     1      10.221 -29.295  14.230  1.00  0.00    -0.077 C 
ATOM     13  C   UNL     1       9.635 -29.257  15.449  1.00  0.00    -0.028 C 
ATOM     14  C   UNL     1      11.597 -28.701  14.080  1.00  0.00     0.039 C 
BRANCH  13  15
ATOM     15  C   UNL     1       8.298 -29.868  15.784  1.00  0.00     0.035 C 
BRANCH  15  16
ATOM     16  C   UNL     1       8.355 -30.592  17.132  1.00  0.00     0.079 C 
BRANCH  16  17
ATOM     17  C   UNL     1       7.967 -29.663  18.252  1.00  0.00     0.130 C 
ATOM     18  O   UNL     1       6.789 -29.552  18.560  1.00  0.00    -0.300 OA
ATOM     19  C   UNL     1       8.996 -28.879  19.011  1.00  0.00     0.087 C 
ENDBRANCH  16  17
ENDBRANCH  15  16
ENDBRANCH  13  15
ENDBRANCH  11  12
ENDBRANCH   1  11
TORSDOF 9
ENDMDL
MODEL 3
REMARK VINA RESULT:    -3.924      1.428      2.820
REMARK INTER + INTRA:          -7.830
REMARK INTER:                  -5.793
REMARK INTRA:                  -2.037
REMARK UNBOUND:                -1.841
REMARK SMILES CC(=O)CCC=C(C)CCC=C(C)CCC=C(C)C
REMARK SMILES IDX 10 1 11 2 12 3 13 4 14 5 15 6 16 7 18 8 17 9 19 10 9 11 7 12
REMARK SMILES IDX 6 13 8 14 5 15 4 16 2 17 3 18 1 19
REMARK H PARENT
REMARK Flexibility Score: inf
ROOT
ATOM      1  C   UNL     1       8.193 -32.989  14.461  1.00  0.00     0.032 C 
ENDROOT
BRANCH   1   2
ATOM      2  C   UNL     1       8.317 -31.639  13.797  1.00  0.00    -0.028 C 
ATOM      3  C   UNL     1       7.291 -30.970  13.224  1.00  0.00    -0.077 C 
ATOM      4  C   UNL     1       5.878 -31.501  13.249  1.00  0.00     0.039 C 
BRANCH   3   5
ATOM      5  C   UNL     1       7.565 -29.640  12.551  1.00  0.00     0.034 C 
BRANCH   5   6
ATOM      6  C   UNL     1       8.969 -29.591  11.933  1.00  0.00     0.032 C 
BRANCH   6   7
ATOM      7  C   UNL     1       9.942 -28.849  12.819  1.00  0.00    -0.028 C 
ATOM      8  C   UNL     1      11.452 -30.826  13.103  1.00  0.00     0.039 C 
ATOM      9  C   UNL     1      11.043 -29.398  13.376  1.00  0.00    -0.080 C 
ATOM     10  C   UNL     1      11.889 -28.544  14.285  1.00  0.00     0.039 C 
ENDBRANCH   6   7
ENDBRANCH   5   6
ENDBRANCH   3   5
ENDBRANCH   1   2
BRANCH   1  11
ATOM     11  C   UNL     1       8.274 -32.880  15.991  1.00  0.00     0.034 C 
BRANCH  11  12
ATOM     12  C   UNL     1       6.901 -32.955  16.637  1.00  0.00    -0.077 C 
ATOM     13  C   UNL     1       6.233 -31.861  17.071  1.00  0.00    -0.028 C 
ATOM     14  C   UNL     1       6.263 -34.306  16.833  1.00  0.00     0.039 C 
BRANCH  13  15
ATOM     15  C   UNL     1       6.696 -30.438  16.890  1.00  0.00     0.035 C 
BRANCH  15  16
ATOM     16  C   UNL     1       7.281 -29.888  18.195  1.00  0.00     0.079 C 
BRANCH  16  17
ATOM     17  C   UNL     1       8.657 -29.321  17.964  1.00  0.00     0.130 C 
ATOM     18  O   UNL     1       9.323 -28.953  18.920  1.00  0.00    -0.300 OA
ATOM     19  C   UNL     1       9.236 -29.209  16.585  1.00  0.00     0.087 C 
ENDBRANCH  16  17
ENDBRANCH  15  16
ENDBRANCH  13  15
ENDBRANCH  11  12
ENDBRANCH   1  11
TORSDOF 9
ENDMDL
MODEL 4
REMARK VINA RESULT:    -3.895      1.629      4.864
REMARK INTER + INTRA:          -7.786
REMARK INTER:                  -6.234
REMARK INTRA:                  -1.552
REMARK UNBOUND:                -1.841
REMARK SMILES CC(=O)CCC=C(C)CCC=C(C)CCC=C(C)C
REMARK SMILES IDX 10 1 11 2 12 3 13 4 14 5 15 6 16 7 18 8 17 9 19 10 9 11 7 12
REMARK SMILES IDX 6 13 8 14 5 15 4 16 2 17 3 18 1 19
REMARK H PARENT
REMARK Flexibility Score: inf
ROOT
ATOM      1  C   UNL     1       8.562 -33.151  12.463  1.00  0.00     0.032 C 
ENDROOT
BRANCH   1   2
ATOM      2  C   UNL     1       8.436 -33.366  13.952  1.00  0.00    -0.028 C 
ATOM      3  C   UNL     1       7.369 -32.987  14.692  1.00  0.00    -0.077 C 
ATOM      4  C   UNL     1       6.150 -32.350  14.070  1.00  0.00     0.039 C 
BRANCH   3   5
ATOM      5  C   UNL     1       7.392 -33.223  16.190  1.00  0.00     0.034 C 
BRANCH   5   6
ATOM      6  C   UNL     1       6.797 -32.038  16.963  1.00  0.00     0.032 C 
BRANCH   6   7
ATOM      7  C   UNL     1       7.876 -31.152  17.539  1.00  0.00    -0.028 C 
ATOM      8  C   UNL     1       6.287 -29.301  18.109  1.00  0.00     0.039 C 
ATOM      9  C   UNL     1       7.668 -29.910  18.028  1.00  0.00    -0.080 C 
ATOM     10  C   UNL     1       8.856 -29.123  18.519  1.00  0.00     0.039 C 
ENDBRANCH   6   7
ENDBRANCH   5   6
ENDBRANCH   3   5
ENDBRANCH   1   2
BRANCH   1  11
ATOM     11  C   UNL     1       9.943 -33.576  11.942  1.00  0.00     0.034 C 
BRANCH  11  12
ATOM     12  C   UNL     1      11.065 -33.038  12.813  1.00  0.00    -0.077 C 
ATOM     13  C   UNL     1      11.404 -31.729  12.849  1.00  0.00    -0.028 C 
ATOM     14  C   UNL     1      11.859 -34.004  13.655  1.00  0.00     0.039 C 
BRANCH  13  15
ATOM     15  C   UNL     1      10.671 -30.628  12.126  1.00  0.00     0.035 C 
BRANCH  15  16
ATOM     16  C   UNL     1      10.272 -29.513  13.098  1.00  0.00     0.079 C 
BRANCH  16  17
ATOM     17  C   UNL     1       8.790 -29.540  13.361  1.00  0.00     0.130 C 
ATOM     18  O   UNL     1       8.384 -29.588  14.513  1.00  0.00    -0.300 OA
ATOM     19  C   UNL     1       7.796 -29.496  12.239  1.00  0.00     0.087 C 
ENDBRANCH  16  17
ENDBRANCH  15  16
ENDBRANCH  13  15
ENDBRANCH  11  12
ENDBRANCH   1  11
TORSDOF 9
ENDMDL
MODEL 5
REMARK VINA RESULT:    -3.894      1.370      3.328
REMARK INTER + INTRA:          -7.784
REMARK INTER:                  -5.326
REMARK INTRA:                  -2.457
REMARK UNBOUND:                -1.841
REMARK SMILES CC(=O)CCC=C(C)CCC=C(C)CCC=C(C)C
REMARK SMILES IDX 10 1 11 2 12 3 13 4 14 5 15 6 16 7 18 8 17 9 19 10 9 11 7 12
REMARK SMILES IDX 6 13 8 14 5 15 4 16 2 17 3 18 1 19
REMARK H PARENT
REMARK Flexibility Score: inf
ROOT
ATOM      1  C   UNL     1       6.945 -29.897  13.970  1.00  0.00     0.032 C 
ENDROOT
BRANCH   1   2
ATOM      2  C   UNL     1       7.972 -30.163  12.896  1.00  0.00    -0.028 C 
ATOM      3  C   UNL     1       9.305 -30.001  13.053  1.00  0.00    -0.077 C 
ATOM      4  C   UNL     1       9.908 -29.583  14.373  1.00  0.00     0.039 C 
BRANCH   3   5
ATOM      5  C   UNL     1      10.223 -30.262  11.875  1.00  0.00     0.034 C 
BRANCH   5   6
ATOM      6  C   UNL     1      11.261 -31.347  12.190  1.00  0.00     0.032 C 
BRANCH   6   7
ATOM      7  C   UNL     1      10.736 -32.728  11.878  1.00  0.00    -0.028 C 
ATOM      8  C   UNL     1      10.346 -33.310  14.282  1.00  0.00     0.039 C 
ATOM      9  C   UNL     1      10.351 -33.631  12.806  1.00  0.00    -0.080 C 
ATOM     10  C   UNL     1       9.900 -34.992  12.341  1.00  0.00     0.039 C 
ENDBRANCH   6   7
ENDBRANCH   5   6
ENDBRANCH   3   5
ENDBRANCH   1   2
BRANCH   1  11
ATOM     11  C   UNL     1       5.875 -30.998  14.019  1.00  0.00     0.034 C 
BRANCH  11  12
ATOM     12  C   UNL     1       6.489 -32.374  14.211  1.00  0.00    -0.077 C 
ATOM     13  C   UNL     1       6.910 -32.829  15.414  1.00  0.00    -0.028 C 
ATOM     14  C   UNL     1       6.668 -33.264  13.009  1.00  0.00     0.039 C 
BRANCH  13  15
ATOM     15  C   UNL     1       6.741 -32.097  16.721  1.00  0.00     0.035 C 
BRANCH  15  16
ATOM     16  C   UNL     1       8.020 -31.337  17.085  1.00  0.00     0.079 C 
BRANCH  16  17
ATOM     17  C   UNL     1       7.693 -30.074  17.838  1.00  0.00     0.130 C 
ATOM     18  O   UNL     1       8.564 -29.522  18.493  1.00  0.00    -0.300 OA
ATOM     19  C   UNL     1       6.321 -29.469  17.792  1.00  0.00     0.087 C 
ENDBRANCH  16  17
ENDBRANCH  15  16
ENDBRANCH  13  15
ENDBRANCH  11  12
ENDBRANCH   1  11
TORSDOF 9
ENDMDL
MODEL 6
REMARK VINA RESULT:    -3.879      2.209      5.660
REMARK INTER + INTRA:          -7.762
REMARK INTER:                  -6.058
REMARK INTRA:                  -1.704
REMARK UNBOUND:                -1.841
REMARK SMILES CC(=O)CCC=C(C)CCC=C(C)CCC=C(C)C
REMARK SMILES IDX 10 1 11 2 12 3 13 4 14 5 15 6 16 7 18 8 17 9 19 10 9 11 7 12
REMARK SMILES IDX 6 13 8 14 5 15 4 16 2 17 3 18 1 19
REMARK H PARENT
REMARK Flexibility Score: inf
ROOT
ATOM      1  C   UNL     1      10.107 -29.472  13.734  1.00  0.00     0.032 C 
ENDROOT
BRANCH   1   2
ATOM      2  C   UNL     1       9.108 -29.678  14.847  1.00  0.00    -0.028 C 
ATOM      3  C   UNL     1       9.256 -29.205  16.105  1.00  0.00    -0.077 C 
ATOM      4  C   UNL     1      10.438 -28.356  16.506  1.00  0.00     0.039 C 
BRANCH   3   5
ATOM      5  C   UNL     1       8.195 -29.525  17.140  1.00  0.00     0.034 C 
BRANCH   5   6
ATOM      6  C   UNL     1       7.039 -30.336  16.541  1.00  0.00     0.032 C 
BRANCH   6   7
ATOM      7  C   UNL     1       7.032 -31.758  17.053  1.00  0.00    -0.028 C 
ATOM      8  C   UNL     1       5.900 -32.667  15.012  1.00  0.00     0.039 C 
ATOM      9  C   UNL     1       6.497 -32.807  16.393  1.00  0.00    -0.080 C 
ATOM     10  C   UNL     1       6.517 -34.160  17.058  1.00  0.00     0.039 C 
ENDBRANCH   6   7
ENDBRANCH   5   6
ENDBRANCH   3   5
ENDBRANCH   1   2
BRANCH   1  11
ATOM     11  C   UNL     1       9.481 -29.724  12.354  1.00  0.00     0.034 C 
BRANCH  11  12
ATOM     12  C   UNL     1       8.178 -30.498  12.458  1.00  0.00    -0.077 C 
ATOM     13  C   UNL     1       8.104 -31.838  12.281  1.00  0.00    -0.028 C 
ATOM     14  C   UNL     1       6.905 -29.744  12.740  1.00  0.00     0.039 C 
BRANCH  13  15
ATOM     15  C   UNL     1       9.287 -32.746  12.063  1.00  0.00     0.035 C 
BRANCH  15  16
ATOM     16  C   UNL     1       9.881 -33.194  13.402  1.00  0.00     0.079 C 
BRANCH  16  17
ATOM     17  C   UNL     1      11.385 -33.196  13.343  1.00  0.00     0.130 C 
ATOM     18  O   UNL     1      12.016 -33.912  14.107  1.00  0.00    -0.300 OA
ATOM     19  C   UNL     1      12.131 -32.347  12.357  1.00  0.00     0.087 C 
ENDBRANCH  16  17
ENDBRANCH  15  16
ENDBRANCH  13  15
ENDBRANCH  11  12
ENDBRANCH   1  11
TORSDOF 9
ENDMDL
MODEL 7
REMARK VINA RESULT:    -3.839      2.265      5.623
REMARK INTER + INTRA:          -7.701
REMARK INTER:                  -6.056
REMARK INTRA:                  -1.645
REMARK UNBOUND:                -1.841
REMARK SMILES CC(=O)CCC=C(C)CCC=C(C)CCC=C(C)C
REMARK SMILES IDX 10 1 11 2 12 3 13 4 14 5 15 6 16 7 18 8 17 9 19 10 9 11 7 12
REMARK SMILES IDX 6 13 8 14 5 15 4 16 2 17 3 18 1 19
REMARK H PARENT
REMARK Flexibility Score: inf
ROOT
ATOM      1  C   UNL     1       8.270 -29.601  13.425  1.00  0.00     0.032 C 
ENDROOT
BRANCH   1   2
ATOM      2  C   UNL     1       8.264 -30.782  14.365  1.00  0.00    -0.028 C 
ATOM      3  C   UNL     1       7.276 -31.703  14.431  1.00  0.00    -0.077 C 
ATOM      4  C   UNL     1       6.085 -31.664  13.504  1.00  0.00     0.039 C 
BRANCH   3   5
ATOM      5  C   UNL     1       7.374 -32.817  15.455  1.00  0.00     0.034 C 
BRANCH   5   6
ATOM      6  C   UNL     1       6.694 -32.438  16.777  1.00  0.00     0.032 C 
BRANCH   6   7
ATOM      7  C   UNL     1       7.539 -31.480  17.584  1.00  0.00    -0.028 C 
ATOM      8  C   UNL     1       5.963 -29.559  17.272  1.00  0.00     0.039 C 
ATOM      9  C   UNL     1       7.240 -30.179  17.788  1.00  0.00    -0.080 C 
ATOM     10  C   UNL     1       8.212 -29.334  18.571  1.00  0.00     0.039 C 
ENDBRANCH   6   7
ENDBRANCH   5   6
ENDBRANCH   3   5
ENDBRANCH   1   2
BRANCH   1  11
ATOM     11  C   UNL     1       9.408 -29.698  12.398  1.00  0.00     0.034 C 
BRANCH  11  12
ATOM     12  C   UNL     1      10.758 -29.891  13.067  1.00  0.00    -0.077 C 
ATOM     13  C   UNL     1      11.519 -30.995  12.882  1.00  0.00    -0.028 C 
ATOM     14  C   UNL     1      11.265 -28.825  14.004  1.00  0.00     0.039 C 
BRANCH  13  15
ATOM     15  C   UNL     1      11.193 -32.117  11.929  1.00  0.00     0.035 C 
BRANCH  15  16
ATOM     16  C   UNL     1      12.120 -33.314  12.164  1.00  0.00     0.079 C 
BRANCH  16  17
ATOM     17  C   UNL     1      11.477 -34.312  13.091  1.00  0.00     0.130 C 
ATOM     18  O   UNL     1      12.180 -35.096  13.711  1.00  0.00    -0.300 OA
ATOM     19  C   UNL     1       9.990 -34.357  13.282  1.00  0.00     0.087 C 
ENDBRANCH  16  17
ENDBRANCH  15  16
ENDBRANCH  13  15
ENDBRANCH  11  12
ENDBRANCH   1  11
TORSDOF 9
ENDMDL
MODEL 8
REMARK VINA RESULT:    -3.813      2.204      5.487
REMARK INTER + INTRA:          -7.660
REMARK INTER:                  -5.600
REMARK INTRA:                  -2.060
REMARK UNBOUND:                -1.841
REMARK SMILES CC(=O)CCC=C(C)CCC=C(C)CCC=C(C)C
REMARK SMILES IDX 10 1 11 2 12 3 13 4 14 5 15 6 16 7 18 8 17 9 19 10 9 11 7 12
REMARK SMILES IDX 6 13 8 14 5 15 4 16 2 17 3 18 1 19
REMARK H PARENT
REMARK Flexibility Score: inf
ROOT
ATOM      1  C   UNL     1       9.713 -29.137  14.957  1.00  0.00     0.032 C 
ENDROOT
BRANCH   1   2
ATOM      2  C   UNL     1       8.967 -30.406  15.291  1.00  0.00    -0.028 C 
ATOM      3  C   UNL     1       8.395 -30.665  16.489  1.00  0.00    -0.077 C 
ATOM      4  C   UNL     1       8.401 -29.655  17.612  1.00  0.00     0.039 C 
BRANCH   3   5
ATOM      5  C   UNL     1       7.714 -32.002  16.706  1.00  0.00     0.034 C 
BRANCH   5   6
ATOM      6  C   UNL     1       6.538 -32.207  15.741  1.00  0.00     0.032 C 
BRANCH   6   7
ATOM      7  C   UNL     1       6.993 -32.796  14.427  1.00  0.00    -0.028 C 
ATOM      8  C   UNL     1       6.058 -30.914  13.065  1.00  0.00     0.039 C 
ATOM      9  C   UNL     1       6.758 -32.244  13.217  1.00  0.00    -0.080 C 
ATOM     10  C   UNL     1       7.227 -32.980  11.988  1.00  0.00     0.039 C 
ENDBRANCH   6   7
ENDBRANCH   5   6
ENDBRANCH   3   5
ENDBRANCH   1   2
BRANCH   1  11
ATOM     11  C   UNL     1      10.757 -29.365  13.854  1.00  0.00     0.034 C 
BRANCH  11  12
ATOM     12  C   UNL     1      10.127 -29.916  12.586  1.00  0.00    -0.077 C 
ATOM     13  C   UNL     1      10.481 -31.106  12.047  1.00  0.00    -0.028 C 
ATOM     14  C   UNL     1       9.084 -29.093  11.875  1.00  0.00     0.039 C 
BRANCH  13  15
ATOM     15  C   UNL     1      11.452 -32.079  12.665  1.00  0.00     0.035 C 
BRANCH  15  16
ATOM     16  C   UNL     1      10.750 -32.958  13.705  1.00  0.00     0.079 C 
BRANCH  16  17
ATOM     17  C   UNL     1      10.862 -34.413  13.335  1.00  0.00     0.130 C 
ATOM     18  O   UNL     1       9.860 -35.029  13.004  1.00  0.00    -0.300 OA
ATOM     19  C   UNL     1      12.183 -35.125  13.352  1.00  0.00     0.087 C 
ENDBRANCH  16  17
ENDBRANCH  15  16
ENDBRANCH  13  15
ENDBRANCH  11  12
ENDBRANCH   1  11
TORSDOF 9
ENDMDL
MODEL 9
REMARK VINA RESULT:    -3.783      1.885      4.753
REMARK INTER + INTRA:          -7.615
REMARK INTER:                  -5.842
REMARK INTRA:                  -1.773
REMARK UNBOUND:                -1.841
REMARK SMILES CC(=O)CCC=C(C)CCC=C(C)CCC=C(C)C
REMARK SMILES IDX 10 1 11 2 12 3 13 4 14 5 15 6 16 7 18 8 17 9 19 10 9 11 7 12
REMARK SMILES IDX 6 13 8 14 5 15 4 16 2 17 3 18 1 19
REMARK H PARENT
REMARK Flexibility Score: inf
ROOT
ATOM      1  C   UNL     1       9.074 -29.180  15.593  1.00  0.00     0.032 C 
ENDROOT
BRANCH   1   2
ATOM      2  C   UNL     1       9.440 -29.912  14.324  1.00  0.00    -0.028 C 
ATOM      3  C   UNL     1      10.579 -29.707  13.624  1.00  0.00    -0.077 C 
ATOM      4  C   UNL     1      11.642 -28.743  14.092  1.00  0.00     0.039 C 
BRANCH   3   5
ATOM      5  C   UNL     1      10.802 -30.480  12.339  1.00  0.00     0.034 C 
BRANCH   5   6
ATOM      6  C   UNL     1      10.168 -31.876  12.396  1.00  0.00     0.032 C 
BRANCH   6   7
ATOM      7  C   UNL     1      11.104 -32.888  13.014  1.00  0.00    -0.028 C 
ATOM      8  C   UNL     1      10.009 -34.840  11.890  1.00  0.00     0.039 C 
ATOM      9  C   UNL     1      11.026 -34.223  12.821  1.00  0.00    -0.080 C 
ATOM     10  C   UNL     1      12.000 -35.112  13.552  1.00  0.00     0.039 C 
ENDBRANCH   6   7
ENDBRANCH   5   6
ENDBRANCH   3   5
ENDBRANCH   1   2
BRANCH   1  11
ATOM     11  C   UNL     1       7.718 -29.645  16.146  1.00  0.00     0.034 C 
BRANCH  11  12
ATOM     12  C   UNL     1       7.851 -30.249  17.533  1.00  0.00    -0.077 C 
ATOM     13  C   UNL     1       7.441 -31.504  17.831  1.00  0.00    -0.028 C 
ATOM     14  C   UNL     1       8.438 -29.409  18.638  1.00  0.00     0.039 C 
BRANCH  13  15
ATOM     15  C   UNL     1       6.900 -32.494  16.831  1.00  0.00     0.035 C 
BRANCH  15  16
ATOM     16  C   UNL     1       8.019 -33.014  15.923  1.00  0.00     0.079 C 
BRANCH  16  17
ATOM     17  C   UNL     1       7.460 -33.496  14.611  1.00  0.00     0.130 C 
ATOM     18  O   UNL     1       7.498 -34.687  14.342  1.00  0.00    -0.300 OA
ATOM     19  C   UNL     1       6.843 -32.546  13.627  1.00  0.00     0.087 C 
ENDBRANCH  16  17
ENDBRANCH  15  16
ENDBRANCH  13  15
ENDBRANCH  11  12
ENDBRANCH   1  11
TORSDOF 9
ENDMDL
