MODEL 1
REMARK VINA RESULT:    -4.938      0.000      0.000
REMARK INTER + INTRA:          -7.378
REMARK INTER:                  -6.958
REMARK INTRA:                  -0.420
REMARK UNBOUND:                -0.420
REMARK SMILES C=CCCCCCCC(=O)[O-]
REMARK SMILES IDX 6 1 7 2 8 3 9 4 10 5 11 6 5 7 4 8 3 9 2 10 1 11
REMARK H PARENT
REMARK Flexibility Score: inf
ROOT
ATOM      1  C   UNL     1      -1.066  45.778   2.894  1.00  0.00     0.000 C 
ENDROOT
BRANCH   1   2
ATOM      2  C   UNL     1      -1.891  45.547   4.174  1.00  0.00     0.006 C 
BRANCH   2   3
ATOM      3  C   UNL     1      -3.169  44.718   3.965  1.00  0.00     0.053 C 
BRANCH   3   4
ATOM      4  C   UNL     1      -4.211  45.020   4.999  1.00  0.00     0.041 C 
ATOM      5  O   UNL     1      -5.421  45.118   4.669  1.00  0.00    -0.550 OA
ATOM      6  O   UNL     1      -3.846  45.158   6.333  1.00  0.00    -0.550 OA
ENDBRANCH   3   4
ENDBRANCH   2   3
ENDBRANCH   1   2
BRANCH   1   7
ATOM      7  C   UNL     1      -1.930  45.767   1.621  1.00  0.00     0.000 C 
BRANCH   7   8
ATOM      8  C   UNL     1      -1.145  45.314   0.379  1.00  0.00     0.004 C 
BRANCH   8   9
ATOM      9  C   UNL     1      -0.146  44.188   0.688  1.00  0.00     0.027 C 
BRANCH   9  10
ATOM     10  C   UNL     1       1.266  44.617   0.394  1.00  0.00    -0.035 C 
ATOM     11  C   UNL     1       2.159  44.813   1.369  1.00  0.00     0.004 C 
ENDBRANCH   9  10
ENDBRANCH   8   9
ENDBRANCH   7   8
ENDBRANCH   1   7
TORSDOF 7
ENDMDL
MODEL 2
REMARK VINA RESULT:    -4.929      2.235      3.095
REMARK INTER + INTRA:          -7.366
REMARK INTER:                  -7.200
REMARK INTRA:                  -0.167
REMARK UNBOUND:                -0.420
REMARK SMILES C=CCCCCCCC(=O)[O-]
REMARK SMILES IDX 6 1 7 2 8 3 9 4 10 5 11 6 5 7 4 8 3 9 2 10 1 11
REMARK H PARENT
REMARK Flexibility Score: inf
ROOT
ATOM      1  C   UNL     1      -0.304  46.018   3.018  1.00  0.00     0.000 C 
ENDROOT
BRANCH   1   2
ATOM      2  C   UNL     1      -1.360  45.670   4.084  1.00  0.00     0.006 C 
BRANCH   2   3
ATOM      3  C   UNL     1      -2.678  45.119   3.516  1.00  0.00     0.053 C 
BRANCH   3   4
ATOM      4  C   UNL     1      -3.606  44.655   4.597  1.00  0.00     0.041 C 
ATOM      5  O   UNL     1      -4.160  45.490   5.358  1.00  0.00    -0.550 OA
ATOM      6  O   UNL     1      -3.886  43.301   4.739  1.00  0.00    -0.550 OA
ENDBRANCH   3   4
ENDBRANCH   2   3
ENDBRANCH   1   2
BRANCH   1   7
ATOM      7  C   UNL     1       1.115  46.130   3.603  1.00  0.00     0.000 C 
BRANCH   7   8
ATOM      8  C   UNL     1       2.196  45.641   2.624  1.00  0.00     0.004 C 
BRANCH   8   9
ATOM      9  C   UNL     1       3.617  45.796   3.189  1.00  0.00     0.027 C 
BRANCH   9  10
ATOM     10  C   UNL     1       3.933  44.702   4.173  1.00  0.00    -0.035 C 
ATOM     11  C   UNL     1       5.046  44.719   4.911  1.00  0.00     0.004 C 
ENDBRANCH   9  10
ENDBRANCH   8   9
ENDBRANCH   7   8
ENDBRANCH   1   7
TORSDOF 7
ENDMDL
MODEL 3
REMARK VINA RESULT:    -4.892      1.478      2.540
REMARK INTER + INTRA:          -7.313
REMARK INTER:                  -6.660
REMARK INTRA:                  -0.653
REMARK UNBOUND:                -0.420
REMARK SMILES C=CCCCCCCC(=O)[O-]
REMARK SMILES IDX 6 1 7 2 8 3 9 4 10 5 11 6 5 7 4 8 3 9 2 10 1 11
REMARK H PARENT
REMARK Flexibility Score: inf
ROOT
ATOM      1  C   UNL     1      -1.198  45.216   0.426  1.00  0.00     0.000 C 
ENDROOT
BRANCH   1   2
ATOM      2  C   UNL     1      -1.458  44.738   1.866  1.00  0.00     0.006 C 
BRANCH   2   3
ATOM      3  C   UNL     1      -1.761  45.867   2.865  1.00  0.00     0.053 C 
BRANCH   3   4
ATOM      4  C   UNL     1      -2.089  45.339   4.229  1.00  0.00     0.041 C 
ATOM      5  O   UNL     1      -3.114  44.629   4.403  1.00  0.00    -0.550 OA
ATOM      6  O   UNL     1      -1.243  45.603   5.299  1.00  0.00    -0.550 OA
ENDBRANCH   3   4
ENDBRANCH   2   3
ENDBRANCH   1   2
BRANCH   1   7
ATOM      7  C   UNL     1       0.106  44.650  -0.162  1.00  0.00     0.000 C 
BRANCH   7   8
ATOM      8  C   UNL     1       1.092  44.189   0.925  1.00  0.00     0.004 C 
BRANCH   8   9
ATOM      9  C   UNL     1       2.246  45.182   1.136  1.00  0.00     0.027 C 
BRANCH   9  10
ATOM     10  C   UNL     1       2.567  45.338   2.598  1.00  0.00    -0.035 C 
ATOM     11  C   UNL     1       1.796  46.063   3.414  1.00  0.00     0.004 C 
ENDBRANCH   9  10
ENDBRANCH   8   9
ENDBRANCH   7   8
ENDBRANCH   1   7
TORSDOF 7
ENDMDL
MODEL 4
REMARK VINA RESULT:    -4.887      3.985      5.443
REMARK INTER + INTRA:          -7.307
REMARK INTER:                  -6.831
REMARK INTRA:                  -0.475
REMARK UNBOUND:                -0.420
REMARK SMILES C=CCCCCCCC(=O)[O-]
REMARK SMILES IDX 6 1 7 2 8 3 9 4 10 5 11 6 5 7 4 8 3 9 2 10 1 11
REMARK H PARENT
REMARK Flexibility Score: inf
ROOT
ATOM      1  C   UNL     1      -3.194  44.940   1.179  1.00  0.00     0.000 C 
ENDROOT
BRANCH   1   2
ATOM      2  C   UNL     1      -2.298  45.752   0.226  1.00  0.00     0.006 C 
BRANCH   2   3
ATOM      3  C   UNL     1      -1.118  44.962  -0.365  1.00  0.00     0.053 C 
BRANCH   3   4
ATOM      4  C   UNL     1      -0.900  45.276  -1.814  1.00  0.00     0.041 C 
ATOM      5  O   UNL     1       0.053  44.745  -2.441  1.00  0.00    -0.550 OA
ATOM      6  O   UNL     1      -1.772  46.130  -2.479  1.00  0.00    -0.550 OA
ENDBRANCH   3   4
ENDBRANCH   2   3
ENDBRANCH   1   2
BRANCH   1   7
ATOM      7  C   UNL     1      -2.413  44.339   2.360  1.00  0.00     0.000 C 
BRANCH   7   8
ATOM      8  C   UNL     1      -2.769  45.001   3.701  1.00  0.00     0.004 C 
BRANCH   8   9
ATOM      9  C   UNL     1      -1.565  45.695   4.357  1.00  0.00     0.027 C 
BRANCH   9  10
ATOM     10  C   UNL     1      -0.514  46.038   3.335  1.00  0.00    -0.035 C 
ATOM     11  C   UNL     1       0.739  46.340   3.689  1.00  0.00     0.004 C 
ENDBRANCH   9  10
ENDBRANCH   8   9
ENDBRANCH   7   8
ENDBRANCH   1   7
TORSDOF 7
ENDMDL
MODEL 5
REMARK VINA RESULT:    -4.864      1.606      2.125
REMARK INTER + INTRA:          -7.274
REMARK INTER:                  -6.815
REMARK INTRA:                  -0.459
REMARK UNBOUND:                -0.420
REMARK SMILES C=CCCCCCCC(=O)[O-]
REMARK SMILES IDX 6 1 7 2 8 3 9 4 10 5 11 6 5 7 4 8 3 9 2 10 1 11
REMARK H PARENT
REMARK Flexibility Score: inf
ROOT
ATOM      1  C   UNL     1      -3.181  45.165   1.383  1.00  0.00     0.000 C 
ENDROOT
BRANCH   1   2
ATOM      2  C   UNL     1      -2.701  44.326   2.582  1.00  0.00     0.006 C 
BRANCH   2   3
ATOM      3  C   UNL     1      -3.100  44.893   3.954  1.00  0.00     0.053 C 
BRANCH   3   4
ATOM      4  C   UNL     1      -1.949  45.560   4.645  1.00  0.00     0.041 C 
ATOM      5  O   UNL     1      -0.889  45.806   4.014  1.00  0.00    -0.550 OA
ATOM      6  O   UNL     1      -2.064  45.940   5.977  1.00  0.00    -0.550 OA
ENDBRANCH   3   4
ENDBRANCH   2   3
ENDBRANCH   1   2
BRANCH   1   7
ATOM      7  C   UNL     1      -2.035  45.927   0.695  1.00  0.00     0.000 C 
BRANCH   7   8
ATOM      8  C   UNL     1      -1.731  45.390  -0.713  1.00  0.00     0.004 C 
BRANCH   8   9
ATOM      9  C   UNL     1      -0.318  44.795  -0.827  1.00  0.00     0.027 C 
BRANCH   9  10
ATOM     10  C   UNL     1       0.265  44.516   0.532  1.00  0.00    -0.035 C 
ATOM     11  C   UNL     1       1.580  44.582   0.761  1.00  0.00     0.004 C 
ENDBRANCH   9  10
ENDBRANCH   8   9
ENDBRANCH   7   8
ENDBRANCH   1   7
TORSDOF 7
ENDMDL
MODEL 6
REMARK VINA RESULT:    -4.751      3.371      5.415
REMARK INTER + INTRA:          -7.115
REMARK INTER:                  -6.512
REMARK INTRA:                  -0.603
REMARK UNBOUND:                -0.420
REMARK SMILES C=CCCCCCCC(=O)[O-]
REMARK SMILES IDX 6 1 7 2 8 3 9 4 10 5 11 6 5 7 4 8 3 9 2 10 1 11
REMARK H PARENT
REMARK Flexibility Score: inf
ROOT
ATOM      1  C   UNL     1       1.893  44.349   1.148  1.00  0.00     0.000 C 
ENDROOT
BRANCH   1   2
ATOM      2  C   UNL     1       1.094  44.873  -0.059  1.00  0.00     0.006 C 
BRANCH   2   3
ATOM      3  C   UNL     1      -0.417  44.596   0.011  1.00  0.00     0.053 C 
BRANCH   3   4
ATOM      4  C   UNL     1      -1.167  45.288  -1.087  1.00  0.00     0.041 C 
ATOM      5  O   UNL     1      -0.771  45.201  -2.278  1.00  0.00    -0.550 OA
ATOM      6  O   UNL     1      -2.325  45.999  -0.795  1.00  0.00    -0.550 OA
ENDBRANCH   3   4
ENDBRANCH   2   3
ENDBRANCH   1   2
BRANCH   1   7
ATOM      7  C   UNL     1       2.516  45.480   1.985  1.00  0.00     0.000 C 
BRANCH   7   8
ATOM      8  C   UNL     1       1.874  45.606   3.377  1.00  0.00     0.004 C 
BRANCH   8   9
ATOM      9  C   UNL     1       0.638  46.519   3.377  1.00  0.00     0.027 C 
BRANCH   9  10
ATOM     10  C   UNL     1      -0.549  45.825   3.990  1.00  0.00    -0.035 C 
ATOM     11  C   UNL     1      -1.670  45.604   3.296  1.00  0.00     0.004 C 
ENDBRANCH   9  10
ENDBRANCH   8   9
ENDBRANCH   7   8
ENDBRANCH   1   7
TORSDOF 7
ENDMDL
MODEL 7
REMARK VINA RESULT:    -4.707      1.789      3.182
REMARK INTER + INTRA:          -7.053
REMARK INTER:                  -6.711
REMARK INTRA:                  -0.342
REMARK UNBOUND:                -0.420
REMARK SMILES C=CCCCCCCC(=O)[O-]
REMARK SMILES IDX 6 1 7 2 8 3 9 4 10 5 11 6 5 7 4 8 3 9 2 10 1 11
REMARK H PARENT
REMARK Flexibility Score: inf
ROOT
ATOM      1  C   UNL     1      -0.175  44.945   0.648  1.00  0.00     0.000 C 
ENDROOT
BRANCH   1   2
ATOM      2  C   UNL     1      -1.244  44.757   1.740  1.00  0.00     0.006 C 
BRANCH   2   3
ATOM      3  C   UNL     1      -1.139  45.749   2.910  1.00  0.00     0.053 C 
BRANCH   3   4
ATOM      4  C   UNL     1      -1.980  45.334   4.079  1.00  0.00     0.041 C 
ATOM      5  O   UNL     1      -1.628  45.629   5.250  1.00  0.00    -0.550 OA
ATOM      6  O   UNL     1      -3.172  44.650   3.869  1.00  0.00    -0.550 OA
ENDBRANCH   3   4
ENDBRANCH   2   3
ENDBRANCH   1   2
BRANCH   1   7
ATOM      7  C   UNL     1       1.145  44.227   0.980  1.00  0.00     0.000 C 
BRANCH   7   8
ATOM      8  C   UNL     1       2.302  45.207   1.235  1.00  0.00     0.004 C 
BRANCH   8   9
ATOM      9  C   UNL     1       2.497  45.516   2.728  1.00  0.00     0.027 C 
BRANCH   9  10
ATOM     10  C   UNL     1       3.828  46.171   2.978  1.00  0.00    -0.035 C 
ATOM     11  C   UNL     1       4.334  47.079   2.138  1.00  0.00     0.004 C 
ENDBRANCH   9  10
ENDBRANCH   8   9
ENDBRANCH   7   8
ENDBRANCH   1   7
TORSDOF 7
ENDMDL
MODEL 8
REMARK VINA RESULT:    -4.682      9.523     11.448
REMARK INTER + INTRA:          -7.018
REMARK INTER:                  -6.600
REMARK INTRA:                  -0.418
REMARK UNBOUND:                -0.420
REMARK SMILES C=CCCCCCCC(=O)[O-]
REMARK SMILES IDX 6 1 7 2 8 3 9 4 10 5 11 6 5 7 4 8 3 9 2 10 1 11
REMARK H PARENT
REMARK Flexibility Score: inf
ROOT
ATOM      1  C   UNL     1       8.444  46.346  -3.966  1.00  0.00     0.000 C 
ENDROOT
BRANCH   1   2
ATOM      2  C   UNL     1       7.406  46.527  -5.089  1.00  0.00     0.006 C 
BRANCH   2   3
ATOM      3  C   UNL     1       6.856  45.211  -5.663  1.00  0.00     0.053 C 
BRANCH   3   4
ATOM      4  C   UNL     1       5.776  44.629  -4.803  1.00  0.00     0.041 C 
ATOM      5  O   UNL     1       4.778  45.325  -4.481  1.00  0.00    -0.550 OA
ATOM      6  O   UNL     1       5.857  43.306  -4.386  1.00  0.00    -0.550 OA
ENDBRANCH   3   4
ENDBRANCH   2   3
ENDBRANCH   1   2
BRANCH   1   7
ATOM      7  C   UNL     1       8.064  47.097  -2.679  1.00  0.00     0.000 C 
BRANCH   7   8
ATOM      8  C   UNL     1       6.787  47.938  -2.841  1.00  0.00     0.004 C 
BRANCH   8   9
ATOM      9  C   UNL     1       6.662  49.036  -1.773  1.00  0.00     0.027 C 
BRANCH   9  10
ATOM     10  C   UNL     1       5.486  48.783  -0.868  1.00  0.00    -0.035 C 
ATOM     11  C   UNL     1       5.620  48.722   0.460  1.00  0.00     0.004 C 
ENDBRANCH   9  10
ENDBRANCH   8   9
ENDBRANCH   7   8
ENDBRANCH   1   7
TORSDOF 7
ENDMDL
MODEL 9
REMARK VINA RESULT:    -4.620      7.357      8.463
REMARK INTER + INTRA:          -6.930
REMARK INTER:                  -6.522
REMARK INTRA:                  -0.408
REMARK UNBOUND:                -0.420
REMARK SMILES C=CCCCCCCC(=O)[O-]
REMARK SMILES IDX 6 1 7 2 8 3 9 4 10 5 11 6 5 7 4 8 3 9 2 10 1 11
REMARK H PARENT
REMARK Flexibility Score: inf
ROOT
ATOM      1  C   UNL     1       2.938  45.733  11.633  1.00  0.00     0.000 C 
ENDROOT
BRANCH   1   2
ATOM      2  C   UNL     1       1.509  45.217  11.884  1.00  0.00     0.006 C 
BRANCH   2   3
ATOM      3  C   UNL     1       0.431  46.313  11.890  1.00  0.00     0.053 C 
BRANCH   3   4
ATOM      4  C   UNL     1      -0.016  46.671  10.505  1.00  0.00     0.041 C 
ATOM      5  O   UNL     1      -0.546  45.802   9.765  1.00  0.00    -0.550 OA
ATOM      6  O   UNL     1       0.122  47.976  10.046  1.00  0.00    -0.550 OA
ENDBRANCH   3   4
ENDBRANCH   2   3
ENDBRANCH   1   2
BRANCH   1   7
ATOM      7  C   UNL     1       3.665  44.952  10.525  1.00  0.00     0.000 C 
BRANCH   7   8
ATOM      8  C   UNL     1       2.872  43.724  10.050  1.00  0.00     0.004 C 
BRANCH   8   9
ATOM      9  C   UNL     1       3.661  42.859   9.055  1.00  0.00     0.027 C 
BRANCH   9  10
ATOM     10  C   UNL     1       4.156  43.680   7.895  1.00  0.00    -0.035 C 
ATOM     11  C   UNL     1       3.818  43.393   6.634  1.00  0.00     0.004 C 
ENDBRANCH   9  10
ENDBRANCH   8   9
ENDBRANCH   7   8
ENDBRANCH   1   7
TORSDOF 7
ENDMDL
