MODEL 1
REMARK VINA RESULT:    -3.748      0.000      0.000
REMARK INTER + INTRA:          -4.936
REMARK INTER:                  -5.282
REMARK INTRA:                   0.347
REMARK UNBOUND:                 0.347
REMARK SMILES CC1=CCC(=C(C)C)C(=O)CC(C)=CCC1
REMARK SMILES IDX 12 1 14 2 13 3 15 4 16 5 2 6 1 7 3 8 11 10 9 11 10 12 5 13
REMARK SMILES IDX 6 14 7 15 8 16 4 17
REMARK H PARENT
REMARK Flexibility Score: 60.00
ROOT
ATOM      1  C   UNL     1      -9.415  -4.685  19.148  1.00  0.00    -0.070 C 
ATOM      2  C   UNL     1      -8.185  -5.088  19.540  1.00  0.00    -0.027 C 
ATOM      3  C   UNL     1      -9.762  -3.224  19.291  1.00  0.00     0.039 C 
ENDROOT
BRANCH   2   4
ATOM      4  C   UNL     1      -7.647  -6.496  19.412  1.00  0.00     0.032 C 
BRANCH   4   5
ATOM      5  C   UNL     1      -7.298  -6.840  17.957  1.00  0.00     0.034 C 
BRANCH   5   6
ATOM      6  C   UNL     1      -7.794  -8.211  17.520  1.00  0.00    -0.077 C 
ATOM      7  C   UNL     1      -7.271  -9.434  18.232  1.00  0.00     0.039 C 
ATOM      8  C   UNL     1      -8.699  -8.396  16.532  1.00  0.00    -0.023 CG0
ATOM      9  G   UNL     1      -9.281  -7.306  15.662  1.00  0.00     0.000 G0
ENDBRANCH   5   6
ENDBRANCH   4   5
ENDBRANCH   2   4
BRANCH   1  10
ATOM     10  C   UNL     1     -10.452  -5.633  18.577  1.00  0.00     0.111 C 
BRANCH  10  11
ATOM     11  C   UNL     1     -10.528  -5.516  17.081  1.00  0.00     0.163 C 
ATOM     12  O   UNL     1     -10.511  -4.374  16.548  1.00  0.00    -0.294 OA
BRANCH  11  13
ATOM     13  C   UNL     1     -10.598  -6.722  16.216  1.00  0.00    -0.002 C 
ATOM     14  C   UNL     1     -11.800  -7.288  15.924  1.00  0.00    -0.069 C 
ATOM     15  C   UNL     1     -11.888  -8.545  15.089  1.00  0.00     0.039 C 
ATOM     16  C   UNL     1     -13.095  -6.660  16.390  1.00  0.00     0.039 C 
BRANCH  13  17
ATOM     17  C   UNL     1      -9.307  -7.312  15.658  1.00  0.00     0.066 CG0
ATOM     18  G   UNL     1      -8.710  -8.397  16.525  1.00  0.00     0.000 G0
ENDBRANCH  13  17
ENDBRANCH  11  13
ENDBRANCH  10  11
ENDBRANCH   1  10
TORSDOF 0
ENDMDL
MODEL 2
REMARK VINA RESULT:    -3.712      1.727      4.047
REMARK INTER + INTRA:          -4.884
REMARK INTER:                  -5.197
REMARK INTRA:                   0.313
REMARK UNBOUND:                 0.347
REMARK SMILES CC1=CCC(=C(C)C)C(=O)CC(C)=CCC1
REMARK SMILES IDX 12 1 14 2 13 3 15 4 16 5 2 6 1 7 3 8 11 10 9 11 10 12 5 13
REMARK SMILES IDX 6 14 7 15 8 16 4 17
REMARK H PARENT
REMARK Flexibility Score: 60.00
ROOT
ATOM      1  C   UNL     1     -10.122  -7.955  15.708  1.00  0.00    -0.070 C 
ATOM      2  C   UNL     1      -9.070  -8.794  15.858  1.00  0.00    -0.027 C 
ATOM      3  C   UNL     1     -11.450  -8.548  15.312  1.00  0.00     0.039 C 
ENDROOT
BRANCH   2   4
ATOM      4  C   UNL     1      -7.685  -8.384  16.307  1.00  0.00     0.032 C 
BRANCH   4   5
ATOM      5  C   UNL     1      -7.644  -8.085  17.813  1.00  0.00     0.034 C 
BRANCH   5   6
ATOM      6  C   UNL     1      -6.928  -6.787  18.156  1.00  0.00    -0.077 C 
ATOM      7  C   UNL     1      -5.456  -6.666  17.850  1.00  0.00     0.039 C 
ATOM      8  C   UNL     1      -7.546  -5.719  18.709  1.00  0.00    -0.023 CG0
ATOM      9  G   UNL     1      -8.991  -5.673  19.149  1.00  0.00     0.000 G0
ENDBRANCH   5   6
ENDBRANCH   4   5
ENDBRANCH   2   4
BRANCH   1  10
ATOM     10  C   UNL     1     -10.019  -6.457  15.918  1.00  0.00     0.111 C 
BRANCH  10  11
ATOM     11  C   UNL     1     -10.666  -6.046  17.211  1.00  0.00     0.163 C 
ATOM     12  O   UNL     1     -11.795  -6.517  17.515  1.00  0.00    -0.294 OA
BRANCH  11  13
ATOM     13  C   UNL     1      -9.991  -5.113  18.148  1.00  0.00    -0.002 C 
ATOM     14  C   UNL     1     -10.254  -3.778  18.098  1.00  0.00    -0.069 C 
ATOM     15  C   UNL     1      -9.538  -2.807  19.008  1.00  0.00     0.039 C 
ATOM     16  C   UNL     1     -11.300  -3.222  17.158  1.00  0.00     0.039 C 
BRANCH  13  17
ATOM     17  C   UNL     1      -9.003  -5.670  19.168  1.00  0.00     0.066 CG0
ATOM     18  G   UNL     1      -7.575  -5.702  18.677  1.00  0.00     0.000 G0
ENDBRANCH  13  17
ENDBRANCH  11  13
ENDBRANCH  10  11
ENDBRANCH   1  10
TORSDOF 0
ENDMDL
MODEL 3
REMARK VINA RESULT:    -3.633      1.673      3.435
REMARK INTER + INTRA:          -4.773
REMARK INTER:                  -5.391
REMARK INTRA:                   0.618
REMARK UNBOUND:                 0.347
REMARK SMILES CC1=CCC(=C(C)C)C(=O)CC(C)=CCC1
REMARK SMILES IDX 12 1 14 2 13 3 15 4 16 5 2 6 1 7 3 8 11 10 9 11 10 12 5 13
REMARK SMILES IDX 6 14 7 15 8 16 4 17
REMARK H PARENT
REMARK Flexibility Score: 60.00
ROOT
ATOM      1  C   UNL     1      -6.084  -7.567  18.739  1.00  0.00    -0.070 C 
ATOM      2  C   UNL     1      -6.354  -8.836  18.357  1.00  0.00    -0.027 C 
ATOM      3  C   UNL     1      -4.648  -7.108  18.712  1.00  0.00     0.039 C 
ENDROOT
BRANCH   2   4
ATOM      4  C   UNL     1      -7.736  -9.444  18.265  1.00  0.00     0.032 C 
BRANCH   4   5
ATOM      5  C   UNL     1      -8.114  -9.774  16.813  1.00  0.00     0.034 C 
BRANCH   5   6
ATOM      6  C   UNL     1      -7.726  -8.686  15.822  1.00  0.00    -0.077 C 
ATOM      7  C   UNL     1      -6.540  -8.915  14.918  1.00  0.00     0.039 C 
ATOM      8  C   UNL     1      -8.402  -7.523  15.691  1.00  0.00    -0.023 CG0
ATOM      9  G   UNL     1      -9.566  -7.084  16.548  1.00  0.00     0.000 G0
ENDBRANCH   5   6
ENDBRANCH   4   5
ENDBRANCH   2   4
BRANCH   1  10
ATOM     10  C   UNL     1      -7.157  -6.595  19.192  1.00  0.00     0.111 C 
BRANCH  10  11
ATOM     11  C   UNL     1      -7.778  -5.889  18.020  1.00  0.00     0.163 C 
ATOM     12  O   UNL     1      -7.068  -5.126  17.310  1.00  0.00    -0.294 OA
BRANCH  11  13
ATOM     13  C   UNL     1      -9.206  -6.092  17.666  1.00  0.00    -0.002 C 
ATOM     14  C   UNL     1     -10.180  -5.400  18.318  1.00  0.00    -0.069 C 
ATOM     15  C   UNL     1     -11.641  -5.631  18.008  1.00  0.00     0.039 C 
ATOM     16  C   UNL     1      -9.836  -4.347  19.347  1.00  0.00     0.039 C 
BRANCH  13  17
ATOM     17  C   UNL     1      -9.565  -7.081  16.562  1.00  0.00     0.066 CG0
ATOM     18  G   UNL     1      -8.387  -7.496  15.711  1.00  0.00     0.000 G0
ENDBRANCH  13  17
ENDBRANCH  11  13
ENDBRANCH  10  11
ENDBRANCH   1  10
TORSDOF 0
ENDMDL
MODEL 4
REMARK VINA RESULT:    -3.502     20.203     21.757
REMARK INTER + INTRA:          -4.589
REMARK INTER:                  -5.102
REMARK INTRA:                   0.513
REMARK UNBOUND:                 0.347
REMARK SMILES CC1=CCC(=C(C)C)C(=O)CC(C)=CCC1
REMARK SMILES IDX 12 1 14 2 13 3 15 4 16 5 2 6 1 7 3 8 11 10 9 11 10 12 5 13
REMARK SMILES IDX 6 14 7 15 8 16 4 17
REMARK H PARENT
REMARK Flexibility Score: 60.00
ROOT
ATOM      1  C   UNL     1       2.238   4.287  29.906  1.00  0.00    -0.070 C 
ATOM      2  C   UNL     1       1.758   5.544  30.051  1.00  0.00    -0.027 C 
ATOM      3  C   UNL     1       2.279   3.399  31.124  1.00  0.00     0.039 C 
ENDROOT
BRANCH   2   4
ATOM      4  C   UNL     1       1.588   6.547  28.931  1.00  0.00     0.032 C 
BRANCH   4   5
ATOM      5  C   UNL     1       2.422   7.813  29.174  1.00  0.00     0.034 C 
BRANCH   5   6
ATOM      6  C   UNL     1       3.823   7.528  29.697  1.00  0.00    -0.077 C 
ATOM      7  C   UNL     1       4.190   7.995  31.084  1.00  0.00     0.039 C 
ATOM      8  C   UNL     1       4.760   6.856  28.990  1.00  0.00    -0.023 CG0
ATOM      9  G   UNL     1       4.604   6.374  27.566  1.00  0.00     0.000 G0
ENDBRANCH   5   6
ENDBRANCH   4   5
ENDBRANCH   2   4
BRANCH   1  10
ATOM     10  C   UNL     1       2.734   3.741  28.581  1.00  0.00     0.111 C 
BRANCH  10  11
ATOM     11  C   UNL     1       4.218   3.932  28.439  1.00  0.00     0.163 C 
ATOM     12  O   UNL     1       5.000   3.292  29.193  1.00  0.00    -0.294 OA
BRANCH  11  13
ATOM     13  C   UNL     1       4.783   4.842  27.409  1.00  0.00    -0.002 C 
ATOM     14  C   UNL     1       5.450   4.336  26.336  1.00  0.00    -0.069 C 
ATOM     15  C   UNL     1       6.076   5.247  25.306  1.00  0.00     0.039 C 
ATOM     16  C   UNL     1       5.554   2.843  26.113  1.00  0.00     0.039 C 
BRANCH  13  17
ATOM     17  C   UNL     1       4.602   6.348  27.569  1.00  0.00     0.066 CG0
ATOM     18  G   UNL     1       4.759   6.831  28.992  1.00  0.00     0.000 G0
ENDBRANCH  13  17
ENDBRANCH  11  13
ENDBRANCH  10  11
ENDBRANCH   1  10
TORSDOF 0
ENDMDL
MODEL 5
REMARK VINA RESULT:    -3.449      1.947      4.818
REMARK INTER + INTRA:          -4.514
REMARK INTER:                  -4.804
REMARK INTRA:                   0.290
REMARK UNBOUND:                 0.347
REMARK SMILES CC1=CCC(=C(C)C)C(=O)CC(C)=CCC1
REMARK SMILES IDX 12 1 14 2 13 3 15 4 16 5 2 6 1 7 3 8 11 10 9 11 10 12 5 13
REMARK SMILES IDX 6 14 7 15 8 16 4 17
REMARK H PARENT
REMARK Flexibility Score: 60.00
ROOT
ATOM      1  C   UNL     1     -11.390  -7.346  15.801  1.00  0.00    -0.070 C 
ATOM      2  C   UNL     1     -12.158  -6.669  16.686  1.00  0.00    -0.027 C 
ATOM      3  C   UNL     1     -11.971  -8.578  15.155  1.00  0.00     0.039 C 
ENDROOT
BRANCH   2   4
ATOM      4  C   UNL     1     -11.763  -5.384  17.380  1.00  0.00     0.032 C 
BRANCH   4   5
ATOM      5  C   UNL     1     -10.869  -5.651  18.600  1.00  0.00     0.034 C 
BRANCH   5   6
ATOM      6  C   UNL     1      -9.600  -4.812  18.620  1.00  0.00    -0.077 C 
ATOM      7  C   UNL     1      -9.721  -3.314  18.755  1.00  0.00     0.039 C 
ATOM      8  C   UNL     1      -8.357  -5.339  18.541  1.00  0.00    -0.023 CG0
ATOM      9  G   UNL     1      -8.037  -6.801  18.333  1.00  0.00     0.000 G0
ENDBRANCH   5   6
ENDBRANCH   4   5
ENDBRANCH   2   4
BRANCH   1  10
ATOM     10  C   UNL     1      -9.981  -6.921  15.437  1.00  0.00     0.111 C 
BRANCH  10  11
ATOM     11  C   UNL     1      -8.960  -7.791  16.116  1.00  0.00     0.163 C 
ATOM     12  O   UNL     1      -9.057  -9.044  16.025  1.00  0.00    -0.294 OA
BRANCH  11  13
ATOM     13  C   UNL     1      -7.826  -7.201  16.872  1.00  0.00    -0.002 C 
ATOM     14  C   UNL     1      -6.620  -7.018  16.268  1.00  0.00    -0.069 C 
ATOM     15  C   UNL     1      -5.439  -6.468  17.035  1.00  0.00     0.039 C 
ATOM     16  C   UNL     1      -6.427  -7.317  14.799  1.00  0.00     0.039 C 
BRANCH  13  17
ATOM     17  C   UNL     1      -8.031  -6.803  18.330  1.00  0.00     0.066 CG0
ATOM     18  G   UNL     1      -8.352  -5.339  18.521  1.00  0.00     0.000 G0
ENDBRANCH  13  17
ENDBRANCH  11  13
ENDBRANCH  10  11
ENDBRANCH   1  10
TORSDOF 0
ENDMDL
MODEL 6
REMARK VINA RESULT:    -3.379      1.964      3.789
REMARK INTER + INTRA:          -4.415
REMARK INTER:                  -4.955
REMARK INTRA:                   0.539
REMARK UNBOUND:                 0.347
REMARK SMILES CC1=CCC(=C(C)C)C(=O)CC(C)=CCC1
REMARK SMILES IDX 12 1 14 2 13 3 15 4 16 5 2 6 1 7 3 8 11 10 9 11 10 12 5 13
REMARK SMILES IDX 6 14 7 15 8 16 4 17
REMARK H PARENT
REMARK Flexibility Score: 60.00
ROOT
ATOM      1  C   UNL     1      -9.096  -8.653  15.552  1.00  0.00    -0.070 C 
ATOM      2  C   UNL     1      -8.587  -9.512  16.465  1.00  0.00    -0.027 C 
ATOM      3  C   UNL     1     -10.566  -8.748  15.230  1.00  0.00     0.039 C 
ENDROOT
BRANCH   2   4
ATOM      4  C   UNL     1      -7.155  -9.520  16.952  1.00  0.00     0.032 C 
BRANCH   4   5
ATOM      5  C   UNL     1      -7.062  -9.162  18.442  1.00  0.00     0.034 C 
BRANCH   5   6
ATOM      6  C   UNL     1      -6.522  -7.762  18.699  1.00  0.00    -0.077 C 
ATOM      7  C   UNL     1      -5.084  -7.605  19.126  1.00  0.00     0.039 C 
ATOM      8  C   UNL     1      -7.261  -6.640  18.547  1.00  0.00    -0.023 CG0
ATOM      9  G   UNL     1      -8.730  -6.598  18.197  1.00  0.00     0.000 G0
ENDBRANCH   5   6
ENDBRANCH   4   5
ENDBRANCH   2   4
BRANCH   1  10
ATOM     10  C   UNL     1      -8.255  -7.609  14.843  1.00  0.00     0.111 C 
BRANCH  10  11
ATOM     11  C   UNL     1      -8.090  -6.380  15.691  1.00  0.00     0.163 C 
ATOM     12  O   UNL     1      -7.146  -5.581  15.447  1.00  0.00    -0.294 OA
BRANCH  11  13
ATOM     13  C   UNL     1      -9.033  -6.074  16.797  1.00  0.00    -0.002 C 
ATOM     14  C   UNL     1     -10.160  -5.348  16.559  1.00  0.00    -0.069 C 
ATOM     15  C   UNL     1     -11.105  -4.984  17.680  1.00  0.00     0.039 C 
ATOM     16  C   UNL     1     -10.529  -4.915  15.158  1.00  0.00     0.039 C 
BRANCH  13  17
ATOM     17  C   UNL     1      -8.725  -6.587  18.200  1.00  0.00     0.066 CG0
ATOM     18  G   UNL     1      -7.249  -6.630  18.520  1.00  0.00     0.000 G0
ENDBRANCH  13  17
ENDBRANCH  11  13
ENDBRANCH  10  11
ENDBRANCH   1  10
TORSDOF 0
ENDMDL
MODEL 7
REMARK VINA RESULT:    -3.352      1.759      4.543
REMARK INTER + INTRA:          -4.377
REMARK INTER:                  -5.059
REMARK INTRA:                   0.681
REMARK UNBOUND:                 0.347
REMARK SMILES CC1=CCC(=C(C)C)C(=O)CC(C)=CCC1
REMARK SMILES IDX 12 1 14 2 13 3 15 4 16 5 2 6 1 7 3 8 11 10 9 11 10 12 5 13
REMARK SMILES IDX 6 14 7 15 8 16 4 17
REMARK H PARENT
REMARK Flexibility Score: 60.00
ROOT
ATOM      1  C   UNL     1      -7.403  -8.760  16.801  1.00  0.00    -0.070 C 
ATOM      2  C   UNL     1      -8.289  -9.516  16.112  1.00  0.00    -0.027 C 
ATOM      3  C   UNL     1      -7.151  -9.105  18.247  1.00  0.00     0.039 C 
ENDROOT
BRANCH   2   4
ATOM      4  C   UNL     1      -8.617  -9.352  14.644  1.00  0.00     0.032 C 
BRANCH   4   5
ATOM      5  C   UNL     1      -9.287  -8.000  14.361  1.00  0.00     0.034 C 
BRANCH   5   6
ATOM      6  C   UNL     1     -10.422  -7.671  15.320  1.00  0.00    -0.077 C 
ATOM      7  C   UNL     1     -11.651  -8.547  15.320  1.00  0.00     0.039 C 
ATOM      8  C   UNL     1     -10.384  -6.639  16.193  1.00  0.00    -0.023 CG0
ATOM      9  G   UNL     1      -9.276  -5.616  16.292  1.00  0.00     0.000 G0
ENDBRANCH   5   6
ENDBRANCH   4   5
ENDBRANCH   2   4
BRANCH   1  10
ATOM     10  C   UNL     1      -6.661  -7.589  16.186  1.00  0.00     0.111 C 
BRANCH  10  11
ATOM     11  C   UNL     1      -6.879  -6.332  16.980  1.00  0.00     0.163 C 
ATOM     12  O   UNL     1      -5.888  -5.622  17.300  1.00  0.00    -0.294 OA
BRANCH  11  13
ATOM     13  C   UNL     1      -8.244  -5.897  17.375  1.00  0.00    -0.002 C 
ATOM     14  C   UNL     1      -8.566  -5.758  18.689  1.00  0.00    -0.069 C 
ATOM     15  C   UNL     1      -9.963  -5.366  19.112  1.00  0.00     0.039 C 
ATOM     16  C   UNL     1      -7.530  -5.949  19.774  1.00  0.00     0.039 C 
BRANCH  13  17
ATOM     17  C   UNL     1      -9.274  -5.606  16.289  1.00  0.00     0.066 CG0
ATOM     18  G   UNL     1     -10.377  -6.635  16.206  1.00  0.00     0.000 G0
ENDBRANCH  13  17
ENDBRANCH  11  13
ENDBRANCH  10  11
ENDBRANCH   1  10
TORSDOF 0
ENDMDL
MODEL 8
REMARK VINA RESULT:    -3.308      1.609      3.947
REMARK INTER + INTRA:          -4.315
REMARK INTER:                  -4.854
REMARK INTRA:                   0.539
REMARK UNBOUND:                 0.347
REMARK SMILES CC1=CCC(=C(C)C)C(=O)CC(C)=CCC1
REMARK SMILES IDX 12 1 14 2 13 3 15 4 16 5 2 6 1 7 3 8 11 10 9 11 10 12 5 13
REMARK SMILES IDX 6 14 7 15 8 16 4 17
REMARK H PARENT
REMARK Flexibility Score: 60.00
ROOT
ATOM      1  C   UNL     1     -11.133  -5.268  16.255  1.00  0.00    -0.070 C 
ATOM      2  C   UNL     1     -11.405  -4.808  17.498  1.00  0.00    -0.027 C 
ATOM      3  C   UNL     1     -11.255  -4.306  15.100  1.00  0.00     0.039 C 
ENDROOT
BRANCH   2   4
ATOM      4  C   UNL     1     -11.277  -5.612  18.772  1.00  0.00     0.032 C 
BRANCH   4   5
ATOM      5  C   UNL     1     -10.140  -5.086  19.661  1.00  0.00     0.034 C 
BRANCH   5   6
ATOM      6  C   UNL     1      -8.908  -4.654  18.880  1.00  0.00    -0.077 C 
ATOM      7  C   UNL     1      -8.606  -3.181  18.756  1.00  0.00     0.039 C 
ATOM      8  C   UNL     1      -8.049  -5.524  18.302  1.00  0.00    -0.023 CG0
ATOM      9  G   UNL     1      -8.219  -7.025  18.258  1.00  0.00     0.000 G0
ENDBRANCH   5   6
ENDBRANCH   4   5
ENDBRANCH   2   4
BRANCH   1  10
ATOM     10  C   UNL     1     -10.717  -6.699  15.977  1.00  0.00     0.111 C 
BRANCH  10  11
ATOM     11  C   UNL     1      -9.221  -6.822  15.895  1.00  0.00     0.163 C 
ATOM     12  O   UNL     1      -8.599  -6.219  14.978  1.00  0.00    -0.294 OA
BRANCH  11  13
ATOM     13  C   UNL     1      -8.457  -7.620  16.888  1.00  0.00    -0.002 C 
ATOM     14  C   UNL     1      -7.981  -8.852  16.559  1.00  0.00    -0.069 C 
ATOM     15  C   UNL     1      -7.247  -9.700  17.572  1.00  0.00     0.039 C 
ATOM     16  C   UNL     1      -8.132  -9.401  15.158  1.00  0.00     0.039 C 
BRANCH  13  17
ATOM     17  C   UNL     1      -8.212  -7.040  18.277  1.00  0.00     0.066 CG0
ATOM     18  G   UNL     1      -8.051  -5.538  18.289  1.00  0.00     0.000 G0
ENDBRANCH  13  17
ENDBRANCH  11  13
ENDBRANCH  10  11
ENDBRANCH   1  10
TORSDOF 0
ENDMDL
MODEL 9
REMARK VINA RESULT:    -3.302      1.333      2.073
REMARK INTER + INTRA:          -4.307
REMARK INTER:                  -4.742
REMARK INTRA:                   0.435
REMARK UNBOUND:                 0.347
REMARK SMILES CC1=CCC(=C(C)C)C(=O)CC(C)=CCC1
REMARK SMILES IDX 12 1 14 2 13 3 15 4 16 5 2 6 1 7 3 8 11 10 9 11 10 12 5 13
REMARK SMILES IDX 6 14 7 15 8 16 4 17
REMARK H PARENT
REMARK Flexibility Score: 60.00
ROOT
ATOM      1  C   UNL     1     -10.643  -4.727  17.816  1.00  0.00    -0.070 C 
ATOM      2  C   UNL     1      -9.745  -4.489  18.799  1.00  0.00    -0.027 C 
ATOM      3  C   UNL     1     -11.356  -3.547  17.206  1.00  0.00     0.039 C 
ENDROOT
BRANCH   2   4
ATOM      4  C   UNL     1      -8.897  -5.541  19.479  1.00  0.00     0.032 C 
BRANCH   4   5
ATOM      5  C   UNL     1      -7.522  -5.681  18.809  1.00  0.00     0.034 C 
BRANCH   5   6
ATOM      6  C   UNL     1      -7.138  -7.121  18.502  1.00  0.00    -0.077 C 
ATOM      7  C   UNL     1      -6.532  -7.961  19.598  1.00  0.00     0.039 C 
ATOM      8  C   UNL     1      -7.329  -7.701  17.296  1.00  0.00    -0.023 CG0
ATOM      9  G   UNL     1      -7.855  -7.006  16.062  1.00  0.00     0.000 G0
ENDBRANCH   5   6
ENDBRANCH   4   5
ENDBRANCH   2   4
BRANCH   1  10
ATOM     10  C   UNL     1     -10.962  -6.120  17.309  1.00  0.00     0.111 C 
BRANCH  10  11
ATOM     11  C   UNL     1     -10.377  -6.347  15.944  1.00  0.00     0.163 C 
ATOM     12  O   UNL     1     -10.778  -5.649  14.974  1.00  0.00    -0.294 OA
BRANCH  11  13
ATOM     13  C   UNL     1      -9.315  -7.362  15.719  1.00  0.00    -0.002 C 
ATOM     14  C   UNL     1      -9.632  -8.586  15.216  1.00  0.00    -0.069 C 
ATOM     15  C   UNL     1      -8.574  -9.650  15.028  1.00  0.00     0.039 C 
ATOM     16  C   UNL     1     -11.045  -8.915  14.787  1.00  0.00     0.039 C 
BRANCH  13  17
ATOM     17  C   UNL     1      -7.870  -7.013  16.056  1.00  0.00     0.066 CG0
ATOM     18  G   UNL     1      -7.342  -7.722  17.281  1.00  0.00     0.000 G0
ENDBRANCH  13  17
ENDBRANCH  11  13
ENDBRANCH  10  11
ENDBRANCH   1  10
TORSDOF 0
ENDMDL
