MODEL 1
REMARK VINA RESULT:    -3.409      0.000      0.000
REMARK INTER + INTRA:          -4.048
REMARK INTER:                  -4.007
REMARK INTRA:                  -0.041
REMARK UNBOUND:                -0.041
REMARK SMILES O=C([O-])CCC(=O)[O-]
REMARK SMILES IDX 4 1 2 2 1 3 3 4 5 5 6 6 7 7 8 8
REMARK H PARENT
REMARK Flexibility Score: inf
ROOT
ATOM      1  C   UNL     1     -11.686  16.766 -19.880  1.00  0.00     0.059 C 
ENDROOT
BRANCH   1   2
ATOM      2  C   UNL     1     -11.984  15.382 -19.391  1.00  0.00     0.042 C 
ATOM      3  O   UNL     1     -12.839  14.671 -19.981  1.00  0.00    -0.550 OA
ATOM      4  O   UNL     1     -11.348  14.892 -18.257  1.00  0.00    -0.550 OA
ENDBRANCH   1   2
BRANCH   1   5
ATOM      5  C   UNL     1     -12.568  17.145 -21.074  1.00  0.00     0.059 C 
BRANCH   5   6
ATOM      6  C   UNL     1     -11.958  18.247 -21.884  1.00  0.00     0.042 C 
ATOM      7  O   UNL     1     -12.515  18.635 -22.946  1.00  0.00    -0.550 OA
ATOM      8  O   UNL     1     -10.754  18.818 -21.491  1.00  0.00    -0.550 OA
ENDBRANCH   5   6
ENDBRANCH   1   5
TORSDOF 3
ENDMDL
MODEL 2
REMARK VINA RESULT:    -3.407      6.293      7.266
REMARK INTER + INTRA:          -4.045
REMARK INTER:                  -4.007
REMARK INTRA:                  -0.038
REMARK UNBOUND:                -0.041
REMARK SMILES O=C([O-])CCC(=O)[O-]
REMARK SMILES IDX 4 1 2 2 1 3 3 4 5 5 6 6 7 7 8 8
REMARK H PARENT
REMARK Flexibility Score: inf
ROOT
ATOM      1  C   UNL     1     -10.706  14.140 -14.373  1.00  0.00     0.059 C 
ENDROOT
BRANCH   1   2
ATOM      2  C   UNL     1     -11.281  14.187 -12.990  1.00  0.00     0.042 C 
ATOM      3  O   UNL     1     -10.750  14.911 -12.107  1.00  0.00    -0.550 OA
ATOM      4  O   UNL     1     -12.378  13.399 -12.665  1.00  0.00    -0.550 OA
ENDBRANCH   1   2
BRANCH   1   5
ATOM      5  C   UNL     1      -9.379  14.900 -14.459  1.00  0.00     0.059 C 
BRANCH   5   6
ATOM      6  C   UNL     1      -8.755  14.772 -15.814  1.00  0.00     0.042 C 
ATOM      7  O   UNL     1      -9.021  13.780 -16.543  1.00  0.00    -0.550 OA
ATOM      8  O   UNL     1      -7.848  15.727 -16.257  1.00  0.00    -0.550 OA
ENDBRANCH   5   6
ENDBRANCH   1   5
TORSDOF 3
ENDMDL
MODEL 3
REMARK VINA RESULT:    -3.404      6.272      7.937
REMARK INTER + INTRA:          -4.042
REMARK INTER:                  -4.004
REMARK INTRA:                  -0.038
REMARK UNBOUND:                -0.041
REMARK SMILES O=C([O-])CCC(=O)[O-]
REMARK SMILES IDX 4 1 2 2 1 3 3 4 5 5 6 6 7 7 8 8
REMARK H PARENT
REMARK Flexibility Score: inf
ROOT
ATOM      1  C   UNL     1      -9.386  14.883 -14.470  1.00  0.00     0.059 C 
ENDROOT
BRANCH   1   2
ATOM      2  C   UNL     1      -8.782  14.745 -15.834  1.00  0.00     0.042 C 
ATOM      3  O   UNL     1      -9.076  13.759 -16.560  1.00  0.00    -0.550 OA
ATOM      4  O   UNL     1      -7.863  15.683 -16.287  1.00  0.00    -0.550 OA
ENDBRANCH   1   2
BRANCH   1   5
ATOM      5  C   UNL     1     -10.713  14.127 -14.360  1.00  0.00     0.059 C 
BRANCH   5   6
ATOM      6  C   UNL     1     -11.270  14.185 -12.971  1.00  0.00     0.042 C 
ATOM      7  O   UNL     1     -10.725  14.914 -12.100  1.00  0.00    -0.550 OA
ATOM      8  O   UNL     1     -12.365  13.402 -12.626  1.00  0.00    -0.550 OA
ENDBRANCH   5   6
ENDBRANCH   1   5
TORSDOF 3
ENDMDL
MODEL 4
REMARK VINA RESULT:    -3.396      0.153      4.397
REMARK INTER + INTRA:          -4.032
REMARK INTER:                  -3.988
REMARK INTRA:                  -0.044
REMARK UNBOUND:                -0.041
REMARK SMILES O=C([O-])CCC(=O)[O-]
REMARK SMILES IDX 4 1 2 2 1 3 3 4 5 5 6 6 7 7 8 8
REMARK H PARENT
REMARK Flexibility Score: inf
ROOT
ATOM      1  C   UNL     1     -12.656  17.167 -20.975  1.00  0.00     0.059 C 
ENDROOT
BRANCH   1   2
ATOM      2  C   UNL     1     -12.005  18.165 -21.883  1.00  0.00     0.042 C 
ATOM      3  O   UNL     1     -10.879  18.647 -21.592  1.00  0.00    -0.550 OA
ATOM      4  O   UNL     1     -12.660  18.594 -23.031  1.00  0.00    -0.550 OA
ENDBRANCH   1   2
BRANCH   1   5
ATOM      5  C   UNL     1     -11.726  16.752 -19.832  1.00  0.00     0.059 C 
BRANCH   5   6
ATOM      6  C   UNL     1     -11.983  15.343 -19.392  1.00  0.00     0.042 C 
ATOM      7  O   UNL     1     -11.304  14.836 -18.461  1.00  0.00    -0.550 OA
ATOM      8  O   UNL     1     -12.945  14.576 -20.038  1.00  0.00    -0.550 OA
ENDBRANCH   5   6
ENDBRANCH   1   5
TORSDOF 3
ENDMDL
MODEL 5
REMARK VINA RESULT:    -3.395     11.079     11.921
REMARK INTER + INTRA:          -4.032
REMARK INTER:                  -3.909
REMARK INTRA:                  -0.123
REMARK UNBOUND:                -0.041
REMARK SMILES O=C([O-])CCC(=O)[O-]
REMARK SMILES IDX 4 1 2 2 1 3 3 4 5 5 6 6 7 7 8 8
REMARK H PARENT
REMARK Flexibility Score: inf
ROOT
ATOM      1  C   UNL     1     -21.345  18.200 -27.883  1.00  0.00     0.059 C 
ENDROOT
BRANCH   1   2
ATOM      2  C   UNL     1     -20.398  17.210 -28.491  1.00  0.00     0.042 C 
ATOM      3  O   UNL     1     -19.384  17.609 -29.123  1.00  0.00    -0.550 OA
ATOM      4  O   UNL     1     -20.658  15.849 -28.397  1.00  0.00    -0.550 OA
ENDBRANCH   1   2
BRANCH   1   5
ATOM      5  C   UNL     1     -21.126  18.338 -26.374  1.00  0.00     0.059 C 
BRANCH   5   6
ATOM      6  C   UNL     1     -22.173  17.603 -25.594  1.00  0.00     0.042 C 
ATOM      7  O   UNL     1     -21.993  16.399 -25.271  1.00  0.00    -0.550 OA
ATOM      8  O   UNL     1     -23.364  18.235 -25.259  1.00  0.00    -0.550 OA
ENDBRANCH   5   6
ENDBRANCH   1   5
TORSDOF 3
ENDMDL
MODEL 6
REMARK VINA RESULT:    -3.269     10.184     11.214
REMARK INTER + INTRA:          -3.883
REMARK INTER:                  -3.747
REMARK INTRA:                  -0.136
REMARK UNBOUND:                -0.041
REMARK SMILES O=C([O-])CCC(=O)[O-]
REMARK SMILES IDX 4 1 2 2 1 3 3 4 5 5 6 6 7 7 8 8
REMARK H PARENT
REMARK Flexibility Score: inf
ROOT
ATOM      1  C   UNL     1     -20.989  18.542 -26.431  1.00  0.00     0.059 C 
ENDROOT
BRANCH   1   2
ATOM      2  C   UNL     1     -21.294  17.602 -25.306  1.00  0.00     0.042 C 
ATOM      3  O   UNL     1     -20.544  17.558 -24.295  1.00  0.00    -0.550 OA
ATOM      4  O   UNL     1     -22.384  16.745 -25.390  1.00  0.00    -0.550 OA
ENDBRANCH   1   2
BRANCH   1   5
ATOM      5  C   UNL     1     -21.495  18.002 -27.772  1.00  0.00     0.059 C 
BRANCH   5   6
ATOM      6  C   UNL     1     -20.497  17.088 -28.413  1.00  0.00     0.042 C 
ATOM      7  O   UNL     1     -19.537  17.564 -29.076  1.00  0.00    -0.550 OA
ATOM      8  O   UNL     1     -20.649  15.711 -28.314  1.00  0.00    -0.550 OA
ENDBRANCH   5   6
ENDBRANCH   1   5
TORSDOF 3
ENDMDL
MODEL 7
REMARK VINA RESULT:    -3.263      8.222      9.346
REMARK INTER + INTRA:          -3.876
REMARK INTER:                  -3.824
REMARK INTRA:                  -0.053
REMARK UNBOUND:                -0.041
REMARK SMILES O=C([O-])CCC(=O)[O-]
REMARK SMILES IDX 4 1 2 2 1 3 3 4 5 5 6 6 7 7 8 8
REMARK H PARENT
REMARK Flexibility Score: inf
ROOT
ATOM      1  C   UNL     1      -4.877  18.400 -14.215  1.00  0.00     0.059 C 
ENDROOT
BRANCH   1   2
ATOM      2  C   UNL     1      -5.180  18.736 -12.787  1.00  0.00     0.042 C 
ATOM      3  O   UNL     1      -5.746  17.892 -12.043  1.00  0.00    -0.550 OA
ATOM      4  O   UNL     1      -4.875  19.997 -12.287  1.00  0.00    -0.550 OA
ENDBRANCH   1   2
BRANCH   1   5
ATOM      5  C   UNL     1      -5.486  17.055 -14.620  1.00  0.00     0.059 C 
BRANCH   5   6
ATOM      6  C   UNL     1      -6.137  17.125 -15.968  1.00  0.00     0.042 C 
ATOM      7  O   UNL     1      -6.764  16.131 -16.421  1.00  0.00    -0.550 OA
ATOM      8  O   UNL     1      -6.016  18.273 -16.741  1.00  0.00    -0.550 OA
ENDBRANCH   5   6
ENDBRANCH   1   5
TORSDOF 3
ENDMDL
MODEL 8
REMARK VINA RESULT:    -3.179     11.230     12.009
REMARK INTER + INTRA:          -3.777
REMARK INTER:                  -3.668
REMARK INTRA:                  -0.109
REMARK UNBOUND:                -0.041
REMARK SMILES O=C([O-])CCC(=O)[O-]
REMARK SMILES IDX 4 1 2 2 1 3 3 4 5 5 6 6 7 7 8 8
REMARK H PARENT
REMARK Flexibility Score: inf
ROOT
ATOM      1  C   UNL     1     -21.583  20.394 -25.628  1.00  0.00     0.059 C 
ENDROOT
BRANCH   1   2
ATOM      2  C   UNL     1     -22.548  20.821 -24.564  1.00  0.00     0.042 C 
ATOM      3  O   UNL     1     -22.770  20.075 -23.574  1.00  0.00    -0.550 OA
ATOM      4  O   UNL     1     -23.235  22.023 -24.687  1.00  0.00    -0.550 OA
ENDBRANCH   1   2
BRANCH   1   5
ATOM      5  C   UNL     1     -21.027  18.993 -25.357  1.00  0.00     0.059 C 
BRANCH   5   6
ATOM      6  C   UNL     1     -21.693  17.959 -26.212  1.00  0.00     0.042 C 
ATOM      7  O   UNL     1     -22.504  17.142 -25.700  1.00  0.00    -0.550 OA
ATOM      8  O   UNL     1     -21.387  17.870 -27.564  1.00  0.00    -0.550 OA
ENDBRANCH   5   6
ENDBRANCH   1   5
TORSDOF 3
ENDMDL
MODEL 9
REMARK VINA RESULT:    -3.154     13.520     14.953
REMARK INTER + INTRA:          -3.748
REMARK INTER:                  -3.649
REMARK INTRA:                  -0.099
REMARK UNBOUND:                -0.041
REMARK SMILES O=C([O-])CCC(=O)[O-]
REMARK SMILES IDX 4 1 2 2 1 3 3 4 5 5 6 6 7 7 8 8
REMARK H PARENT
REMARK Flexibility Score: inf
ROOT
ATOM      1  C   UNL     1     -20.346  26.737 -27.909  1.00  0.00     0.059 C 
ENDROOT
BRANCH   1   2
ATOM      2  C   UNL     1     -19.239  25.805 -28.298  1.00  0.00     0.042 C 
ATOM      3  O   UNL     1     -18.362  26.172 -29.124  1.00  0.00    -0.550 OA
ATOM      4  O   UNL     1     -19.198  24.517 -27.779  1.00  0.00    -0.550 OA
ENDBRANCH   1   2
BRANCH   1   5
ATOM      5  C   UNL     1     -21.264  26.114 -26.854  1.00  0.00     0.059 C 
BRANCH   5   6
ATOM      6  C   UNL     1     -22.602  25.756 -27.426  1.00  0.00     0.042 C 
ATOM      7  O   UNL     1     -23.554  25.445 -26.663  1.00  0.00    -0.550 OA
ATOM      8  O   UNL     1     -22.785  25.726 -28.803  1.00  0.00    -0.550 OA
ENDBRANCH   5   6
ENDBRANCH   1   5
TORSDOF 3
ENDMDL
