MODEL 1
REMARK VINA RESULT:    -4.523      0.000      0.000
REMARK INTER + INTRA:          -6.158
REMARK INTER:                  -6.110
REMARK INTRA:                  -0.049
REMARK UNBOUND:                -0.049
REMARK SMILES [NH3+]CCCC[C@H]([NH3+])C(=O)[O-]
REMARK SMILES IDX 4 1 3 2 2 3 1 4 5 8 6 9 7 10 8 14 9 15 10 16
REMARK H PARENT 1 5 1 6 1 7 7 11 7 12 7 13
REMARK Flexibility Score: inf
ROOT
ATOM      1  C   UNL     1     -19.582  10.789  20.188  1.00  0.00     0.012 C 
ENDROOT
BRANCH   1   2
ATOM      2  C   UNL     1     -19.124  10.356  21.589  1.00  0.00     0.061 C 
BRANCH   2   3
ATOM      3  C   UNL     1     -18.358   9.027  21.533  1.00  0.00     0.258 C 
BRANCH   3   4
ATOM      4  N   UNL     1     -17.957   8.597  22.872  1.00  0.00    -0.358 N 
ATOM      5  H   UNL     1     -17.983   7.553  22.918  1.00  0.00     0.344 HD
ATOM      6  H   UNL     1     -18.615   8.984  23.586  1.00  0.00     0.344 HD
ATOM      7  H   UNL     1     -16.983   8.921  23.076  1.00  0.00     0.344 HD
ENDBRANCH   3   4
ENDBRANCH   2   3
ENDBRANCH   1   2
BRANCH   1   8
ATOM      8  C   UNL     1     -21.111  10.760  20.019  1.00  0.00     0.072 C 
BRANCH   8   9
ATOM      9  C   UNL     1     -21.877  10.010  21.137  1.00  0.00     0.227 C 
BRANCH   9  10
ATOM     10  N   UNL     1     -21.886   8.557  20.915  1.00  0.00    -0.350 N 
ATOM     11  H   UNL     1     -20.960   8.248  20.538  1.00  0.00     0.345 HD
ATOM     12  H   UNL     1     -22.611   8.306  20.206  1.00  0.00     0.345 HD
ATOM     13  H   UNL     1     -22.080   8.046  21.807  1.00  0.00     0.345 HD
ENDBRANCH   9  10
BRANCH   9  14
ATOM     14  C   UNL     1     -23.286  10.535  21.215  1.00  0.00     0.099 C 
ATOM     15  O   UNL     1     -23.846  10.699  22.332  1.00  0.00    -0.544 OA
ATOM     16  O   UNL     1     -23.989  10.814  20.049  1.00  0.00    -0.544 OA
ENDBRANCH   9  14
ENDBRANCH   8   9
ENDBRANCH   1   8
TORSDOF 7
ENDMDL
MODEL 2
REMARK VINA RESULT:    -4.522      2.254      2.713
REMARK INTER + INTRA:          -6.156
REMARK INTER:                  -5.662
REMARK INTRA:                  -0.495
REMARK UNBOUND:                -0.049
REMARK SMILES [NH3+]CCCC[C@H]([NH3+])C(=O)[O-]
REMARK SMILES IDX 4 1 3 2 2 3 1 4 5 8 6 9 7 10 8 14 9 15 10 16
REMARK H PARENT 1 5 1 6 1 7 7 11 7 12 7 13
REMARK Flexibility Score: inf
ROOT
ATOM      1  C   UNL     1     -21.100  10.801  20.008  1.00  0.00     0.012 C 
ENDROOT
BRANCH   1   2
ATOM      2  C   UNL     1     -19.570  10.782  20.149  1.00  0.00     0.061 C 
BRANCH   2   3
ATOM      3  C   UNL     1     -19.154  10.695  21.624  1.00  0.00     0.258 C 
BRANCH   3   4
ATOM      4  N   UNL     1     -18.459   9.437  21.898  1.00  0.00    -0.358 N 
ATOM      5  H   UNL     1     -17.494   9.486  21.499  1.00  0.00     0.344 HD
ATOM      6  H   UNL     1     -18.970   8.640  21.453  1.00  0.00     0.344 HD
ATOM      7  H   UNL     1     -18.392   9.282  22.930  1.00  0.00     0.344 HD
ENDBRANCH   3   4
ENDBRANCH   2   3
ENDBRANCH   1   2
BRANCH   1   8
ATOM      8  C   UNL     1     -21.824  10.228  21.238  1.00  0.00     0.072 C 
BRANCH   8   9
ATOM      9  C   UNL     1     -22.552   8.882  20.999  1.00  0.00     0.227 C 
BRANCH   9  10
ATOM     10  N   UNL     1     -23.962   8.941  21.409  1.00  0.00    -0.350 N 
ATOM     11  H   UNL     1     -24.117   9.762  22.039  1.00  0.00     0.345 HD
ATOM     12  H   UNL     1     -24.216   8.082  21.947  1.00  0.00     0.345 HD
ATOM     13  H   UNL     1     -24.589   9.028  20.575  1.00  0.00     0.345 HD
ENDBRANCH   9  10
BRANCH   9  14
ATOM     14  C   UNL     1     -21.836   7.788  21.745  1.00  0.00     0.099 C 
ATOM     15  O   UNL     1     -20.657   7.469  21.437  1.00  0.00    -0.544 OA
ATOM     16  O   UNL     1     -22.488   7.101  22.762  1.00  0.00    -0.544 OA
ENDBRANCH   9  14
ENDBRANCH   8   9
ENDBRANCH   1   8
TORSDOF 7
ENDMDL
MODEL 3
REMARK VINA RESULT:    -4.471      1.700      1.846
REMARK INTER + INTRA:          -6.088
REMARK INTER:                  -5.995
REMARK INTRA:                  -0.093
REMARK UNBOUND:                -0.049
REMARK SMILES [NH3+]CCCC[C@H]([NH3+])C(=O)[O-]
REMARK SMILES IDX 4 1 3 2 2 3 1 4 5 8 6 9 7 10 8 14 9 15 10 16
REMARK H PARENT 1 5 1 6 1 7 7 11 7 12 7 13
REMARK Flexibility Score: inf
ROOT
ATOM      1  C   UNL     1     -20.684  10.037  21.194  1.00  0.00     0.012 C 
ENDROOT
BRANCH   1   2
ATOM      2  C   UNL     1     -19.150  10.122  21.194  1.00  0.00     0.061 C 
BRANCH   2   3
ATOM      3  C   UNL     1     -18.523   8.767  21.550  1.00  0.00     0.258 C 
BRANCH   3   4
ATOM      4  N   UNL     1     -17.657   8.883  22.723  1.00  0.00    -0.358 N 
ATOM      5  H   UNL     1     -16.663   8.755  22.427  1.00  0.00     0.344 HD
ATOM      6  H   UNL     1     -17.900   8.146  23.423  1.00  0.00     0.344 HD
ATOM      7  H   UNL     1     -17.762   9.830  23.155  1.00  0.00     0.344 HD
ENDBRANCH   3   4
ENDBRANCH   2   3
ENDBRANCH   1   2
BRANCH   1   8
ATOM      8  C   UNL     1     -21.329  10.805  20.027  1.00  0.00     0.072 C 
BRANCH   8   9
ATOM      9  C   UNL     1     -22.841  11.093  20.193  1.00  0.00     0.227 C 
BRANCH   9  10
ATOM     10  N   UNL     1     -23.284  10.913  21.583  1.00  0.00    -0.350 N 
ATOM     11  H   UNL     1     -23.674  11.811  21.953  1.00  0.00     0.345 HD
ATOM     12  H   UNL     1     -22.474  10.652  22.187  1.00  0.00     0.345 HD
ATOM     13  H   UNL     1     -24.019  10.171  21.645  1.00  0.00     0.345 HD
ENDBRANCH   9  10
BRANCH   9  14
ATOM     14  C   UNL     1     -23.625  10.194  19.274  1.00  0.00     0.099 C 
ATOM     15  O   UNL     1     -23.393   8.956  19.239  1.00  0.00    -0.544 OA
ATOM     16  O   UNL     1     -24.593  10.733  18.435  1.00  0.00    -0.544 OA
ENDBRANCH   9  14
ENDBRANCH   8   9
ENDBRANCH   1   8
TORSDOF 7
ENDMDL
MODEL 4
REMARK VINA RESULT:    -4.263      2.858      4.232
REMARK INTER + INTRA:          -5.806
REMARK INTER:                  -5.528
REMARK INTRA:                  -0.278
REMARK UNBOUND:                -0.049
REMARK SMILES [NH3+]CCCC[C@H]([NH3+])C(=O)[O-]
REMARK SMILES IDX 4 1 3 2 2 3 1 4 5 8 6 9 7 10 8 14 9 15 10 16
REMARK H PARENT 1 5 1 6 1 7 7 11 7 12 7 13
REMARK Flexibility Score: inf
ROOT
ATOM      1  C   UNL     1     -19.101  10.531  21.425  1.00  0.00     0.012 C 
ENDROOT
BRANCH   1   2
ATOM      2  C   UNL     1     -19.669  10.835  20.030  1.00  0.00     0.061 C 
BRANCH   2   3
ATOM      3  C   UNL     1     -21.204  10.860  20.054  1.00  0.00     0.258 C 
BRANCH   3   4
ATOM      4  N   UNL     1     -21.723  10.060  21.163  1.00  0.00    -0.358 N 
ATOM      5  H   UNL     1     -21.003   9.356  21.443  1.00  0.00     0.344 HD
ATOM      6  H   UNL     1     -22.591   9.558  20.868  1.00  0.00     0.344 HD
ATOM      7  H   UNL     1     -21.932  10.676  21.983  1.00  0.00     0.344 HD
ENDBRANCH   3   4
ENDBRANCH   2   3
ENDBRANCH   1   2
BRANCH   1   8
ATOM      8  C   UNL     1     -18.470   9.131  21.525  1.00  0.00     0.072 C 
BRANCH   8   9
ATOM      9  C   UNL     1     -19.201   8.153  22.477  1.00  0.00     0.227 C 
BRANCH   9  10
ATOM     10  N   UNL     1     -18.322   7.682  23.558  1.00  0.00    -0.350 N 
ATOM     11  H   UNL     1     -18.590   8.139  24.461  1.00  0.00     0.345 HD
ATOM     12  H   UNL     1     -17.332   7.945  23.356  1.00  0.00     0.345 HD
ATOM     13  H   UNL     1     -18.392   6.644  23.667  1.00  0.00     0.345 HD
ENDBRANCH   9  10
BRANCH   9  14
ATOM     14  C   UNL     1     -19.728   6.986  21.686  1.00  0.00     0.099 C 
ATOM     15  O   UNL     1     -18.980   6.009  21.412  1.00  0.00    -0.544 OA
ATOM     16  O   UNL     1     -21.040   6.993  21.228  1.00  0.00    -0.544 OA
ENDBRANCH   9  14
ENDBRANCH   8   9
ENDBRANCH   1   8
TORSDOF 7
ENDMDL
MODEL 5
REMARK VINA RESULT:    -3.969      2.878      3.066
REMARK INTER + INTRA:          -5.410
REMARK INTER:                  -5.276
REMARK INTRA:                  -0.134
REMARK UNBOUND:                -0.049
REMARK SMILES [NH3+]CCCC[C@H]([NH3+])C(=O)[O-]
REMARK SMILES IDX 4 1 3 2 2 3 1 4 5 8 6 9 7 10 8 14 9 15 10 16
REMARK H PARENT 1 5 1 6 1 7 7 11 7 12 7 13
REMARK Flexibility Score: inf
ROOT
ATOM      1  C   UNL     1     -20.821   9.853  20.905  1.00  0.00     0.012 C 
ENDROOT
BRANCH   1   2
ATOM      2  C   UNL     1     -19.332  10.079  21.206  1.00  0.00     0.061 C 
BRANCH   2   3
ATOM      3  C   UNL     1     -18.639   8.763  21.585  1.00  0.00     0.258 C 
BRANCH   3   4
ATOM      4  N   UNL     1     -17.629   8.982  22.620  1.00  0.00    -0.358 N 
ATOM      5  H   UNL     1     -17.070   9.831  22.377  1.00  0.00     0.344 HD
ATOM      6  H   UNL     1     -16.987   8.158  22.675  1.00  0.00     0.344 HD
ATOM      7  H   UNL     1     -18.091   9.133  23.546  1.00  0.00     0.344 HD
ENDBRANCH   3   4
ENDBRANCH   2   3
ENDBRANCH   1   2
BRANCH   1   8
ATOM      8  C   UNL     1     -21.361   8.540  21.498  1.00  0.00     0.072 C 
BRANCH   8   9
ATOM      9  C   UNL     1     -22.674   8.026  20.858  1.00  0.00     0.227 C 
BRANCH   9  10
ATOM     10  N   UNL     1     -23.851   8.371  21.669  1.00  0.00    -0.350 N 
ATOM     11  H   UNL     1     -24.610   8.746  21.054  1.00  0.00     0.345 HD
ATOM     12  H   UNL     1     -23.607   9.118  22.356  1.00  0.00     0.345 HD
ATOM     13  H   UNL     1     -24.209   7.531  22.179  1.00  0.00     0.345 HD
ENDBRANCH   9  10
BRANCH   9  14
ATOM     14  C   UNL     1     -22.588   6.535  20.669  1.00  0.00     0.099 C 
ATOM     15  O   UNL     1     -23.623   5.820  20.747  1.00  0.00    -0.544 OA
ATOM     16  O   UNL     1     -21.357   5.934  20.437  1.00  0.00    -0.544 OA
ENDBRANCH   9  14
ENDBRANCH   8   9
ENDBRANCH   1   8
TORSDOF 7
ENDMDL
MODEL 6
REMARK VINA RESULT:    -3.948     10.392     11.891
REMARK INTER + INTRA:          -5.381
REMARK INTER:                  -5.240
REMARK INTRA:                  -0.142
REMARK UNBOUND:                -0.049
REMARK SMILES [NH3+]CCCC[C@H]([NH3+])C(=O)[O-]
REMARK SMILES IDX 4 1 3 2 2 3 1 4 5 8 6 9 7 10 8 14 9 15 10 16
REMARK H PARENT 1 5 1 6 1 7 7 11 7 12 7 13
REMARK Flexibility Score: inf
ROOT
ATOM      1  C   UNL     1     -12.842   3.395  25.404  1.00  0.00     0.012 C 
ENDROOT
BRANCH   1   2
ATOM      2  C   UNL     1     -13.471   2.916  24.088  1.00  0.00     0.061 C 
BRANCH   2   3
ATOM      3  C   UNL     1     -15.004   2.942  24.168  1.00  0.00     0.258 C 
BRANCH   3   4
ATOM      4  N   UNL     1     -15.599   2.877  22.833  1.00  0.00    -0.358 N 
ATOM      5  H   UNL     1     -16.261   3.677  22.715  1.00  0.00     0.344 HD
ATOM      6  H   UNL     1     -16.127   1.981  22.720  1.00  0.00     0.344 HD
ATOM      7  H   UNL     1     -14.853   2.943  22.104  1.00  0.00     0.344 HD
ENDBRANCH   3   4
ENDBRANCH   2   3
ENDBRANCH   1   2
BRANCH   1   8
ATOM      8  C   UNL     1     -13.873   3.579  26.532  1.00  0.00     0.072 C 
BRANCH   8   9
ATOM      9  C   UNL     1     -13.308   3.423  27.965  1.00  0.00     0.227 C 
BRANCH   9  10
ATOM     10  N   UNL     1     -14.361   3.099  28.937  1.00  0.00    -0.350 N 
ATOM     11  H   UNL     1     -15.255   2.884  28.437  1.00  0.00     0.345 HD
ATOM     12  H   UNL     1     -14.540   3.918  29.560  1.00  0.00     0.345 HD
ATOM     13  H   UNL     1     -14.089   2.273  29.519  1.00  0.00     0.345 HD
ENDBRANCH   9  10
BRANCH   9  14
ATOM     14  C   UNL     1     -12.601   4.692  28.364  1.00  0.00     0.099 C 
ATOM     15  O   UNL     1     -11.420   4.655  28.802  1.00  0.00    -0.544 OA
ATOM     16  O   UNL     1     -13.262   5.911  28.279  1.00  0.00    -0.544 OA
ENDBRANCH   9  14
ENDBRANCH   8   9
ENDBRANCH   1   8
TORSDOF 7
ENDMDL
MODEL 7
REMARK VINA RESULT:    -3.942      5.389      6.153
REMARK INTER + INTRA:          -5.373
REMARK INTER:                  -5.225
REMARK INTRA:                  -0.148
REMARK UNBOUND:                -0.049
REMARK SMILES [NH3+]CCCC[C@H]([NH3+])C(=O)[O-]
REMARK SMILES IDX 4 1 3 2 2 3 1 4 5 8 6 9 7 10 8 14 9 15 10 16
REMARK H PARENT 1 5 1 6 1 7 7 11 7 12 7 13
REMARK Flexibility Score: inf
ROOT
ATOM      1  C   UNL     1     -23.660   5.324  23.694  1.00  0.00     0.012 C 
ENDROOT
BRANCH   1   2
ATOM      2  C   UNL     1     -22.778   4.068  23.742  1.00  0.00     0.061 C 
BRANCH   2   3
ATOM      3  C   UNL     1     -23.491   2.921  24.472  1.00  0.00     0.258 C 
BRANCH   3   4
ATOM      4  N   UNL     1     -22.552   2.165  25.301  1.00  0.00    -0.358 N 
ATOM      5  H   UNL     1     -22.321   1.266  24.822  1.00  0.00     0.344 HD
ATOM      6  H   UNL     1     -22.984   1.953  26.229  1.00  0.00     0.344 HD
ATOM      7  H   UNL     1     -21.672   2.713  25.438  1.00  0.00     0.344 HD
ENDBRANCH   3   4
ENDBRANCH   2   3
ENDBRANCH   1   2
BRANCH   1   8
ATOM      8  C   UNL     1     -22.848   6.626  23.582  1.00  0.00     0.072 C 
BRANCH   8   9
ATOM      9  C   UNL     1     -21.407   6.451  23.042  1.00  0.00     0.227 C 
BRANCH   9  10
ATOM     10  N   UNL     1     -20.397   6.771  24.062  1.00  0.00    -0.350 N 
ATOM     11  H   UNL     1     -20.317   7.808  24.172  1.00  0.00     0.345 HD
ATOM     12  H   UNL     1     -19.461   6.414  23.765  1.00  0.00     0.345 HD
ATOM     13  H   UNL     1     -20.654   6.349  24.985  1.00  0.00     0.345 HD
ENDBRANCH   9  10
BRANCH   9  14
ATOM     14  C   UNL     1     -21.218   7.323  21.829  1.00  0.00     0.099 C 
ATOM     15  O   UNL     1     -22.009   7.240  20.853  1.00  0.00    -0.544 OA
ATOM     16  O   UNL     1     -20.147   8.207  21.770  1.00  0.00    -0.544 OA
ENDBRANCH   9  14
ENDBRANCH   8   9
ENDBRANCH   1   8
TORSDOF 7
ENDMDL
MODEL 8
REMARK VINA RESULT:    -3.820      3.294      4.588
REMARK INTER + INTRA:          -5.208
REMARK INTER:                  -5.102
REMARK INTRA:                  -0.106
REMARK UNBOUND:                -0.049
REMARK SMILES [NH3+]CCCC[C@H]([NH3+])C(=O)[O-]
REMARK SMILES IDX 4 1 3 2 2 3 1 4 5 8 6 9 7 10 8 14 9 15 10 16
REMARK H PARENT 1 5 1 6 1 7 7 11 7 12 7 13
REMARK Flexibility Score: inf
ROOT
ATOM      1  C   UNL     1     -19.398   9.647  21.247  1.00  0.00     0.012 C 
ENDROOT
BRANCH   1   2
ATOM      2  C   UNL     1     -20.247  10.646  20.447  1.00  0.00     0.061 C 
BRANCH   2   3
ATOM      3  C   UNL     1     -21.746  10.382  20.650  1.00  0.00     0.258 C 
BRANCH   3   4
ATOM      4  N   UNL     1     -22.502  10.698  19.439  1.00  0.00    -0.358 N 
ATOM      5  H   UNL     1     -22.044  10.235  18.621  1.00  0.00     0.344 HD
ATOM      6  H   UNL     1     -22.512  11.731  19.281  1.00  0.00     0.344 HD
ATOM      7  H   UNL     1     -23.482  10.342  19.524  1.00  0.00     0.344 HD
ENDBRANCH   3   4
ENDBRANCH   2   3
ENDBRANCH   1   2
BRANCH   1   8
ATOM      8  C   UNL     1     -20.174   8.376  21.637  1.00  0.00     0.072 C 
BRANCH   8   9
ATOM      9  C   UNL     1     -19.332   7.294  22.358  1.00  0.00     0.227 C 
BRANCH   9  10
ATOM     10  N   UNL     1     -18.519   6.513  21.415  1.00  0.00    -0.350 N 
ATOM     11  H   UNL     1     -17.502   6.683  21.596  1.00  0.00     0.345 HD
ATOM     12  H   UNL     1     -18.717   6.815  20.435  1.00  0.00     0.345 HD
ATOM     13  H   UNL     1     -18.717   5.491  21.512  1.00  0.00     0.345 HD
ENDBRANCH   9  10
BRANCH   9  14
ATOM     14  C   UNL     1     -20.248   6.385  23.135  1.00  0.00     0.099 C 
ATOM     15  O   UNL     1     -21.344   6.814  23.585  1.00  0.00    -0.544 OA
ATOM     16  O   UNL     1     -19.872   5.072  23.386  1.00  0.00    -0.544 OA
ENDBRANCH   9  14
ENDBRANCH   8   9
ENDBRANCH   1   8
TORSDOF 7
ENDMDL
MODEL 9
REMARK VINA RESULT:    -3.730      2.791      3.272
REMARK INTER + INTRA:          -5.086
REMARK INTER:                  -4.579
REMARK INTRA:                  -0.507
REMARK UNBOUND:                -0.049
REMARK SMILES [NH3+]CCCC[C@H]([NH3+])C(=O)[O-]
REMARK SMILES IDX 4 1 3 2 2 3 1 4 5 8 6 9 7 10 8 14 9 15 10 16
REMARK H PARENT 1 5 1 6 1 7 7 11 7 12 7 13
REMARK Flexibility Score: inf
ROOT
ATOM      1  C   UNL     1     -21.826   6.037  22.025  1.00  0.00     0.012 C 
ENDROOT
BRANCH   1   2
ATOM      2  C   UNL     1     -21.058   6.610  23.225  1.00  0.00     0.061 C 
BRANCH   2   3
ATOM      3  C   UNL     1     -19.544   6.423  23.051  1.00  0.00     0.258 C 
BRANCH   3   4
ATOM      4  N   UNL     1     -18.854   7.712  23.058  1.00  0.00    -0.358 N 
ATOM      5  H   UNL     1     -19.313   8.349  22.369  1.00  0.00     0.344 HD
ATOM      6  H   UNL     1     -17.852   7.584  22.786  1.00  0.00     0.344 HD
ATOM      7  H   UNL     1     -18.910   8.144  24.009  1.00  0.00     0.344 HD
ENDBRANCH   3   4
ENDBRANCH   2   3
ENDBRANCH   1   2
BRANCH   1   8
ATOM      8  C   UNL     1     -22.271   7.117  21.024  1.00  0.00     0.072 C 
BRANCH   8   9
ATOM      9  C   UNL     1     -22.589   8.497  21.652  1.00  0.00     0.227 C 
BRANCH   9  10
ATOM     10  N   UNL     1     -24.010   8.847  21.515  1.00  0.00    -0.350 N 
ATOM     11  H   UNL     1     -24.562   8.000  21.243  1.00  0.00     0.345 HD
ATOM     12  H   UNL     1     -24.134   9.556  20.758  1.00  0.00     0.345 HD
ATOM     13  H   UNL     1     -24.388   9.226  22.413  1.00  0.00     0.345 HD
ENDBRANCH   9  10
BRANCH   9  14
ATOM     14  C   UNL     1     -21.727   9.550  21.007  1.00  0.00     0.099 C 
ATOM     15  O   UNL     1     -20.505   9.643  21.300  1.00  0.00    -0.544 OA
ATOM     16  O   UNL     1     -22.286  10.446  20.104  1.00  0.00    -0.544 OA
ENDBRANCH   9  14
ENDBRANCH   8   9
ENDBRANCH   1   8
TORSDOF 7
ENDMDL
