MODEL 1
REMARK VINA RESULT:    -4.107      0.000      0.000
REMARK INTER + INTRA:          -5.794
REMARK INTER:                  -6.267
REMARK INTRA:                   0.473
REMARK UNBOUND:                 0.473
REMARK SMILES CC1=CCC[C@@H](C)C(=O)C[C@@H](C(C)C)C(=O)C1
REMARK SMILES IDX 8 1 9 2 6 3 7 4 5 5 4 6 3 7 2 8 1 9 10 11 11 12 15 13 16 14
REMARK SMILES IDX 17 15 12 17 13 18 14 19
REMARK H PARENT
REMARK Flexibility Score: 70.00
ROOT
ATOM      1  C   UNL     1      -7.428  71.456  23.880  1.00  0.00     0.136 C 
ATOM      2  O   UNL     1      -8.213  70.607  23.482  1.00  0.00    -0.299 OA
ENDROOT
BRANCH   1   3
ATOM      3  C   UNL     1      -5.988  71.427  23.395  1.00  0.00     0.053 C 
ATOM      4  C   UNL     1      -5.096  72.283  24.306  1.00  0.00     0.016 C 
BRANCH   3   5
ATOM      5  C   UNL     1      -5.894  71.903  21.929  1.00  0.00     0.015 C 
BRANCH   5   6
ATOM      6  C   UNL     1      -6.062  73.432  21.814  1.00  0.00     0.028 C 
BRANCH   6   7
ATOM      7  C   UNL     1      -7.216  73.834  20.933  1.00  0.00    -0.028 C 
ATOM      8  C   UNL     1      -8.399  74.324  21.376  1.00  0.00    -0.070 CG0
ATOM      9  C   UNL     1      -9.478  74.585  20.356  1.00  0.00     0.039 C 
ATOM     10  G   UNL     1      -8.670  74.658  22.837  1.00  0.00     0.000 G0
ENDBRANCH   6   7
ENDBRANCH   5   6
ENDBRANCH   3   5
ENDBRANCH   1   3
BRANCH   1  11
ATOM     11  C   UNL     1      -7.917  72.548  24.806  1.00  0.00     0.087 C 
BRANCH  11  12
ATOM     12  C   UNL     1      -9.432  72.886  24.695  1.00  0.00     0.066 C 
BRANCH  12  13
ATOM     13  C   UNL     1      -9.723  73.758  23.478  1.00  0.00     0.140 C 
ATOM     14  O   UNL     1     -10.864  73.794  23.038  1.00  0.00    -0.299 OA
BRANCH  13  15
ATOM     15  C   UNL     1      -8.661  74.634  22.847  1.00  0.00     0.106 CG0
ATOM     16  G   UNL     1      -8.403  74.325  21.379  1.00  0.00     0.000 G0
ENDBRANCH  13  15
ENDBRANCH  12  13
BRANCH  12  17
ATOM     17  C   UNL     1     -10.095  73.446  25.998  1.00  0.00    -0.006 C 
ATOM     18  C   UNL     1      -9.139  73.312  27.199  1.00  0.00     0.008 C 
ATOM     19  C   UNL     1     -10.507  74.923  25.861  1.00  0.00     0.008 C 
ENDBRANCH  12  17
ENDBRANCH  11  12
ENDBRANCH   1  11
TORSDOF 1
ENDMDL
MODEL 2
REMARK VINA RESULT:    -4.086      1.820      4.066
REMARK INTER + INTRA:          -5.762
REMARK INTER:                  -6.568
REMARK INTRA:                   0.806
REMARK UNBOUND:                 0.473
REMARK SMILES CC1=CCC[C@@H](C)C(=O)C[C@@H](C(C)C)C(=O)C1
REMARK SMILES IDX 8 1 9 2 6 3 7 4 5 5 4 6 3 7 2 8 1 9 10 11 11 12 15 13 16 14
REMARK SMILES IDX 17 15 12 17 13 18 14 19
REMARK H PARENT
REMARK Flexibility Score: 70.00
ROOT
ATOM      1  C   UNL     1      -9.021  73.006  25.153  1.00  0.00     0.136 C 
ATOM      2  O   UNL     1      -8.877  73.242  26.344  1.00  0.00    -0.299 OA
ENDROOT
BRANCH   1   3
ATOM      3  C   UNL     1      -9.883  73.928  24.308  1.00  0.00     0.053 C 
ATOM      4  C   UNL     1     -10.976  73.128  23.584  1.00  0.00     0.016 C 
BRANCH   3   5
ATOM      5  C   UNL     1      -9.018  74.715  23.299  1.00  0.00     0.015 C 
BRANCH   5   6
ATOM      6  C   UNL     1      -9.459  74.453  21.844  1.00  0.00     0.028 C 
BRANCH   6   7
ATOM      7  C   UNL     1      -8.307  74.437  20.872  1.00  0.00    -0.028 C 
ATOM      8  C   UNL     1      -7.285  73.549  20.893  1.00  0.00    -0.070 CG0
ATOM      9  C   UNL     1      -6.167  73.741  19.900  1.00  0.00     0.039 C 
ATOM     10  G   UNL     1      -7.235  72.354  21.836  1.00  0.00     0.000 G0
ENDBRANCH   6   7
ENDBRANCH   5   6
ENDBRANCH   3   5
ENDBRANCH   1   3
BRANCH   1  11
ATOM     11  C   UNL     1      -8.296  71.831  24.534  1.00  0.00     0.087 C 
BRANCH  11  12
ATOM     12  C   UNL     1      -6.753  71.994  24.404  1.00  0.00     0.066 C 
BRANCH  12  13
ATOM     13  C   UNL     1      -6.362  72.555  23.042  1.00  0.00     0.140 C 
ATOM     14  O   UNL     1      -5.290  73.133  22.929  1.00  0.00    -0.299 OA
BRANCH  13  15
ATOM     15  C   UNL     1      -7.225  72.355  21.814  1.00  0.00     0.106 CG0
ATOM     16  G   UNL     1      -7.279  73.570  20.897  1.00  0.00     0.000 G0
ENDBRANCH  13  15
ENDBRANCH  12  13
BRANCH  12  17
ATOM     17  C   UNL     1      -5.908  70.733  24.791  1.00  0.00    -0.006 C 
ATOM     18  C   UNL     1      -6.091  69.612  23.751  1.00  0.00     0.008 C 
ATOM     19  C   UNL     1      -4.407  71.047  24.917  1.00  0.00     0.008 C 
ENDBRANCH  12  17
ENDBRANCH  11  12
ENDBRANCH   1  11
TORSDOF 1
ENDMDL
MODEL 3
REMARK VINA RESULT:    -3.978      1.718      4.520
REMARK INTER + INTRA:          -5.599
REMARK INTER:                  -5.871
REMARK INTRA:                   0.272
REMARK UNBOUND:                 0.473
REMARK SMILES CC1=CCC[C@@H](C)C(=O)C[C@@H](C(C)C)C(=O)C1
REMARK SMILES IDX 8 1 9 2 6 3 7 4 5 5 4 6 3 7 2 8 1 9 10 11 11 12 15 13 16 14
REMARK SMILES IDX 17 15 12 17 13 18 14 19
REMARK H PARENT
REMARK Flexibility Score: 70.00
ROOT
ATOM      1  C   UNL     1     -10.540  73.813  24.770  1.00  0.00     0.136 C 
ATOM      2  O   UNL     1     -11.519  73.210  24.355  1.00  0.00    -0.299 OA
ENDROOT
BRANCH   1   3
ATOM      3  C   UNL     1     -10.102  73.622  26.213  1.00  0.00     0.053 C 
ATOM      4  C   UNL     1     -10.297  74.919  27.011  1.00  0.00     0.016 C 
BRANCH   3   5
ATOM      5  C   UNL     1      -8.633  73.149  26.282  1.00  0.00     0.015 C 
BRANCH   5   6
ATOM      6  C   UNL     1      -8.357  71.999  25.292  1.00  0.00     0.028 C 
BRANCH   6   7
ATOM      7  C   UNL     1      -6.922  71.944  24.837  1.00  0.00    -0.028 C 
ATOM      8  C   UNL     1      -6.512  72.016  23.547  1.00  0.00    -0.070 CG0
ATOM      9  C   UNL     1      -5.040  71.849  23.268  1.00  0.00     0.039 C 
ATOM     10  G   UNL     1      -7.455  72.295  22.385  1.00  0.00     0.000 G0
ENDBRANCH   6   7
ENDBRANCH   5   6
ENDBRANCH   3   5
ENDBRANCH   1   3
BRANCH   1  11
ATOM     11  C   UNL     1      -9.752  74.696  23.828  1.00  0.00     0.087 C 
BRANCH  11  12
ATOM     12  C   UNL     1      -9.423  74.066  22.443  1.00  0.00     0.066 C 
BRANCH  12  13
ATOM     13  C   UNL     1      -7.940  73.735  22.318  1.00  0.00     0.140 C 
ATOM     14  O   UNL     1      -7.136  74.654  22.239  1.00  0.00    -0.299 OA
BRANCH  13  15
ATOM     15  C   UNL     1      -7.429  72.310  22.361  1.00  0.00     0.106 CG0
ATOM     16  G   UNL     1      -6.516  72.022  23.545  1.00  0.00     0.000 G0
ENDBRANCH  13  15
ENDBRANCH  12  13
BRANCH  12  17
ATOM     17  C   UNL     1      -9.963  74.849  21.201  1.00  0.00    -0.006 C 
ATOM     18  C   UNL     1      -9.232  74.413  19.917  1.00  0.00     0.008 C 
ATOM     19  C   UNL     1     -11.476  74.654  20.994  1.00  0.00     0.008 C 
ENDBRANCH  12  17
ENDBRANCH  11  12
ENDBRANCH   1  11
TORSDOF 1
ENDMDL
MODEL 4
REMARK VINA RESULT:    -3.923      1.604      3.715
REMARK INTER + INTRA:          -5.514
REMARK INTER:                  -5.796
REMARK INTRA:                   0.282
REMARK UNBOUND:                 0.473
REMARK SMILES CC1=CCC[C@@H](C)C(=O)C[C@@H](C(C)C)C(=O)C1
REMARK SMILES IDX 8 1 9 2 6 3 7 4 5 5 4 6 3 7 2 8 1 9 10 11 11 12 15 13 16 14
REMARK SMILES IDX 17 15 12 17 13 18 14 19
REMARK H PARENT
REMARK Flexibility Score: 70.00
ROOT
ATOM      1  C   UNL     1     -10.875  73.682  22.817  1.00  0.00     0.136 C 
ATOM      2  O   UNL     1     -11.541  72.782  22.324  1.00  0.00    -0.299 OA
ENDROOT
BRANCH   1   3
ATOM      3  C   UNL     1     -10.131  74.645  21.907  1.00  0.00     0.053 C 
ATOM      4  C   UNL     1     -11.099  75.309  20.918  1.00  0.00     0.016 C 
BRANCH   3   5
ATOM      5  C   UNL     1      -8.991  73.920  21.157  1.00  0.00     0.015 C 
BRANCH   5   6
ATOM      6  C   UNL     1      -7.688  73.900  21.982  1.00  0.00     0.028 C 
BRANCH   6   7
ATOM      7  C   UNL     1      -7.068  72.530  22.075  1.00  0.00    -0.028 C 
ATOM      8  C   UNL     1      -6.824  71.864  23.229  1.00  0.00    -0.070 CG0
ATOM      9  C   UNL     1      -6.110  70.539  23.137  1.00  0.00     0.039 C 
ATOM     10  G   UNL     1      -7.270  72.367  24.595  1.00  0.00     0.000 G0
ENDBRANCH   6   7
ENDBRANCH   5   6
ENDBRANCH   3   5
ENDBRANCH   1   3
BRANCH   1  11
ATOM     11  C   UNL     1     -10.849  73.851  24.320  1.00  0.00     0.087 C 
BRANCH  11  12
ATOM     12  C   UNL     1      -9.433  73.831  24.967  1.00  0.00     0.066 C 
BRANCH  12  13
ATOM     13  C   UNL     1      -8.757  72.475  24.793  1.00  0.00     0.140 C 
ATOM     14  O   UNL     1      -9.456  71.472  24.741  1.00  0.00    -0.299 OA
BRANCH  13  15
ATOM     15  C   UNL     1      -7.260  72.343  24.609  1.00  0.00     0.106 CG0
ATOM     16  G   UNL     1      -6.852  71.859  23.224  1.00  0.00     0.000 G0
ENDBRANCH  13  15
ENDBRANCH  12  13
BRANCH  12  17
ATOM     17  C   UNL     1      -9.361  74.344  26.445  1.00  0.00    -0.006 C 
ATOM     18  C   UNL     1     -10.640  75.115  26.819  1.00  0.00     0.008 C 
ATOM     19  C   UNL     1      -9.163  73.200  27.456  1.00  0.00     0.008 C 
ENDBRANCH  12  17
ENDBRANCH  11  12
ENDBRANCH   1  11
TORSDOF 1
ENDMDL
MODEL 5
REMARK VINA RESULT:    -3.803      2.020      4.995
REMARK INTER + INTRA:          -5.331
REMARK INTER:                  -5.355
REMARK INTRA:                   0.023
REMARK UNBOUND:                 0.473
REMARK SMILES CC1=CCC[C@@H](C)C(=O)C[C@@H](C(C)C)C(=O)C1
REMARK SMILES IDX 8 1 9 2 6 3 7 4 5 5 4 6 3 7 2 8 1 9 10 11 11 12 15 13 16 14
REMARK SMILES IDX 17 15 12 17 13 18 14 19
REMARK H PARENT
REMARK Flexibility Score: 70.00
ROOT
ATOM      1  C   UNL     1      -7.891  74.095  20.920  1.00  0.00     0.136 C 
ATOM      2  O   UNL     1      -7.427  74.541  19.880  1.00  0.00    -0.299 OA
ENDROOT
BRANCH   1   3
ATOM      3  C   UNL     1      -9.398  74.061  21.111  1.00  0.00     0.053 C 
ATOM      4  C   UNL     1     -10.110  74.628  19.875  1.00  0.00     0.016 C 
BRANCH   3   5
ATOM      5  C   UNL     1      -9.806  74.835  22.384  1.00  0.00     0.015 C 
BRANCH   5   6
ATOM      6  C   UNL     1     -10.576  73.938  23.375  1.00  0.00     0.028 C 
BRANCH   6   7
ATOM      7  C   UNL     1     -10.141  74.128  24.804  1.00  0.00    -0.028 C 
ATOM      8  C   UNL     1      -9.380  73.256  25.507  1.00  0.00    -0.070 CG0
ATOM      9  C   UNL     1      -9.120  73.564  26.960  1.00  0.00     0.039 C 
ATOM     10  G   UNL     1      -8.748  72.014  24.894  1.00  0.00     0.000 G0
ENDBRANCH   6   7
ENDBRANCH   5   6
ENDBRANCH   3   5
ENDBRANCH   1   3
BRANCH   1  11
ATOM     11  C   UNL     1      -6.958  73.538  21.973  1.00  0.00     0.087 C 
BRANCH  11  12
ATOM     12  C   UNL     1      -7.406  72.192  22.614  1.00  0.00     0.066 C 
BRANCH  12  13
ATOM     13  C   UNL     1      -7.466  72.289  24.135  1.00  0.00     0.140 C 
ATOM     14  O   UNL     1      -6.471  72.664  24.740  1.00  0.00    -0.299 OA
BRANCH  13  15
ATOM     15  C   UNL     1      -8.738  72.007  24.907  1.00  0.00     0.106 CG0
ATOM     16  G   UNL     1      -9.386  73.252  25.497  1.00  0.00     0.000 G0
ENDBRANCH  13  15
ENDBRANCH  12  13
BRANCH  12  17
ATOM     17  C   UNL     1      -6.626  70.924  22.131  1.00  0.00    -0.006 C 
ATOM     18  C   UNL     1      -5.113  71.204  22.064  1.00  0.00     0.008 C 
ATOM     19  C   UNL     1      -6.860  69.706  23.043  1.00  0.00     0.008 C 
ENDBRANCH  12  17
ENDBRANCH  11  12
ENDBRANCH   1  11
TORSDOF 1
ENDMDL
MODEL 6
REMARK VINA RESULT:    -3.585      3.848      5.713
REMARK INTER + INTRA:          -4.999
REMARK INTER:                  -5.177
REMARK INTRA:                   0.178
REMARK UNBOUND:                 0.473
REMARK SMILES CC1=CCC[C@@H](C)C(=O)C[C@@H](C(C)C)C(=O)C1
REMARK SMILES IDX 8 1 9 2 6 3 7 4 5 5 4 6 3 7 2 8 1 9 10 11 11 12 15 13 16 14
REMARK SMILES IDX 17 15 12 17 13 18 14 19
REMARK H PARENT
REMARK Flexibility Score: 70.00
ROOT
ATOM      1  C   UNL     1      -3.961  70.550  25.547  1.00  0.00     0.136 C 
ATOM      2  O   UNL     1      -2.827  70.793  25.935  1.00  0.00    -0.299 OA
ENDROOT
BRANCH   1   3
ATOM      3  C   UNL     1      -4.792  69.509  26.278  1.00  0.00     0.053 C 
ATOM      4  C   UNL     1      -4.490  69.539  27.783  1.00  0.00     0.016 C 
BRANCH   3   5
ATOM      5  C   UNL     1      -4.542  68.100  25.695  1.00  0.00     0.015 C 
BRANCH   5   6
ATOM      6  C   UNL     1      -5.863  67.369  25.384  1.00  0.00     0.028 C 
BRANCH   6   7
ATOM      7  C   UNL     1      -5.952  66.892  23.957  1.00  0.00    -0.028 C 
ATOM      8  C   UNL     1      -6.597  67.543  22.960  1.00  0.00    -0.070 CG0
ATOM      9  C   UNL     1      -6.664  66.870  21.612  1.00  0.00     0.039 C 
ATOM     10  G   UNL     1      -7.215  68.925  23.125  1.00  0.00     0.000 G0
ENDBRANCH   6   7
ENDBRANCH   5   6
ENDBRANCH   3   5
ENDBRANCH   1   3
BRANCH   1  11
ATOM     11  C   UNL     1      -4.533  71.327  24.382  1.00  0.00     0.087 C 
BRANCH  11  12
ATOM     12  C   UNL     1      -6.044  71.084  24.097  1.00  0.00     0.066 C 
BRANCH  12  13
ATOM     13  C   UNL     1      -6.247  70.073  22.974  1.00  0.00     0.140 C 
ATOM     14  O   UNL     1      -5.550  70.158  21.972  1.00  0.00    -0.299 OA
BRANCH  13  15
ATOM     15  C   UNL     1      -7.231  68.928  23.095  1.00  0.00     0.106 CG0
ATOM     16  G   UNL     1      -6.590  67.552  22.966  1.00  0.00     0.000 G0
ENDBRANCH  13  15
ENDBRANCH  12  13
BRANCH  12  17
ATOM     17  C   UNL     1      -6.906  72.375  23.896  1.00  0.00    -0.006 C 
ATOM     18  C   UNL     1      -6.890  72.820  22.422  1.00  0.00     0.008 C 
ATOM     19  C   UNL     1      -8.369  72.180  24.335  1.00  0.00     0.008 C 
ENDBRANCH  12  17
ENDBRANCH  11  12
ENDBRANCH   1  11
TORSDOF 1
ENDMDL
MODEL 7
REMARK VINA RESULT:    -3.544      4.428      6.618
REMARK INTER + INTRA:          -4.936
REMARK INTER:                  -4.654
REMARK INTRA:                  -0.283
REMARK UNBOUND:                 0.473
REMARK SMILES CC1=CCC[C@@H](C)C(=O)C[C@@H](C(C)C)C(=O)C1
REMARK SMILES IDX 8 1 9 2 6 3 7 4 5 5 4 6 3 7 2 8 1 9 10 11 11 12 15 13 16 14
REMARK SMILES IDX 17 15 12 17 13 18 14 19
REMARK H PARENT
REMARK Flexibility Score: 70.00
ROOT
ATOM      1  C   UNL     1      -4.292  71.306  24.814  1.00  0.00     0.136 C 
ATOM      2  O   UNL     1      -3.095  71.379  24.573  1.00  0.00    -0.299 OA
ENDROOT
BRANCH   1   3
ATOM      3  C   UNL     1      -5.282  72.001  23.894  1.00  0.00     0.053 C 
ATOM      4  C   UNL     1      -6.689  71.987  24.508  1.00  0.00     0.016 C 
BRANCH   3   5
ATOM      5  C   UNL     1      -5.286  71.343  22.496  1.00  0.00     0.015 C 
BRANCH   5   6
ATOM      6  C   UNL     1      -6.185  70.090  22.458  1.00  0.00     0.028 C 
BRANCH   6   7
ATOM      7  C   UNL     1      -5.409  68.812  22.274  1.00  0.00    -0.028 C 
ATOM      8  C   UNL     1      -5.131  67.923  23.257  1.00  0.00    -0.070 CG0
ATOM      9  C   UNL     1      -4.260  66.742  22.911  1.00  0.00     0.039 C 
ATOM     10  G   UNL     1      -5.688  68.038  24.670  1.00  0.00     0.000 G0
ENDBRANCH   6   7
ENDBRANCH   5   6
ENDBRANCH   3   5
ENDBRANCH   1   3
BRANCH   1  11
ATOM     11  C   UNL     1      -4.767  70.484  25.992  1.00  0.00     0.087 C 
BRANCH  11  12
ATOM     12  C   UNL     1      -3.930  69.206  26.292  1.00  0.00     0.066 C 
BRANCH  12  13
ATOM     13  C   UNL     1      -4.610  67.952  25.755  1.00  0.00     0.140 C 
ATOM     14  O   UNL     1      -4.323  66.869  26.246  1.00  0.00    -0.299 OA
BRANCH  13  15
ATOM     15  C   UNL     1      -5.681  68.017  24.685  1.00  0.00     0.106 CG0
ATOM     16  G   UNL     1      -5.136  67.923  23.266  1.00  0.00     0.000 G0
ENDBRANCH  13  15
ENDBRANCH  12  13
BRANCH  12  17
ATOM     17  C   UNL     1      -3.466  69.039  27.778  1.00  0.00    -0.006 C 
ATOM     18  C   UNL     1      -2.202  69.873  28.054  1.00  0.00     0.008 C 
ATOM     19  C   UNL     1      -4.556  69.452  28.784  1.00  0.00     0.008 C 
ENDBRANCH  12  17
ENDBRANCH  11  12
ENDBRANCH   1  11
TORSDOF 1
ENDMDL
MODEL 8
REMARK VINA RESULT:    -3.529      3.605      5.435
REMARK INTER + INTRA:          -4.913
REMARK INTER:                  -4.901
REMARK INTRA:                  -0.011
REMARK UNBOUND:                 0.473
REMARK SMILES CC1=CCC[C@@H](C)C(=O)C[C@@H](C(C)C)C(=O)C1
REMARK SMILES IDX 8 1 9 2 6 3 7 4 5 5 4 6 3 7 2 8 1 9 10 11 11 12 15 13 16 14
REMARK SMILES IDX 17 15 12 17 13 18 14 19
REMARK H PARENT
REMARK Flexibility Score: 70.00
ROOT
ATOM      1  C   UNL     1      -5.663  67.644  24.833  1.00  0.00     0.136 C 
ATOM      2  O   UNL     1      -5.671  67.009  25.878  1.00  0.00    -0.299 OA
ENDROOT
BRANCH   1   3
ATOM      3  C   UNL     1      -6.728  67.370  23.785  1.00  0.00     0.053 C 
ATOM      4  C   UNL     1      -6.509  65.994  23.141  1.00  0.00     0.016 C 
BRANCH   3   5
ATOM      5  C   UNL     1      -6.739  68.482  22.713  1.00  0.00     0.015 C 
BRANCH   5   6
ATOM      6  C   UNL     1      -7.486  69.740  23.204  1.00  0.00     0.028 C 
BRANCH   6   7
ATOM      7  C   UNL     1      -7.034  71.001  22.514  1.00  0.00    -0.028 C 
ATOM      8  C   UNL     1      -6.423  72.044  23.125  1.00  0.00    -0.070 CG0
ATOM      9  C   UNL     1      -6.125  73.267  22.295  1.00  0.00     0.039 C 
ATOM     10  G   UNL     1      -5.990  72.022  24.585  1.00  0.00     0.000 G0
ENDBRANCH   6   7
ENDBRANCH   5   6
ENDBRANCH   3   5
ENDBRANCH   1   3
BRANCH   1  11
ATOM     11  C   UNL     1      -4.624  68.724  24.627  1.00  0.00     0.087 C 
BRANCH  11  12
ATOM     12  C   UNL     1      -4.716  69.932  25.605  1.00  0.00     0.066 C 
BRANCH  12  13
ATOM     13  C   UNL     1      -4.710  71.260  24.856  1.00  0.00     0.140 C 
ATOM     14  O   UNL     1      -3.651  71.680  24.409  1.00  0.00    -0.299 OA
BRANCH  13  15
ATOM     15  C   UNL     1      -5.983  72.035  24.587  1.00  0.00     0.106 CG0
ATOM     16  G   UNL     1      -6.406  72.032  23.124  1.00  0.00     0.000 G0
ENDBRANCH  13  15
ENDBRANCH  12  13
BRANCH  12  17
ATOM     17  C   UNL     1      -3.696  69.916  26.792  1.00  0.00    -0.006 C 
ATOM     18  C   UNL     1      -4.383  69.475  28.098  1.00  0.00     0.008 C 
ATOM     19  C   UNL     1      -2.500  68.984  26.528  1.00  0.00     0.008 C 
ENDBRANCH  12  17
ENDBRANCH  11  12
ENDBRANCH   1  11
TORSDOF 1
ENDMDL
MODEL 9
REMARK VINA RESULT:    -3.512      2.011      3.651
REMARK INTER + INTRA:          -4.887
REMARK INTER:                  -4.882
REMARK INTRA:                  -0.004
REMARK UNBOUND:                 0.473
REMARK SMILES CC1=CCC[C@@H](C)C(=O)C[C@@H](C(C)C)C(=O)C1
REMARK SMILES IDX 8 1 9 2 6 3 7 4 5 5 4 6 3 7 2 8 1 9 10 11 11 12 15 13 16 14
REMARK SMILES IDX 17 15 12 17 13 18 14 19
REMARK H PARENT
REMARK Flexibility Score: 70.00
ROOT
ATOM      1  C   UNL     1      -4.756  72.017  21.245  1.00  0.00     0.136 C 
ATOM      2  O   UNL     1      -3.950  71.100  21.180  1.00  0.00    -0.299 OA
ENDROOT
BRANCH   1   3
ATOM      3  C   UNL     1      -5.192  72.719  19.970  1.00  0.00     0.053 C 
ATOM      4  C   UNL     1      -4.587  74.129  19.897  1.00  0.00     0.016 C 
BRANCH   3   5
ATOM      5  C   UNL     1      -6.733  72.777  19.875  1.00  0.00     0.015 C 
BRANCH   5   6
ATOM      6  C   UNL     1      -7.258  74.222  20.006  1.00  0.00     0.028 C 
BRANCH   6   7
ATOM      7  C   UNL     1      -8.632  74.297  20.619  1.00  0.00    -0.028 C 
ATOM      8  C   UNL     1      -8.915  74.061  21.922  1.00  0.00    -0.070 CG0
ATOM      9  C   UNL     1     -10.364  74.089  22.342  1.00  0.00     0.039 C 
ATOM     10  G   UNL     1      -7.847  73.814  22.979  1.00  0.00     0.000 G0
ENDBRANCH   6   7
ENDBRANCH   5   6
ENDBRANCH   3   5
ENDBRANCH   1   3
BRANCH   1  11
ATOM     11  C   UNL     1      -5.342  72.401  22.586  1.00  0.00     0.087 C 
BRANCH  11  12
ATOM     12  C   UNL     1      -6.543  71.533  23.061  1.00  0.00     0.066 C 
BRANCH  12  13
ATOM     13  C   UNL     1      -7.748  72.394  23.424  1.00  0.00     0.140 C 
ATOM     14  O   UNL     1      -8.616  71.919  24.143  1.00  0.00    -0.299 OA
BRANCH  13  15
ATOM     15  C   UNL     1      -7.862  73.839  22.984  1.00  0.00     0.106 CG0
ATOM     16  G   UNL     1      -8.926  74.073  21.920  1.00  0.00     0.000 G0
ENDBRANCH  13  15
ENDBRANCH  12  13
BRANCH  12  17
ATOM     17  C   UNL     1      -6.214  70.476  24.168  1.00  0.00    -0.006 C 
ATOM     18  C   UNL     1      -5.912  69.102  23.541  1.00  0.00     0.008 C 
ATOM     19  C   UNL     1      -5.015  70.892  25.040  1.00  0.00     0.008 C 
ENDBRANCH  12  17
ENDBRANCH  11  12
ENDBRANCH   1  11
TORSDOF 1
ENDMDL
