MODEL 1
REMARK VINA RESULT:    -1.854      0.000      0.000
REMARK INTER + INTRA:          -1.854
REMARK INTER:                  -1.854
REMARK INTRA:                   0.000
REMARK UNBOUND:                 0.000
REMARK SMILES CC(C)=C1CC[C@@H](C)CC1=O
REMARK SMILES IDX 8 1 7 2 6 3 5 4 4 5 2 6 1 7 3 8 10 9 11 10 9 11
REMARK H PARENT
REMARK Flexibility Score: inf
ROOT
ATOM      1  C   UNL     1      35.801  23.894  27.817  1.00  0.00     0.008 C 
ATOM      2  C   UNL     1      34.495  23.158  28.141  1.00  0.00    -0.006 C 
ATOM      3  C   UNL     1      33.914  22.508  26.876  1.00  0.00     0.008 C 
ATOM      4  C   UNL     1      32.662  21.681  27.199  1.00  0.00     0.039 C 
ATOM      5  C   UNL     1      31.623  22.476  27.979  1.00  0.00    -0.006 C 
ATOM      6  C   UNL     1      30.287  22.235  27.831  1.00  0.00    -0.070 C 
ATOM      7  C   UNL     1      29.784  21.157  26.899  1.00  0.00     0.039 C 
ATOM      8  C   UNL     1      29.245  23.055  28.557  1.00  0.00     0.039 C 
ATOM      9  C   UNL     1      32.156  23.439  28.988  1.00  0.00     0.159 C 
ATOM     10  O   UNL     1      31.526  23.690  30.050  1.00  0.00    -0.295 OA
ATOM     11  C   UNL     1      33.471  24.125  28.753  1.00  0.00     0.084 C 
ENDROOT
TORSDOF 0
ENDMDL
MODEL 2
REMARK VINA RESULT:    -0.950      1.173      4.144
REMARK INTER + INTRA:          -0.950
REMARK INTER:                  -0.950
REMARK INTRA:                   0.000
REMARK UNBOUND:                 0.000
REMARK SMILES CC(C)=C1CC[C@@H](C)CC1=O
REMARK SMILES IDX 8 1 7 2 6 3 5 4 4 5 2 6 1 7 3 8 10 9 11 10 9 11
REMARK H PARENT
REMARK Flexibility Score: inf
ROOT
ATOM      1  C   UNL     1      29.142  21.934  27.970  1.00  0.00     0.008 C 
ATOM      2  C   UNL     1      30.365  22.856  28.040  1.00  0.00    -0.006 C 
ATOM      3  C   UNL     1      31.332  22.559  26.883  1.00  0.00     0.008 C 
ATOM      4  C   UNL     1      32.511  23.541  26.876  1.00  0.00     0.039 C 
ATOM      5  C   UNL     1      33.217  23.614  28.224  1.00  0.00    -0.006 C 
ATOM      6  C   UNL     1      34.557  23.862  28.311  1.00  0.00    -0.070 C 
ATOM      7  C   UNL     1      35.394  24.091  27.073  1.00  0.00     0.039 C 
ATOM      8  C   UNL     1      35.278  23.881  29.638  1.00  0.00     0.039 C 
ATOM      9  C   UNL     1      32.340  23.517  29.429  1.00  0.00     0.159 C 
ATOM     10  O   UNL     1      32.625  24.124  30.496  1.00  0.00    -0.295 OA
ATOM     11  C   UNL     1      31.088  22.689  29.384  1.00  0.00     0.084 C 
ENDROOT
TORSDOF 0
ENDMDL
MODEL 3
REMARK VINA RESULT:    -0.438      1.678      2.800
REMARK INTER + INTRA:          -0.438
REMARK INTER:                  -0.438
REMARK INTRA:                   0.000
REMARK UNBOUND:                 0.000
REMARK SMILES CC(C)=C1CC[C@@H](C)CC1=O
REMARK SMILES IDX 8 1 7 2 6 3 5 4 4 5 2 6 1 7 3 8 10 9 11 10 9 11
REMARK H PARENT
REMARK Flexibility Score: inf
ROOT
ATOM      1  C   UNL     1      36.608  22.734  27.126  1.00  0.00     0.008 C 
ATOM      2  C   UNL     1      35.315  23.382  27.636  1.00  0.00    -0.006 C 
ATOM      3  C   UNL     1      35.277  23.374  29.172  1.00  0.00     0.008 C 
ATOM      4  C   UNL     1      34.040  24.110  29.703  1.00  0.00     0.039 C 
ATOM      5  C   UNL     1      32.746  23.597  29.083  1.00  0.00    -0.006 C 
ATOM      6  C   UNL     1      31.574  23.598  29.785  1.00  0.00    -0.070 C 
ATOM      7  C   UNL     1      31.508  24.125  31.200  1.00  0.00     0.039 C 
ATOM      8  C   UNL     1      30.297  23.040  29.201  1.00  0.00     0.039 C 
ATOM      9  C   UNL     1      32.817  23.210  27.643  1.00  0.00     0.159 C 
ATOM     10  O   UNL     1      31.826  23.352  26.877  1.00  0.00    -0.295 OA
ATOM     11  C   UNL     1      34.088  22.646  27.077  1.00  0.00     0.084 C 
ENDROOT
TORSDOF 0
ENDMDL
