MODEL 1
REMARK VINA RESULT:    -3.540      0.000      0.000
REMARK INTER + INTRA:          -5.578
REMARK INTER:                  -4.989
REMARK INTRA:                  -0.589
REMARK UNBOUND:                -0.589
REMARK SMILES CCCCCCCCC(=O)[O-]
REMARK SMILES IDX 6 1 7 2 8 3 9 4 10 5 11 6 5 7 4 8 3 9 2 10 1 11
REMARK H PARENT
REMARK Flexibility Score: inf
ROOT
ATOM      1  C   UNL     1       3.330  14.711  12.265  1.00  0.00     0.000 C 
ENDROOT
BRANCH   1   2
ATOM      2  C   UNL     1       4.758  14.327  11.851  1.00  0.00     0.006 C 
BRANCH   2   3
ATOM      3  C   UNL     1       4.778  13.180  10.831  1.00  0.00     0.053 C 
BRANCH   3   4
ATOM      4  C   UNL     1       5.079  11.865  11.481  1.00  0.00     0.041 C 
ATOM      5  O   UNL     1       4.318  11.411  12.376  1.00  0.00    -0.550 OA
ATOM      6  O   UNL     1       6.217  11.155  11.121  1.00  0.00    -0.550 OA
ENDBRANCH   3   4
ENDBRANCH   2   3
ENDBRANCH   1   2
BRANCH   1   7
ATOM      7  C   UNL     1       2.331  14.400  11.144  1.00  0.00     0.000 C 
BRANCH   7   8
ATOM      8  C   UNL     1       1.843  15.688  10.469  1.00  0.00    -0.000 C 
BRANCH   8   9
ATOM      9  C   UNL     1       1.355  15.411   9.042  1.00  0.00    -0.000 C 
BRANCH   9  10
ATOM     10  C   UNL     1       1.725  13.990   8.601  1.00  0.00    -0.003 C 
ATOM     11  C   UNL     1       2.571  14.008   7.332  1.00  0.00     0.004 C 
ENDBRANCH   9  10
ENDBRANCH   8   9
ENDBRANCH   7   8
ENDBRANCH   1   7
TORSDOF 7
ENDMDL
MODEL 2
REMARK VINA RESULT:    -3.443      3.784      5.155
REMARK INTER + INTRA:          -5.441
REMARK INTER:                  -4.891
REMARK INTRA:                  -0.549
REMARK UNBOUND:                -0.589
REMARK SMILES CCCCCCCCC(=O)[O-]
REMARK SMILES IDX 6 1 7 2 8 3 9 4 10 5 11 6 5 7 4 8 3 9 2 10 1 11
REMARK H PARENT
REMARK Flexibility Score: inf
ROOT
ATOM      1  C   UNL     1       6.468  11.895  12.542  1.00  0.00     0.000 C 
ENDROOT
BRANCH   1   2
ATOM      2  C   UNL     1       7.425  11.955  13.741  1.00  0.00     0.006 C 
BRANCH   2   3
ATOM      3  C   UNL     1       6.678  11.953  15.081  1.00  0.00     0.053 C 
BRANCH   3   4
ATOM      4  C   UNL     1       7.622  12.029  16.242  1.00  0.00     0.041 C 
ATOM      5  O   UNL     1       7.387  12.810  17.201  1.00  0.00    -0.550 OA
ATOM      6  O   UNL     1       8.779  11.260  16.250  1.00  0.00    -0.550 OA
ENDBRANCH   3   4
ENDBRANCH   2   3
ENDBRANCH   1   2
BRANCH   1   7
ATOM      7  C   UNL     1       6.920  12.848  11.429  1.00  0.00     0.000 C 
BRANCH   7   8
ATOM      8  C   UNL     1       5.812  13.847  11.074  1.00  0.00    -0.000 C 
BRANCH   8   9
ATOM      9  C   UNL     1       4.598  13.673  11.995  1.00  0.00    -0.000 C 
BRANCH   9  10
ATOM     10  C   UNL     1       4.241  14.991  12.690  1.00  0.00    -0.003 C 
ATOM     11  C   UNL     1       3.888  14.764  14.156  1.00  0.00     0.004 C 
ENDBRANCH   9  10
ENDBRANCH   8   9
ENDBRANCH   7   8
ENDBRANCH   1   7
TORSDOF 7
ENDMDL
MODEL 3
REMARK VINA RESULT:    -3.442      2.039      3.666
REMARK INTER + INTRA:          -5.439
REMARK INTER:                  -4.711
REMARK INTRA:                  -0.728
REMARK UNBOUND:                -0.589
REMARK SMILES CCCCCCCCC(=O)[O-]
REMARK SMILES IDX 6 1 7 2 8 3 9 4 10 5 11 6 5 7 4 8 3 9 2 10 1 11
REMARK H PARENT
REMARK Flexibility Score: inf
ROOT
ATOM      1  C   UNL     1       1.722  13.964   9.864  1.00  0.00     0.000 C 
ENDROOT
BRANCH   1   2
ATOM      2  C   UNL     1       2.359  14.047   8.469  1.00  0.00     0.006 C 
BRANCH   2   3
ATOM      3  C   UNL     1       3.619  13.178   8.354  1.00  0.00     0.053 C 
BRANCH   3   4
ATOM      4  C   UNL     1       3.344  11.752   8.720  1.00  0.00     0.041 C 
ATOM      5  O   UNL     1       2.553  11.059   8.025  1.00  0.00    -0.550 OA
ATOM      6  O   UNL     1       3.934  11.196   9.848  1.00  0.00    -0.550 OA
ENDBRANCH   3   4
ENDBRANCH   2   3
ENDBRANCH   1   2
BRANCH   1   7
ATOM      7  C   UNL     1       2.219  15.103  10.763  1.00  0.00     0.000 C 
BRANCH   7   8
ATOM      8  C   UNL     1       2.693  14.567  12.120  1.00  0.00    -0.000 C 
BRANCH   8   9
ATOM      9  C   UNL     1       4.166  14.914  12.364  1.00  0.00    -0.000 C 
BRANCH   9  10
ATOM     10  C   UNL     1       5.057  13.678  12.198  1.00  0.00    -0.003 C 
ATOM     11  C   UNL     1       6.041  13.858  11.046  1.00  0.00     0.004 C 
ENDBRANCH   9  10
ENDBRANCH   8   9
ENDBRANCH   7   8
ENDBRANCH   1   7
TORSDOF 7
ENDMDL
MODEL 4
REMARK VINA RESULT:    -3.399      2.978      5.436
REMARK INTER + INTRA:          -5.379
REMARK INTER:                  -4.931
REMARK INTRA:                  -0.448
REMARK UNBOUND:                -0.589
REMARK SMILES CCCCCCCCC(=O)[O-]
REMARK SMILES IDX 6 1 7 2 8 3 9 4 10 5 11 6 5 7 4 8 3 9 2 10 1 11
REMARK H PARENT
REMARK Flexibility Score: inf
ROOT
ATOM      1  C   UNL     1       4.505  14.488  12.279  1.00  0.00     0.000 C 
ENDROOT
BRANCH   1   2
ATOM      2  C   UNL     1       3.051  14.712  11.840  1.00  0.00     0.006 C 
BRANCH   2   3
ATOM      3  C   UNL     1       2.816  14.303  10.379  1.00  0.00     0.053 C 
BRANCH   3   4
ATOM      4  C   UNL     1       1.621  14.993   9.796  1.00  0.00     0.041 C 
ATOM      5  O   UNL     1       1.541  16.250   9.818  1.00  0.00    -0.550 OA
ATOM      6  O   UNL     1       0.581  14.247   9.257  1.00  0.00    -0.550 OA
ENDBRANCH   3   4
ENDBRANCH   2   3
ENDBRANCH   1   2
BRANCH   1   7
ATOM      7  C   UNL     1       5.346  13.924  11.126  1.00  0.00     0.000 C 
BRANCH   7   8
ATOM      8  C   UNL     1       6.136  12.687  11.574  1.00  0.00    -0.000 C 
BRANCH   8   9
ATOM      9  C   UNL     1       5.558  12.104  12.868  1.00  0.00    -0.000 C 
BRANCH   9  10
ATOM     10  C   UNL     1       6.615  12.076  13.979  1.00  0.00    -0.003 C 
ATOM     11  C   UNL     1       8.024  12.018  13.398  1.00  0.00     0.004 C 
ENDBRANCH   9  10
ENDBRANCH   8   9
ENDBRANCH   7   8
ENDBRANCH   1   7
TORSDOF 7
ENDMDL
MODEL 5
REMARK VINA RESULT:    -3.365      2.831      5.358
REMARK INTER + INTRA:          -5.331
REMARK INTER:                  -4.645
REMARK INTRA:                  -0.686
REMARK UNBOUND:                -0.589
REMARK SMILES CCCCCCCCC(=O)[O-]
REMARK SMILES IDX 6 1 7 2 8 3 9 4 10 5 11 6 5 7 4 8 3 9 2 10 1 11
REMARK H PARENT
REMARK Flexibility Score: inf
ROOT
ATOM      1  C   UNL     1       5.246  13.558  12.418  1.00  0.00     0.000 C 
ENDROOT
BRANCH   1   2
ATOM      2  C   UNL     1       5.379  13.744  10.900  1.00  0.00     0.006 C 
BRANCH   2   3
ATOM      3  C   UNL     1       4.634  12.657  10.114  1.00  0.00     0.053 C 
BRANCH   3   4
ATOM      4  C   UNL     1       3.594  13.242   9.208  1.00  0.00     0.041 C 
ATOM      5  O   UNL     1       3.795  13.299   7.966  1.00  0.00    -0.550 OA
ATOM      6  O   UNL     1       2.417  13.754   9.738  1.00  0.00    -0.550 OA
ENDBRANCH   3   4
ENDBRANCH   2   3
ENDBRANCH   1   2
BRANCH   1   7
ATOM      7  C   UNL     1       5.464  12.091  12.813  1.00  0.00     0.000 C 
BRANCH   7   8
ATOM      8  C   UNL     1       6.525  11.969  13.914  1.00  0.00    -0.000 C 
BRANCH   8   9
ATOM      9  C   UNL     1       7.938  12.079  13.331  1.00  0.00    -0.000 C 
BRANCH   9  10
ATOM     10  C   UNL     1       8.065  11.266  12.038  1.00  0.00    -0.003 C 
ATOM     11  C   UNL     1       8.744  12.078  10.940  1.00  0.00     0.004 C 
ENDBRANCH   9  10
ENDBRANCH   8   9
ENDBRANCH   7   8
ENDBRANCH   1   7
TORSDOF 7
ENDMDL
MODEL 6
REMARK VINA RESULT:    -3.357      1.920      2.852
REMARK INTER + INTRA:          -5.319
REMARK INTER:                  -4.923
REMARK INTRA:                  -0.396
REMARK UNBOUND:                -0.589
REMARK SMILES CCCCCCCCC(=O)[O-]
REMARK SMILES IDX 6 1 7 2 8 3 9 4 10 5 11 6 5 7 4 8 3 9 2 10 1 11
REMARK H PARENT
REMARK Flexibility Score: inf
ROOT
ATOM      1  C   UNL     1       5.417  13.904  11.007  1.00  0.00     0.000 C 
ENDROOT
BRANCH   1   2
ATOM      2  C   UNL     1       6.595  13.039  11.481  1.00  0.00     0.006 C 
BRANCH   2   3
ATOM      3  C   UNL     1       6.153  11.941  12.457  1.00  0.00     0.053 C 
BRANCH   3   4
ATOM      4  C   UNL     1       6.916  12.004  13.744  1.00  0.00     0.041 C 
ATOM      5  O   UNL     1       8.176  11.983  13.737  1.00  0.00    -0.550 OA
ATOM      6  O   UNL     1       6.238  12.052  14.955  1.00  0.00    -0.550 OA
ENDBRANCH   3   4
ENDBRANCH   2   3
ENDBRANCH   1   2
BRANCH   1   7
ATOM      7  C   UNL     1       4.568  14.374  12.195  1.00  0.00     0.000 C 
BRANCH   7   8
ATOM      8  C   UNL     1       3.179  14.830  11.734  1.00  0.00    -0.000 C 
BRANCH   8   9
ATOM      9  C   UNL     1       2.715  14.030  10.511  1.00  0.00    -0.000 C 
BRANCH   9  10
ATOM     10  C   UNL     1       1.450  14.645   9.899  1.00  0.00    -0.003 C 
ATOM     11  C   UNL     1       1.532  16.168   9.877  1.00  0.00     0.004 C 
ENDBRANCH   9  10
ENDBRANCH   8   9
ENDBRANCH   7   8
ENDBRANCH   1   7
TORSDOF 7
ENDMDL
MODEL 7
REMARK VINA RESULT:    -3.352      2.515      3.934
REMARK INTER + INTRA:          -5.313
REMARK INTER:                  -4.596
REMARK INTRA:                  -0.717
REMARK UNBOUND:                -0.589
REMARK SMILES CCCCCCCCC(=O)[O-]
REMARK SMILES IDX 6 1 7 2 8 3 9 4 10 5 11 6 5 7 4 8 3 9 2 10 1 11
REMARK H PARENT
REMARK Flexibility Score: inf
ROOT
ATOM      1  C   UNL     1       6.012  13.897  11.106  1.00  0.00     0.000 C 
ENDROOT
BRANCH   1   2
ATOM      2  C   UNL     1       6.826  12.762  11.745  1.00  0.00     0.006 C 
BRANCH   2   3
ATOM      3  C   UNL     1       6.147  11.396  11.580  1.00  0.00     0.053 C 
BRANCH   3   4
ATOM      4  C   UNL     1       6.881  10.526  10.607  1.00  0.00     0.041 C 
ATOM      5  O   UNL     1       7.973   9.991  10.933  1.00  0.00    -0.550 OA
ATOM      6  O   UNL     1       6.376  10.332   9.328  1.00  0.00    -0.550 OA
ENDBRANCH   3   4
ENDBRANCH   2   3
ENDBRANCH   1   2
BRANCH   1   7
ATOM      7  C   UNL     1       4.589  13.432  10.774  1.00  0.00     0.000 C 
BRANCH   7   8
ATOM      8  C   UNL     1       3.544  14.317  11.467  1.00  0.00    -0.000 C 
BRANCH   8   9
ATOM      9  C   UNL     1       4.161  15.074  12.649  1.00  0.00    -0.000 C 
BRANCH   9  10
ATOM     10  C   UNL     1       3.584  14.579  13.980  1.00  0.00    -0.003 C 
ATOM     11  C   UNL     1       4.415  13.433  14.550  1.00  0.00     0.004 C 
ENDBRANCH   9  10
ENDBRANCH   8   9
ENDBRANCH   7   8
ENDBRANCH   1   7
TORSDOF 7
ENDMDL
MODEL 8
REMARK VINA RESULT:    -3.343      2.137      3.874
REMARK INTER + INTRA:          -5.299
REMARK INTER:                  -4.619
REMARK INTRA:                  -0.680
REMARK UNBOUND:                -0.589
REMARK SMILES CCCCCCCCC(=O)[O-]
REMARK SMILES IDX 6 1 7 2 8 3 9 4 10 5 11 6 5 7 4 8 3 9 2 10 1 11
REMARK H PARENT
REMARK Flexibility Score: inf
ROOT
ATOM      1  C   UNL     1       2.718  13.469  10.814  1.00  0.00     0.000 C 
ENDROOT
BRANCH   1   2
ATOM      2  C   UNL     1       2.507  13.795   9.329  1.00  0.00     0.006 C 
BRANCH   2   3
ATOM      3  C   UNL     1       3.661  13.287   8.453  1.00  0.00     0.053 C 
BRANCH   3   4
ATOM      4  C   UNL     1       3.766  11.794   8.486  1.00  0.00     0.041 C 
ATOM      5  O   UNL     1       2.786  11.081   8.140  1.00  0.00    -0.550 OA
ATOM      6  O   UNL     1       4.933  11.187   8.930  1.00  0.00    -0.550 OA
ENDBRANCH   3   4
ENDBRANCH   2   3
ENDBRANCH   1   2
BRANCH   1   7
ATOM      7  C   UNL     1       2.980  14.745  11.625  1.00  0.00     0.000 C 
BRANCH   7   8
ATOM      8  C   UNL     1       4.335  14.675  12.340  1.00  0.00    -0.000 C 
BRANCH   8   9
ATOM      9  C   UNL     1       5.085  13.388  11.975  1.00  0.00    -0.000 C 
BRANCH   9  10
ATOM     10  C   UNL     1       6.290  13.690  11.076  1.00  0.00    -0.003 C 
ATOM     11  C   UNL     1       7.351  12.600  11.193  1.00  0.00     0.004 C 
ENDBRANCH   9  10
ENDBRANCH   8   9
ENDBRANCH   7   8
ENDBRANCH   1   7
TORSDOF 7
ENDMDL
MODEL 9
REMARK VINA RESULT:    -3.343      1.324      2.011
REMARK INTER + INTRA:          -5.299
REMARK INTER:                  -4.743
REMARK INTRA:                  -0.556
REMARK UNBOUND:                -0.589
REMARK SMILES CCCCCCCCC(=O)[O-]
REMARK SMILES IDX 6 1 7 2 8 3 9 4 10 5 11 6 5 7 4 8 3 9 2 10 1 11
REMARK H PARENT
REMARK Flexibility Score: inf
ROOT
ATOM      1  C   UNL     1       5.072  14.168  11.301  1.00  0.00     0.000 C 
ENDROOT
BRANCH   1   2
ATOM      2  C   UNL     1       5.897  13.066  11.981  1.00  0.00     0.006 C 
BRANCH   2   3
ATOM      3  C   UNL     1       5.347  11.664  11.685  1.00  0.00     0.053 C 
BRANCH   3   4
ATOM      4  C   UNL     1       5.700  11.210  10.302  1.00  0.00     0.041 C 
ATOM      5  O   UNL     1       4.800  11.067   9.432  1.00  0.00    -0.550 OA
ATOM      6  O   UNL     1       7.018  10.913   9.982  1.00  0.00    -0.550 OA
ENDBRANCH   3   4
ENDBRANCH   2   3
ENDBRANCH   1   2
BRANCH   1   7
ATOM      7  C   UNL     1       3.921  14.629  12.204  1.00  0.00     0.000 C 
BRANCH   7   8
ATOM      8  C   UNL     1       2.629  14.815  11.398  1.00  0.00    -0.000 C 
BRANCH   8   9
ATOM      9  C   UNL     1       2.549  13.806  10.247  1.00  0.00    -0.000 C 
BRANCH   9  10
ATOM     10  C   UNL     1       1.934  14.446   8.997  1.00  0.00    -0.003 C 
ATOM     11  C   UNL     1       1.177  15.724   9.347  1.00  0.00     0.004 C 
ENDBRANCH   9  10
ENDBRANCH   8   9
ENDBRANCH   7   8
ENDBRANCH   1   7
TORSDOF 7
ENDMDL
