MODEL 1
REMARK VINA RESULT:     9.783      0.000      0.000
REMARK INTER + INTRA:           9.783
REMARK INTER:                   9.783
REMARK INTRA:                   0.000
REMARK UNBOUND:                 0.000
REMARK SMILES CC1=CC[C@@]2(C)CCCC(C)(C)[C@@]23C[C@@H]13
REMARK SMILES IDX 1 1 2 2 3 3 4 4 5 5 7 6 8 7 9 8 10 9 13 10 15 11 14 12 11 13
REMARK SMILES IDX 12 14 6 15
REMARK H PARENT
REMARK Flexibility Score: inf
ROOT
ATOM      1  C   UNL     1     -13.030  -1.577  20.903  1.00  0.00     0.039 C 
ATOM      2  C   UNL     1     -13.750  -2.015  19.659  1.00  0.00    -0.074 C 
ATOM      3  C   UNL     1     -13.220  -3.002  18.904  1.00  0.00    -0.027 C 
ATOM      4  C   UNL     1     -13.895  -3.497  17.648  1.00  0.00     0.034 C 
ATOM      5  C   UNL     1     -14.628  -2.338  16.913  1.00  0.00    -0.022 C 
ATOM      6  C   UNL     1     -15.447  -2.928  15.740  1.00  0.00     0.008 C 
ATOM      7  C   UNL     1     -16.333  -1.887  15.032  1.00  0.00     0.001 C 
ATOM      8  C   UNL     1     -17.293  -1.177  15.999  1.00  0.00     0.007 C 
ATOM      9  C   UNL     1     -16.611  -0.513  17.228  1.00  0.00    -0.029 C 
ATOM     10  C   UNL     1     -15.623  -1.574  17.877  1.00  0.00    -0.012 C 
ATOM     11  C   UNL     1     -15.057  -1.332  19.285  1.00  0.00     0.022 C 
ATOM     12  C   UNL     1     -16.197  -2.331  19.106  1.00  0.00     0.017 C 
ATOM     13  C   UNL     1     -17.760  -0.036  18.165  1.00  0.00     0.012 C 
ATOM     14  C   UNL     1     -15.847   0.767  16.807  1.00  0.00     0.012 C 
ATOM     15  C   UNL     1     -13.514  -1.389  16.370  1.00  0.00     0.012 C 
ENDROOT
TORSDOF 0
ENDMDL
MODEL 2
REMARK VINA RESULT:    11.458      0.852      0.942
REMARK INTER + INTRA:          11.458
REMARK INTER:                  11.458
REMARK INTRA:                   0.000
REMARK UNBOUND:                 0.000
REMARK SMILES CC1=CC[C@@]2(C)CCCC(C)(C)[C@@]23C[C@@H]13
REMARK SMILES IDX 1 1 2 2 3 3 4 4 5 5 7 6 8 7 9 8 10 9 13 10 15 11 14 12 11 13
REMARK SMILES IDX 12 14 6 15
REMARK H PARENT
REMARK Flexibility Score: inf
ROOT
ATOM      1  C   UNL     1     -13.819  -1.301  21.881  1.00  0.00     0.039 C 
ATOM      2  C   UNL     1     -14.152  -1.935  20.560  1.00  0.00    -0.074 C 
ATOM      3  C   UNL     1     -13.395  -2.960  20.112  1.00  0.00    -0.027 C 
ATOM      4  C   UNL     1     -13.679  -3.649  18.800  1.00  0.00     0.034 C 
ATOM      5  C   UNL     1     -14.233  -2.645  17.749  1.00  0.00    -0.022 C 
ATOM      6  C   UNL     1     -14.674  -3.429  16.490  1.00  0.00     0.008 C 
ATOM      7  C   UNL     1     -15.376  -2.550  15.439  1.00  0.00     0.001 C 
ATOM      8  C   UNL     1     -16.594  -1.808  16.013  1.00  0.00     0.007 C 
ATOM      9  C   UNL     1     -16.302  -0.954  17.279  1.00  0.00    -0.029 C 
ATOM     10  C   UNL     1     -15.485  -1.852  18.303  1.00  0.00    -0.012 C 
ATOM     11  C   UNL     1     -15.335  -1.404  19.765  1.00  0.00     0.022 C 
ATOM     12  C   UNL     1     -16.340  -2.502  19.425  1.00  0.00     0.017 C 
ATOM     13  C   UNL     1     -17.683  -0.461  17.806  1.00  0.00     0.012 C 
ATOM     14  C   UNL     1     -15.507   0.324  16.909  1.00  0.00     0.012 C 
ATOM     15  C   UNL     1     -13.054  -1.682  17.399  1.00  0.00     0.012 C 
ENDROOT
TORSDOF 0
ENDMDL
MODEL 3
REMARK VINA RESULT:    11.682      1.134      3.239
REMARK INTER + INTRA:          11.682
REMARK INTER:                  11.682
REMARK INTRA:                   0.000
REMARK UNBOUND:                 0.000
REMARK SMILES CC1=CC[C@@]2(C)CCCC(C)(C)[C@@]23C[C@@H]13
REMARK SMILES IDX 1 1 2 2 3 3 4 4 5 5 7 6 8 7 9 8 10 9 13 10 15 11 14 12 11 13
REMARK SMILES IDX 12 14 6 15
REMARK H PARENT
REMARK Flexibility Score: inf
ROOT
ATOM      1  C   UNL     1     -12.842  -3.093  21.203  1.00  0.00     0.039 C 
ATOM      2  C   UNL     1     -13.639  -2.436  20.112  1.00  0.00    -0.074 C 
ATOM      3  C   UNL     1     -14.555  -1.499  20.439  1.00  0.00    -0.027 C 
ATOM      4  C   UNL     1     -15.382  -0.792  19.393  1.00  0.00     0.034 C 
ATOM      5  C   UNL     1     -15.708  -1.739  18.202  1.00  0.00    -0.022 C 
ATOM      6  C   UNL     1     -16.397  -0.921  17.084  1.00  0.00     0.008 C 
ATOM      7  C   UNL     1     -16.632  -1.728  15.795  1.00  0.00     0.001 C 
ATOM      8  C   UNL     1     -15.335  -2.335  15.237  1.00  0.00     0.007 C 
ATOM      9  C   UNL     1     -14.534  -3.207  16.245  1.00  0.00    -0.029 C 
ATOM     10  C   UNL     1     -14.398  -2.393  17.602  1.00  0.00    -0.012 C 
ATOM     11  C   UNL     1     -13.389  -2.845  18.668  1.00  0.00     0.022 C 
ATOM     12  C   UNL     1     -13.046  -1.650  17.783  1.00  0.00     0.017 C 
ATOM     13  C   UNL     1     -13.181  -3.549  15.554  1.00  0.00     0.012 C 
ATOM     14  C   UNL     1     -15.245  -4.563  16.484  1.00  0.00     0.012 C 
ATOM     15  C   UNL     1     -16.685  -2.822  18.759  1.00  0.00     0.012 C 
ENDROOT
TORSDOF 0
ENDMDL
