MODEL 1
REMARK VINA RESULT:    -3.835      0.000      0.000
REMARK INTER + INTRA:          -5.241
REMARK INTER:                  -5.404
REMARK INTRA:                   0.163
REMARK UNBOUND:                 0.163
REMARK SMILES CC1=CCC(=C(C)C)C(=O)CC(C)=CCC1
REMARK SMILES IDX 12 1 14 2 13 3 15 4 16 5 2 6 1 7 3 8 11 10 9 11 10 12 5 13
REMARK SMILES IDX 6 14 7 15 8 16 4 17
REMARK H PARENT
REMARK Flexibility Score: 60.00
ROOT
ATOM      1  C   UNL     1       1.061   9.189  18.173  1.00  0.00    -0.070 C 
ATOM      2  C   UNL     1       1.656   8.952  16.984  1.00  0.00    -0.027 C 
ATOM      3  C   UNL     1       0.941   8.041  19.144  1.00  0.00     0.039 C 
ENDROOT
BRANCH   2   4
ATOM      4  C   UNL     1       1.953   9.990  15.923  1.00  0.00     0.032 C 
BRANCH   4   5
ATOM      5  C   UNL     1       3.198  10.859  16.199  1.00  0.00     0.034 C 
BRANCH   5   6
ATOM      6  C   UNL     1       2.932  12.347  16.057  1.00  0.00    -0.077 C 
ATOM      7  C   UNL     1       2.587  12.870  14.685  1.00  0.00     0.039 C 
ATOM      8  C   UNL     1       2.914  13.222  17.093  1.00  0.00    -0.023 CG0
ATOM      9  G   UNL     1       3.243  12.929  18.543  1.00  0.00     0.000 G0
ENDBRANCH   5   6
ENDBRANCH   4   5
ENDBRANCH   2   4
BRANCH   1  10
ATOM     10  C   UNL     1       0.597  10.563  18.612  1.00  0.00     0.111 C 
BRANCH  10  11
ATOM     11  C   UNL     1       1.600  11.225  19.521  1.00  0.00     0.163 C 
ATOM     12  O   UNL     1       2.156  10.518  20.405  1.00  0.00    -0.294 OA
BRANCH  11  13
ATOM     13  C   UNL     1       1.996  12.657  19.371  1.00  0.00    -0.002 C 
ATOM     14  C   UNL     1       1.316  13.643  20.029  1.00  0.00    -0.069 C 
ATOM     15  C   UNL     1       1.789  15.080  20.026  1.00  0.00     0.039 C 
ATOM     16  C   UNL     1       0.050  13.342  20.801  1.00  0.00     0.039 C 
BRANCH  13  17
ATOM     17  C   UNL     1       3.234  12.951  18.539  1.00  0.00     0.066 CG0
ATOM     18  G   UNL     1       2.898  13.231  17.088  1.00  0.00     0.000 G0
ENDBRANCH  13  17
ENDBRANCH  11  13
ENDBRANCH  10  11
ENDBRANCH   1  10
TORSDOF 0
ENDMDL
MODEL 2
REMARK VINA RESULT:    -3.767      1.021      1.289
REMARK INTER + INTRA:          -5.145
REMARK INTER:                  -5.276
REMARK INTRA:                   0.130
REMARK UNBOUND:                 0.163
REMARK SMILES CC1=CCC(=C(C)C)C(=O)CC(C)=CCC1
REMARK SMILES IDX 12 1 14 2 13 3 15 4 16 5 2 6 1 7 3 8 11 10 9 11 10 12 5 13
REMARK SMILES IDX 6 14 7 15 8 16 4 17
REMARK H PARENT
REMARK Flexibility Score: 60.00
ROOT
ATOM      1  C   UNL     1       0.826   8.883  19.762  1.00  0.00    -0.070 C 
ATOM      2  C   UNL     1       1.160   8.308  18.586  1.00  0.00    -0.027 C 
ATOM      3  C   UNL     1       0.754   8.000  20.984  1.00  0.00     0.039 C 
ENDROOT
BRANCH   2   4
ATOM      4  C   UNL     1       1.376   9.037  17.277  1.00  0.00     0.032 C 
BRANCH   4   5
ATOM      5  C   UNL     1       2.812   9.558  17.056  1.00  0.00     0.034 C 
BRANCH   5   6
ATOM      6  C   UNL     1       2.857  10.970  16.500  1.00  0.00    -0.077 C 
ATOM      7  C   UNL     1       2.479  11.168  15.054  1.00  0.00     0.039 C 
ATOM      8  C   UNL     1       3.145  12.072  17.237  1.00  0.00    -0.023 CG0
ATOM      9  G   UNL     1       3.566  12.114  18.693  1.00  0.00     0.000 G0
ENDBRANCH   5   6
ENDBRANCH   4   5
ENDBRANCH   2   4
BRANCH   1  10
ATOM     10  C   UNL     1       0.615  10.374  19.929  1.00  0.00     0.111 C 
BRANCH  10  11
ATOM     11  C   UNL     1       1.887  11.074  20.332  1.00  0.00     0.163 C 
ATOM     12  O   UNL     1       2.578  10.564  21.254  1.00  0.00    -0.294 OA
BRANCH  11  13
ATOM     13  C   UNL     1       2.379  12.304  19.642  1.00  0.00    -0.002 C 
ATOM     14  C   UNL     1       1.836  13.527  19.920  1.00  0.00    -0.069 C 
ATOM     15  C   UNL     1       2.417  14.806  19.360  1.00  0.00     0.039 C 
ATOM     16  C   UNL     1       0.620  13.661  20.811  1.00  0.00     0.039 C 
BRANCH  13  17
ATOM     17  C   UNL     1       3.561  12.144  18.699  1.00  0.00     0.066 CG0
ATOM     18  G   UNL     1       3.133  12.084  17.246  1.00  0.00     0.000 G0
ENDBRANCH  13  17
ENDBRANCH  11  13
ENDBRANCH  10  11
ENDBRANCH   1  10
TORSDOF 0
ENDMDL
MODEL 3
REMARK VINA RESULT:    -3.696      2.109      3.996
REMARK INTER + INTRA:          -5.046
REMARK INTER:                  -5.293
REMARK INTRA:                   0.247
REMARK UNBOUND:                 0.163
REMARK SMILES CC1=CCC(=C(C)C)C(=O)CC(C)=CCC1
REMARK SMILES IDX 12 1 14 2 13 3 15 4 16 5 2 6 1 7 3 8 11 10 9 11 10 12 5 13
REMARK SMILES IDX 6 14 7 15 8 16 4 17
REMARK H PARENT
REMARK Flexibility Score: 60.00
ROOT
ATOM      1  C   UNL     1       1.995  11.161  16.135  1.00  0.00    -0.070 C 
ATOM      2  C   UNL     1       1.807   9.824  16.182  1.00  0.00    -0.027 C 
ATOM      3  C   UNL     1       1.778  11.859  14.816  1.00  0.00     0.039 C 
ENDROOT
BRANCH   2   4
ATOM      4  C   UNL     1       1.883   8.964  17.425  1.00  0.00     0.032 C 
BRANCH   4   5
ATOM      5  C   UNL     1       0.571   8.877  18.233  1.00  0.00     0.034 C 
BRANCH   5   6
ATOM      6  C   UNL     1       0.789   8.924  19.735  1.00  0.00    -0.077 C 
ATOM      7  C   UNL     1       1.416   7.719  20.390  1.00  0.00     0.039 C 
ATOM      8  C   UNL     1       0.524  10.003  20.512  1.00  0.00    -0.023 CG0
ATOM      9  G   UNL     1      -0.116  11.307  20.079  1.00  0.00     0.000 G0
ENDBRANCH   5   6
ENDBRANCH   4   5
ENDBRANCH   2   4
BRANCH   1  10
ATOM     10  C   UNL     1       2.320  11.998  17.356  1.00  0.00     0.111 C 
BRANCH  10  11
ATOM     11  C   UNL     1       1.072  12.435  18.079  1.00  0.00     0.163 C 
ATOM     12  O   UNL     1       0.109  12.866  17.390  1.00  0.00    -0.294 OA
BRANCH  11  13
ATOM     13  C   UNL     1       0.921  12.318  19.560  1.00  0.00    -0.002 C 
ATOM     14  C   UNL     1       1.619  13.138  20.401  1.00  0.00    -0.069 C 
ATOM     15  C   UNL     1       1.369  13.154  21.893  1.00  0.00     0.039 C 
ATOM     16  C   UNL     1       2.683  14.078  19.876  1.00  0.00     0.039 C 
BRANCH  13  17
ATOM     17  C   UNL     1      -0.106  11.322  20.076  1.00  0.00     0.066 CG0
ATOM     18  G   UNL     1       0.527  10.012  20.500  1.00  0.00     0.000 G0
ENDBRANCH  13  17
ENDBRANCH  11  13
ENDBRANCH  10  11
ENDBRANCH   1  10
TORSDOF 0
ENDMDL
MODEL 4
REMARK VINA RESULT:    -3.613      2.993      6.195
REMARK INTER + INTRA:          -4.928
REMARK INTER:                  -5.097
REMARK INTRA:                   0.169
REMARK UNBOUND:                 0.163
REMARK SMILES CC1=CCC(=C(C)C)C(=O)CC(C)=CCC1
REMARK SMILES IDX 12 1 14 2 13 3 15 4 16 5 2 6 1 7 3 8 11 10 9 11 10 12 5 13
REMARK SMILES IDX 6 14 7 15 8 16 4 17
REMARK H PARENT
REMARK Flexibility Score: 60.00
ROOT
ATOM      1  C   UNL     1       1.827  16.071  20.921  1.00  0.00    -0.070 C 
ATOM      2  C   UNL     1       2.456  16.333  22.087  1.00  0.00    -0.027 C 
ATOM      3  C   UNL     1       1.982  17.065  19.797  1.00  0.00     0.039 C 
ENDROOT
BRANCH   2   4
ATOM      4  C   UNL     1       2.499  15.417  23.292  1.00  0.00     0.032 C 
BRANCH   4   5
ATOM      5  C   UNL     1       3.508  14.254  23.185  1.00  0.00     0.034 C 
BRANCH   5   6
ATOM      6  C   UNL     1       2.908  12.906  23.542  1.00  0.00    -0.077 C 
ATOM      7  C   UNL     1       2.462  12.692  24.966  1.00  0.00     0.039 C 
ATOM      8  C   UNL     1       2.681  11.911  22.649  1.00  0.00    -0.023 CG0
ATOM      9  G   UNL     1       3.057  11.896  21.181  1.00  0.00     0.000 G0
ENDBRANCH   5   6
ENDBRANCH   4   5
ENDBRANCH   2   4
BRANCH   1  10
ATOM     10  C   UNL     1       1.058  14.792  20.659  1.00  0.00     0.111 C 
BRANCH  10  11
ATOM     11  C   UNL     1       1.890  13.786  19.907  1.00  0.00     0.163 C 
ATOM     12  O   UNL     1       2.614  14.203  18.963  1.00  0.00    -0.294 OA
BRANCH  11  13
ATOM     13  C   UNL     1       1.931  12.340  20.279  1.00  0.00    -0.002 C 
ATOM     14  C   UNL     1       1.031  11.457  19.752  1.00  0.00    -0.069 C 
ATOM     15  C   UNL     1       1.145   9.966  19.981  1.00  0.00     0.039 C 
ATOM     16  C   UNL     1      -0.129  11.931  18.904  1.00  0.00     0.039 C 
BRANCH  13  17
ATOM     17  C   UNL     1       3.066  11.888  21.184  1.00  0.00     0.066 CG0
ATOM     18  G   UNL     1       2.676  11.913  22.649  1.00  0.00     0.000 G0
ENDBRANCH  13  17
ENDBRANCH  11  13
ENDBRANCH  10  11
ENDBRANCH   1  10
TORSDOF 0
ENDMDL
MODEL 5
REMARK VINA RESULT:    -3.547      3.226      5.824
REMARK INTER + INTRA:          -4.836
REMARK INTER:                  -4.992
REMARK INTRA:                   0.157
REMARK UNBOUND:                 0.163
REMARK SMILES CC1=CCC(=C(C)C)C(=O)CC(C)=CCC1
REMARK SMILES IDX 12 1 14 2 13 3 15 4 16 5 2 6 1 7 3 8 11 10 9 11 10 12 5 13
REMARK SMILES IDX 6 14 7 15 8 16 4 17
REMARK H PARENT
REMARK Flexibility Score: 60.00
ROOT
ATOM      1  C   UNL     1       3.435  14.346  23.297  1.00  0.00    -0.070 C 
ATOM      2  C   UNL     1       3.168  15.670  23.326  1.00  0.00    -0.027 C 
ATOM      3  C   UNL     1       3.922  13.695  24.567  1.00  0.00     0.039 C 
ENDROOT
BRANCH   2   4
ATOM      4  C   UNL     1       2.584  16.479  22.188  1.00  0.00     0.032 C 
BRANCH   4   5
ATOM      5  C   UNL     1       1.063  16.310  21.988  1.00  0.00     0.034 C 
BRANCH   5   6
ATOM      6  C   UNL     1       0.676  16.041  20.544  1.00  0.00    -0.077 C 
ATOM      7  C   UNL     1       0.953  17.123  19.531  1.00  0.00     0.039 C 
ATOM      8  C   UNL     1       0.165  14.867  20.097  1.00  0.00    -0.023 CG0
ATOM      9  G   UNL     1      -0.208  13.656  20.928  1.00  0.00     0.000 G0
ENDBRANCH   5   6
ENDBRANCH   4   5
ENDBRANCH   2   4
BRANCH   1  10
ATOM     10  C   UNL     1       3.181  13.473  22.084  1.00  0.00     0.111 C 
BRANCH  10  11
ATOM     11  C   UNL     1       1.857  12.760  22.179  1.00  0.00     0.163 C 
ATOM     12  O   UNL     1       1.510  12.303  23.301  1.00  0.00    -0.294 OA
BRANCH  11  13
ATOM     13  C   UNL     1       0.929  12.634  21.016  1.00  0.00    -0.002 C 
ATOM     14  C   UNL     1       1.053  11.600  20.131  1.00  0.00    -0.069 C 
ATOM     15  C   UNL     1       0.036  11.353  19.040  1.00  0.00     0.039 C 
ATOM     16  C   UNL     1       2.223  10.642  20.204  1.00  0.00     0.039 C 
BRANCH  13  17
ATOM     17  C   UNL     1      -0.204  13.643  20.919  1.00  0.00     0.066 CG0
ATOM     18  G   UNL     1       0.177  14.858  20.097  1.00  0.00     0.000 G0
ENDBRANCH  13  17
ENDBRANCH  11  13
ENDBRANCH  10  11
ENDBRANCH   1  10
TORSDOF 0
ENDMDL
MODEL 6
REMARK VINA RESULT:    -3.546      2.479      4.426
REMARK INTER + INTRA:          -4.834
REMARK INTER:                  -4.978
REMARK INTRA:                   0.143
REMARK UNBOUND:                 0.163
REMARK SMILES CC1=CCC(=C(C)C)C(=O)CC(C)=CCC1
REMARK SMILES IDX 12 1 14 2 13 3 15 4 16 5 2 6 1 7 3 8 11 10 9 11 10 12 5 13
REMARK SMILES IDX 6 14 7 15 8 16 4 17
REMARK H PARENT
REMARK Flexibility Score: 60.00
ROOT
ATOM      1  C   UNL     1       1.770   9.821  17.891  1.00  0.00    -0.070 C 
ATOM      2  C   UNL     1       0.919   8.803  18.144  1.00  0.00    -0.027 C 
ATOM      3  C   UNL     1       2.119  10.109  16.452  1.00  0.00     0.039 C 
ENDROOT
BRANCH   2   4
ATOM      4  C   UNL     1       0.378   8.421  19.505  1.00  0.00     0.032 C 
BRANCH   4   5
ATOM      5  C   UNL     1      -0.833   9.253  19.977  1.00  0.00     0.034 C 
BRANCH   5   6
ATOM      6  C   UNL     1      -0.696   9.754  21.403  1.00  0.00    -0.077 C 
ATOM      7  C   UNL     1      -0.749   8.734  22.513  1.00  0.00     0.039 C 
ATOM      8  C   UNL     1      -0.458  11.046  21.740  1.00  0.00    -0.023 CG0
ATOM      9  G   UNL     1      -0.381  12.235  20.803  1.00  0.00     0.000 G0
ENDBRANCH   5   6
ENDBRANCH   4   5
ENDBRANCH   2   4
BRANCH   1  10
ATOM     10  C   UNL     1       2.313  10.738  18.968  1.00  0.00     0.111 C 
BRANCH  10  11
ATOM     11  C   UNL     1       1.514  12.012  19.067  1.00  0.00     0.163 C 
ATOM     12  O   UNL     1       1.196  12.597  17.997  1.00  0.00    -0.294 OA
BRANCH  11  13
ATOM     13  C   UNL     1       1.043  12.563  20.373  1.00  0.00    -0.002 C 
ATOM     14  C   UNL     1       1.839  13.395  21.109  1.00  0.00    -0.069 C 
ATOM     15  C   UNL     1       1.333  14.096  22.350  1.00  0.00     0.039 C 
ATOM     16  C   UNL     1       3.275  13.661  20.712  1.00  0.00     0.039 C 
BRANCH  13  17
ATOM     17  C   UNL     1      -0.382  12.235  20.791  1.00  0.00     0.066 CG0
ATOM     18  G   UNL     1      -0.447  11.040  21.720  1.00  0.00     0.000 G0
ENDBRANCH  13  17
ENDBRANCH  11  13
ENDBRANCH  10  11
ENDBRANCH   1  10
TORSDOF 0
ENDMDL
MODEL 7
REMARK VINA RESULT:    -3.442      1.756      3.755
REMARK INTER + INTRA:          -4.687
REMARK INTER:                  -4.968
REMARK INTRA:                   0.280
REMARK UNBOUND:                 0.163
REMARK SMILES CC1=CCC(=C(C)C)C(=O)CC(C)=CCC1
REMARK SMILES IDX 12 1 14 2 13 3 15 4 16 5 2 6 1 7 3 8 11 10 9 11 10 12 5 13
REMARK SMILES IDX 6 14 7 15 8 16 4 17
REMARK H PARENT
REMARK Flexibility Score: 60.00
ROOT
ATOM      1  C   UNL     1       0.692   9.422  19.189  1.00  0.00    -0.070 C 
ATOM      2  C   UNL     1       1.072   9.716  20.451  1.00  0.00    -0.027 C 
ATOM      3  C   UNL     1      -0.066   8.138  18.961  1.00  0.00     0.039 C 
ENDROOT
BRANCH   2   4
ATOM      4  C   UNL     1       1.753  10.994  20.894  1.00  0.00     0.032 C 
BRANCH   4   5
ATOM      5  C   UNL     1       3.243  11.100  20.507  1.00  0.00     0.034 C 
BRANCH   5   6
ATOM      6  C   UNL     1       3.605  12.435  19.880  1.00  0.00    -0.077 C 
ATOM      7  C   UNL     1       3.449  13.673  20.727  1.00  0.00     0.039 C 
ATOM      8  C   UNL     1       4.125  12.578  18.636  1.00  0.00    -0.023 CG0
ATOM      9  G   UNL     1       4.353  11.487  17.609  1.00  0.00     0.000 G0
ENDBRANCH   5   6
ENDBRANCH   4   5
ENDBRANCH   2   4
BRANCH   1  10
ATOM     10  C   UNL     1       0.906  10.358  18.016  1.00  0.00     0.111 C 
BRANCH  10  11
ATOM     11  C   UNL     1       2.212  10.084  17.317  1.00  0.00     0.163 C 
ATOM     12  O   UNL     1       2.541   8.882  17.126  1.00  0.00    -0.294 OA
BRANCH  11  13
ATOM     13  C   UNL     1       3.087  11.176  16.796  1.00  0.00    -0.002 C 
ATOM     14  C   UNL     1       2.719  11.906  15.701  1.00  0.00    -0.069 C 
ATOM     15  C   UNL     1       3.501  13.118  15.247  1.00  0.00     0.039 C 
ATOM     16  C   UNL     1       1.498  11.536  14.887  1.00  0.00     0.039 C 
BRANCH  13  17
ATOM     17  C   UNL     1       4.346  11.495  17.588  1.00  0.00     0.066 CG0
ATOM     18  G   UNL     1       4.111  12.569  18.631  1.00  0.00     0.000 G0
ENDBRANCH  13  17
ENDBRANCH  11  13
ENDBRANCH  10  11
ENDBRANCH   1  10
TORSDOF 0
ENDMDL
MODEL 8
REMARK VINA RESULT:    -3.340      1.741      4.286
REMARK INTER + INTRA:          -4.544
REMARK INTER:                  -4.749
REMARK INTRA:                   0.206
REMARK UNBOUND:                 0.163
REMARK SMILES CC1=CCC(=C(C)C)C(=O)CC(C)=CCC1
REMARK SMILES IDX 12 1 14 2 13 3 15 4 16 5 2 6 1 7 3 8 11 10 9 11 10 12 5 13
REMARK SMILES IDX 6 14 7 15 8 16 4 17
REMARK H PARENT
REMARK Flexibility Score: 60.00
ROOT
ATOM      1  C   UNL     1       1.845  14.901  18.894  1.00  0.00    -0.070 C 
ATOM      2  C   UNL     1       1.712  15.790  17.887  1.00  0.00    -0.027 C 
ATOM      3  C   UNL     1       2.341  15.410  20.225  1.00  0.00     0.039 C 
ENDROOT
BRANCH   2   4
ATOM      4  C   UNL     1       1.144  15.492  16.515  1.00  0.00     0.032 C 
BRANCH   4   5
ATOM      5  C   UNL     1       2.115  14.770  15.556  1.00  0.00     0.034 C 
BRANCH   5   6
ATOM      6  C   UNL     1       1.510  13.536  14.911  1.00  0.00    -0.077 C 
ATOM      7  C   UNL     1       0.389  13.739  13.923  1.00  0.00     0.039 C 
ATOM      8  C   UNL     1       1.959  12.272  15.111  1.00  0.00    -0.023 CG0
ATOM      9  G   UNL     1       3.053  11.830  16.062  1.00  0.00     0.000 G0
ENDBRANCH   5   6
ENDBRANCH   4   5
ENDBRANCH   2   4
BRANCH   1  10
ATOM     10  C   UNL     1       1.435  13.446  18.780  1.00  0.00     0.111 C 
BRANCH  10  11
ATOM     11  C   UNL     1       2.614  12.557  18.481  1.00  0.00     0.163 C 
ATOM     12  O   UNL     1       3.658  12.705  19.171  1.00  0.00    -0.294 OA
BRANCH  11  13
ATOM     13  C   UNL     1       2.565  11.481  17.446  1.00  0.00    -0.002 C 
ATOM     14  C   UNL     1       2.007  10.266  17.727  1.00  0.00    -0.069 C 
ATOM     15  C   UNL     1       1.797   9.215  16.660  1.00  0.00     0.039 C 
ATOM     16  C   UNL     1       1.566   9.911  19.131  1.00  0.00     0.039 C 
BRANCH  13  17
ATOM     17  C   UNL     1       3.071  11.831  16.056  1.00  0.00     0.066 CG0
ATOM     18  G   UNL     1       1.955  12.275  15.132  1.00  0.00     0.000 G0
ENDBRANCH  13  17
ENDBRANCH  11  13
ENDBRANCH  10  11
ENDBRANCH   1  10
TORSDOF 0
ENDMDL
MODEL 9
REMARK VINA RESULT:    -3.307      2.402      3.848
REMARK INTER + INTRA:          -4.497
REMARK INTER:                  -4.941
REMARK INTRA:                   0.444
REMARK UNBOUND:                 0.163
REMARK SMILES CC1=CCC(=C(C)C)C(=O)CC(C)=CCC1
REMARK SMILES IDX 12 1 14 2 13 3 15 4 16 5 2 6 1 7 3 8 11 10 9 11 10 12 5 13
REMARK SMILES IDX 6 14 7 15 8 16 4 17
REMARK H PARENT
REMARK Flexibility Score: 60.00
ROOT
ATOM      1  C   UNL     1       1.908  12.806  14.528  1.00  0.00    -0.070 C 
ATOM      2  C   UNL     1       2.594  11.656  14.697  1.00  0.00    -0.027 C 
ATOM      3  C   UNL     1       2.501  13.856  13.621  1.00  0.00     0.039 C 
ENDROOT
BRANCH   2   4
ATOM      4  C   UNL     1       2.122  10.453  15.486  1.00  0.00     0.032 C 
BRANCH   4   5
ATOM      5  C   UNL     1       3.045  10.043  16.654  1.00  0.00     0.034 C 
BRANCH   5   6
ATOM      6  C   UNL     1       3.306  11.172  17.634  1.00  0.00    -0.077 C 
ATOM      7  C   UNL     1       4.739  11.575  17.873  1.00  0.00     0.039 C 
ATOM      8  C   UNL     1       2.334  11.886  18.253  1.00  0.00    -0.023 CG0
ATOM      9  G   UNL     1       0.839  11.652  18.178  1.00  0.00     0.000 G0
ENDBRANCH   5   6
ENDBRANCH   4   5
ENDBRANCH   2   4
BRANCH   1  10
ATOM     10  C   UNL     1       0.536  13.052  15.125  1.00  0.00     0.111 C 
BRANCH  10  11
ATOM     11  C   UNL     1       0.630  13.618  16.518  1.00  0.00     0.163 C 
ATOM     12  O   UNL     1       1.145  14.759  16.661  1.00  0.00    -0.294 OA
BRANCH  11  13
ATOM     13  C   UNL     1       0.084  12.905  17.711  1.00  0.00    -0.002 C 
ATOM     14  C   UNL     1      -1.084  13.309  18.294  1.00  0.00    -0.069 C 
ATOM     15  C   UNL     1      -1.745  12.515  19.399  1.00  0.00     0.039 C 
ATOM     16  C   UNL     1      -1.781  14.579  17.855  1.00  0.00     0.039 C 
BRANCH  13  17
ATOM     17  C   UNL     1       0.831  11.667  18.182  1.00  0.00     0.066 CG0
ATOM     18  G   UNL     1       2.329  11.888  18.244  1.00  0.00     0.000 G0
ENDBRANCH  13  17
ENDBRANCH  11  13
ENDBRANCH  10  11
ENDBRANCH   1  10
TORSDOF 0
ENDMDL
