MODEL 1
REMARK VINA RESULT:     6.797      0.000      0.000
REMARK INTER + INTRA:           7.300
REMARK INTER:                   7.393
REMARK INTRA:                  -0.093
REMARK UNBOUND:                -0.093
REMARK SMILES CC(=O)[C@H]1CC[C@H]2[C@H]3CC=C4C[C@H](O)CC[C@@]4(C)[C@H]3CC[C@]12C
REMARK SMILES IDX 4 1 5 2 6 3 7 4 22 5 21 6 20 7 19 8 8 9 9 10 10 11 11 12
REMARK SMILES IDX 17 13 16 14 15 15 13 16 12 17 18 18 23 19 2 20 1 21 3 22
REMARK SMILES IDX 14 23
REMARK H PARENT 14 24
REMARK Flexibility Score: inf
ROOT
ATOM      1  C   UNL     1      78.536  16.897   2.508  1.00  0.00     0.062 C 
ATOM      2  C   UNL     1      77.645  15.661   2.214  1.00  0.00     0.012 C 
ATOM      3  C   UNL     1      77.487  14.906   3.547  1.00  0.00     0.005 C 
ATOM      4  C   UNL     1      78.204  15.786   4.565  1.00  0.00    -0.001 C 
ATOM      5  C   UNL     1      79.313  16.510   3.791  1.00  0.00    -0.020 C 
ATOM      6  C   UNL     1      79.769  17.705   4.652  1.00  0.00     0.008 C 
ATOM      7  C   UNL     1      80.248  17.251   6.050  1.00  0.00     0.005 C 
ATOM      8  C   UNL     1      79.234  16.347   6.833  1.00  0.00     0.003 C 
ATOM      9  C   UNL     1      78.608  15.214   5.942  1.00  0.00     0.000 C 
ATOM     10  C   UNL     1      79.411  13.876   5.916  1.00  0.00     0.031 C 
ATOM     11  C   UNL     1      80.688  13.887   6.719  1.00  0.00    -0.027 C 
ATOM     12  C   UNL     1      80.879  14.691   7.782  1.00  0.00    -0.065 C 
ATOM     13  C   UNL     1      79.838  15.738   8.156  1.00  0.00    -0.008 C 
ATOM     14  C   UNL     1      80.507  16.836   9.039  1.00  0.00     0.014 C 
ATOM     15  C   UNL     1      81.246  16.275  10.271  1.00  0.00     0.033 C 
ATOM     16  C   UNL     1      82.058  14.980   9.990  1.00  0.00     0.118 C 
ATOM     17  C   UNL     1      82.218  14.681   8.492  1.00  0.00     0.063 C 
ATOM     18  C   UNL     1      78.707  15.067   8.985  1.00  0.00     0.016 C 
ATOM     19  C   UNL     1      80.533  15.612   3.424  1.00  0.00     0.012 C 
ENDROOT
BRANCH   1  20
ATOM     20  C   UNL     1      79.401  17.390   1.357  1.00  0.00     0.133 C 
ATOM     21  C   UNL     1      80.252  18.626   1.448  1.00  0.00     0.088 C 
ATOM     22  O   UNL     1      79.414  16.748   0.318  1.00  0.00    -0.300 OA
ENDBRANCH   1  20
BRANCH  16  23
ATOM     23  O   UNL     1      81.451  13.877  10.612  1.00  0.00    -0.393 OA
ATOM     24  H   UNL     1      81.946  13.715  11.459  1.00  0.00     0.210 HD
ENDBRANCH  16  23
TORSDOF 2
ENDMDL
MODEL 2
REMARK VINA RESULT:     7.481      1.409      6.773
REMARK INTER + INTRA:           8.044
REMARK INTER:                   7.335
REMARK INTRA:                   0.708
REMARK UNBOUND:                -0.093
REMARK SMILES CC(=O)[C@H]1CC[C@H]2[C@H]3CC=C4C[C@H](O)CC[C@@]4(C)[C@H]3CC[C@]12C
REMARK SMILES IDX 4 1 5 2 6 3 7 4 22 5 21 6 20 7 19 8 8 9 9 10 10 11 11 12
REMARK SMILES IDX 17 13 16 14 15 15 13 16 12 17 18 18 23 19 2 20 1 21 3 22
REMARK SMILES IDX 14 23
REMARK H PARENT 14 24
REMARK Flexibility Score: inf
ROOT
ATOM      1  C   UNL     1      80.284  15.330   8.828  1.00  0.00     0.062 C 
ATOM      2  C   UNL     1      80.664  16.832   8.907  1.00  0.00     0.012 C 
ATOM      3  C   UNL     1      80.164  17.482   7.604  1.00  0.00     0.005 C 
ATOM      4  C   UNL     1      79.432  16.356   6.880  1.00  0.00    -0.001 C 
ATOM      5  C   UNL     1      80.123  15.057   7.312  1.00  0.00    -0.020 C 
ATOM      6  C   UNL     1      79.172  13.894   6.966  1.00  0.00     0.008 C 
ATOM      7  C   UNL     1      78.813  13.880   5.462  1.00  0.00     0.005 C 
ATOM      8  C   UNL     1      78.268  15.239   4.901  1.00  0.00     0.003 C 
ATOM      9  C   UNL     1      79.110  16.479   5.374  1.00  0.00     0.000 C 
ATOM     10  C   UNL     1      80.309  16.853   4.448  1.00  0.00     0.031 C 
ATOM     11  C   UNL     1      80.502  15.943   3.261  1.00  0.00    -0.027 C 
ATOM     12  C   UNL     1      79.496  15.244   2.701  1.00  0.00    -0.065 C 
ATOM     13  C   UNL     1      78.110  15.246   3.333  1.00  0.00    -0.008 C 
ATOM     14  C   UNL     1      77.315  13.999   2.832  1.00  0.00     0.014 C 
ATOM     15  C   UNL     1      77.262  13.876   1.295  1.00  0.00     0.033 C 
ATOM     16  C   UNL     1      78.602  14.212   0.583  1.00  0.00     0.118 C 
ATOM     17  C   UNL     1      79.792  14.305   1.550  1.00  0.00     0.063 C 
ATOM     18  C   UNL     1      77.343  16.523   2.891  1.00  0.00     0.016 C 
ATOM     19  C   UNL     1      81.520  14.824   6.662  1.00  0.00     0.012 C 
ENDROOT
BRANCH   1  20
ATOM     20  C   UNL     1      81.205  14.364   9.561  1.00  0.00     0.133 C 
ATOM     21  C   UNL     1      81.003  13.976  10.998  1.00  0.00     0.088 C 
ATOM     22  O   UNL     1      82.143  13.875   8.950  1.00  0.00    -0.300 OA
ENDBRANCH   1  20
BRANCH  16  23
ATOM     23  O   UNL     1      78.491  15.423  -0.120  1.00  0.00    -0.393 OA
ATOM     24  H   UNL     1      77.762  15.942   0.313  1.00  0.00     0.210 HD
ENDBRANCH  16  23
TORSDOF 2
ENDMDL
MODEL 3
REMARK VINA RESULT:     8.373      1.500      6.762
REMARK INTER + INTRA:           9.014
REMARK INTER:                   8.837
REMARK INTRA:                   0.177
REMARK UNBOUND:                -0.093
REMARK SMILES CC(=O)[C@H]1CC[C@H]2[C@H]3CC=C4C[C@H](O)CC[C@@]4(C)[C@H]3CC[C@]12C
REMARK SMILES IDX 4 1 5 2 6 3 7 4 22 5 21 6 20 7 19 8 8 9 9 10 10 11 11 12
REMARK SMILES IDX 17 13 16 14 15 15 13 16 12 17 18 18 23 19 2 20 1 21 3 22
REMARK SMILES IDX 14 23
REMARK H PARENT 14 24
REMARK Flexibility Score: inf
ROOT
ATOM      1  C   UNL     1      80.389  14.275   8.507  1.00  0.00     0.062 C 
ATOM      2  C   UNL     1      79.009  14.643   9.114  1.00  0.00     0.012 C 
ATOM      3  C   UNL     1      78.018  14.720   7.937  1.00  0.00     0.005 C 
ATOM      4  C   UNL     1      78.841  14.297   6.725  1.00  0.00    -0.001 C 
ATOM      5  C   UNL     1      80.285  14.717   7.026  1.00  0.00    -0.020 C 
ATOM      6  C   UNL     1      81.200  13.942   6.058  1.00  0.00     0.008 C 
ATOM      7  C   UNL     1      80.823  14.207   4.582  1.00  0.00     0.005 C 
ATOM      8  C   UNL     1      79.311  13.974   4.236  1.00  0.00     0.003 C 
ATOM      9  C   UNL     1      78.335  14.601   5.297  1.00  0.00     0.000 C 
ATOM     10  C   UNL     1      77.923  16.080   5.019  1.00  0.00     0.031 C 
ATOM     11  C   UNL     1      78.555  16.696   3.796  1.00  0.00    -0.027 C 
ATOM     12  C   UNL     1      78.967  15.970   2.739  1.00  0.00    -0.065 C 
ATOM     13  C   UNL     1      78.925  14.448   2.783  1.00  0.00    -0.008 C 
ATOM     14  C   UNL     1      79.907  13.875   1.714  1.00  0.00     0.014 C 
ATOM     15  C   UNL     1      79.668  14.430   0.295  1.00  0.00     0.033 C 
ATOM     16  C   UNL     1      79.360  15.952   0.249  1.00  0.00     0.118 C 
ATOM     17  C   UNL     1      79.650  16.666   1.579  1.00  0.00     0.063 C 
ATOM     18  C   UNL     1      77.491  13.961   2.439  1.00  0.00     0.016 C 
ATOM     19  C   UNL     1      80.547  16.249   6.909  1.00  0.00     0.012 C 
ENDROOT
BRANCH   1  20
ATOM     20  C   UNL     1      81.610  14.799   9.250  1.00  0.00     0.133 C 
ATOM     21  C   UNL     1      82.790  13.934   9.591  1.00  0.00     0.088 C 
ATOM     22  O   UNL     1      81.637  15.977   9.572  1.00  0.00    -0.300 OA
ENDBRANCH   1  20
BRANCH  16  23
ATOM     23  O   UNL     1      78.016  16.168  -0.100  1.00  0.00    -0.393 OA
ATOM     24  H   UNL     1      77.945  17.114  -0.396  1.00  0.00     0.210 HD
ENDBRANCH  16  23
TORSDOF 2
ENDMDL
MODEL 4
REMARK VINA RESULT:     8.810      1.501      6.700
REMARK INTER + INTRA:           9.489
REMARK INTER:                   8.897
REMARK INTRA:                   0.592
REMARK UNBOUND:                -0.093
REMARK SMILES CC(=O)[C@H]1CC[C@H]2[C@H]3CC=C4C[C@H](O)CC[C@@]4(C)[C@H]3CC[C@]12C
REMARK SMILES IDX 4 1 5 2 6 3 7 4 22 5 21 6 20 7 19 8 8 9 9 10 10 11 11 12
REMARK SMILES IDX 17 13 16 14 15 15 13 16 12 17 18 18 23 19 2 20 1 21 3 22
REMARK SMILES IDX 14 23
REMARK H PARENT 14 24
REMARK Flexibility Score: inf
ROOT
ATOM      1  C   UNL     1      80.515  15.835   8.677  1.00  0.00     0.062 C 
ATOM      2  C   UNL     1      81.026  14.373   8.748  1.00  0.00     0.012 C 
ATOM      3  C   UNL     1      81.140  13.875   7.295  1.00  0.00     0.005 C 
ATOM      4  C   UNL     1      80.789  15.096   6.452  1.00  0.00    -0.001 C 
ATOM      5  C   UNL     1      79.817  15.929   7.297  1.00  0.00    -0.020 C 
ATOM      6  C   UNL     1      79.778  17.346   6.691  1.00  0.00     0.008 C 
ATOM      7  C   UNL     1      79.362  17.317   5.202  1.00  0.00     0.005 C 
ATOM      8  C   UNL     1      80.199  16.342   4.303  1.00  0.00     0.003 C 
ATOM      9  C   UNL     1      80.414  14.932   4.962  1.00  0.00     0.000 C 
ATOM     10  C   UNL     1      79.302  13.882   4.650  1.00  0.00     0.031 C 
ATOM     11  C   UNL     1      78.169  14.392   3.795  1.00  0.00    -0.027 C 
ATOM     12  C   UNL     1      78.310  15.408   2.922  1.00  0.00    -0.065 C 
ATOM     13  C   UNL     1      79.617  16.186   2.846  1.00  0.00    -0.008 C 
ATOM     14  C   UNL     1      79.351  17.574   2.184  1.00  0.00     0.014 C 
ATOM     15  C   UNL     1      78.640  17.483   0.818  1.00  0.00     0.033 C 
ATOM     16  C   UNL     1      77.501  16.427   0.763  1.00  0.00     0.118 C 
ATOM     17  C   UNL     1      77.102  15.898   2.149  1.00  0.00     0.063 C 
ATOM     18  C   UNL     1      80.629  15.409   1.959  1.00  0.00     0.016 C 
ATOM     19  C   UNL     1      78.377  15.340   7.389  1.00  0.00     0.012 C 
ENDROOT
BRANCH   1  20
ATOM     20  C   UNL     1      79.676  16.312   9.855  1.00  0.00     0.133 C 
ATOM     21  C   UNL     1      80.103  16.138  11.284  1.00  0.00     0.088 C 
ATOM     22  O   UNL     1      78.613  16.870   9.627  1.00  0.00    -0.300 OA
ENDBRANCH   1  20
BRANCH  16  23
ATOM     23  O   UNL     1      77.879  15.343  -0.046  1.00  0.00    -0.393 OA
ATOM     24  H   UNL     1      77.397  14.545   0.298  1.00  0.00     0.210 HD
ENDBRANCH  16  23
TORSDOF 2
ENDMDL
