MODEL 1
REMARK VINA RESULT:    -2.789      0.000      0.000
REMARK INTER + INTRA:          -2.789
REMARK INTER:                  -2.789
REMARK INTRA:                   0.000
REMARK UNBOUND:                 0.000
REMARK SMILES CC(=O)[O-]
REMARK SMILES IDX 1 1 2 2 3 3 4 4
REMARK H PARENT
REMARK Flexibility Score: inf
ROOT
ATOM      1  C   UNL     1     115.324 178.203 116.216  1.00  0.00     0.063 C 
ATOM      2  C   UNL     1     114.052 177.800 115.549  1.00  0.00     0.038 C 
ATOM      3  O   UNL     1     113.585 176.645 115.727  1.00  0.00    -0.550 OA
ATOM      4  O   UNL     1     113.410 178.679 114.687  1.00  0.00    -0.550 OA
ENDROOT
TORSDOF 0
ENDMDL
MODEL 2
REMARK VINA RESULT:    -2.705      1.454      1.769
REMARK INTER + INTRA:          -2.705
REMARK INTER:                  -2.705
REMARK INTRA:                   0.000
REMARK UNBOUND:                 0.000
REMARK SMILES CC(=O)[O-]
REMARK SMILES IDX 1 1 2 2 3 3 4 4
REMARK H PARENT
REMARK Flexibility Score: inf
ROOT
ATOM      1  C   UNL     1     113.228 179.026 114.993  1.00  0.00     0.063 C 
ATOM      2  C   UNL     1     114.117 177.992 115.597  1.00  0.00     0.038 C 
ATOM      3  O   UNL     1     113.707 176.810 115.733  1.00  0.00    -0.550 OA
ATOM      4  O   UNL     1     115.378 178.343 116.060  1.00  0.00    -0.550 OA
ENDROOT
TORSDOF 0
ENDMDL
MODEL 3
REMARK VINA RESULT:    -2.607     13.251     13.638
REMARK INTER + INTRA:          -2.607
REMARK INTER:                  -2.607
REMARK INTRA:                   0.000
REMARK UNBOUND:                 0.000
REMARK SMILES CC(=O)[O-]
REMARK SMILES IDX 1 1 2 2 3 3 4 4
REMARK H PARENT
REMARK Flexibility Score: inf
ROOT
ATOM      1  C   UNL     1     117.437 163.911 119.879  1.00  0.00     0.063 C 
ATOM      2  C   UNL     1     116.915 165.128 119.193  1.00  0.00     0.038 C 
ATOM      3  O   UNL     1     115.945 165.762 119.685  1.00  0.00    -0.550 OA
ATOM      4  O   UNL     1     117.461 165.533 117.982  1.00  0.00    -0.550 OA
ENDROOT
TORSDOF 0
ENDMDL
MODEL 4
REMARK VINA RESULT:    -2.598     13.236     13.642
REMARK INTER + INTRA:          -2.598
REMARK INTER:                  -2.598
REMARK INTRA:                   0.000
REMARK UNBOUND:                 0.000
REMARK SMILES CC(=O)[O-]
REMARK SMILES IDX 1 1 2 2 3 3 4 4
REMARK H PARENT
REMARK Flexibility Score: inf
ROOT
ATOM      1  C   UNL     1     117.449 163.922 119.881  1.00  0.00     0.063 C 
ATOM      2  C   UNL     1     116.871 165.136 119.237  1.00  0.00     0.038 C 
ATOM      3  O   UNL     1     117.337 165.552 118.144  1.00  0.00    -0.550 OA
ATOM      4  O   UNL     1     115.854 165.842 119.867  1.00  0.00    -0.550 OA
ENDROOT
TORSDOF 0
ENDMDL
MODEL 5
REMARK VINA RESULT:    -2.556     13.055     13.610
REMARK INTER + INTRA:          -2.556
REMARK INTER:                  -2.556
REMARK INTRA:                   0.000
REMARK UNBOUND:                 0.000
REMARK SMILES CC(=O)[O-]
REMARK SMILES IDX 1 1 2 2 3 3 4 4
REMARK H PARENT
REMARK Flexibility Score: inf
ROOT
ATOM      1  C   UNL     1     117.532 165.538 117.690  1.00  0.00     0.063 C 
ATOM      2  C   UNL     1     117.062 165.051 119.019  1.00  0.00     0.038 C 
ATOM      3  O   UNL     1     117.566 164.014 119.525  1.00  0.00    -0.550 OA
ATOM      4  O   UNL     1     116.031 165.708 119.677  1.00  0.00    -0.550 OA
ENDROOT
TORSDOF 0
ENDMDL
MODEL 6
REMARK VINA RESULT:    -2.535     12.250     12.743
REMARK INTER + INTRA:          -2.535
REMARK INTER:                  -2.535
REMARK INTRA:                   0.000
REMARK UNBOUND:                 0.000
REMARK SMILES CC(=O)[O-]
REMARK SMILES IDX 1 1 2 2 3 3 4 4
REMARK H PARENT
REMARK Flexibility Score: inf
ROOT
ATOM      1  C   UNL     1     118.356 165.148 115.730  1.00  0.00     0.063 C 
ATOM      2  C   UNL     1     117.659 165.737 116.910  1.00  0.00     0.038 C 
ATOM      3  O   UNL     1     117.632 165.113 118.003  1.00  0.00    -0.550 OA
ATOM      4  O   UNL     1     116.993 166.950 116.791  1.00  0.00    -0.550 OA
ENDROOT
TORSDOF 0
ENDMDL
MODEL 7
REMARK VINA RESULT:    -2.491     12.211     12.753
REMARK INTER + INTRA:          -2.491
REMARK INTER:                  -2.491
REMARK INTRA:                   0.000
REMARK UNBOUND:                 0.000
REMARK SMILES CC(=O)[O-]
REMARK SMILES IDX 1 1 2 2 3 3 4 4
REMARK H PARENT
REMARK Flexibility Score: inf
ROOT
ATOM      1  C   UNL     1     117.392 165.165 118.409  1.00  0.00     0.063 C 
ATOM      2  C   UNL     1     117.553 165.838 117.087  1.00  0.00     0.038 C 
ATOM      3  O   UNL     1     116.971 166.930 116.861  1.00  0.00    -0.550 OA
ATOM      4  O   UNL     1     118.301 165.233 116.085  1.00  0.00    -0.550 OA
ENDROOT
TORSDOF 0
ENDMDL
MODEL 8
REMARK VINA RESULT:    -2.443     14.314     14.801
REMARK INTER + INTRA:          -2.443
REMARK INTER:                  -2.443
REMARK INTRA:                   0.000
REMARK UNBOUND:                 0.000
REMARK SMILES CC(=O)[O-]
REMARK SMILES IDX 1 1 2 2 3 3 4 4
REMARK H PARENT
REMARK Flexibility Score: inf
ROOT
ATOM      1  C   UNL     1     117.798 162.980 120.724  1.00  0.00     0.063 C 
ATOM      2  C   UNL     1     117.452 164.408 120.465  1.00  0.00     0.038 C 
ATOM      3  O   UNL     1     117.006 165.128 121.397  1.00  0.00    -0.550 OA
ATOM      4  O   UNL     1     117.568 164.930 119.184  1.00  0.00    -0.550 OA
ENDROOT
TORSDOF 0
ENDMDL
MODEL 9
REMARK VINA RESULT:    -2.439     13.989     14.570
REMARK INTER + INTRA:          -2.439
REMARK INTER:                  -2.439
REMARK INTRA:                   0.000
REMARK UNBOUND:                 0.000
REMARK SMILES CC(=O)[O-]
REMARK SMILES IDX 1 1 2 2 3 3 4 4
REMARK H PARENT
REMARK Flexibility Score: inf
ROOT
ATOM      1  C   UNL     1     117.318 165.120 118.799  1.00  0.00     0.063 C 
ATOM      2  C   UNL     1     117.369 164.440 120.125  1.00  0.00     0.038 C 
ATOM      3  O   UNL     1     117.687 163.224 120.198  1.00  0.00    -0.550 OA
ATOM      4  O   UNL     1     117.013 165.131 121.276  1.00  0.00    -0.550 OA
ENDROOT
TORSDOF 0
ENDMDL
