MODEL 1
REMARK VINA RESULT:    -3.093      0.000      0.000
REMARK INTER + INTRA:          -8.615
REMARK INTER:                  -5.985
REMARK INTRA:                  -2.629
REMARK UNBOUND:                -2.629
REMARK SMILES CCCCCCCCCCCCCCCCCC(=O)[O-]
REMARK SMILES IDX 10 1 11 2 12 3 13 4 14 5 15 6 16 7 17 8 18 9 19 10 20 11
REMARK SMILES IDX 9 12 8 13 7 14 6 15 5 16 4 17 3 18 2 19 1 20
REMARK H PARENT
REMARK Flexibility Score: inf
ROOT
ATOM      1  C   UNL     1      -7.314  -7.742   0.629  1.00  0.00     0.000 C 
ENDROOT
BRANCH   1   2
ATOM      2  C   UNL     1      -7.849  -6.308   0.536  1.00  0.00     0.000 C 
BRANCH   2   3
ATOM      3  C   UNL     1      -9.316  -6.299   0.080  1.00  0.00     0.000 C 
BRANCH   3   4
ATOM      4  C   UNL     1      -9.663  -5.079  -0.791  1.00  0.00     0.000 C 
BRANCH   4   5
ATOM      5  C   UNL     1     -10.070  -5.411  -2.240  1.00  0.00     0.000 C 
BRANCH   5   6
ATOM      6  C   UNL     1      -9.922  -6.904  -2.605  1.00  0.00     0.000 C 
BRANCH   6   7
ATOM      7  C   UNL     1      -8.768  -7.152  -3.588  1.00  0.00     0.006 C 
BRANCH   7   8
ATOM      8  C   UNL     1      -7.772  -8.169  -3.024  1.00  0.00     0.053 C 
BRANCH   8   9
ATOM      9  C   UNL     1      -6.775  -8.559  -4.070  1.00  0.00     0.041 C 
ATOM     10  O   UNL     1      -5.558  -8.261  -3.927  1.00  0.00    -0.550 OA
ATOM     11  O   UNL     1      -7.195  -9.211  -5.222  1.00  0.00    -0.550 OA
ENDBRANCH   8   9
ENDBRANCH   7   8
ENDBRANCH   6   7
ENDBRANCH   5   6
ENDBRANCH   4   5
ENDBRANCH   3   4
ENDBRANCH   2   3
ENDBRANCH   1   2
BRANCH   1  12
ATOM     12  C   UNL     1      -8.455  -8.745   0.839  1.00  0.00     0.000 C 
BRANCH  12  13
ATOM     13  C   UNL     1      -8.267  -9.521   2.152  1.00  0.00    -0.000 C 
BRANCH  13  14
ATOM     14  C   UNL     1      -9.460  -9.367   3.109  1.00  0.00    -0.000 C 
BRANCH  14  15
ATOM     15  C   UNL     1      -9.646  -7.918   3.593  1.00  0.00    -0.000 C 
BRANCH  15  16
ATOM     16  C   UNL     1      -8.378  -7.347   4.249  1.00  0.00    -0.000 C 
BRANCH  16  17
ATOM     17  C   UNL     1      -8.347  -5.812   4.244  1.00  0.00    -0.000 C 
BRANCH  17  18
ATOM     18  C   UNL     1      -9.655  -5.239   3.677  1.00  0.00    -0.000 C 
BRANCH  18  19
ATOM     19  C   UNL     1      -9.678  -3.703   3.679  1.00  0.00    -0.003 C 
ATOM     20  C   UNL     1      -9.481  -3.105   2.286  1.00  0.00     0.004 C 
ENDBRANCH  18  19
ENDBRANCH  17  18
ENDBRANCH  16  17
ENDBRANCH  15  16
ENDBRANCH  14  15
ENDBRANCH  13  14
ENDBRANCH  12  13
ENDBRANCH   1  12
TORSDOF 16
ENDMDL
MODEL 2
REMARK VINA RESULT:    -3.084     15.112     17.899
REMARK INTER + INTRA:          -8.599
REMARK INTER:                  -7.188
REMARK INTRA:                  -1.411
REMARK UNBOUND:                -2.629
REMARK SMILES CCCCCCCCCCCCCCCCCC(=O)[O-]
REMARK SMILES IDX 10 1 11 2 12 3 13 4 14 5 15 6 16 7 17 8 18 9 19 10 20 11
REMARK SMILES IDX 9 12 8 13 7 14 6 15 5 16 4 17 3 18 2 19 1 20
REMARK H PARENT
REMARK Flexibility Score: inf
ROOT
ATOM      1  C   UNL     1       2.813   7.675   5.688  1.00  0.00     0.000 C 
ENDROOT
BRANCH   1   2
ATOM      2  C   UNL     1       2.658   8.456   6.999  1.00  0.00     0.000 C 
BRANCH   2   3
ATOM      3  C   UNL     1       1.656   9.608   6.835  1.00  0.00     0.000 C 
BRANCH   3   4
ATOM      4  C   UNL     1       0.735   9.430   5.616  1.00  0.00     0.000 C 
BRANCH   4   5
ATOM      5  C   UNL     1      -0.671  10.044   5.769  1.00  0.00     0.000 C 
BRANCH   5   6
ATOM      6  C   UNL     1      -1.576   9.849   4.533  1.00  0.00     0.000 C 
BRANCH   6   7
ATOM      7  C   UNL     1      -3.067   9.997   4.874  1.00  0.00     0.006 C 
BRANCH   7   8
ATOM      8  C   UNL     1      -3.863   8.775   4.409  1.00  0.00     0.053 C 
BRANCH   8   9
ATOM      9  C   UNL     1      -4.680   9.112   3.202  1.00  0.00     0.041 C 
ATOM     10  O   UNL     1      -5.902   8.807   3.159  1.00  0.00    -0.550 OA
ATOM     11  O   UNL     1      -4.082   9.723   2.107  1.00  0.00    -0.550 OA
ENDBRANCH   8   9
ENDBRANCH   7   8
ENDBRANCH   6   7
ENDBRANCH   5   6
ENDBRANCH   4   5
ENDBRANCH   3   4
ENDBRANCH   2   3
ENDBRANCH   1   2
BRANCH   1  12
ATOM     12  C   UNL     1       2.478   6.192   5.883  1.00  0.00     0.000 C 
BRANCH  12  13
ATOM     13  C   UNL     1       2.257   5.497   4.531  1.00  0.00    -0.000 C 
BRANCH  13  14
ATOM     14  C   UNL     1       0.796   5.570   4.057  1.00  0.00    -0.000 C 
BRANCH  14  15
ATOM     15  C   UNL     1       0.116   4.191   4.024  1.00  0.00    -0.000 C 
BRANCH  15  16
ATOM     16  C   UNL     1       1.023   3.072   4.561  1.00  0.00    -0.000 C 
BRANCH  16  17
ATOM     17  C   UNL     1       0.432   2.367   5.790  1.00  0.00    -0.000 C 
BRANCH  17  18
ATOM     18  C   UNL     1       0.881   3.058   7.087  1.00  0.00    -0.000 C 
BRANCH  18  19
ATOM     19  C   UNL     1       2.355   2.783   7.423  1.00  0.00    -0.003 C 
ATOM     20  C   UNL     1       2.703   1.295   7.391  1.00  0.00     0.004 C 
ENDBRANCH  18  19
ENDBRANCH  17  18
ENDBRANCH  16  17
ENDBRANCH  15  16
ENDBRANCH  14  15
ENDBRANCH  13  14
ENDBRANCH  12  13
ENDBRANCH   1  12
TORSDOF 16
ENDMDL
MODEL 3
REMARK VINA RESULT:    -3.066     15.144     17.932
REMARK INTER + INTRA:          -8.563
REMARK INTER:                  -7.347
REMARK INTRA:                  -1.216
REMARK UNBOUND:                -2.629
REMARK SMILES CCCCCCCCCCCCCCCCCC(=O)[O-]
REMARK SMILES IDX 10 1 11 2 12 3 13 4 14 5 15 6 16 7 17 8 18 9 19 10 20 11
REMARK SMILES IDX 9 12 8 13 7 14 6 15 5 16 4 17 3 18 2 19 1 20
REMARK H PARENT
REMARK Flexibility Score: inf
ROOT
ATOM      1  C   UNL     1       1.227   9.727   6.128  1.00  0.00     0.000 C 
ENDROOT
BRANCH   1   2
ATOM      2  C   UNL     1       2.085   9.601   4.863  1.00  0.00     0.000 C 
BRANCH   2   3
ATOM      3  C   UNL     1       2.910   8.305   4.888  1.00  0.00     0.000 C 
BRANCH   3   4
ATOM      4  C   UNL     1       2.715   7.498   6.183  1.00  0.00     0.000 C 
BRANCH   4   5
ATOM      5  C   UNL     1       2.702   5.968   5.998  1.00  0.00     0.000 C 
BRANCH   5   6
ATOM      6  C   UNL     1       1.593   5.462   5.050  1.00  0.00     0.000 C 
BRANCH   6   7
ATOM      7  C   UNL     1       1.324   3.959   5.218  1.00  0.00     0.006 C 
BRANCH   7   8
ATOM      8  C   UNL     1       2.044   3.403   6.450  1.00  0.00     0.053 C 
BRANCH   8   9
ATOM      9  C   UNL     1       1.123   2.529   7.242  1.00  0.00     0.041 C 
ATOM     10  O   UNL     1       0.026   2.983   7.665  1.00  0.00    -0.550 OA
ATOM     11  O   UNL     1       1.497   1.227   7.552  1.00  0.00    -0.550 OA
ENDBRANCH   8   9
ENDBRANCH   7   8
ENDBRANCH   6   7
ENDBRANCH   5   6
ENDBRANCH   4   5
ENDBRANCH   3   4
ENDBRANCH   2   3
ENDBRANCH   1   2
BRANCH   1  12
ATOM     12  C   UNL     1      -0.235  10.026   5.777  1.00  0.00     0.000 C 
BRANCH  12  13
ATOM     13  C   UNL     1      -0.734   9.092   4.664  1.00  0.00    -0.000 C 
BRANCH  13  14
ATOM     14  C   UNL     1      -1.953   9.656   3.917  1.00  0.00    -0.000 C 
BRANCH  14  15
ATOM     15  C   UNL     1      -3.268   9.446   4.688  1.00  0.00    -0.000 C 
BRANCH  15  16
ATOM     16  C   UNL     1      -3.966   8.127   4.317  1.00  0.00    -0.000 C 
BRANCH  16  17
ATOM     17  C   UNL     1      -4.863   8.259   3.077  1.00  0.00    -0.000 C 
BRANCH  17  18
ATOM     18  C   UNL     1      -5.707   9.541   3.145  1.00  0.00    -0.000 C 
BRANCH  18  19
ATOM     19  C   UNL     1      -7.100   9.365   2.521  1.00  0.00    -0.003 C 
ATOM     20  C   UNL     1      -7.381   7.925   2.092  1.00  0.00     0.004 C 
ENDBRANCH  18  19
ENDBRANCH  17  18
ENDBRANCH  16  17
ENDBRANCH  15  16
ENDBRANCH  14  15
ENDBRANCH  13  14
ENDBRANCH  12  13
ENDBRANCH   1  12
TORSDOF 16
ENDMDL
MODEL 4
REMARK VINA RESULT:    -2.912     15.460     17.789
REMARK INTER + INTRA:          -8.265
REMARK INTER:                  -5.549
REMARK INTRA:                  -2.716
REMARK UNBOUND:                -2.629
REMARK SMILES CCCCCCCCCCCCCCCCCC(=O)[O-]
REMARK SMILES IDX 10 1 11 2 12 3 13 4 14 5 15 6 16 7 17 8 18 9 19 10 20 11
REMARK SMILES IDX 9 12 8 13 7 14 6 15 5 16 4 17 3 18 2 19 1 20
REMARK H PARENT
REMARK Flexibility Score: inf
ROOT
ATOM      1  C   UNL     1      -1.587   6.664   0.375  1.00  0.00     0.000 C 
ENDROOT
BRANCH   1   2
ATOM      2  C   UNL     1      -2.089   5.544   1.295  1.00  0.00     0.000 C 
BRANCH   2   3
ATOM      3  C   UNL     1      -1.637   5.782   2.744  1.00  0.00     0.000 C 
BRANCH   3   4
ATOM      4  C   UNL     1      -0.360   5.005   3.106  1.00  0.00     0.000 C 
BRANCH   4   5
ATOM      5  C   UNL     1       0.941   5.580   2.511  1.00  0.00     0.000 C 
BRANCH   5   6
ATOM      6  C   UNL     1       1.531   6.755   3.319  1.00  0.00     0.000 C 
BRANCH   6   7
ATOM      7  C   UNL     1       1.361   6.565   4.834  1.00  0.00     0.006 C 
BRANCH   7   8
ATOM      8  C   UNL     1       2.423   7.347   5.612  1.00  0.00     0.053 C 
BRANCH   8   9
ATOM      9  C   UNL     1       1.916   8.712   5.959  1.00  0.00     0.041 C 
ATOM     10  O   UNL     1       1.948   9.636   5.103  1.00  0.00    -0.550 OA
ATOM     11  O   UNL     1       1.451   8.974   7.242  1.00  0.00    -0.550 OA
ENDBRANCH   8   9
ENDBRANCH   7   8
ENDBRANCH   6   7
ENDBRANCH   5   6
ENDBRANCH   4   5
ENDBRANCH   3   4
ENDBRANCH   2   3
ENDBRANCH   1   2
BRANCH   1  12
ATOM     12  C   UNL     1      -2.413   7.942   0.558  1.00  0.00     0.000 C 
BRANCH  12  13
ATOM     13  C   UNL     1      -1.508   9.134   0.906  1.00  0.00    -0.000 C 
BRANCH  13  14
ATOM     14  C   UNL     1      -1.889   9.800   2.239  1.00  0.00    -0.000 C 
BRANCH  14  15
ATOM     15  C   UNL     1      -0.990   9.347   3.403  1.00  0.00    -0.000 C 
BRANCH  15  16
ATOM     16  C   UNL     1      -1.797   8.934   4.646  1.00  0.00    -0.000 C 
BRANCH  16  17
ATOM     17  C   UNL     1      -3.296   9.240   4.509  1.00  0.00    -0.000 C 
BRANCH  17  18
ATOM     18  C   UNL     1      -4.104   7.948   4.318  1.00  0.00    -0.000 C 
BRANCH  18  19
ATOM     19  C   UNL     1      -5.121   8.050   3.170  1.00  0.00    -0.003 C 
ATOM     20  C   UNL     1      -5.627   9.475   2.951  1.00  0.00     0.004 C 
ENDBRANCH  18  19
ENDBRANCH  17  18
ENDBRANCH  16  17
ENDBRANCH  15  16
ENDBRANCH  14  15
ENDBRANCH  13  14
ENDBRANCH  12  13
ENDBRANCH   1  12
TORSDOF 16
ENDMDL
MODEL 5
REMARK VINA RESULT:    -2.912      5.607      7.756
REMARK INTER + INTRA:          -8.265
REMARK INTER:                  -6.171
REMARK INTRA:                  -2.094
REMARK UNBOUND:                -2.629
REMARK SMILES CCCCCCCCCCCCCCCCCC(=O)[O-]
REMARK SMILES IDX 10 1 11 2 12 3 13 4 14 5 15 6 16 7 17 8 18 9 19 10 20 11
REMARK SMILES IDX 9 12 8 13 7 14 6 15 5 16 4 17 3 18 2 19 1 20
REMARK H PARENT
REMARK Flexibility Score: inf
ROOT
ATOM      1  C   UNL     1      -5.650  -8.204  -3.024  1.00  0.00     0.000 C 
ENDROOT
BRANCH   1   2
ATOM      2  C   UNL     1      -5.371  -7.068  -4.015  1.00  0.00     0.000 C 
BRANCH   2   3
ATOM      3  C   UNL     1      -3.874  -6.721  -4.043  1.00  0.00     0.000 C 
BRANCH   3   4
ATOM      4  C   UNL     1      -3.531  -5.486  -3.193  1.00  0.00     0.000 C 
BRANCH   4   5
ATOM      5  C   UNL     1      -2.388  -4.614  -3.748  1.00  0.00     0.000 C 
BRANCH   5   6
ATOM      6  C   UNL     1      -2.816  -3.683  -4.903  1.00  0.00     0.000 C 
BRANCH   6   7
ATOM      7  C   UNL     1      -1.856  -2.497  -5.082  1.00  0.00     0.006 C 
BRANCH   7   8
ATOM      8  C   UNL     1      -1.271  -2.052  -3.739  1.00  0.00     0.053 C 
BRANCH   8   9
ATOM      9  C   UNL     1      -0.153  -1.081  -3.952  1.00  0.00     0.041 C 
ATOM     10  O   UNL     1       0.754  -1.332  -4.790  1.00  0.00    -0.550 OA
ATOM     11  O   UNL     1      -0.089   0.082  -3.193  1.00  0.00    -0.550 OA
ENDBRANCH   8   9
ENDBRANCH   7   8
ENDBRANCH   6   7
ENDBRANCH   5   6
ENDBRANCH   4   5
ENDBRANCH   3   4
ENDBRANCH   2   3
ENDBRANCH   1   2
BRANCH   1  12
ATOM     12  C   UNL     1      -7.126  -8.617  -3.057  1.00  0.00     0.000 C 
BRANCH  12  13
ATOM     13  C   UNL     1      -7.605  -8.825  -4.502  1.00  0.00    -0.000 C 
BRANCH  13  14
ATOM     14  C   UNL     1      -8.992  -8.214  -4.762  1.00  0.00    -0.000 C 
BRANCH  14  15
ATOM     15  C   UNL     1      -9.506  -7.388  -3.569  1.00  0.00    -0.000 C 
BRANCH  15  16
ATOM     16  C   UNL     1      -9.872  -5.947  -3.962  1.00  0.00    -0.000 C 
BRANCH  16  17
ATOM     17  C   UNL     1      -8.646  -5.026  -4.047  1.00  0.00    -0.000 C 
BRANCH  17  18
ATOM     18  C   UNL     1      -7.943  -4.923  -2.685  1.00  0.00    -0.000 C 
BRANCH  18  19
ATOM     19  C   UNL     1      -6.850  -3.843  -2.665  1.00  0.00    -0.003 C 
ATOM     20  C   UNL     1      -6.454  -3.373  -4.064  1.00  0.00     0.004 C 
ENDBRANCH  18  19
ENDBRANCH  17  18
ENDBRANCH  16  17
ENDBRANCH  15  16
ENDBRANCH  14  15
ENDBRANCH  13  14
ENDBRANCH  12  13
ENDBRANCH   1  12
TORSDOF 16
ENDMDL
MODEL 6
REMARK VINA RESULT:    -2.896      1.887      4.318
REMARK INTER + INTRA:          -8.234
REMARK INTER:                  -5.704
REMARK INTRA:                  -2.530
REMARK UNBOUND:                -2.629
REMARK SMILES CCCCCCCCCCCCCCCCCC(=O)[O-]
REMARK SMILES IDX 10 1 11 2 12 3 13 4 14 5 15 6 16 7 17 8 18 9 19 10 20 11
REMARK SMILES IDX 9 12 8 13 7 14 6 15 5 16 4 17 3 18 2 19 1 20
REMARK H PARENT
REMARK Flexibility Score: inf
ROOT
ATOM      1  C   UNL     1      -8.147  -4.805  -3.653  1.00  0.00     0.000 C 
ENDROOT
BRANCH   1   2
ATOM      2  C   UNL     1      -9.612  -5.036  -4.041  1.00  0.00     0.000 C 
BRANCH   2   3
ATOM      3  C   UNL     1      -9.775  -6.361  -4.802  1.00  0.00     0.000 C 
BRANCH   3   4
ATOM      4  C   UNL     1      -9.422  -7.589  -3.945  1.00  0.00     0.000 C 
BRANCH   4   5
ATOM      5  C   UNL     1      -8.460  -8.591  -4.612  1.00  0.00     0.000 C 
BRANCH   5   6
ATOM      6  C   UNL     1      -7.173  -8.857  -3.803  1.00  0.00     0.000 C 
BRANCH   6   7
ATOM      7  C   UNL     1      -6.079  -7.817  -4.089  1.00  0.00     0.006 C 
BRANCH   7   8
ATOM      8  C   UNL     1      -5.401  -7.358  -2.796  1.00  0.00     0.053 C 
BRANCH   8   9
ATOM      9  C   UNL     1      -4.001  -6.906  -3.071  1.00  0.00     0.041 C 
ATOM     10  O   UNL     1      -3.777  -5.718  -3.426  1.00  0.00    -0.550 OA
ATOM     11  O   UNL     1      -2.949  -7.810  -2.979  1.00  0.00    -0.550 OA
ENDBRANCH   8   9
ENDBRANCH   7   8
ENDBRANCH   6   7
ENDBRANCH   5   6
ENDBRANCH   4   5
ENDBRANCH   3   4
ENDBRANCH   2   3
ENDBRANCH   1   2
BRANCH   1  12
ATOM     12  C   UNL     1      -7.985  -4.719  -2.131  1.00  0.00     0.000 C 
BRANCH  12  13
ATOM     13  C   UNL     1      -9.345  -4.844  -1.426  1.00  0.00    -0.000 C 
BRANCH  13  14
ATOM     14  C   UNL     1      -9.408  -6.043  -0.466  1.00  0.00    -0.000 C 
BRANCH  14  15
ATOM     15  C   UNL     1      -8.098  -6.849  -0.440  1.00  0.00    -0.000 C 
BRANCH  15  16
ATOM     16  C   UNL     1      -8.338  -8.368  -0.452  1.00  0.00    -0.000 C 
BRANCH  16  17
ATOM     17  C   UNL     1      -8.524  -8.950   0.957  1.00  0.00    -0.000 C 
BRANCH  17  18
ATOM     18  C   UNL     1      -8.053  -7.955   2.028  1.00  0.00    -0.000 C 
BRANCH  18  19
ATOM     19  C   UNL     1      -9.156  -7.613   3.042  1.00  0.00    -0.003 C 
ATOM     20  C   UNL     1      -9.242  -6.117   3.343  1.00  0.00     0.004 C 
ENDBRANCH  18  19
ENDBRANCH  17  18
ENDBRANCH  16  17
ENDBRANCH  15  16
ENDBRANCH  14  15
ENDBRANCH  13  14
ENDBRANCH  12  13
ENDBRANCH   1  12
TORSDOF 16
ENDMDL
MODEL 7
REMARK VINA RESULT:    -2.888      9.321     12.095
REMARK INTER + INTRA:          -8.218
REMARK INTER:                  -5.495
REMARK INTRA:                  -2.724
REMARK UNBOUND:                -2.629
REMARK SMILES CCCCCCCCCCCCCCCCCC(=O)[O-]
REMARK SMILES IDX 10 1 11 2 12 3 13 4 14 5 15 6 16 7 17 8 18 9 19 10 20 11
REMARK SMILES IDX 9 12 8 13 7 14 6 15 5 16 4 17 3 18 2 19 1 20
REMARK H PARENT
REMARK Flexibility Score: inf
ROOT
ATOM      1  C   UNL     1      -4.361  -0.337  11.222  1.00  0.00     0.000 C 
ENDROOT
BRANCH   1   2
ATOM      2  C   UNL     1      -5.320  -1.263  11.980  1.00  0.00     0.000 C 
BRANCH   2   3
ATOM      3  C   UNL     1      -5.640  -2.516  11.151  1.00  0.00     0.000 C 
BRANCH   3   4
ATOM      4  C   UNL     1      -5.057  -2.456   9.729  1.00  0.00     0.000 C 
BRANCH   4   5
ATOM      5  C   UNL     1      -6.085  -2.167   8.617  1.00  0.00     0.000 C 
BRANCH   5   6
ATOM      6  C   UNL     1      -5.647  -1.061   7.634  1.00  0.00     0.000 C 
BRANCH   6   7
ATOM      7  C   UNL     1      -6.677   0.076   7.539  1.00  0.00     0.006 C 
BRANCH   7   8
ATOM      8  C   UNL     1      -8.063  -0.465   7.179  1.00  0.00     0.053 C 
BRANCH   8   9
ATOM      9  C   UNL     1      -8.575   0.195   5.937  1.00  0.00     0.041 C 
ATOM     10  O   UNL     1      -8.853  -0.498   4.921  1.00  0.00    -0.550 OA
ATOM     11  O   UNL     1      -8.703   1.577   5.887  1.00  0.00    -0.550 OA
ENDBRANCH   8   9
ENDBRANCH   7   8
ENDBRANCH   6   7
ENDBRANCH   5   6
ENDBRANCH   4   5
ENDBRANCH   3   4
ENDBRANCH   2   3
ENDBRANCH   1   2
BRANCH   1  12
ATOM     12  C   UNL     1      -4.887   1.104  11.197  1.00  0.00     0.000 C 
BRANCH  12  13
ATOM     13  C   UNL     1      -6.395   1.132  10.904  1.00  0.00    -0.000 C 
BRANCH  13  14
ATOM     14  C   UNL     1      -7.230   1.550  12.125  1.00  0.00    -0.000 C 
BRANCH  14  15
ATOM     15  C   UNL     1      -8.685   1.054  12.044  1.00  0.00    -0.000 C 
BRANCH  15  16
ATOM     16  C   UNL     1      -8.946   0.190  10.799  1.00  0.00    -0.000 C 
BRANCH  16  17
ATOM     17  C   UNL     1      -9.473  -1.209  11.148  1.00  0.00    -0.000 C 
BRANCH  17  18
ATOM     18  C   UNL     1      -9.404  -2.141   9.928  1.00  0.00    -0.000 C 
BRANCH  18  19
ATOM     19  C   UNL     1      -9.156  -3.607  10.317  1.00  0.00    -0.003 C 
ATOM     20  C   UNL     1      -9.129  -4.544   9.110  1.00  0.00     0.004 C 
ENDBRANCH  18  19
ENDBRANCH  17  18
ENDBRANCH  16  17
ENDBRANCH  15  16
ENDBRANCH  14  15
ENDBRANCH  13  14
ENDBRANCH  12  13
ENDBRANCH   1  12
TORSDOF 16
ENDMDL
MODEL 8
REMARK VINA RESULT:    -2.879      3.281      6.785
REMARK INTER + INTRA:          -8.200
REMARK INTER:                  -5.474
REMARK INTRA:                  -2.727
REMARK UNBOUND:                -2.629
REMARK SMILES CCCCCCCCCCCCCCCCCC(=O)[O-]
REMARK SMILES IDX 10 1 11 2 12 3 13 4 14 5 15 6 16 7 17 8 18 9 19 10 20 11
REMARK SMILES IDX 9 12 8 13 7 14 6 15 5 16 4 17 3 18 2 19 1 20
REMARK H PARENT
REMARK Flexibility Score: inf
ROOT
ATOM      1  C   UNL     1      -9.792  -6.311  -1.788  1.00  0.00     0.000 C 
ENDROOT
BRANCH   1   2
ATOM      2  C   UNL     1      -8.384  -5.749  -1.552  1.00  0.00     0.000 C 
BRANCH   2   3
ATOM      3  C   UNL     1      -7.736  -6.397  -0.319  1.00  0.00     0.000 C 
BRANCH   3   4
ATOM      4  C   UNL     1      -7.926  -7.922  -0.276  1.00  0.00     0.000 C 
BRANCH   4   5
ATOM      5  C   UNL     1      -7.090  -8.652   0.793  1.00  0.00     0.000 C 
BRANCH   5   6
ATOM      6  C   UNL     1      -7.867  -9.747   1.555  1.00  0.00     0.000 C 
BRANCH   6   7
ATOM      7  C   UNL     1      -8.963  -9.162   2.458  1.00  0.00     0.006 C 
BRANCH   7   8
ATOM      8  C   UNL     1      -8.427  -7.996   3.293  1.00  0.00     0.053 C 
BRANCH   8   9
ATOM      9  C   UNL     1      -9.462  -6.922   3.416  1.00  0.00     0.041 C 
ATOM     10  O   UNL     1      -9.795  -6.490   4.552  1.00  0.00    -0.550 OA
ATOM     11  O   UNL     1     -10.091  -6.430   2.279  1.00  0.00    -0.550 OA
ENDBRANCH   8   9
ENDBRANCH   7   8
ENDBRANCH   6   7
ENDBRANCH   5   6
ENDBRANCH   4   5
ENDBRANCH   3   4
ENDBRANCH   2   3
ENDBRANCH   1   2
BRANCH   1  12
ATOM     12  C   UNL     1     -10.046  -6.556  -3.280  1.00  0.00     0.000 C 
BRANCH  12  13
ATOM     13  C   UNL     1      -8.741  -6.911  -4.008  1.00  0.00    -0.000 C 
BRANCH  13  14
ATOM     14  C   UNL     1      -8.649  -8.403  -4.369  1.00  0.00    -0.000 C 
BRANCH  14  15
ATOM     15  C   UNL     1      -7.323  -9.039  -3.916  1.00  0.00    -0.000 C 
BRANCH  15  16
ATOM     16  C   UNL     1      -6.131  -8.078  -4.049  1.00  0.00    -0.000 C 
BRANCH  16  17
ATOM     17  C   UNL     1      -5.276  -8.014  -2.774  1.00  0.00    -0.000 C 
BRANCH  17  18
ATOM     18  C   UNL     1      -4.676  -6.611  -2.587  1.00  0.00    -0.000 C 
BRANCH  18  19
ATOM     19  C   UNL     1      -5.161  -5.614  -3.651  1.00  0.00    -0.003 C 
ATOM     20  C   UNL     1      -5.502  -4.243  -3.068  1.00  0.00     0.004 C 
ENDBRANCH  18  19
ENDBRANCH  17  18
ENDBRANCH  16  17
ENDBRANCH  15  16
ENDBRANCH  14  15
ENDBRANCH  13  14
ENDBRANCH  12  13
ENDBRANCH   1  12
TORSDOF 16
ENDMDL
MODEL 9
REMARK VINA RESULT:    -2.867      1.724      3.358
REMARK INTER + INTRA:          -8.177
REMARK INTER:                  -6.007
REMARK INTRA:                  -2.171
REMARK UNBOUND:                -2.629
REMARK SMILES CCCCCCCCCCCCCCCCCC(=O)[O-]
REMARK SMILES IDX 10 1 11 2 12 3 13 4 14 5 15 6 16 7 17 8 18 9 19 10 20 11
REMARK SMILES IDX 9 12 8 13 7 14 6 15 5 16 4 17 3 18 2 19 1 20
REMARK H PARENT
REMARK Flexibility Score: inf
ROOT
ATOM      1  C   UNL     1      -9.749  -5.769  -1.150  1.00  0.00     0.000 C 
ENDROOT
BRANCH   1   2
ATOM      2  C   UNL     1      -8.863  -4.904  -2.054  1.00  0.00     0.000 C 
BRANCH   2   3
ATOM      3  C   UNL     1      -8.884  -5.424  -3.500  1.00  0.00     0.000 C 
BRANCH   3   4
ATOM      4  C   UNL     1      -9.764  -6.673  -3.673  1.00  0.00     0.000 C 
BRANCH   4   5
ATOM      5  C   UNL     1      -9.045  -7.896  -4.275  1.00  0.00     0.000 C 
BRANCH   5   6
ATOM      6  C   UNL     1      -7.961  -8.499  -3.357  1.00  0.00     0.000 C 
BRANCH   6   7
ATOM      7  C   UNL     1      -6.618  -8.681  -4.081  1.00  0.00     0.006 C 
BRANCH   7   8
ATOM      8  C   UNL     1      -5.729  -7.446  -3.912  1.00  0.00     0.053 C 
BRANCH   8   9
ATOM      9  C   UNL     1      -4.927  -7.548  -2.653  1.00  0.00     0.041 C 
ATOM     10  O   UNL     1      -5.429  -7.192  -1.553  1.00  0.00    -0.550 OA
ATOM     11  O   UNL     1      -3.612  -7.993  -2.700  1.00  0.00    -0.550 OA
ENDBRANCH   8   9
ENDBRANCH   7   8
ENDBRANCH   6   7
ENDBRANCH   5   6
ENDBRANCH   4   5
ENDBRANCH   3   4
ENDBRANCH   2   3
ENDBRANCH   1   2
BRANCH   1  12
ATOM     12  C   UNL     1      -9.370  -5.595   0.326  1.00  0.00     0.000 C 
BRANCH  12  13
ATOM     13  C   UNL     1      -8.237  -6.555   0.718  1.00  0.00    -0.000 C 
BRANCH  13  14
ATOM     14  C   UNL     1      -8.505  -8.003   0.274  1.00  0.00    -0.000 C 
BRANCH  14  15
ATOM     15  C   UNL     1      -7.570  -9.014   0.961  1.00  0.00    -0.000 C 
BRANCH  15  16
ATOM     16  C   UNL     1      -8.292  -9.863   2.020  1.00  0.00    -0.000 C 
BRANCH  16  17
ATOM     17  C   UNL     1      -8.311  -9.195   3.403  1.00  0.00    -0.000 C 
BRANCH  17  18
ATOM     18  C   UNL     1      -9.753  -8.934   3.865  1.00  0.00    -0.000 C 
BRANCH  18  19
ATOM     19  C   UNL     1     -10.124  -7.443   3.829  1.00  0.00    -0.003 C 
ATOM     20  C   UNL     1      -9.050  -6.549   4.447  1.00  0.00     0.004 C 
ENDBRANCH  18  19
ENDBRANCH  17  18
ENDBRANCH  16  17
ENDBRANCH  15  16
ENDBRANCH  14  15
ENDBRANCH  13  14
ENDBRANCH  12  13
ENDBRANCH   1  12
TORSDOF 16
ENDMDL
