MODEL 1
REMARK VINA RESULT:    -6.740      0.000      0.000
REMARK INTER + INTRA:          -9.043
REMARK INTER:                  -8.513
REMARK INTRA:                  -0.531
REMARK UNBOUND:                -0.531
REMARK SMILES Oc1cc(O)cc(CCc2ccccc2O)c1
REMARK SMILES IDX 9 1 10 2 12 3 13 4 11 5 14 6 15 7 16 8 8 10 7 11 6 12 17 13
REMARK SMILES IDX 4 14 2 15 3 16 5 17 1 19
REMARK H PARENT 16 9 5 18 1 20
REMARK Flexibility Score: inf
ROOT
ATOM      1  C   UNL     1      26.137   6.797  20.948  1.00  0.00     0.044 C 
ENDROOT
BRANCH   1   2
ATOM      2  C   UNL     1      25.163   7.243  19.884  1.00  0.00    -0.006 A 
ATOM      3  C   UNL     1      23.056   8.330  19.325  1.00  0.00     0.001 A 
ATOM      4  C   UNL     1      23.310   8.137  17.967  1.00  0.00     0.004 A 
ATOM      5  C   UNL     1      23.978   7.890  20.278  1.00  0.00     0.007 A 
ATOM      6  C   UNL     1      24.489   7.512  17.557  1.00  0.00     0.046 A 
ATOM      7  C   UNL     1      25.425   7.070  18.501  1.00  0.00     0.118 A 
BRANCH   7   8
ATOM      8  O   UNL     1      26.596   6.471  18.029  1.00  0.00    -0.508 OA
ATOM      9  H   UNL     1      26.605   5.672  17.410  1.00  0.00     0.293 HD
ENDBRANCH   7   8
ENDBRANCH   1   2
BRANCH   1  10
ATOM     10  C   UNL     1      26.445   7.943  21.917  1.00  0.00     0.040 C 
BRANCH  10  11
ATOM     11  C   UNL     1      26.271   7.492  23.342  1.00  0.00    -0.040 A 
ATOM     12  C   UNL     1      27.356   7.517  24.232  1.00  0.00     0.050 A 
ATOM     13  C   UNL     1      25.005   7.097  23.808  1.00  0.00     0.050 A 
ATOM     14  C   UNL     1      27.187   7.129  25.565  1.00  0.00     0.119 A 
ATOM     15  C   UNL     1      24.832   6.709  25.141  1.00  0.00     0.119 A 
ATOM     16  C   UNL     1      25.925   6.723  26.018  1.00  0.00     0.092 A 
BRANCH  14  17
ATOM     17  O   UNL     1      28.278   7.154  26.431  1.00  0.00    -0.508 OA
ATOM     18  H   UNL     1      28.156   7.153  27.438  1.00  0.00     0.293 HD
ENDBRANCH  14  17
BRANCH  15  19
ATOM     19  O   UNL     1      23.572   6.314  25.583  1.00  0.00    -0.508 OA
ATOM     20  H   UNL     1      23.061   6.850  26.275  1.00  0.00     0.293 HD
ENDBRANCH  15  19
ENDBRANCH  10  11
ENDBRANCH   1  10
TORSDOF 6
ENDMDL
MODEL 2
REMARK VINA RESULT:    -6.739      1.375      6.879
REMARK INTER + INTRA:          -9.042
REMARK INTER:                  -8.515
REMARK INTRA:                  -0.527
REMARK UNBOUND:                -0.531
REMARK SMILES Oc1cc(O)cc(CCc2ccccc2O)c1
REMARK SMILES IDX 9 1 10 2 12 3 13 4 11 5 14 6 15 7 16 8 8 10 7 11 6 12 17 13
REMARK SMILES IDX 4 14 2 15 3 16 5 17 1 19
REMARK H PARENT 16 9 5 18 1 20
REMARK Flexibility Score: inf
ROOT
ATOM      1  C   UNL     1      24.087   7.148  22.621  1.00  0.00     0.044 C 
ENDROOT
BRANCH   1   2
ATOM      2  C   UNL     1      25.155   7.126  23.689  1.00  0.00    -0.006 A 
ATOM      3  C   UNL     1      27.481   7.507  24.304  1.00  0.00     0.001 A 
ATOM      4  C   UNL     1      27.198   7.147  25.622  1.00  0.00     0.004 A 
ATOM      5  C   UNL     1      26.466   7.502  23.344  1.00  0.00     0.007 A 
ATOM      6  C   UNL     1      25.898   6.788  25.985  1.00  0.00     0.046 A 
ATOM      7  C   UNL     1      24.869   6.782  25.035  1.00  0.00     0.118 A 
BRANCH   7   8
ATOM      8  O   UNL     1      23.586   6.435  25.463  1.00  0.00    -0.508 OA
ATOM      9  H   UNL     1      23.025   5.718  25.024  1.00  0.00     0.293 HD
ENDBRANCH   7   8
ENDBRANCH   1   2
BRANCH   1  10
ATOM     10  C   UNL     1      24.198   8.417  21.769  1.00  0.00     0.040 C 
BRANCH  10  11
ATOM     11  C   UNL     1      24.156   8.074  20.304  1.00  0.00    -0.040 A 
ATOM     12  C   UNL     1      23.054   8.449  19.520  1.00  0.00     0.050 A 
ATOM     13  C   UNL     1      25.246   7.427  19.699  1.00  0.00     0.050 A 
ATOM     14  C   UNL     1      23.029   8.161  18.151  1.00  0.00     0.119 A 
ATOM     15  C   UNL     1      25.225   7.138  18.330  1.00  0.00     0.119 A 
ATOM     16  C   UNL     1      24.114   7.503  17.558  1.00  0.00     0.092 A 
BRANCH  14  17
ATOM     17  O   UNL     1      21.924   8.535  17.391  1.00  0.00    -0.508 OA
ATOM     18  H   UNL     1      22.013   8.782  16.411  1.00  0.00     0.293 HD
ENDBRANCH  14  17
BRANCH  15  19
ATOM     19  O   UNL     1      26.312   6.490  17.749  1.00  0.00    -0.508 OA
ATOM     20  H   UNL     1      27.234   6.521  18.168  1.00  0.00     0.293 HD
ENDBRANCH  15  19
ENDBRANCH  10  11
ENDBRANCH   1  10
TORSDOF 6
ENDMDL
MODEL 3
REMARK VINA RESULT:    -6.736      1.305      6.581
REMARK INTER + INTRA:          -9.038
REMARK INTER:                  -8.501
REMARK INTRA:                  -0.538
REMARK UNBOUND:                -0.531
REMARK SMILES Oc1cc(O)cc(CCc2ccccc2O)c1
REMARK SMILES IDX 9 1 10 2 12 3 13 4 11 5 14 6 15 7 16 8 8 10 7 11 6 12 17 13
REMARK SMILES IDX 4 14 2 15 3 16 5 17 1 19
REMARK H PARENT 16 9 5 18 1 20
REMARK Flexibility Score: inf
ROOT
ATOM      1  C   UNL     1      24.203   6.945  22.755  1.00  0.00     0.044 C 
ENDROOT
BRANCH   1   2
ATOM      2  C   UNL     1      25.239   6.996  23.852  1.00  0.00    -0.006 A 
ATOM      3  C   UNL     1      27.539   7.450  24.512  1.00  0.00     0.001 A 
ATOM      4  C   UNL     1      27.224   7.152  25.838  1.00  0.00     0.004 A 
ATOM      5  C   UNL     1      26.554   7.378  23.525  1.00  0.00     0.007 A 
ATOM      6  C   UNL     1      25.921   6.788  26.182  1.00  0.00     0.046 A 
ATOM      7  C   UNL     1      24.921   6.715  25.205  1.00  0.00     0.118 A 
BRANCH   7   8
ATOM      8  O   UNL     1      23.631   6.367  25.614  1.00  0.00    -0.508 OA
ATOM      9  H   UNL     1      22.867   6.202  24.973  1.00  0.00     0.293 HD
ENDBRANCH   7   8
ENDBRANCH   1   2
BRANCH   1  10
ATOM     10  C   UNL     1      24.157   8.271  21.989  1.00  0.00     0.040 C 
BRANCH  10  11
ATOM     11  C   UNL     1      24.284   8.031  20.509  1.00  0.00    -0.040 A 
ATOM     12  C   UNL     1      25.390   7.335  19.996  1.00  0.00     0.050 A 
ATOM     13  C   UNL     1      23.268   8.453  19.635  1.00  0.00     0.050 A 
ATOM     14  C   UNL     1      25.493   7.083  18.624  1.00  0.00     0.119 A 
ATOM     15  C   UNL     1      23.368   8.202  18.262  1.00  0.00     0.119 A 
ATOM     16  C   UNL     1      24.482   7.519  17.757  1.00  0.00     0.092 A 
BRANCH  14  17
ATOM     17  O   UNL     1      26.601   6.396  18.133  1.00  0.00    -0.508 OA
ATOM     18  H   UNL     1      26.619   5.383  18.084  1.00  0.00     0.293 HD
ENDBRANCH  14  17
BRANCH  15  19
ATOM     19  O   UNL     1      22.353   8.634  17.410  1.00  0.00    -0.508 OA
ATOM     20  H   UNL     1      21.813   9.467  17.609  1.00  0.00     0.293 HD
ENDBRANCH  15  19
ENDBRANCH  10  11
ENDBRANCH   1  10
TORSDOF 6
ENDMDL
MODEL 4
REMARK VINA RESULT:    -6.689      0.068      2.041
REMARK INTER + INTRA:          -8.979
REMARK INTER:                  -8.443
REMARK INTRA:                  -0.536
REMARK UNBOUND:                -0.531
REMARK SMILES Oc1cc(O)cc(CCc2ccccc2O)c1
REMARK SMILES IDX 9 1 10 2 12 3 13 4 11 5 14 6 15 7 16 8 8 10 7 11 6 12 17 13
REMARK SMILES IDX 4 14 2 15 3 16 5 17 1 19
REMARK H PARENT 16 9 5 18 1 20
REMARK Flexibility Score: inf
ROOT
ATOM      1  C   UNL     1      26.093   6.730  20.983  1.00  0.00     0.044 C 
ENDROOT
BRANCH   1   2
ATOM      2  C   UNL     1      25.168   7.186  19.880  1.00  0.00    -0.006 A 
ATOM      3  C   UNL     1      23.094   8.290  19.238  1.00  0.00     0.001 A 
ATOM      4  C   UNL     1      23.402   8.100  17.891  1.00  0.00     0.004 A 
ATOM      5  C   UNL     1      23.972   7.842  20.227  1.00  0.00     0.007 A 
ATOM      6  C   UNL     1      24.593   7.467  17.529  1.00  0.00     0.046 A 
ATOM      7  C   UNL     1      25.485   7.014  18.509  1.00  0.00     0.118 A 
BRANCH   7   8
ATOM      8  O   UNL     1      26.670   6.408  18.084  1.00  0.00    -0.508 OA
ATOM      9  H   UNL     1      26.934   6.316  17.113  1.00  0.00     0.293 HD
ENDBRANCH   7   8
ENDBRANCH   1   2
BRANCH   1  10
ATOM     10  C   UNL     1      26.459   7.899  21.903  1.00  0.00     0.040 C 
BRANCH  10  11
ATOM     11  C   UNL     1      26.263   7.517  23.346  1.00  0.00    -0.040 A 
ATOM     12  C   UNL     1      25.002   7.108  23.806  1.00  0.00     0.050 A 
ATOM     13  C   UNL     1      27.356   7.513  24.229  1.00  0.00     0.050 A 
ATOM     14  C   UNL     1      24.827   6.721  25.139  1.00  0.00     0.119 A 
ATOM     15  C   UNL     1      27.184   7.126  25.563  1.00  0.00     0.119 A 
ATOM     16  C   UNL     1      25.918   6.732  26.017  1.00  0.00     0.092 A 
BRANCH  14  17
ATOM     17  O   UNL     1      23.566   6.324  25.578  1.00  0.00    -0.508 OA
ATOM     18  H   UNL     1      22.736   6.471  25.013  1.00  0.00     0.293 HD
ENDBRANCH  14  17
BRANCH  15  19
ATOM     19  O   UNL     1      28.278   7.134  26.426  1.00  0.00    -0.508 OA
ATOM     20  H   UNL     1      29.098   6.568  26.246  1.00  0.00     0.293 HD
ENDBRANCH  15  19
ENDBRANCH  10  11
ENDBRANCH   1  10
TORSDOF 6
ENDMDL
MODEL 5
REMARK VINA RESULT:    -6.683      2.870      6.684
REMARK INTER + INTRA:          -8.972
REMARK INTER:                  -8.384
REMARK INTRA:                  -0.588
REMARK UNBOUND:                -0.531
REMARK SMILES Oc1cc(O)cc(CCc2ccccc2O)c1
REMARK SMILES IDX 9 1 10 2 12 3 13 4 11 5 14 6 15 7 16 8 8 10 7 11 6 12 17 13
REMARK SMILES IDX 4 14 2 15 3 16 5 17 1 19
REMARK H PARENT 16 9 5 18 1 20
REMARK Flexibility Score: inf
ROOT
ATOM      1  C   UNL     1      22.881   8.633  22.348  1.00  0.00     0.044 C 
ENDROOT
BRANCH   1   2
ATOM      2  C   UNL     1      22.881   7.384  23.196  1.00  0.00    -0.006 A 
ATOM      3  C   UNL     1      24.039   5.971  24.807  1.00  0.00     0.001 A 
ATOM      4  C   UNL     1      22.952   5.098  24.833  1.00  0.00     0.004 A 
ATOM      5  C   UNL     1      24.004   7.109  23.998  1.00  0.00     0.007 A 
ATOM      6  C   UNL     1      21.822   5.365  24.056  1.00  0.00     0.046 A 
ATOM      7  C   UNL     1      21.770   6.504  23.243  1.00  0.00     0.118 A 
BRANCH   7   8
ATOM      8  O   UNL     1      20.605   6.728  22.506  1.00  0.00    -0.508 OA
ATOM      9  H   UNL     1      20.412   7.590  22.013  1.00  0.00     0.293 HD
ENDBRANCH   7   8
ENDBRANCH   1   2
BRANCH   1  10
ATOM     10  C   UNL     1      24.222   8.799  21.624  1.00  0.00     0.040 C 
BRANCH  10  11
ATOM     11  C   UNL     1      24.125   8.293  20.210  1.00  0.00    -0.040 A 
ATOM     12  C   UNL     1      22.987   8.566  19.436  1.00  0.00     0.050 A 
ATOM     13  C   UNL     1      25.199   7.593  19.636  1.00  0.00     0.050 A 
ATOM     14  C   UNL     1      22.910   8.126  18.111  1.00  0.00     0.119 A 
ATOM     15  C   UNL     1      25.126   7.151  18.310  1.00  0.00     0.119 A 
ATOM     16  C   UNL     1      23.980   7.416  17.549  1.00  0.00     0.092 A 
BRANCH  14  17
ATOM     17  O   UNL     1      21.769   8.401  17.360  1.00  0.00    -0.508 OA
ATOM     18  H   UNL     1      21.391   7.727  16.703  1.00  0.00     0.293 HD
ENDBRANCH  14  17
BRANCH  15  19
ATOM     19  O   UNL     1      26.198   6.452  17.760  1.00  0.00    -0.508 OA
ATOM     20  H   UNL     1      26.100   5.496  17.441  1.00  0.00     0.293 HD
ENDBRANCH  15  19
ENDBRANCH  10  11
ENDBRANCH   1  10
TORSDOF 6
ENDMDL
MODEL 6
REMARK VINA RESULT:    -6.679      3.010      4.193
REMARK INTER + INTRA:          -8.967
REMARK INTER:                  -8.350
REMARK INTRA:                  -0.616
REMARK UNBOUND:                -0.531
REMARK SMILES Oc1cc(O)cc(CCc2ccccc2O)c1
REMARK SMILES IDX 9 1 10 2 12 3 13 4 11 5 14 6 15 7 16 8 8 10 7 11 6 12 17 13
REMARK SMILES IDX 4 14 2 15 3 16 5 17 1 19
REMARK H PARENT 16 9 5 18 1 20
REMARK Flexibility Score: inf
ROOT
ATOM      1  C   UNL     1      24.751   3.628  20.301  1.00  0.00     0.044 C 
ENDROOT
BRANCH   1   2
ATOM      2  C   UNL     1      24.736   4.867  19.437  1.00  0.00    -0.006 A 
ATOM      3  C   UNL     1      25.934   6.797  18.558  1.00  0.00     0.001 A 
ATOM      4  C   UNL     1      24.808   7.170  17.825  1.00  0.00     0.004 A 
ATOM      5  C   UNL     1      25.902   5.651  19.356  1.00  0.00     0.007 A 
ATOM      6  C   UNL     1      23.649   6.394  17.880  1.00  0.00     0.046 A 
ATOM      7  C   UNL     1      23.602   5.240  18.672  1.00  0.00     0.118 A 
BRANCH   7   8
ATOM      8  O   UNL     1      22.421   4.494  18.670  1.00  0.00    -0.508 OA
ATOM      9  H   UNL     1      22.116   3.928  19.450  1.00  0.00     0.293 HD
ENDBRANCH   7   8
ENDBRANCH   1   2
BRANCH   1  10
ATOM     10  C   UNL     1      25.309   3.943  21.692  1.00  0.00     0.040 C 
BRANCH  10  11
ATOM     11  C   UNL     1      24.191   4.222  22.660  1.00  0.00    -0.040 A 
ATOM     12  C   UNL     1      22.976   3.527  22.558  1.00  0.00     0.050 A 
ATOM     13  C   UNL     1      24.376   5.140  23.707  1.00  0.00     0.050 A 
ATOM     14  C   UNL     1      21.948   3.762  23.477  1.00  0.00     0.119 A 
ATOM     15  C   UNL     1      23.350   5.377  24.629  1.00  0.00     0.119 A 
ATOM     16  C   UNL     1      22.135   4.689  24.511  1.00  0.00     0.092 A 
BRANCH  14  17
ATOM     17  O   UNL     1      20.746   3.067  23.356  1.00  0.00    -0.508 OA
ATOM     18  H   UNL     1      20.276   2.972  22.462  1.00  0.00     0.293 HD
ENDBRANCH  14  17
BRANCH  15  19
ATOM     19  O   UNL     1      23.550   6.295  25.657  1.00  0.00    -0.508 OA
ATOM     20  H   UNL     1      23.033   6.237  26.526  1.00  0.00     0.293 HD
ENDBRANCH  15  19
ENDBRANCH  10  11
ENDBRANCH   1  10
TORSDOF 6
ENDMDL
MODEL 7
REMARK VINA RESULT:    -6.656      3.024      3.807
REMARK INTER + INTRA:          -8.938
REMARK INTER:                  -8.346
REMARK INTRA:                  -0.592
REMARK UNBOUND:                -0.531
REMARK SMILES Oc1cc(O)cc(CCc2ccccc2O)c1
REMARK SMILES IDX 9 1 10 2 12 3 13 4 11 5 14 6 15 7 16 8 8 10 7 11 6 12 17 13
REMARK SMILES IDX 4 14 2 15 3 16 5 17 1 19
REMARK H PARENT 16 9 5 18 1 20
REMARK Flexibility Score: inf
ROOT
ATOM      1  C   UNL     1      24.602   3.643  20.285  1.00  0.00     0.044 C 
ENDROOT
BRANCH   1   2
ATOM      2  C   UNL     1      24.641   4.878  19.417  1.00  0.00    -0.006 A 
ATOM      3  C   UNL     1      25.902   6.789  18.585  1.00  0.00     0.001 A 
ATOM      4  C   UNL     1      24.815   7.173  17.801  1.00  0.00     0.004 A 
ATOM      5  C   UNL     1      25.820   5.646  19.385  1.00  0.00     0.007 A 
ATOM      6  C   UNL     1      23.644   6.412  17.808  1.00  0.00     0.046 A 
ATOM      7  C   UNL     1      23.547   5.262  18.601  1.00  0.00     0.118 A 
BRANCH   7   8
ATOM      8  O   UNL     1      22.358   4.531  18.549  1.00  0.00    -0.508 OA
ATOM      9  H   UNL     1      21.593   4.751  17.926  1.00  0.00     0.293 HD
ENDBRANCH   7   8
ENDBRANCH   1   2
BRANCH   1  10
ATOM     10  C   UNL     1      25.227   3.922  21.656  1.00  0.00     0.040 C 
BRANCH  10  11
ATOM     11  C   UNL     1      24.157   4.172  22.684  1.00  0.00    -0.040 A 
ATOM     12  C   UNL     1      24.359   5.116  23.703  1.00  0.00     0.050 A 
ATOM     13  C   UNL     1      22.924   3.502  22.597  1.00  0.00     0.050 A 
ATOM     14  C   UNL     1      23.352   5.373  24.639  1.00  0.00     0.119 A 
ATOM     15  C   UNL     1      21.915   3.757  23.532  1.00  0.00     0.119 A 
ATOM     16  C   UNL     1      22.131   4.691  24.554  1.00  0.00     0.092 A 
BRANCH  14  17
ATOM     17  O   UNL     1      23.574   6.309  25.647  1.00  0.00    -0.508 OA
ATOM     18  H   UNL     1      23.581   6.043  26.626  1.00  0.00     0.293 HD
ENDBRANCH  14  17
BRANCH  15  19
ATOM     19  O   UNL     1      20.702   3.079  23.434  1.00  0.00    -0.508 OA
ATOM     20  H   UNL     1      19.822   3.576  23.367  1.00  0.00     0.293 HD
ENDBRANCH  15  19
ENDBRANCH  10  11
ENDBRANCH   1  10
TORSDOF 6
ENDMDL
MODEL 8
REMARK VINA RESULT:    -6.625      2.628      3.578
REMARK INTER + INTRA:          -8.899
REMARK INTER:                  -8.093
REMARK INTRA:                  -0.805
REMARK UNBOUND:                -0.531
REMARK SMILES Oc1cc(O)cc(CCc2ccccc2O)c1
REMARK SMILES IDX 9 1 10 2 12 3 13 4 11 5 14 6 15 7 16 8 8 10 7 11 6 12 17 13
REMARK SMILES IDX 4 14 2 15 3 16 5 17 1 19
REMARK H PARENT 16 9 5 18 1 20
REMARK Flexibility Score: inf
ROOT
ATOM      1  C   UNL     1      26.984   6.825  21.823  1.00  0.00     0.044 C 
ENDROOT
BRANCH   1   2
ATOM      2  C   UNL     1      26.224   7.033  20.535  1.00  0.00    -0.006 A 
ATOM      3  C   UNL     1      26.018   6.573  18.151  1.00  0.00     0.001 A 
ATOM      4  C   UNL     1      24.852   7.336  18.099  1.00  0.00     0.004 A 
ATOM      5  C   UNL     1      26.698   6.417  19.361  1.00  0.00     0.007 A 
ATOM      6  C   UNL     1      24.358   7.939  19.257  1.00  0.00     0.046 A 
ATOM      7  C   UNL     1      25.026   7.790  20.478  1.00  0.00     0.118 A 
BRANCH   7   8
ATOM      8  O   UNL     1      24.471   8.399  21.606  1.00  0.00    -0.508 OA
ATOM      9  H   UNL     1      24.367   9.400  21.707  1.00  0.00     0.293 HD
ENDBRANCH   7   8
ENDBRANCH   1   2
BRANCH   1  10
ATOM     10  C   UNL     1      26.963   5.350  22.235  1.00  0.00     0.040 C 
BRANCH  10  11
ATOM     11  C   UNL     1      25.577   4.938  22.654  1.00  0.00    -0.040 A 
ATOM     12  C   UNL     1      24.924   5.608  23.700  1.00  0.00     0.050 A 
ATOM     13  C   UNL     1      24.905   3.917  21.962  1.00  0.00     0.050 A 
ATOM     14  C   UNL     1      23.624   5.249  24.068  1.00  0.00     0.119 A 
ATOM     15  C   UNL     1      23.604   3.555  22.327  1.00  0.00     0.119 A 
ATOM     16  C   UNL     1      22.965   4.220  23.382  1.00  0.00     0.092 A 
BRANCH  14  17
ATOM     17  O   UNL     1      22.995   5.921  25.113  1.00  0.00    -0.508 OA
ATOM     18  H   UNL     1      22.523   5.420  25.859  1.00  0.00     0.293 HD
ENDBRANCH  14  17
BRANCH  15  19
ATOM     19  O   UNL     1      22.955   2.535  21.634  1.00  0.00    -0.508 OA
ATOM     20  H   UNL     1      21.946   2.442  21.651  1.00  0.00     0.293 HD
ENDBRANCH  15  19
ENDBRANCH  10  11
ENDBRANCH   1  10
TORSDOF 6
ENDMDL
MODEL 9
REMARK VINA RESULT:    -6.585      2.516      6.344
REMARK INTER + INTRA:          -8.848
REMARK INTER:                  -8.228
REMARK INTRA:                  -0.619
REMARK UNBOUND:                -0.531
REMARK SMILES Oc1cc(O)cc(CCc2ccccc2O)c1
REMARK SMILES IDX 9 1 10 2 12 3 13 4 11 5 14 6 15 7 16 8 8 10 7 11 6 12 17 13
REMARK SMILES IDX 4 14 2 15 3 16 5 17 1 19
REMARK H PARENT 16 9 5 18 1 20
REMARK Flexibility Score: inf
ROOT
ATOM      1  C   UNL     1      26.238   5.230  21.837  1.00  0.00     0.044 C 
ENDROOT
BRANCH   1   2
ATOM      2  C   UNL     1      25.338   5.467  23.026  1.00  0.00    -0.006 A 
ATOM      3  C   UNL     1      24.853   6.756  25.036  1.00  0.00     0.001 A 
ATOM      4  C   UNL     1      23.700   6.002  25.249  1.00  0.00     0.004 A 
ATOM      5  C   UNL     1      25.666   6.495  23.930  1.00  0.00     0.007 A 
ATOM      6  C   UNL     1      23.351   4.989  24.353  1.00  0.00     0.046 A 
ATOM      7  C   UNL     1      24.153   4.718  23.237  1.00  0.00     0.118 A 
BRANCH   7   8
ATOM      8  O   UNL     1      23.740   3.708  22.365  1.00  0.00    -0.508 OA
ATOM      9  H   UNL     1      23.104   2.967  22.629  1.00  0.00     0.293 HD
ENDBRANCH   7   8
ENDBRANCH   1   2
BRANCH   1  10
ATOM     10  C   UNL     1      26.275   6.463  20.929  1.00  0.00     0.040 C 
BRANCH  10  11
ATOM     11  C   UNL     1      25.227   6.361  19.855  1.00  0.00    -0.040 A 
ATOM     12  C   UNL     1      24.726   5.107  19.470  1.00  0.00     0.050 A 
ATOM     13  C   UNL     1      24.699   7.524  19.269  1.00  0.00     0.050 A 
ATOM     14  C   UNL     1      23.728   5.012  18.495  1.00  0.00     0.119 A 
ATOM     15  C   UNL     1      23.700   7.433  18.294  1.00  0.00     0.119 A 
ATOM     16  C   UNL     1      23.217   6.176  17.906  1.00  0.00     0.092 A 
BRANCH  14  17
ATOM     17  O   UNL     1      23.249   3.759  18.122  1.00  0.00    -0.508 OA
ATOM     18  H   UNL     1      22.390   3.655  17.592  1.00  0.00     0.293 HD
ENDBRANCH  14  17
BRANCH  15  19
ATOM     19  O   UNL     1      23.193   8.597  17.720  1.00  0.00    -0.508 OA
ATOM     20  H   UNL     1      22.379   9.065  18.101  1.00  0.00     0.293 HD
ENDBRANCH  15  19
ENDBRANCH  10  11
ENDBRANCH   1  10
TORSDOF 6
ENDMDL
