MODEL 1
REMARK VINA RESULT:    -3.445      0.000      0.000
REMARK INTER + INTRA:          -3.886
REMARK INTER:                  -3.848
REMARK INTRA:                  -0.038
REMARK UNBOUND:                -0.038
REMARK SMILES CCCC(=O)[O-]
REMARK SMILES IDX 3 1 4 2 5 3 6 4 2 5 1 6
REMARK H PARENT
REMARK Flexibility Score: inf
ROOT
ATOM      1  C   UNL     1     -10.641 -18.670  29.983  1.00  0.00     0.052 C 
ENDROOT
BRANCH   1   2
ATOM      2  C   UNL     1     -10.912 -19.956  30.697  1.00  0.00     0.041 C 
ATOM      3  O   UNL     1     -12.010 -20.135  31.287  1.00  0.00    -0.550 OA
ATOM      4  O   UNL     1      -9.971 -20.978  30.668  1.00  0.00    -0.550 OA
ENDBRANCH   1   2
BRANCH   1   5
ATOM      5  C   UNL     1      -9.372 -18.784  29.134  1.00  0.00     0.003 C 
ATOM      6  C   UNL     1      -9.710 -19.081  27.676  1.00  0.00     0.004 C 
ENDBRANCH   1   5
TORSDOF 2
ENDMDL
MODEL 2
REMARK VINA RESULT:    -3.399      0.182      1.334
REMARK INTER + INTRA:          -3.834
REMARK INTER:                  -3.795
REMARK INTRA:                  -0.039
REMARK UNBOUND:                -0.038
REMARK SMILES CCCC(=O)[O-]
REMARK SMILES IDX 3 1 4 2 5 3 6 4 2 5 1 6
REMARK H PARENT
REMARK Flexibility Score: inf
ROOT
ATOM      1  C   UNL     1     -10.488 -18.716  29.855  1.00  0.00     0.052 C 
ENDROOT
BRANCH   1   2
ATOM      2  C   UNL     1     -10.813 -20.002  30.545  1.00  0.00     0.041 C 
ATOM      3  O   UNL     1     -10.001 -20.963  30.508  1.00  0.00    -0.550 OA
ATOM      4  O   UNL     1     -11.991 -20.122  31.272  1.00  0.00    -0.550 OA
ENDBRANCH   1   2
BRANCH   1   5
ATOM      5  C   UNL     1      -9.248 -18.878  28.972  1.00  0.00     0.003 C 
ATOM      6  C   UNL     1      -9.631 -19.000  27.500  1.00  0.00     0.004 C 
ENDBRANCH   1   5
TORSDOF 2
ENDMDL
MODEL 3
REMARK VINA RESULT:    -3.308      2.072      2.833
REMARK INTER + INTRA:          -3.732
REMARK INTER:                  -3.662
REMARK INTRA:                  -0.070
REMARK UNBOUND:                -0.038
REMARK SMILES CCCC(=O)[O-]
REMARK SMILES IDX 3 1 4 2 5 3 6 4 2 5 1 6
REMARK H PARENT
REMARK Flexibility Score: inf
ROOT
ATOM      1  C   UNL     1     -10.344 -18.474  29.416  1.00  0.00     0.052 C 
ENDROOT
BRANCH   1   2
ATOM      2  C   UNL     1      -9.988 -19.491  28.379  1.00  0.00     0.041 C 
ATOM      3  O   UNL     1      -9.497 -19.128  27.277  1.00  0.00    -0.550 OA
ATOM      4  O   UNL     1     -10.153 -20.844  28.647  1.00  0.00    -0.550 OA
ENDBRANCH   1   2
BRANCH   1   5
ATOM      5  C   UNL     1      -9.621 -18.773  30.731  1.00  0.00     0.003 C 
ATOM      6  C   UNL     1      -8.108 -18.663  30.567  1.00  0.00     0.004 C 
ENDBRANCH   1   5
TORSDOF 2
ENDMDL
MODEL 4
REMARK VINA RESULT:    -3.229     19.277     20.105
REMARK INTER + INTRA:          -3.644
REMARK INTER:                  -3.625
REMARK INTRA:                  -0.019
REMARK UNBOUND:                -0.038
REMARK SMILES CCCC(=O)[O-]
REMARK SMILES IDX 3 1 4 2 5 3 6 4 2 5 1 6
REMARK H PARENT
REMARK Flexibility Score: inf
ROOT
ATOM      1  C   UNL     1      -3.329 -36.141  22.006  1.00  0.00     0.052 C 
ENDROOT
BRANCH   1   2
ATOM      2  C   UNL     1      -2.235 -35.147  22.231  1.00  0.00     0.041 C 
ATOM      3  O   UNL     1      -1.163 -35.224  21.575  1.00  0.00    -0.550 OA
ATOM      4  O   UNL     1      -2.418 -34.103  23.130  1.00  0.00    -0.550 OA
ENDBRANCH   1   2
BRANCH   1   5
ATOM      5  C   UNL     1      -2.769 -37.426  21.391  1.00  0.00     0.003 C 
ATOM      6  C   UNL     1      -3.809 -38.118  20.515  1.00  0.00     0.004 C 
ENDBRANCH   1   5
TORSDOF 2
ENDMDL
MODEL 5
REMARK VINA RESULT:    -3.141      2.219      3.053
REMARK INTER + INTRA:          -3.546
REMARK INTER:                  -3.491
REMARK INTRA:                  -0.055
REMARK UNBOUND:                -0.038
REMARK SMILES CCCC(=O)[O-]
REMARK SMILES IDX 3 1 4 2 5 3 6 4 2 5 1 6
REMARK H PARENT
REMARK Flexibility Score: inf
ROOT
ATOM      1  C   UNL     1     -10.717 -18.232  29.730  1.00  0.00     0.052 C 
ENDROOT
BRANCH   1   2
ATOM      2  C   UNL     1      -9.506 -18.819  29.078  1.00  0.00     0.041 C 
ATOM      3  O   UNL     1      -9.591 -19.340  27.935  1.00  0.00    -0.550 OA
ATOM      4  O   UNL     1      -8.271 -18.746  29.711  1.00  0.00    -0.550 OA
ENDBRANCH   1   2
BRANCH   1   5
ATOM      5  C   UNL     1     -10.846 -18.732  31.171  1.00  0.00     0.003 C 
ATOM      6  C   UNL     1     -11.539 -20.091  31.223  1.00  0.00     0.004 C 
ENDBRANCH   1   5
TORSDOF 2
ENDMDL
MODEL 6
REMARK VINA RESULT:    -3.017     16.394     17.231
REMARK INTER + INTRA:          -3.407
REMARK INTER:                  -3.395
REMARK INTRA:                  -0.013
REMARK UNBOUND:                -0.038
REMARK SMILES CCCC(=O)[O-]
REMARK SMILES IDX 3 1 4 2 5 3 6 4 2 5 1 6
REMARK H PARENT
REMARK Flexibility Score: inf
ROOT
ATOM      1  C   UNL     1      -2.717 -33.142  23.565  1.00  0.00     0.052 C 
ENDROOT
BRANCH   1   2
ATOM      2  C   UNL     1      -1.834 -32.122  24.211  1.00  0.00     0.041 C 
ATOM      3  O   UNL     1      -0.624 -32.385  24.439  1.00  0.00    -0.550 OA
ATOM      4  O   UNL     1      -2.334 -30.862  24.516  1.00  0.00    -0.550 OA
ENDBRANCH   1   2
BRANCH   1   5
ATOM      5  C   UNL     1      -1.878 -34.185  22.823  1.00  0.00     0.003 C 
ATOM      6  C   UNL     1      -2.736 -35.364  22.373  1.00  0.00     0.004 C 
ENDBRANCH   1   5
TORSDOF 2
ENDMDL
MODEL 7
REMARK VINA RESULT:    -2.939     19.908     20.708
REMARK INTER + INTRA:          -3.320
REMARK INTER:                  -3.287
REMARK INTRA:                  -0.033
REMARK UNBOUND:                -0.038
REMARK SMILES CCCC(=O)[O-]
REMARK SMILES IDX 3 1 4 2 5 3 6 4 2 5 1 6
REMARK H PARENT
REMARK Flexibility Score: inf
ROOT
ATOM      1  C   UNL     1      -2.368 -37.255  21.045  1.00  0.00     0.052 C 
ENDROOT
BRANCH   1   2
ATOM      2  C   UNL     1      -2.680 -36.016  21.821  1.00  0.00     0.041 C 
ATOM      3  O   UNL     1      -3.811 -35.871  22.355  1.00  0.00    -0.550 OA
ATOM      4  O   UNL     1      -1.705 -35.041  21.996  1.00  0.00    -0.550 OA
ENDBRANCH   1   2
BRANCH   1   5
ATOM      5  C   UNL     1      -3.650 -38.035  20.739  1.00  0.00     0.003 C 
ATOM      6  C   UNL     1      -3.930 -38.068  19.239  1.00  0.00     0.004 C 
ENDBRANCH   1   5
TORSDOF 2
ENDMDL
MODEL 8
REMARK VINA RESULT:    -2.920     19.235     20.037
REMARK INTER + INTRA:          -3.299
REMARK INTER:                  -3.280
REMARK INTRA:                  -0.020
REMARK UNBOUND:                -0.038
REMARK SMILES CCCC(=O)[O-]
REMARK SMILES IDX 3 1 4 2 5 3 6 4 2 5 1 6
REMARK H PARENT
REMARK Flexibility Score: inf
ROOT
ATOM      1  C   UNL     1      -1.323 -35.520  21.573  1.00  0.00     0.052 C 
ENDROOT
BRANCH   1   2
ATOM      2  C   UNL     1      -2.426 -34.973  22.422  1.00  0.00     0.041 C 
ATOM      3  O   UNL     1      -3.528 -35.578  22.498  1.00  0.00    -0.550 OA
ATOM      4  O   UNL     1      -2.222 -33.819  23.169  1.00  0.00    -0.550 OA
ENDBRANCH   1   2
BRANCH   1   5
ATOM      5  C   UNL     1      -1.585 -36.990  21.236  1.00  0.00     0.003 C 
ATOM      6  C   UNL     1      -0.339 -37.840  21.471  1.00  0.00     0.004 C 
ENDBRANCH   1   5
TORSDOF 2
ENDMDL
MODEL 9
REMARK VINA RESULT:    -2.885      2.414      2.901
REMARK INTER + INTRA:          -3.260
REMARK INTER:                  -3.224
REMARK INTRA:                  -0.037
REMARK UNBOUND:                -0.038
REMARK SMILES CCCC(=O)[O-]
REMARK SMILES IDX 3 1 4 2 5 3 6 4 2 5 1 6
REMARK H PARENT
REMARK Flexibility Score: inf
ROOT
ATOM      1  C   UNL     1      -8.293 -18.691  30.303  1.00  0.00     0.052 C 
ENDROOT
BRANCH   1   2
ATOM      2  C   UNL     1      -8.260 -18.907  31.783  1.00  0.00     0.041 C 
ATOM      3  O   UNL     1      -8.910 -19.853  32.300  1.00  0.00    -0.550 OA
ATOM      4  O   UNL     1      -7.473 -18.092  32.587  1.00  0.00    -0.550 OA
ENDBRANCH   1   2
BRANCH   1   5
ATOM      5  C   UNL     1      -9.584 -19.257  29.706  1.00  0.00     0.003 C 
ATOM      6  C   UNL     1     -10.706 -18.223  29.740  1.00  0.00     0.004 C 
ENDBRANCH   1   5
TORSDOF 2
ENDMDL
