MODEL 1
REMARK VINA RESULT:    -3.817      0.000      0.000
REMARK INTER + INTRA:          -4.516
REMARK INTER:                  -4.486
REMARK INTRA:                  -0.029
REMARK UNBOUND:                -0.029
REMARK SMILES O=C([O-])CCC(=O)[O-]
REMARK SMILES IDX 4 1 2 2 1 3 3 4 5 5 6 6 7 7 8 8
REMARK H PARENT
REMARK Flexibility Score: inf
ROOT
ATOM      1  C   UNL     1      41.892  40.611  17.687  1.00  0.00     0.059 C 
ENDROOT
BRANCH   1   2
ATOM      2  C   UNL     1      41.702  40.820  19.158  1.00  0.00     0.042 C 
ATOM      3  O   UNL     1      41.799  39.847  19.953  1.00  0.00    -0.550 OA
ATOM      4  O   UNL     1      41.379  42.078  19.647  1.00  0.00    -0.550 OA
ENDBRANCH   1   2
BRANCH   1   5
ATOM      5  C   UNL     1      40.618  40.940  16.902  1.00  0.00     0.059 C 
BRANCH   5   6
ATOM      6  C   UNL     1      40.903  41.142  15.445  1.00  0.00     0.042 C 
ATOM      7  O   UNL     1      40.565  40.267  14.605  1.00  0.00    -0.550 OA
ATOM      8  O   UNL     1      41.507  42.315  15.011  1.00  0.00    -0.550 OA
ENDBRANCH   5   6
ENDBRANCH   1   5
TORSDOF 3
ENDMDL
MODEL 2
REMARK VINA RESULT:    -3.807      0.099      1.147
REMARK INTER + INTRA:          -4.504
REMARK INTER:                  -4.473
REMARK INTRA:                  -0.032
REMARK UNBOUND:                -0.029
REMARK SMILES O=C([O-])CCC(=O)[O-]
REMARK SMILES IDX 4 1 2 2 1 3 3 4 5 5 6 6 7 7 8 8
REMARK H PARENT
REMARK Flexibility Score: inf
ROOT
ATOM      1  C   UNL     1      41.872  40.621  17.732  1.00  0.00     0.059 C 
ENDROOT
BRANCH   1   2
ATOM      2  C   UNL     1      41.699  40.837  19.205  1.00  0.00     0.042 C 
ATOM      3  O   UNL     1      41.830  39.873  20.005  1.00  0.00    -0.550 OA
ATOM      4  O   UNL     1      41.354  42.091  19.689  1.00  0.00    -0.550 OA
ENDBRANCH   1   2
BRANCH   1   5
ATOM      5  C   UNL     1      40.583  40.924  16.962  1.00  0.00     0.059 C 
BRANCH   5   6
ATOM      6  C   UNL     1      40.851  41.162  15.508  1.00  0.00     0.042 C 
ATOM      7  O   UNL     1      41.348  42.254  15.125  1.00  0.00    -0.550 OA
ATOM      8  O   UNL     1      40.590  40.163  14.579  1.00  0.00    -0.550 OA
ENDBRANCH   5   6
ENDBRANCH   1   5
TORSDOF 3
ENDMDL
MODEL 3
REMARK VINA RESULT:    -3.805      0.062      4.152
REMARK INTER + INTRA:          -4.502
REMARK INTER:                  -4.473
REMARK INTRA:                  -0.029
REMARK UNBOUND:                -0.029
REMARK SMILES O=C([O-])CCC(=O)[O-]
REMARK SMILES IDX 4 1 2 2 1 3 3 4 5 5 6 6 7 7 8 8
REMARK H PARENT
REMARK Flexibility Score: inf
ROOT
ATOM      1  C   UNL     1      40.623  40.993  16.869  1.00  0.00     0.059 C 
ENDROOT
BRANCH   1   2
ATOM      2  C   UNL     1      40.921  41.149  15.409  1.00  0.00     0.042 C 
ATOM      3  O   UNL     1      40.584  40.248  14.595  1.00  0.00    -0.550 OA
ATOM      4  O   UNL     1      41.605  42.267  14.953  1.00  0.00    -0.550 OA
ENDBRANCH   1   2
BRANCH   1   5
ATOM      5  C   UNL     1      41.878  40.618  17.664  1.00  0.00     0.059 C 
BRANCH   5   6
ATOM      6  C   UNL     1      41.670  40.788  19.138  1.00  0.00     0.042 C 
ATOM      7  O   UNL     1      41.816  39.809  19.915  1.00  0.00    -0.550 OA
ATOM      8  O   UNL     1      41.354  42.037  19.656  1.00  0.00    -0.550 OA
ENDBRANCH   5   6
ENDBRANCH   1   5
TORSDOF 3
ENDMDL
MODEL 4
REMARK VINA RESULT:    -3.791      0.090      4.280
REMARK INTER + INTRA:          -4.485
REMARK INTER:                  -4.456
REMARK INTRA:                  -0.030
REMARK UNBOUND:                -0.029
REMARK SMILES O=C([O-])CCC(=O)[O-]
REMARK SMILES IDX 4 1 2 2 1 3 3 4 5 5 6 6 7 7 8 8
REMARK H PARENT
REMARK Flexibility Score: inf
ROOT
ATOM      1  C   UNL     1      40.614  41.030  16.937  1.00  0.00     0.059 C 
ENDROOT
BRANCH   1   2
ATOM      2  C   UNL     1      40.901  41.156  15.472  1.00  0.00     0.042 C 
ATOM      3  O   UNL     1      41.414  42.212  15.015  1.00  0.00    -0.550 OA
ATOM      4  O   UNL     1      40.564  40.124  14.605  1.00  0.00    -0.550 OA
ENDBRANCH   1   2
BRANCH   1   5
ATOM      5  C   UNL     1      41.868  40.635  17.725  1.00  0.00     0.059 C 
BRANCH   5   6
ATOM      6  C   UNL     1      41.687  40.854  19.196  1.00  0.00     0.042 C 
ATOM      7  O   UNL     1      41.827  39.897  20.001  1.00  0.00    -0.550 OA
ATOM      8  O   UNL     1      41.404  42.125  19.680  1.00  0.00    -0.550 OA
ENDBRANCH   5   6
ENDBRANCH   1   5
TORSDOF 3
ENDMDL
MODEL 5
REMARK VINA RESULT:    -3.691     10.941     12.055
REMARK INTER + INTRA:          -4.367
REMARK INTER:                  -4.289
REMARK INTRA:                  -0.078
REMARK UNBOUND:                -0.029
REMARK SMILES O=C([O-])CCC(=O)[O-]
REMARK SMILES IDX 4 1 2 2 1 3 3 4 5 5 6 6 7 7 8 8
REMARK H PARENT
REMARK Flexibility Score: inf
ROOT
ATOM      1  C   UNL     1      36.256  31.843  14.277  1.00  0.00     0.059 C 
ENDROOT
BRANCH   1   2
ATOM      2  C   UNL     1      35.011  31.458  13.538  1.00  0.00     0.042 C 
ATOM      3  O   UNL     1      34.261  32.347  13.054  1.00  0.00    -0.550 OA
ATOM      4  O   UNL     1      34.658  30.121  13.418  1.00  0.00    -0.550 OA
ENDBRANCH   1   2
BRANCH   1   5
ATOM      5  C   UNL     1      36.886  30.641  14.986  1.00  0.00     0.059 C 
BRANCH   5   6
ATOM      6  C   UNL     1      38.332  30.481  14.625  1.00  0.00     0.042 C 
ATOM      7  O   UNL     1      38.657  30.091  13.473  1.00  0.00    -0.550 OA
ATOM      8  O   UNL     1      39.319  30.802  15.548  1.00  0.00    -0.550 OA
ENDBRANCH   5   6
ENDBRANCH   1   5
TORSDOF 3
ENDMDL
MODEL 6
REMARK VINA RESULT:    -3.683     10.996     11.734
REMARK INTER + INTRA:          -4.359
REMARK INTER:                  -4.258
REMARK INTRA:                  -0.101
REMARK UNBOUND:                -0.029
REMARK SMILES O=C([O-])CCC(=O)[O-]
REMARK SMILES IDX 4 1 2 2 1 3 3 4 5 5 6 6 7 7 8 8
REMARK H PARENT
REMARK Flexibility Score: inf
ROOT
ATOM      1  C   UNL     1      37.075  30.741  15.054  1.00  0.00     0.059 C 
ENDROOT
BRANCH   1   2
ATOM      2  C   UNL     1      38.479  30.499  14.590  1.00  0.00     0.042 C 
ATOM      3  O   UNL     1      38.701  30.145  13.402  1.00  0.00    -0.550 OA
ATOM      4  O   UNL     1      39.538  30.625  15.480  1.00  0.00    -0.550 OA
ENDBRANCH   1   2
BRANCH   1   5
ATOM      5  C   UNL     1      36.386  31.828  14.223  1.00  0.00     0.059 C 
BRANCH   5   6
ATOM      6  C   UNL     1      35.138  31.316  13.570  1.00  0.00     0.042 C 
ATOM      7  O   UNL     1      34.887  30.083  13.563  1.00  0.00    -0.550 OA
ATOM      8  O   UNL     1      34.235  32.206  13.003  1.00  0.00    -0.550 OA
ENDBRANCH   5   6
ENDBRANCH   1   5
TORSDOF 3
ENDMDL
MODEL 7
REMARK VINA RESULT:    -3.561      2.580      3.548
REMARK INTER + INTRA:          -4.215
REMARK INTER:                  -4.186
REMARK INTRA:                  -0.030
REMARK UNBOUND:                -0.029
REMARK SMILES O=C([O-])CCC(=O)[O-]
REMARK SMILES IDX 4 1 2 2 1 3 3 4 5 5 6 6 7 7 8 8
REMARK H PARENT
REMARK Flexibility Score: inf
ROOT
ATOM      1  C   UNL     1      40.804  40.280  14.770  1.00  0.00     0.059 C 
ENDROOT
BRANCH   1   2
ATOM      2  C   UNL     1      41.326  40.609  16.136  1.00  0.00     0.042 C 
ATOM      3  O   UNL     1      42.565  40.722  16.330  1.00  0.00    -0.550 OA
ATOM      4  O   UNL     1      40.447  40.750  17.202  1.00  0.00    -0.550 OA
ENDBRANCH   1   2
BRANCH   1   5
ATOM      5  C   UNL     1      41.462  39.018  14.204  1.00  0.00     0.059 C 
BRANCH   5   6
ATOM      6  C   UNL     1      40.510  38.232  13.355  1.00  0.00     0.042 C 
ATOM      7  O   UNL     1      40.554  36.974  13.351  1.00  0.00    -0.550 OA
ATOM      8  O   UNL     1      39.547  38.889  12.599  1.00  0.00    -0.550 OA
ENDBRANCH   5   6
ENDBRANCH   1   5
TORSDOF 3
ENDMDL
MODEL 8
REMARK VINA RESULT:    -3.446      1.840      3.575
REMARK INTER + INTRA:          -4.079
REMARK INTER:                  -3.943
REMARK INTRA:                  -0.136
REMARK UNBOUND:                -0.029
REMARK SMILES O=C([O-])CCC(=O)[O-]
REMARK SMILES IDX 4 1 2 2 1 3 3 4 5 5 6 6 7 7 8 8
REMARK H PARENT
REMARK Flexibility Score: inf
ROOT
ATOM      1  C   UNL     1      40.913  40.770  15.442  1.00  0.00     0.059 C 
ENDROOT
BRANCH   1   2
ATOM      2  C   UNL     1      42.378  40.546  15.218  1.00  0.00     0.042 C 
ATOM      3  O   UNL     1      42.880  39.406  15.405  1.00  0.00    -0.550 OA
ATOM      4  O   UNL     1      43.195  41.605  14.843  1.00  0.00    -0.550 OA
ENDBRANCH   1   2
BRANCH   1   5
ATOM      5  C   UNL     1      40.569  40.795  16.934  1.00  0.00     0.059 C 
BRANCH   5   6
ATOM      6  C   UNL     1      40.742  42.164  17.519  1.00  0.00     0.042 C 
ATOM      7  O   UNL     1      41.081  42.300  18.723  1.00  0.00    -0.550 OA
ATOM      8  O   UNL     1      40.569  43.287  16.721  1.00  0.00    -0.550 OA
ENDBRANCH   5   6
ENDBRANCH   1   5
TORSDOF 3
ENDMDL
MODEL 9
REMARK VINA RESULT:    -3.394      1.550      4.105
REMARK INTER + INTRA:          -4.019
REMARK INTER:                  -3.839
REMARK INTRA:                  -0.180
REMARK UNBOUND:                -0.029
REMARK SMILES O=C([O-])CCC(=O)[O-]
REMARK SMILES IDX 4 1 2 2 1 3 3 4 5 5 6 6 7 7 8 8
REMARK H PARENT
REMARK Flexibility Score: inf
ROOT
ATOM      1  C   UNL     1      42.488  41.427  17.571  1.00  0.00     0.059 C 
ENDROOT
BRANCH   1   2
ATOM      2  C   UNL     1      41.063  41.666  17.172  1.00  0.00     0.042 C 
ATOM      3  O   UNL     1      40.294  40.692  16.957  1.00  0.00    -0.550 OA
ATOM      4  O   UNL     1      40.597  42.962  16.997  1.00  0.00    -0.550 OA
ENDBRANCH   1   2
BRANCH   1   5
ATOM      5  C   UNL     1      42.832  42.140  18.883  1.00  0.00     0.059 C 
BRANCH   5   6
ATOM      6  C   UNL     1      42.055  41.582  20.036  1.00  0.00     0.042 C 
ATOM      7  O   UNL     1      41.398  42.348  20.787  1.00  0.00    -0.550 OA
ATOM      8  O   UNL     1      42.025  40.210  20.255  1.00  0.00    -0.550 OA
ENDBRANCH   5   6
ENDBRANCH   1   5
TORSDOF 3
ENDMDL
