MODEL 1
REMARK VINA RESULT:     9.635      0.000      0.000
REMARK INTER + INTRA:          12.913
REMARK INTER:                  12.451
REMARK INTRA:                   0.462
REMARK UNBOUND:                 0.462
REMARK SMILES CCO[C@H]1O[C@H](CO)[C@H](O)[C@H](O)[C@@H]1O
REMARK SMILES IDX 4 1 13 2 11 3 9 4 6 5 5 6 3 7 2 8 1 9 14 10 12 12 7 14 8 15
REMARK SMILES IDX 10 17
REMARK H PARENT 14 11 12 13 8 16 10 18
REMARK Flexibility Score: inf
ROOT
ATOM      1  C   UNL     1      95.164 117.955 113.524  1.00  0.00     0.281 C 
ATOM      2  C   UNL     1      93.663 117.746 113.776  1.00  0.00     0.202 C 
ATOM      3  C   UNL     1      92.875 117.909 112.465  1.00  0.00     0.179 C 
ATOM      4  C   UNL     1      93.489 117.010 111.376  1.00  0.00     0.177 C 
ATOM      5  C   UNL     1      95.033 117.146 111.302  1.00  0.00     0.178 C 
ATOM      6  O   UNL     1      95.644 117.007 112.580  1.00  0.00    -0.341 OA
ENDROOT
BRANCH   1   7
ATOM      7  O   UNL     1      95.845 117.763 114.751  1.00  0.00    -0.350 OA
BRANCH   7   8
ATOM      8  C   UNL     1      97.049 118.502 114.761  1.00  0.00     0.160 C 
ATOM      9  C   UNL     1      96.990 119.533 115.878  1.00  0.00     0.035 C 
ENDBRANCH   7   8
ENDBRANCH   1   7
BRANCH   2  10
ATOM     10  O   UNL     1      93.213 118.668 114.736  1.00  0.00    -0.385 OA
ATOM     11  H   UNL     1      92.280 118.902 114.493  1.00  0.00     0.211 HD
ENDBRANCH   2  10
BRANCH   3  12
ATOM     12  O   UNL     1      92.876 119.250 112.043  1.00  0.00    -0.387 OA
ATOM     13  H   UNL     1      93.360 119.773 112.735  1.00  0.00     0.211 HD
ENDBRANCH   3  12
BRANCH   5  14
ATOM     14  C   UNL     1      95.538 118.388 110.538  1.00  0.00     0.191 C 
BRANCH  14  15
ATOM     15  O   UNL     1      94.467 119.260 110.296  1.00  0.00    -0.394 OA
ATOM     16  H   UNL     1      94.833 119.999 109.743  1.00  0.00     0.210 HD
ENDBRANCH  14  15
ENDBRANCH   5  14
BRANCH   4  17
ATOM     17  O   UNL     1      92.913 117.279 110.124  1.00  0.00    -0.387 OA
ATOM     18  H   UNL     1      91.962 117.000 110.179  1.00  0.00     0.211 HD
ENDBRANCH   4  17
TORSDOF 7
ENDMDL
MODEL 2
REMARK VINA RESULT:    10.420      1.553      4.445
REMARK INTER + INTRA:          13.928
REMARK INTER:                  12.706
REMARK INTRA:                   1.221
REMARK UNBOUND:                 0.462
REMARK SMILES CCO[C@H]1O[C@H](CO)[C@H](O)[C@H](O)[C@@H]1O
REMARK SMILES IDX 4 1 13 2 11 3 9 4 6 5 5 6 3 7 2 8 1 9 14 10 12 12 7 14 8 15
REMARK SMILES IDX 10 17
REMARK H PARENT 14 11 12 13 8 16 10 18
REMARK Flexibility Score: inf
ROOT
ATOM      1  C   UNL     1      93.301 117.745 111.241  1.00  0.00     0.281 C 
ATOM      2  C   UNL     1      94.522 118.606 110.881  1.00  0.00     0.202 C 
ATOM      3  C   UNL     1      95.044 119.336 112.131  1.00  0.00     0.179 C 
ATOM      4  C   UNL     1      95.268 118.323 113.268  1.00  0.00     0.177 C 
ATOM      5  C   UNL     1      94.057 117.370 113.453  1.00  0.00     0.178 C 
ATOM      6  O   UNL     1      93.648 116.780 112.225  1.00  0.00    -0.341 OA
ENDROOT
BRANCH   1   7
ATOM      7  O   UNL     1      92.879 117.072 110.069  1.00  0.00    -0.350 OA
BRANCH   7   8
ATOM      8  C   UNL     1      93.649 115.902 109.875  1.00  0.00     0.160 C 
ATOM      9  C   UNL     1      95.125 116.272 109.879  1.00  0.00     0.035 C 
ENDBRANCH   7   8
ENDBRANCH   1   7
BRANCH   2  10
ATOM     10  O   UNL     1      94.169 119.531 109.884  1.00  0.00    -0.385 OA
ATOM     11  H   UNL     1      94.059 119.015 109.043  1.00  0.00     0.211 HD
ENDBRANCH   2  10
BRANCH   3  12
ATOM     12  O   UNL     1      94.144 120.335 112.541  1.00  0.00    -0.387 OA
ATOM     13  H   UNL     1      93.231 120.010 112.324  1.00  0.00     0.211 HD
ENDBRANCH   3  12
BRANCH   5  14
ATOM     14  C   UNL     1      92.875 117.971 114.243  1.00  0.00     0.191 C 
BRANCH  14  15
ATOM     15  O   UNL     1      93.194 118.017 115.607  1.00  0.00    -0.394 OA
ATOM     16  H   UNL     1      94.151 118.277 115.658  1.00  0.00     0.210 HD
ENDBRANCH  14  15
ENDBRANCH   5  14
BRANCH   4  17
ATOM     17  O   UNL     1      95.561 118.983 114.472  1.00  0.00    -0.387 OA
ATOM     18  H   UNL     1      96.465 118.682 114.752  1.00  0.00     0.211 HD
ENDBRANCH   4  17
TORSDOF 7
ENDMDL
