MODEL 1
REMARK VINA RESULT:    -4.079      0.000      0.000
REMARK INTER + INTRA:         -13.443
REMARK INTER:                  -9.324
REMARK INTRA:                  -4.119
REMARK UNBOUND:                -4.119
REMARK SMILES CCCCCCCCCCCCCCCCCCCCCCCC(=O)[O-]
REMARK SMILES IDX 13 1 14 2 15 3 16 4 17 5 18 6 19 7 20 8 21 9 22 10 23 11
REMARK SMILES IDX 24 12 25 13 26 14 12 15 11 16 10 17 9 18 8 19 7 20 6 21 5 22
REMARK SMILES IDX 4 23 3 24 2 25 1 26
REMARK H PARENT
REMARK Flexibility Score: inf
ROOT
ATOM      1  C   UNL     1     104.275  95.277  91.422  1.00  0.00     0.000 C 
ENDROOT
BRANCH   1   2
ATOM      2  C   UNL     1     103.275  94.124  91.253  1.00  0.00     0.000 C 
BRANCH   2   3
ATOM      3  C   UNL     1     103.192  93.680  89.786  1.00  0.00     0.000 C 
BRANCH   3   4
ATOM      4  C   UNL     1     101.781  93.905  89.223  1.00  0.00     0.000 C 
BRANCH   4   5
ATOM      5  C   UNL     1     101.641  95.254  88.500  1.00  0.00     0.000 C 
BRANCH   5   6
ATOM      6  C   UNL     1     100.548  96.146  89.116  1.00  0.00     0.000 C 
BRANCH   6   7
ATOM      7  C   UNL     1      99.743  95.422  90.207  1.00  0.00     0.000 C 
BRANCH   7   8
ATOM      8  C   UNL     1      99.837  96.125  91.573  1.00  0.00     0.000 C 
BRANCH   8   9
ATOM      9  C   UNL     1     100.963  97.168  91.623  1.00  0.00     0.000 C 
BRANCH   9  10
ATOM     10  C   UNL     1     100.479  98.538  92.129  1.00  0.00     0.006 C 
BRANCH  10  11
ATOM     11  C   UNL     1      98.952  98.671  92.071  1.00  0.00     0.053 C 
BRANCH  11  12
ATOM     12  C   UNL     1      98.531  99.928  91.372  1.00  0.00     0.041 C 
ATOM     13  O   UNL     1      98.199  99.897  90.157  1.00  0.00    -0.550 OA
ATOM     14  O   UNL     1      98.539 101.138  92.052  1.00  0.00    -0.550 OA
ENDBRANCH  11  12
ENDBRANCH  10  11
ENDBRANCH   9  10
ENDBRANCH   8   9
ENDBRANCH   7   8
ENDBRANCH   6   7
ENDBRANCH   5   6
ENDBRANCH   4   5
ENDBRANCH   3   4
ENDBRANCH   2   3
ENDBRANCH   1   2
BRANCH   1  15
ATOM     15  C   UNL     1     105.377  95.275  90.348  1.00  0.00     0.000 C 
BRANCH  15  16
ATOM     16  C   UNL     1     105.397  96.517  89.433  1.00  0.00     0.000 C 
BRANCH  16  17
ATOM     17  C   UNL     1     104.237  97.507  89.651  1.00  0.00     0.000 C 
BRANCH  17  18
ATOM     18  C   UNL     1     104.373  98.849  88.902  1.00  0.00    -0.000 C 
BRANCH  18  19
ATOM     19  C   UNL     1     105.750  99.106  88.264  1.00  0.00    -0.000 C 
BRANCH  19  20
ATOM     20  C   UNL     1     106.627 100.055  89.099  1.00  0.00    -0.000 C 
BRANCH  20  21
ATOM     21  C   UNL     1     107.963  99.420  89.524  1.00  0.00    -0.000 C 
BRANCH  21  22
ATOM     22  C   UNL     1     108.680 100.115  90.696  1.00  0.00    -0.000 C 
BRANCH  22  23
ATOM     23  C   UNL     1     108.675  99.279  91.988  1.00  0.00    -0.000 C 
BRANCH  23  24
ATOM     24  C   UNL     1     107.874  97.968  91.834  1.00  0.00    -0.000 C 
BRANCH  24  25
ATOM     25  C   UNL     1     106.677  97.857  92.794  1.00  0.00    -0.003 C 
ATOM     26  C   UNL     1     105.663  98.985  92.620  1.00  0.00     0.004 C 
ENDBRANCH  24  25
ENDBRANCH  23  24
ENDBRANCH  22  23
ENDBRANCH  21  22
ENDBRANCH  20  21
ENDBRANCH  19  20
ENDBRANCH  18  19
ENDBRANCH  17  18
ENDBRANCH  16  17
ENDBRANCH  15  16
ENDBRANCH   1  15
TORSDOF 22
ENDMDL
MODEL 2
REMARK VINA RESULT:    -4.071      6.557     11.477
REMARK INTER + INTRA:         -13.426
REMARK INTER:                  -9.715
REMARK INTRA:                  -3.711
REMARK UNBOUND:                -4.119
REMARK SMILES CCCCCCCCCCCCCCCCCCCCCCCC(=O)[O-]
REMARK SMILES IDX 13 1 14 2 15 3 16 4 17 5 18 6 19 7 20 8 21 9 22 10 23 11
REMARK SMILES IDX 24 12 25 13 26 14 12 15 11 16 10 17 9 18 8 19 7 20 6 21 5 22
REMARK SMILES IDX 4 23 3 24 2 25 1 26
REMARK H PARENT
REMARK Flexibility Score: inf
ROOT
ATOM      1  C   UNL     1      89.922  98.475  91.851  1.00  0.00     0.000 C 
ENDROOT
BRANCH   1   2
ATOM      2  C   UNL     1      89.500  99.831  92.435  1.00  0.00     0.000 C 
BRANCH   2   3
ATOM      3  C   UNL     1      90.587 100.889  92.206  1.00  0.00     0.000 C 
BRANCH   3   4
ATOM      4  C   UNL     1      91.986 100.257  92.245  1.00  0.00     0.000 C 
BRANCH   4   5
ATOM      5  C   UNL     1      93.104 101.280  91.990  1.00  0.00     0.000 C 
BRANCH   5   6
ATOM      6  C   UNL     1      92.564 102.643  91.521  1.00  0.00     0.000 C 
BRANCH   6   7
ATOM      7  C   UNL     1      92.586 102.790  89.992  1.00  0.00     0.000 C 
BRANCH   7   8
ATOM      8  C   UNL     1      93.992 103.102  89.449  1.00  0.00     0.000 C 
BRANCH   8   9
ATOM      9  C   UNL     1      94.706 104.196  90.256  1.00  0.00     0.000 C 
BRANCH   9  10
ATOM     10  C   UNL     1      95.851 104.859  89.470  1.00  0.00     0.006 C 
BRANCH  10  11
ATOM     11  C   UNL     1      96.646 103.845  88.638  1.00  0.00     0.053 C 
BRANCH  11  12
ATOM     12  C   UNL     1      98.087 103.801  89.046  1.00  0.00     0.041 C 
ATOM     13  O   UNL     1      98.669 104.851  89.429  1.00  0.00    -0.550 OA
ATOM     14  O   UNL     1      98.795 102.610  88.972  1.00  0.00    -0.550 OA
ENDBRANCH  11  12
ENDBRANCH  10  11
ENDBRANCH   9  10
ENDBRANCH   8   9
ENDBRANCH   7   8
ENDBRANCH   6   7
ENDBRANCH   5   6
ENDBRANCH   4   5
ENDBRANCH   3   4
ENDBRANCH   2   3
ENDBRANCH   1   2
BRANCH   1  15
ATOM     15  C   UNL     1      88.963  97.970  90.758  1.00  0.00     0.000 C 
BRANCH  15  16
ATOM     16  C   UNL     1      89.647  97.512  89.453  1.00  0.00     0.000 C 
BRANCH  16  17
ATOM     17  C   UNL     1      91.126  97.921  89.313  1.00  0.00     0.000 C 
BRANCH  17  18
ATOM     18  C   UNL     1      91.371  99.227  88.529  1.00  0.00    -0.000 C 
BRANCH  18  19
ATOM     19  C   UNL     1      92.850  99.577  88.287  1.00  0.00    -0.000 C 
BRANCH  19  20
ATOM     20  C   UNL     1      93.791  98.952  89.332  1.00  0.00    -0.000 C 
BRANCH  20  21
ATOM     21  C   UNL     1      95.277  99.063  88.945  1.00  0.00    -0.000 C 
BRANCH  21  22
ATOM     22  C   UNL     1      96.023 100.275  89.533  1.00  0.00    -0.000 C 
BRANCH  22  23
ATOM     23  C   UNL     1      96.183 100.202  91.061  1.00  0.00    -0.000 C 
BRANCH  23  24
ATOM     24  C   UNL     1      97.020 101.373  91.619  1.00  0.00    -0.000 C 
BRANCH  24  25
ATOM     25  C   UNL     1      98.402 100.952  92.147  1.00  0.00    -0.003 C 
ATOM     26  C   UNL     1      98.912  99.656  91.522  1.00  0.00     0.004 C 
ENDBRANCH  24  25
ENDBRANCH  23  24
ENDBRANCH  22  23
ENDBRANCH  21  22
ENDBRANCH  20  21
ENDBRANCH  19  20
ENDBRANCH  18  19
ENDBRANCH  17  18
ENDBRANCH  16  17
ENDBRANCH  15  16
ENDBRANCH   1  15
TORSDOF 22
ENDMDL
MODEL 3
REMARK VINA RESULT:    -4.054      5.612      9.957
REMARK INTER + INTRA:         -13.387
REMARK INTER:                  -8.887
REMARK INTRA:                  -4.500
REMARK UNBOUND:                -4.119
REMARK SMILES CCCCCCCCCCCCCCCCCCCCCCCC(=O)[O-]
REMARK SMILES IDX 13 1 14 2 15 3 16 4 17 5 18 6 19 7 20 8 21 9 22 10 23 11
REMARK SMILES IDX 24 12 25 13 26 14 12 15 11 16 10 17 9 18 8 19 7 20 6 21 5 22
REMARK SMILES IDX 4 23 3 24 2 25 1 26
REMARK H PARENT
REMARK Flexibility Score: inf
ROOT
ATOM      1  C   UNL     1      98.441 103.925  89.029  1.00  0.00     0.000 C 
ENDROOT
BRANCH   1   2
ATOM      2  C   UNL     1      96.952 104.012  88.665  1.00  0.00     0.000 C 
BRANCH   2   3
ATOM      3  C   UNL     1      96.388 105.402  88.986  1.00  0.00     0.000 C 
BRANCH   3   4
ATOM      4  C   UNL     1      95.022 105.294  89.678  1.00  0.00     0.000 C 
BRANCH   4   5
ATOM      5  C   UNL     1      94.461 103.863  89.660  1.00  0.00     0.000 C 
BRANCH   5   6
ATOM      6  C   UNL     1      93.677 103.518  90.939  1.00  0.00     0.000 C 
BRANCH   6   7
ATOM      7  C   UNL     1      92.458 102.626  90.659  1.00  0.00     0.000 C 
BRANCH   7   8
ATOM      8  C   UNL     1      92.527 101.948  89.279  1.00  0.00     0.000 C 
BRANCH   8   9
ATOM      9  C   UNL     1      92.239 100.441  89.348  1.00  0.00     0.000 C 
BRANCH   9  10
ATOM     10  C   UNL     1      91.331 100.065  90.532  1.00  0.00     0.006 C 
BRANCH  10  11
ATOM     11  C   UNL     1      91.989  99.040  91.464  1.00  0.00     0.053 C 
BRANCH  11  12
ATOM     12  C   UNL     1      91.954  99.488  92.894  1.00  0.00     0.041 C 
ATOM     13  O   UNL     1      92.994  99.430  93.602  1.00  0.00    -0.550 OA
ATOM     14  O   UNL     1      90.765  99.935  93.454  1.00  0.00    -0.550 OA
ENDBRANCH  11  12
ENDBRANCH  10  11
ENDBRANCH   9  10
ENDBRANCH   8   9
ENDBRANCH   7   8
ENDBRANCH   6   7
ENDBRANCH   5   6
ENDBRANCH   4   5
ENDBRANCH   3   4
ENDBRANCH   2   3
ENDBRANCH   1   2
BRANCH   1  15
ATOM     15  C   UNL     1      98.824 102.577  89.666  1.00  0.00     0.000 C 
BRANCH  15  16
ATOM     16  C   UNL     1      98.985 102.605  91.200  1.00  0.00     0.000 C 
BRANCH  16  17
ATOM     17  C   UNL     1      98.088 101.616  91.969  1.00  0.00     0.000 C 
BRANCH  17  18
ATOM     18  C   UNL     1      96.606 101.612  91.544  1.00  0.00    -0.000 C 
BRANCH  18  19
ATOM     19  C   UNL     1      95.903 100.245  91.633  1.00  0.00    -0.000 C 
BRANCH  19  20
ATOM     20  C   UNL     1      95.506  99.687  90.255  1.00  0.00    -0.000 C 
BRANCH  20  21
ATOM     21  C   UNL     1      96.011 100.554  89.087  1.00  0.00    -0.000 C 
BRANCH  21  22
ATOM     22  C   UNL     1      97.016  99.868  88.144  1.00  0.00    -0.000 C 
BRANCH  22  23
ATOM     23  C   UNL     1      97.568  98.547  88.708  1.00  0.00    -0.000 C 
BRANCH  23  24
ATOM     24  C   UNL     1      98.925  98.737  89.420  1.00  0.00    -0.000 C 
BRANCH  24  25
ATOM     25  C   UNL     1      98.959  98.170  90.850  1.00  0.00    -0.003 C 
ATOM     26  C   UNL     1     100.168  98.642  91.654  1.00  0.00     0.004 C 
ENDBRANCH  24  25
ENDBRANCH  23  24
ENDBRANCH  22  23
ENDBRANCH  21  22
ENDBRANCH  20  21
ENDBRANCH  19  20
ENDBRANCH  18  19
ENDBRANCH  17  18
ENDBRANCH  16  17
ENDBRANCH  15  16
ENDBRANCH   1  15
TORSDOF 22
ENDMDL
MODEL 4
REMARK VINA RESULT:    -4.006      2.140      7.062
REMARK INTER + INTRA:         -13.277
REMARK INTER:                 -10.074
REMARK INTRA:                  -3.203
REMARK UNBOUND:                -4.119
REMARK SMILES CCCCCCCCCCCCCCCCCCCCCCCC(=O)[O-]
REMARK SMILES IDX 13 1 14 2 15 3 16 4 17 5 18 6 19 7 20 8 21 9 22 10 23 11
REMARK SMILES IDX 24 12 25 13 26 14 12 15 11 16 10 17 9 18 8 19 7 20 6 21 5 22
REMARK SMILES IDX 4 23 3 24 2 25 1 26
REMARK H PARENT
REMARK Flexibility Score: inf
ROOT
ATOM      1  C   UNL     1     104.797  95.102  89.939  1.00  0.00     0.000 C 
ENDROOT
BRANCH   1   2
ATOM      2  C   UNL     1     105.330  96.223  89.034  1.00  0.00     0.000 C 
BRANCH   2   3
ATOM      3  C   UNL     1     104.189  97.125  88.548  1.00  0.00     0.000 C 
BRANCH   3   4
ATOM      4  C   UNL     1     104.595  98.605  88.608  1.00  0.00     0.000 C 
BRANCH   4   5
ATOM      5  C   UNL     1     106.109  98.795  88.789  1.00  0.00     0.000 C 
BRANCH   5   6
ATOM      6  C   UNL     1     106.457 100.087  89.550  1.00  0.00     0.000 C 
BRANCH   6   7
ATOM      7  C   UNL     1     107.961 100.214  89.837  1.00  0.00     0.000 C 
BRANCH   7   8
ATOM      8  C   UNL     1     108.490  99.075  90.727  1.00  0.00     0.000 C 
BRANCH   8   9
ATOM      9  C   UNL     1     108.233  99.327  92.220  1.00  0.00     0.000 C 
BRANCH   9  10
ATOM     10  C   UNL     1     107.719  98.074  92.951  1.00  0.00     0.006 C 
BRANCH  10  11
ATOM     11  C   UNL     1     106.487  97.469  92.267  1.00  0.00     0.053 C 
BRANCH  11  12
ATOM     12  C   UNL     1     105.220  98.123  92.728  1.00  0.00     0.041 C 
ATOM     13  O   UNL     1     104.163  98.004  92.053  1.00  0.00    -0.550 OA
ATOM     14  O   UNL     1     105.215  98.892  93.883  1.00  0.00    -0.550 OA
ENDBRANCH  11  12
ENDBRANCH  10  11
ENDBRANCH   9  10
ENDBRANCH   8   9
ENDBRANCH   7   8
ENDBRANCH   6   7
ENDBRANCH   5   6
ENDBRANCH   4   5
ENDBRANCH   3   4
ENDBRANCH   2   3
ENDBRANCH   1   2
BRANCH   1  15
ATOM     15  C   UNL     1     103.535  94.426  89.373  1.00  0.00     0.000 C 
BRANCH  15  16
ATOM     16  C   UNL     1     103.152  93.093  90.050  1.00  0.00     0.000 C 
BRANCH  16  17
ATOM     17  C   UNL     1     101.993  92.331  89.380  1.00  0.00     0.000 C 
BRANCH  17  18
ATOM     18  C   UNL     1     100.994  93.212  88.601  1.00  0.00    -0.000 C 
BRANCH  18  19
ATOM     19  C   UNL     1      99.582  93.296  89.209  1.00  0.00    -0.000 C 
BRANCH  19  20
ATOM     20  C   UNL     1      99.167  94.734  89.561  1.00  0.00    -0.000 C 
BRANCH  20  21
ATOM     21  C   UNL     1     100.074  95.797  88.913  1.00  0.00    -0.000 C 
BRANCH  21  22
ATOM     22  C   UNL     1     100.788  96.742  89.897  1.00  0.00    -0.000 C 
BRANCH  22  23
ATOM     23  C   UNL     1     100.584  96.348  91.370  1.00  0.00    -0.000 C 
BRANCH  23  24
ATOM     24  C   UNL     1      99.606  97.295  92.099  1.00  0.00    -0.000 C 
BRANCH  24  25
ATOM     25  C   UNL     1      99.186  98.516  91.263  1.00  0.00    -0.003 C 
ATOM     26  C   UNL     1      98.208  99.434  91.993  1.00  0.00     0.004 C 
ENDBRANCH  24  25
ENDBRANCH  23  24
ENDBRANCH  22  23
ENDBRANCH  21  22
ENDBRANCH  20  21
ENDBRANCH  19  20
ENDBRANCH  18  19
ENDBRANCH  17  18
ENDBRANCH  16  17
ENDBRANCH  15  16
ENDBRANCH   1  15
TORSDOF 22
ENDMDL
MODEL 5
REMARK VINA RESULT:    -3.968      1.374      2.015
REMARK INTER + INTRA:         -13.191
REMARK INTER:                  -9.856
REMARK INTRA:                  -3.335
REMARK UNBOUND:                -4.119
REMARK SMILES CCCCCCCCCCCCCCCCCCCCCCCC(=O)[O-]
REMARK SMILES IDX 13 1 14 2 15 3 16 4 17 5 18 6 19 7 20 8 21 9 22 10 23 11
REMARK SMILES IDX 24 12 25 13 26 14 12 15 11 16 10 17 9 18 8 19 7 20 6 21 5 22
REMARK SMILES IDX 4 23 3 24 2 25 1 26
REMARK H PARENT
REMARK Flexibility Score: inf
ROOT
ATOM      1  C   UNL     1     104.543  95.819  91.240  1.00  0.00     0.000 C 
ENDROOT
BRANCH   1   2
ATOM      2  C   UNL     1     103.727  94.518  91.215  1.00  0.00     0.000 C 
BRANCH   2   3
ATOM      3  C   UNL     1     103.430  94.084  89.774  1.00  0.00     0.000 C 
BRANCH   3   4
ATOM      4  C   UNL     1     103.081  92.590  89.710  1.00  0.00     0.000 C 
BRANCH   4   5
ATOM      5  C   UNL     1     101.657  92.338  89.191  1.00  0.00     0.000 C 
BRANCH   5   6
ATOM      6  C   UNL     1     100.895  93.641  88.893  1.00  0.00     0.000 C 
BRANCH   6   7
ATOM      7  C   UNL     1      99.391  93.524  89.184  1.00  0.00     0.000 C 
BRANCH   7   8
ATOM      8  C   UNL     1      98.822  94.779  89.868  1.00  0.00     0.000 C 
BRANCH   8   9
ATOM      9  C   UNL     1      99.917  95.663  90.483  1.00  0.00     0.000 C 
BRANCH   9  10
ATOM     10  C   UNL     1     100.194  96.927  89.651  1.00  0.00     0.006 C 
BRANCH  10  11
ATOM     11  C   UNL     1      99.470  98.159  90.211  1.00  0.00     0.053 C 
BRANCH  11  12
ATOM     12  C   UNL     1      99.661  98.289  91.691  1.00  0.00     0.041 C 
ATOM     13  O   UNL     1      98.663  98.386  92.453  1.00  0.00    -0.550 OA
ATOM     14  O   UNL     1     100.941  98.339  92.225  1.00  0.00    -0.550 OA
ENDBRANCH  11  12
ENDBRANCH  10  11
ENDBRANCH   9  10
ENDBRANCH   8   9
ENDBRANCH   7   8
ENDBRANCH   6   7
ENDBRANCH   5   6
ENDBRANCH   4   5
ENDBRANCH   3   4
ENDBRANCH   2   3
ENDBRANCH   1   2
BRANCH   1  15
ATOM     15  C   UNL     1     103.744  97.037  90.743  1.00  0.00     0.000 C 
BRANCH  15  16
ATOM     16  C   UNL     1     104.431  97.856  89.631  1.00  0.00     0.000 C 
BRANCH  16  17
ATOM     17  C   UNL     1     105.768  97.280  89.126  1.00  0.00     0.000 C 
BRANCH  17  18
ATOM     18  C   UNL     1     106.811  98.330  88.693  1.00  0.00    -0.000 C 
BRANCH  18  19
ATOM     19  C   UNL     1     106.712  99.687  89.413  1.00  0.00    -0.000 C 
BRANCH  19  20
ATOM     20  C   UNL     1     108.049 100.449  89.437  1.00  0.00    -0.000 C 
BRANCH  20  21
ATOM     21  C   UNL     1     109.087  99.811  90.377  1.00  0.00    -0.000 C 
BRANCH  21  22
ATOM     22  C   UNL     1     108.661  99.703  91.853  1.00  0.00    -0.000 C 
BRANCH  22  23
ATOM     23  C   UNL     1     108.622  98.252  92.364  1.00  0.00    -0.000 C 
BRANCH  23  24
ATOM     24  C   UNL     1     107.190  97.793  92.714  1.00  0.00    -0.000 C 
BRANCH  24  25
ATOM     25  C   UNL     1     106.195  98.952  92.898  1.00  0.00    -0.003 C 
ATOM     26  C   UNL     1     105.031  98.603  93.822  1.00  0.00     0.004 C 
ENDBRANCH  24  25
ENDBRANCH  23  24
ENDBRANCH  22  23
ENDBRANCH  21  22
ENDBRANCH  20  21
ENDBRANCH  19  20
ENDBRANCH  18  19
ENDBRANCH  17  18
ENDBRANCH  16  17
ENDBRANCH  15  16
ENDBRANCH   1  15
TORSDOF 22
ENDMDL
MODEL 6
REMARK VINA RESULT:    -3.953      3.714      8.426
REMARK INTER + INTRA:         -13.157
REMARK INTER:                 -10.356
REMARK INTRA:                  -2.801
REMARK UNBOUND:                -4.119
REMARK SMILES CCCCCCCCCCCCCCCCCCCCCCCC(=O)[O-]
REMARK SMILES IDX 13 1 14 2 15 3 16 4 17 5 18 6 19 7 20 8 21 9 22 10 23 11
REMARK SMILES IDX 24 12 25 13 26 14 12 15 11 16 10 17 9 18 8 19 7 20 6 21 5 22
REMARK SMILES IDX 4 23 3 24 2 25 1 26
REMARK H PARENT
REMARK Flexibility Score: inf
ROOT
ATOM      1  C   UNL     1      99.683  98.595  90.328  1.00  0.00     0.000 C 
ENDROOT
BRANCH   1   2
ATOM      2  C   UNL     1     100.250  97.782  91.501  1.00  0.00     0.000 C 
BRANCH   2   3
ATOM      3  C   UNL     1      99.641  96.374  91.537  1.00  0.00     0.000 C 
BRANCH   3   4
ATOM      4  C   UNL     1      99.533  95.786  90.123  1.00  0.00     0.000 C 
BRANCH   4   5
ATOM      5  C   UNL     1      98.690  94.502  90.080  1.00  0.00     0.000 C 
BRANCH   5   6
ATOM      6  C   UNL     1      99.362  93.379  89.269  1.00  0.00     0.000 C 
BRANCH   6   7
ATOM      7  C   UNL     1     100.803  93.727  88.864  1.00  0.00     0.000 C 
BRANCH   7   8
ATOM      8  C   UNL     1     101.843  92.829  89.559  1.00  0.00     0.000 C 
BRANCH   8   9
ATOM      9  C   UNL     1     103.236  93.474  89.612  1.00  0.00     0.000 C 
BRANCH   9  10
ATOM     10  C   UNL     1     103.180  94.978  89.934  1.00  0.00     0.006 C 
BRANCH  10  11
ATOM     11  C   UNL     1     103.061  95.244  91.440  1.00  0.00     0.053 C 
BRANCH  11  12
ATOM     12  C   UNL     1     104.277  95.934  91.978  1.00  0.00     0.041 C 
ATOM     13  O   UNL     1     104.194  97.108  92.427  1.00  0.00    -0.550 OA
ATOM     14  O   UNL     1     105.509  95.293  91.952  1.00  0.00    -0.550 OA
ENDBRANCH  11  12
ENDBRANCH  10  11
ENDBRANCH   9  10
ENDBRANCH   8   9
ENDBRANCH   7   8
ENDBRANCH   6   7
ENDBRANCH   5   6
ENDBRANCH   4   5
ENDBRANCH   3   4
ENDBRANCH   2   3
ENDBRANCH   1   2
BRANCH   1  15
ATOM     15  C   UNL     1      98.410  99.376  90.701  1.00  0.00     0.000 C 
BRANCH  15  16
ATOM     16  C   UNL     1      98.536 100.266  91.955  1.00  0.00     0.000 C 
BRANCH  16  17
ATOM     17  C   UNL     1      98.352 101.775  91.706  1.00  0.00     0.000 C 
BRANCH  17  18
ATOM     18  C   UNL     1      98.374 102.200  90.223  1.00  0.00    -0.000 C 
BRANCH  18  19
ATOM     19  C   UNL     1      99.174 103.479  89.920  1.00  0.00    -0.000 C 
BRANCH  19  20
ATOM     20  C   UNL     1      98.331 104.561  89.223  1.00  0.00    -0.000 C 
BRANCH  20  21
ATOM     21  C   UNL     1      96.941 104.055  88.793  1.00  0.00    -0.000 C 
BRANCH  21  22
ATOM     22  C   UNL     1      95.747 104.819  89.395  1.00  0.00    -0.000 C 
BRANCH  22  23
ATOM     23  C   UNL     1      94.566 103.902  89.758  1.00  0.00    -0.000 C 
BRANCH  23  24
ATOM     24  C   UNL     1      94.491 103.616  91.273  1.00  0.00    -0.000 C 
BRANCH  24  25
ATOM     25  C   UNL     1      94.776 102.151  91.642  1.00  0.00    -0.003 C 
ATOM     26  C   UNL     1      94.768 101.216  90.435  1.00  0.00     0.004 C 
ENDBRANCH  24  25
ENDBRANCH  23  24
ENDBRANCH  22  23
ENDBRANCH  21  22
ENDBRANCH  20  21
ENDBRANCH  19  20
ENDBRANCH  18  19
ENDBRANCH  17  18
ENDBRANCH  16  17
ENDBRANCH  15  16
ENDBRANCH   1  15
TORSDOF 22
ENDMDL
MODEL 7
REMARK VINA RESULT:    -3.945      7.360     10.961
REMARK INTER + INTRA:         -13.139
REMARK INTER:                  -9.527
REMARK INTRA:                  -3.612
REMARK UNBOUND:                -4.119
REMARK SMILES CCCCCCCCCCCCCCCCCCCCCCCC(=O)[O-]
REMARK SMILES IDX 13 1 14 2 15 3 16 4 17 5 18 6 19 7 20 8 21 9 22 10 23 11
REMARK SMILES IDX 24 12 25 13 26 14 12 15 11 16 10 17 9 18 8 19 7 20 6 21 5 22
REMARK SMILES IDX 4 23 3 24 2 25 1 26
REMARK H PARENT
REMARK Flexibility Score: inf
ROOT
ATOM      1  C   UNL     1      90.659  99.573  93.127  1.00  0.00     0.000 C 
ENDROOT
BRANCH   1   2
ATOM      2  C   UNL     1      89.577  98.752  92.411  1.00  0.00     0.000 C 
BRANCH   2   3
ATOM      3  C   UNL     1      89.549  99.070  90.911  1.00  0.00     0.000 C 
BRANCH   3   4
ATOM      4  C   UNL     1      89.542  97.781  90.076  1.00  0.00     0.000 C 
BRANCH   4   5
ATOM      5  C   UNL     1      90.401  97.894  88.807  1.00  0.00     0.000 C 
BRANCH   5   6
ATOM      6  C   UNL     1      91.909  97.833  89.105  1.00  0.00     0.000 C 
BRANCH   6   7
ATOM      7  C   UNL     1      92.610  99.182  88.876  1.00  0.00     0.000 C 
BRANCH   7   8
ATOM      8  C   UNL     1      94.116  99.125  89.187  1.00  0.00     0.000 C 
BRANCH   8   9
ATOM      9  C   UNL     1      94.936 100.079  88.307  1.00  0.00     0.000 C 
BRANCH   9  10
ATOM     10  C   UNL     1      96.206 100.589  89.010  1.00  0.00     0.006 C 
BRANCH  10  11
ATOM     11  C   UNL     1      96.417  99.926  90.378  1.00  0.00     0.053 C 
BRANCH  11  12
ATOM     12  C   UNL     1      97.013 100.879  91.369  1.00  0.00     0.041 C 
ATOM     13  O   UNL     1      96.477 102.000  91.573  1.00  0.00    -0.550 OA
ATOM     14  O   UNL     1      98.181 100.543  92.041  1.00  0.00    -0.550 OA
ENDBRANCH  11  12
ENDBRANCH  10  11
ENDBRANCH   9  10
ENDBRANCH   8   9
ENDBRANCH   7   8
ENDBRANCH   6   7
ENDBRANCH   5   6
ENDBRANCH   4   5
ENDBRANCH   3   4
ENDBRANCH   2   3
ENDBRANCH   1   2
BRANCH   1  15
ATOM     15  C   UNL     1      92.084  99.216  92.667  1.00  0.00     0.000 C 
BRANCH  15  16
ATOM     16  C   UNL     1      92.972 100.424  92.304  1.00  0.00     0.000 C 
BRANCH  16  17
ATOM     17  C   UNL     1      92.221 101.635  91.719  1.00  0.00     0.000 C 
BRANCH  17  18
ATOM     18  C   UNL     1      93.117 102.816  91.291  1.00  0.00    -0.000 C 
BRANCH  18  19
ATOM     19  C   UNL     1      93.150 103.098  89.778  1.00  0.00    -0.000 C 
BRANCH  19  20
ATOM     20  C   UNL     1      94.519 103.607  89.295  1.00  0.00    -0.000 C 
BRANCH  20  21
ATOM     21  C   UNL     1      94.777 105.079  89.665  1.00  0.00    -0.000 C 
BRANCH  21  22
ATOM     22  C   UNL     1      96.197 105.594  89.367  1.00  0.00    -0.000 C 
BRANCH  22  23
ATOM     23  C   UNL     1      97.134 104.501  88.825  1.00  0.00    -0.000 C 
BRANCH  23  24
ATOM     24  C   UNL     1      98.599 104.715  89.263  1.00  0.00    -0.000 C 
BRANCH  24  25
ATOM     25  C   UNL     1      99.265 103.453  89.838  1.00  0.00    -0.003 C 
ATOM     26  C   UNL     1      99.401 102.328  88.814  1.00  0.00     0.004 C 
ENDBRANCH  24  25
ENDBRANCH  23  24
ENDBRANCH  22  23
ENDBRANCH  21  22
ENDBRANCH  20  21
ENDBRANCH  19  20
ENDBRANCH  18  19
ENDBRANCH  17  18
ENDBRANCH  16  17
ENDBRANCH  15  16
ENDBRANCH   1  15
TORSDOF 22
ENDMDL
MODEL 8
REMARK VINA RESULT:    -3.907      5.418     11.698
REMARK INTER + INTRA:         -13.052
REMARK INTER:                  -9.797
REMARK INTRA:                  -3.255
REMARK UNBOUND:                -4.119
REMARK SMILES CCCCCCCCCCCCCCCCCCCCCCCC(=O)[O-]
REMARK SMILES IDX 13 1 14 2 15 3 16 4 17 5 18 6 19 7 20 8 21 9 22 10 23 11
REMARK SMILES IDX 24 12 25 13 26 14 12 15 11 16 10 17 9 18 8 19 7 20 6 21 5 22
REMARK SMILES IDX 4 23 3 24 2 25 1 26
REMARK H PARENT
REMARK Flexibility Score: inf
ROOT
ATOM      1  C   UNL     1      94.099 102.872  90.823  1.00  0.00     0.000 C 
ENDROOT
BRANCH   1   2
ATOM      2  C   UNL     1      94.784 104.227  90.593  1.00  0.00     0.000 C 
BRANCH   2   3
ATOM      3  C   UNL     1      95.512 104.252  89.243  1.00  0.00     0.000 C 
BRANCH   3   4
ATOM      4  C   UNL     1      97.023 104.054  89.430  1.00  0.00     0.000 C 
BRANCH   4   5
ATOM      5  C   UNL     1      97.442 102.579  89.339  1.00  0.00     0.000 C 
BRANCH   5   6
ATOM      6  C   UNL     1      98.269 102.121  90.554  1.00  0.00     0.000 C 
BRANCH   6   7
ATOM      7  C   UNL     1      97.395 101.533  91.673  1.00  0.00     0.000 C 
BRANCH   7   8
ATOM      8  C   UNL     1      97.340  99.995  91.631  1.00  0.00     0.000 C 
BRANCH   8   9
ATOM      9  C   UNL     1      98.669  99.347  92.045  1.00  0.00     0.000 C 
BRANCH   9  10
ATOM     10  C   UNL     1      99.092  98.209  91.100  1.00  0.00     0.006 C 
BRANCH  10  11
ATOM     11  C   UNL     1      99.727  97.034  91.854  1.00  0.00     0.053 C 
BRANCH  11  12
ATOM     12  C   UNL     1     101.197  96.930  91.581  1.00  0.00     0.041 C 
ATOM     13  O   UNL     1     101.983  97.825  91.991  1.00  0.00    -0.550 OA
ATOM     14  O   UNL     1     101.694  95.864  90.843  1.00  0.00    -0.550 OA
ENDBRANCH  11  12
ENDBRANCH  10  11
ENDBRANCH   9  10
ENDBRANCH   8   9
ENDBRANCH   7   8
ENDBRANCH   6   7
ENDBRANCH   5   6
ENDBRANCH   4   5
ENDBRANCH   3   4
ENDBRANCH   2   3
ENDBRANCH   1   2
BRANCH   1  15
ATOM     15  C   UNL     1      92.707 102.787  90.172  1.00  0.00     0.000 C 
BRANCH  15  16
ATOM     16  C   UNL     1      92.590 101.773  89.015  1.00  0.00     0.000 C 
BRANCH  16  17
ATOM     17  C   UNL     1      93.931 101.239  88.477  1.00  0.00     0.000 C 
BRANCH  17  18
ATOM     18  C   UNL     1      94.071  99.702  88.478  1.00  0.00    -0.000 C 
BRANCH  18  19
ATOM     19  C   UNL     1      93.955  99.034  89.860  1.00  0.00    -0.000 C 
BRANCH  19  20
ATOM     20  C   UNL     1      92.934  97.884  89.884  1.00  0.00    -0.000 C 
BRANCH  20  21
ATOM     21  C   UNL     1      91.559  98.290  89.324  1.00  0.00    -0.000 C 
BRANCH  21  22
ATOM     22  C   UNL     1      90.361  98.014  90.252  1.00  0.00    -0.000 C 
BRANCH  22  23
ATOM     23  C   UNL     1      89.835  99.280  90.950  1.00  0.00    -0.000 C 
BRANCH  23  24
ATOM     24  C   UNL     1      90.307  99.379  92.417  1.00  0.00    -0.000 C 
BRANCH  24  25
ATOM     25  C   UNL     1      91.640 100.126  92.590  1.00  0.00    -0.003 C 
ATOM     26  C   UNL     1      92.679  99.325  93.371  1.00  0.00     0.004 C 
ENDBRANCH  24  25
ENDBRANCH  23  24
ENDBRANCH  22  23
ENDBRANCH  21  22
ENDBRANCH  20  21
ENDBRANCH  19  20
ENDBRANCH  18  19
ENDBRANCH  17  18
ENDBRANCH  16  17
ENDBRANCH  15  16
ENDBRANCH   1  15
TORSDOF 22
ENDMDL
MODEL 9
REMARK VINA RESULT:    -3.854      3.108      6.904
REMARK INTER + INTRA:         -12.930
REMARK INTER:                  -9.085
REMARK INTRA:                  -3.845
REMARK UNBOUND:                -4.119
REMARK SMILES CCCCCCCCCCCCCCCCCCCCCCCC(=O)[O-]
REMARK SMILES IDX 13 1 14 2 15 3 16 4 17 5 18 6 19 7 20 8 21 9 22 10 23 11
REMARK SMILES IDX 24 12 25 13 26 14 12 15 11 16 10 17 9 18 8 19 7 20 6 21 5 22
REMARK SMILES IDX 4 23 3 24 2 25 1 26
REMARK H PARENT
REMARK Flexibility Score: inf
ROOT
ATOM      1  C   UNL     1      99.745  96.325  91.285  1.00  0.00     0.000 C 
ENDROOT
BRANCH   1   2
ATOM      2  C   UNL     1      99.453  95.233  90.245  1.00  0.00     0.000 C 
BRANCH   2   3
ATOM      3  C   UNL     1     100.697  94.936  89.398  1.00  0.00     0.000 C 
BRANCH   3   4
ATOM      4  C   UNL     1     100.988  93.429  89.358  1.00  0.00     0.000 C 
BRANCH   4   5
ATOM      5  C   UNL     1     102.490  93.115  89.426  1.00  0.00     0.000 C 
BRANCH   5   6
ATOM      6  C   UNL     1     103.363  94.382  89.391  1.00  0.00     0.000 C 
BRANCH   6   7
ATOM      7  C   UNL     1     104.215  94.546  90.659  1.00  0.00     0.000 C 
BRANCH   7   8
ATOM      8  C   UNL     1     105.461  95.418  90.424  1.00  0.00     0.000 C 
BRANCH   8   9
ATOM      9  C   UNL     1     106.059  95.957  91.732  1.00  0.00     0.000 C 
BRANCH   9  10
ATOM     10  C   UNL     1     105.806  97.463  91.922  1.00  0.00     0.006 C 
BRANCH  10  11
ATOM     11  C   UNL     1     106.332  98.292  90.744  1.00  0.00     0.053 C 
BRANCH  11  12
ATOM     12  C   UNL     1     107.463  99.185  91.156  1.00  0.00     0.041 C 
ATOM     13  O   UNL     1     107.986  99.061  92.296  1.00  0.00    -0.550 OA
ATOM     14  O   UNL     1     107.915 100.177  90.297  1.00  0.00    -0.550 OA
ENDBRANCH  11  12
ENDBRANCH  10  11
ENDBRANCH   9  10
ENDBRANCH   8   9
ENDBRANCH   7   8
ENDBRANCH   6   7
ENDBRANCH   5   6
ENDBRANCH   4   5
ENDBRANCH   3   4
ENDBRANCH   2   3
ENDBRANCH   1   2
BRANCH   1  15
ATOM     15  C   UNL     1     101.242  96.447  91.621  1.00  0.00     0.000 C 
BRANCH  15  16
ATOM     16  C   UNL     1     101.850  97.846  91.387  1.00  0.00     0.000 C 
BRANCH  16  17
ATOM     17  C   UNL     1     102.693  97.985  90.106  1.00  0.00     0.000 C 
BRANCH  17  18
ATOM     18  C   UNL     1     102.068  98.865  89.004  1.00  0.00    -0.000 C 
BRANCH  18  19
ATOM     19  C   UNL     1     101.196  98.113  87.982  1.00  0.00    -0.000 C 
BRANCH  19  20
ATOM     20  C   UNL     1      99.695  98.412  88.143  1.00  0.00    -0.000 C 
BRANCH  20  21
ATOM     21  C   UNL     1      99.411  99.532  89.160  1.00  0.00    -0.000 C 
BRANCH  21  22
ATOM     22  C   UNL     1      98.152  99.334  90.024  1.00  0.00    -0.000 C 
BRANCH  22  23
ATOM     23  C   UNL     1      98.344  99.785  91.482  1.00  0.00    -0.000 C 
BRANCH  23  24
ATOM     24  C   UNL     1      98.301 101.321  91.631  1.00  0.00    -0.000 C 
BRANCH  24  25
ATOM     25  C   UNL     1      97.120 101.982  90.900  1.00  0.00    -0.003 C 
ATOM     26  C   UNL     1      95.773 101.701  91.563  1.00  0.00     0.004 C 
ENDBRANCH  24  25
ENDBRANCH  23  24
ENDBRANCH  22  23
ENDBRANCH  21  22
ENDBRANCH  20  21
ENDBRANCH  19  20
ENDBRANCH  18  19
ENDBRANCH  17  18
ENDBRANCH  16  17
ENDBRANCH  15  16
ENDBRANCH   1  15
TORSDOF 22
ENDMDL
