MODEL 1
REMARK VINA RESULT:    -2.483      0.000      0.000
REMARK INTER + INTRA:          -4.014
REMARK INTER:                  -3.790
REMARK INTRA:                  -0.224
REMARK UNBOUND:                -0.224
REMARK SMILES CC1=CCC[C@@H](C)C(=O)C[C@H](C(C)C)C(=O)C1
REMARK SMILES IDX 8 1 9 2 6 3 7 4 5 5 4 6 3 7 2 8 1 9 10 11 11 12 15 13 16 14
REMARK SMILES IDX 17 15 12 17 13 18 14 19
REMARK H PARENT
REMARK Flexibility Score: 70.00
ROOT
ATOM      1  C   UNL     1     200.405 151.528 162.170  1.00  0.00     0.136 C 
ATOM      2  O   UNL     1     199.934 152.151 161.230  1.00  0.00    -0.299 OA
ENDROOT
BRANCH   1   3
ATOM      3  C   UNL     1     200.029 150.074 162.376  1.00  0.00     0.053 C 
ATOM      4  C   UNL     1     200.178 149.319 161.052  1.00  0.00     0.016 C 
BRANCH   3   5
ATOM      5  C   UNL     1     198.588 149.926 162.918  1.00  0.00     0.015 C 
BRANCH   5   6
ATOM      6  C   UNL     1     198.534 149.414 164.365  1.00  0.00     0.028 C 
BRANCH   6   7
ATOM      7  C   UNL     1     199.782 148.639 164.720  1.00  0.00    -0.028 C 
ATOM      8  C   UNL     1     200.750 149.049 165.571  1.00  0.00    -0.070 CG0
ATOM      9  C   UNL     1     201.927 148.133 165.797  1.00  0.00     0.039 C 
ATOM     10  G   UNL     1     200.724 150.392 166.275  1.00  0.00     0.000 G0
ENDBRANCH   6   7
ENDBRANCH   5   6
ENDBRANCH   3   5
ENDBRANCH   1   3
BRANCH   1  11
ATOM     11  C   UNL     1     201.371 152.221 163.096  1.00  0.00     0.087 C 
BRANCH  11  12
ATOM     12  C   UNL     1     200.794 152.377 164.524  1.00  0.00     0.066 C 
BRANCH  12  13
ATOM     13  C   UNL     1     201.499 151.453 165.504  1.00  0.00     0.140 C 
ATOM     14  O   UNL     1     202.702 151.571 165.694  1.00  0.00    -0.299 OA
BRANCH  13  15
ATOM     15  C   UNL     1     200.738 150.413 166.286  1.00  0.00     0.106 CG0
ATOM     16  G   UNL     1     200.764 149.074 165.575  1.00  0.00     0.000 G0
ENDBRANCH  13  15
ENDBRANCH  12  13
BRANCH  12  17
ATOM     17  C   UNL     1     200.811 153.862 164.998  1.00  0.00    -0.006 C 
ATOM     18  C   UNL     1     201.074 154.824 163.829  1.00  0.00     0.008 C 
ATOM     19  C   UNL     1     199.542 154.289 165.757  1.00  0.00     0.008 C 
ENDBRANCH  12  17
ENDBRANCH  11  12
ENDBRANCH   1  11
TORSDOF 1
ENDMDL
MODEL 2
REMARK VINA RESULT:    -2.460      4.118      6.064
REMARK INTER + INTRA:          -3.979
REMARK INTER:                  -4.066
REMARK INTRA:                   0.088
REMARK UNBOUND:                -0.224
REMARK SMILES CC1=CCC[C@@H](C)C(=O)C[C@H](C(C)C)C(=O)C1
REMARK SMILES IDX 8 1 9 2 6 3 7 4 5 5 4 6 3 7 2 8 1 9 10 11 11 12 15 13 16 14
REMARK SMILES IDX 17 15 12 17 13 18 14 19
REMARK H PARENT
REMARK Flexibility Score: 70.00
ROOT
ATOM      1  C   UNL     1     200.349 154.866 164.502  1.00  0.00     0.136 C 
ATOM      2  O   UNL     1     199.423 155.221 165.217  1.00  0.00    -0.299 OA
ENDROOT
BRANCH   1   3
ATOM      3  C   UNL     1     200.998 153.514 164.722  1.00  0.00     0.053 C 
ATOM      4  C   UNL     1     200.142 152.692 165.690  1.00  0.00     0.016 C 
BRANCH   3   5
ATOM      5  C   UNL     1     202.438 153.652 165.267  1.00  0.00     0.015 C 
BRANCH   5   6
ATOM      6  C   UNL     1     203.508 153.137 164.291  1.00  0.00     0.028 C 
BRANCH   6   7
ATOM      7  C   UNL     1     204.702 154.062 164.249  1.00  0.00    -0.028 C 
ATOM      8  C   UNL     1     204.773 155.226 163.563  1.00  0.00    -0.070 CG0
ATOM      9  C   UNL     1     206.056 156.015 163.642  1.00  0.00     0.039 C 
ATOM     10  G   UNL     1     203.646 155.752 162.698  1.00  0.00     0.000 G0
ENDBRANCH   6   7
ENDBRANCH   5   6
ENDBRANCH   3   5
ENDBRANCH   1   3
BRANCH   1  11
ATOM     11  C   UNL     1     200.814 155.782 163.400  1.00  0.00     0.087 C 
BRANCH  11  12
ATOM     12  C   UNL     1     201.671 156.952 163.941  1.00  0.00     0.066 C 
BRANCH  12  13
ATOM     13  C   UNL     1     203.027 157.001 163.253  1.00  0.00     0.140 C 
ATOM     14  O   UNL     1     203.642 158.057 163.198  1.00  0.00    -0.299 OA
BRANCH  13  15
ATOM     15  C   UNL     1     203.656 155.762 162.671  1.00  0.00     0.106 CG0
ATOM     16  G   UNL     1     204.759 155.240 163.570  1.00  0.00     0.000 G0
ENDBRANCH  13  15
ENDBRANCH  12  13
BRANCH  12  17
ATOM     17  C   UNL     1     200.917 158.314 163.856  1.00  0.00    -0.006 C 
ATOM     18  C   UNL     1     200.288 158.524 162.471  1.00  0.00     0.008 C 
ATOM     19  C   UNL     1     199.855 158.508 164.953  1.00  0.00     0.008 C 
ENDBRANCH  12  17
ENDBRANCH  11  12
ENDBRANCH   1  11
TORSDOF 1
ENDMDL
MODEL 3
REMARK VINA RESULT:    -2.460      1.762      4.185
REMARK INTER + INTRA:          -3.978
REMARK INTER:                  -3.776
REMARK INTRA:                  -0.202
REMARK UNBOUND:                -0.224
REMARK SMILES CC1=CCC[C@@H](C)C(=O)C[C@H](C(C)C)C(=O)C1
REMARK SMILES IDX 8 1 9 2 6 3 7 4 5 5 4 6 3 7 2 8 1 9 10 11 11 12 15 13 16 14
REMARK SMILES IDX 17 15 12 17 13 18 14 19
REMARK H PARENT
REMARK Flexibility Score: 70.00
ROOT
ATOM      1  C   UNL     1     199.891 152.095 163.967  1.00  0.00     0.136 C 
ATOM      2  O   UNL     1     200.026 152.731 162.932  1.00  0.00    -0.299 OA
ENDROOT
BRANCH   1   3
ATOM      3  C   UNL     1     200.378 152.675 165.280  1.00  0.00     0.053 C 
ATOM      4  C   UNL     1     199.615 153.969 165.576  1.00  0.00     0.016 C 
BRANCH   3   5
ATOM      5  C   UNL     1     201.901 152.944 165.257  1.00  0.00     0.015 C 
BRANCH   5   6
ATOM      6  C   UNL     1     202.727 151.717 164.843  1.00  0.00     0.028 C 
BRANCH   6   7
ATOM      7  C   UNL     1     202.624 150.614 165.870  1.00  0.00    -0.028 C 
ATOM      8  C   UNL     1     202.387 149.309 165.604  1.00  0.00    -0.070 CG0
ATOM      9  C   UNL     1     202.317 148.353 166.768  1.00  0.00     0.039 C 
ATOM     10  G   UNL     1     202.157 148.774 164.205  1.00  0.00     0.000 G0
ENDBRANCH   6   7
ENDBRANCH   5   6
ENDBRANCH   3   5
ENDBRANCH   1   3
BRANCH   1  11
ATOM     11  C   UNL     1     199.221 150.746 163.913  1.00  0.00     0.087 C 
BRANCH  11  12
ATOM     12  C   UNL     1     199.994 149.749 163.016  1.00  0.00     0.066 C 
BRANCH  12  13
ATOM     13  C   UNL     1     200.689 148.685 163.852  1.00  0.00     0.140 C 
ATOM     14  O   UNL     1     200.059 147.712 164.243  1.00  0.00    -0.299 OA
BRANCH  13  15
ATOM     15  C   UNL     1     202.157 148.780 164.179  1.00  0.00     0.106 CG0
ATOM     16  G   UNL     1     202.366 149.297 165.588  1.00  0.00     0.000 G0
ENDBRANCH  13  15
ENDBRANCH  12  13
BRANCH  12  17
ATOM     17  C   UNL     1     199.083 149.131 161.913  1.00  0.00    -0.006 C 
ATOM     18  C   UNL     1     197.597 149.225 162.292  1.00  0.00     0.008 C 
ATOM     19  C   UNL     1     199.309 149.726 160.512  1.00  0.00     0.008 C 
ENDBRANCH  12  17
ENDBRANCH  11  12
ENDBRANCH   1  11
TORSDOF 1
ENDMDL
MODEL 4
REMARK VINA RESULT:    -2.449      1.668      2.104
REMARK INTER + INTRA:          -3.961
REMARK INTER:                  -3.754
REMARK INTRA:                  -0.208
REMARK UNBOUND:                -0.224
REMARK SMILES CC1=CCC[C@@H](C)C(=O)C[C@H](C(C)C)C(=O)C1
REMARK SMILES IDX 8 1 9 2 6 3 7 4 5 5 4 6 3 7 2 8 1 9 10 11 11 12 15 13 16 14
REMARK SMILES IDX 17 15 12 17 13 18 14 19
REMARK H PARENT
REMARK Flexibility Score: 70.00
ROOT
ATOM      1  C   UNL     1     200.353 152.046 161.549  1.00  0.00     0.136 C 
ATOM      2  O   UNL     1     200.180 153.136 161.023  1.00  0.00    -0.299 OA
ENDROOT
BRANCH   1   3
ATOM      3  C   UNL     1     199.862 150.789 160.860  1.00  0.00     0.053 C 
ATOM      4  C   UNL     1     200.533 150.667 159.489  1.00  0.00     0.016 C 
BRANCH   3   5
ATOM      5  C   UNL     1     198.323 150.784 160.704  1.00  0.00     0.015 C 
BRANCH   5   6
ATOM      6  C   UNL     1     197.599 150.086 161.866  1.00  0.00     0.028 C 
BRANCH   6   7
ATOM      7  C   UNL     1     198.338 148.844 162.306  1.00  0.00    -0.028 C 
ATOM      8  C   UNL     1     198.871 148.637 163.532  1.00  0.00    -0.070 CG0
ATOM      9  C   UNL     1     199.577 147.328 163.783  1.00  0.00     0.039 C 
ATOM     10  G   UNL     1     198.823 149.665 164.644  1.00  0.00     0.000 G0
ENDBRANCH   6   7
ENDBRANCH   5   6
ENDBRANCH   3   5
ENDBRANCH   1   3
BRANCH   1  11
ATOM     11  C   UNL     1     201.072 151.978 162.872  1.00  0.00     0.087 C 
BRANCH  11  12
ATOM     12  C   UNL     1     200.088 151.896 164.064  1.00  0.00     0.066 C 
BRANCH  12  13
ATOM     13  C   UNL     1     200.064 150.498 164.660  1.00  0.00     0.140 C 
ATOM     14  O   UNL     1     201.070 150.046 165.190  1.00  0.00    -0.299 OA
BRANCH  13  15
ATOM     15  C   UNL     1     198.810 149.662 164.651  1.00  0.00     0.106 CG0
ATOM     16  G   UNL     1     198.848 148.640 163.532  1.00  0.00     0.000 G0
ENDBRANCH  13  15
ENDBRANCH  12  13
BRANCH  12  17
ATOM     17  C   UNL     1     200.380 152.989 165.136  1.00  0.00    -0.006 C 
ATOM     18  C   UNL     1     200.473 154.387 164.505  1.00  0.00     0.008 C 
ATOM     19  C   UNL     1     199.377 153.003 166.303  1.00  0.00     0.008 C 
ENDBRANCH  12  17
ENDBRANCH  11  12
ENDBRANCH   1  11
TORSDOF 1
ENDMDL
MODEL 5
REMARK VINA RESULT:    -2.444      3.995      6.697
REMARK INTER + INTRA:          -3.954
REMARK INTER:                  -3.752
REMARK INTRA:                  -0.203
REMARK UNBOUND:                -0.224
REMARK SMILES CC1=CCC[C@@H](C)C(=O)C[C@H](C(C)C)C(=O)C1
REMARK SMILES IDX 8 1 9 2 6 3 7 4 5 5 4 6 3 7 2 8 1 9 10 11 11 12 15 13 16 14
REMARK SMILES IDX 17 15 12 17 13 18 14 19
REMARK H PARENT
REMARK Flexibility Score: 70.00
ROOT
ATOM      1  C   UNL     1     201.709 157.571 164.154  1.00  0.00     0.136 C 
ATOM      2  O   UNL     1     200.616 158.118 164.165  1.00  0.00    -0.299 OA
ENDROOT
BRANCH   1   3
ATOM      3  C   UNL     1     202.742 157.967 163.117  1.00  0.00     0.053 C 
ATOM      4  C   UNL     1     202.758 159.492 162.975  1.00  0.00     0.016 C 
BRANCH   3   5
ATOM      5  C   UNL     1     202.462 157.305 161.748  1.00  0.00     0.015 C 
BRANCH   5   6
ATOM      6  C   UNL     1     203.470 156.202 161.392  1.00  0.00     0.028 C 
BRANCH   6   7
ATOM      7  C   UNL     1     204.717 156.303 162.241  1.00  0.00    -0.028 C 
ATOM      8  C   UNL     1     205.107 155.410 163.178  1.00  0.00    -0.070 CG0
ATOM      9  C   UNL     1     206.387 155.685 163.927  1.00  0.00     0.039 C 
ATOM     10  G   UNL     1     204.307 154.172 163.532  1.00  0.00     0.000 G0
ENDBRANCH   6   7
ENDBRANCH   5   6
ENDBRANCH   3   5
ENDBRANCH   1   3
BRANCH   1  11
ATOM     11  C   UNL     1     202.012 156.521 165.192  1.00  0.00     0.087 C 
BRANCH  11  12
ATOM     12  C   UNL     1     202.040 155.097 164.585  1.00  0.00     0.066 C 
BRANCH  12  13
ATOM     13  C   UNL     1     203.409 154.457 164.751  1.00  0.00     0.140 C 
ATOM     14  O   UNL     1     203.794 154.124 165.864  1.00  0.00    -0.299 OA
BRANCH  13  15
ATOM     15  C   UNL     1     204.295 154.183 163.564  1.00  0.00     0.106 CG0
ATOM     16  G   UNL     1     205.103 155.411 163.194  1.00  0.00     0.000 G0
ENDBRANCH  13  15
ENDBRANCH  12  13
BRANCH  12  17
ATOM     17  C   UNL     1     200.897 154.201 165.152  1.00  0.00    -0.006 C 
ATOM     18  C   UNL     1     199.572 154.971 165.246  1.00  0.00     0.008 C 
ATOM     19  C   UNL     1     200.692 152.888 164.376  1.00  0.00     0.008 C 
ENDBRANCH  12  17
ENDBRANCH  11  12
ENDBRANCH   1  11
TORSDOF 1
ENDMDL
MODEL 6
REMARK VINA RESULT:    -2.421      2.564      4.862
REMARK INTER + INTRA:          -3.919
REMARK INTER:                  -3.692
REMARK INTRA:                  -0.227
REMARK UNBOUND:                -0.224
REMARK SMILES CC1=CCC[C@@H](C)C(=O)C[C@H](C(C)C)C(=O)C1
REMARK SMILES IDX 8 1 9 2 6 3 7 4 5 5 4 6 3 7 2 8 1 9 10 11 11 12 15 13 16 14
REMARK SMILES IDX 17 15 12 17 13 18 14 19
REMARK H PARENT
REMARK Flexibility Score: 70.00
ROOT
ATOM      1  C   UNL     1     197.852 150.004 160.618  1.00  0.00     0.136 C 
ATOM      2  O   UNL     1     198.018 149.228 159.689  1.00  0.00    -0.299 OA
ENDROOT
BRANCH   1   3
ATOM      3  C   UNL     1     198.127 151.482 160.426  1.00  0.00     0.053 C 
ATOM      4  C   UNL     1     197.188 152.037 159.352  1.00  0.00     0.016 C 
BRANCH   3   5
ATOM      5  C   UNL     1     199.601 151.745 160.037  1.00  0.00     0.015 C 
BRANCH   5   6
ATOM      6  C   UNL     1     200.605 151.213 161.071  1.00  0.00     0.028 C 
BRANCH   6   7
ATOM      7  C   UNL     1     200.533 151.998 162.360  1.00  0.00    -0.028 C 
ATOM      8  C   UNL     1     200.461 151.468 163.603  1.00  0.00    -0.070 CG0
ATOM      9  C   UNL     1     200.394 152.418 164.773  1.00  0.00     0.039 C 
ATOM     10  G   UNL     1     200.409 149.977 163.869  1.00  0.00     0.000 G0
ENDBRANCH   6   7
ENDBRANCH   5   6
ENDBRANCH   3   5
ENDBRANCH   1   3
BRANCH   1  11
ATOM     11  C   UNL     1     197.357 149.470 161.938  1.00  0.00     0.087 C 
BRANCH  11  12
ATOM     12  C   UNL     1     198.448 148.662 162.682  1.00  0.00     0.066 C 
BRANCH  12  13
ATOM     13  C   UNL     1     198.997 149.444 163.866  1.00  0.00     0.140 C 
ATOM     14  O   UNL     1     198.294 149.631 164.850  1.00  0.00    -0.299 OA
BRANCH  13  15
ATOM     15  C   UNL     1     200.411 149.963 163.875  1.00  0.00     0.106 CG0
ATOM     16  G   UNL     1     200.444 151.452 163.597  1.00  0.00     0.000 G0
ENDBRANCH  13  15
ENDBRANCH  12  13
BRANCH  12  17
ATOM     17  C   UNL     1     197.944 147.246 163.094  1.00  0.00    -0.006 C 
ATOM     18  C   UNL     1     197.472 146.440 161.875  1.00  0.00     0.008 C 
ATOM     19  C   UNL     1     198.968 146.430 163.902  1.00  0.00     0.008 C 
ENDBRANCH  12  17
ENDBRANCH  11  12
ENDBRANCH   1  11
TORSDOF 1
ENDMDL
MODEL 7
REMARK VINA RESULT:    -2.388      2.236      4.000
REMARK INTER + INTRA:          -3.868
REMARK INTER:                  -4.108
REMARK INTRA:                   0.239
REMARK UNBOUND:                -0.224
REMARK SMILES CC1=CCC[C@@H](C)C(=O)C[C@H](C(C)C)C(=O)C1
REMARK SMILES IDX 8 1 9 2 6 3 7 4 5 5 4 6 3 7 2 8 1 9 10 11 11 12 15 13 16 14
REMARK SMILES IDX 17 15 12 17 13 18 14 19
REMARK H PARENT
REMARK Flexibility Score: 70.00
ROOT
ATOM      1  C   UNL     1     198.932 149.277 163.923  1.00  0.00     0.136 C 
ATOM      2  O   UNL     1     199.410 148.155 164.003  1.00  0.00    -0.299 OA
ENDROOT
BRANCH   1   3
ATOM      3  C   UNL     1     197.990 149.617 162.785  1.00  0.00     0.053 C 
ATOM      4  C   UNL     1     197.016 148.455 162.569  1.00  0.00     0.016 C 
BRANCH   3   5
ATOM      5  C   UNL     1     198.757 149.922 161.478  1.00  0.00     0.015 C 
BRANCH   5   6
ATOM      6  C   UNL     1     199.102 151.410 161.311  1.00  0.00     0.028 C 
BRANCH   6   7
ATOM      7  C   UNL     1     200.595 151.637 161.374  1.00  0.00    -0.028 C 
ATOM      8  C   UNL     1     201.236 152.418 162.273  1.00  0.00    -0.070 CG0
ATOM      9  C   UNL     1     202.738 152.522 162.175  1.00  0.00     0.039 C 
ATOM     10  G   UNL     1     200.518 153.216 163.343  1.00  0.00     0.000 G0
ENDBRANCH   6   7
ENDBRANCH   5   6
ENDBRANCH   3   5
ENDBRANCH   1   3
BRANCH   1  11
ATOM     11  C   UNL     1     199.279 150.297 164.976  1.00  0.00     0.087 C 
BRANCH  11  12
ATOM     12  C   UNL     1     200.656 150.954 164.716  1.00  0.00     0.066 C 
BRANCH  12  13
ATOM     13  C   UNL     1     200.541 152.469 164.670  1.00  0.00     0.140 C 
ATOM     14  O   UNL     1     200.484 153.107 165.713  1.00  0.00    -0.299 OA
BRANCH  13  15
ATOM     15  C   UNL     1     200.537 153.216 163.361  1.00  0.00     0.106 CG0
ATOM     16  G   UNL     1     201.228 152.413 162.277  1.00  0.00     0.000 G0
ENDBRANCH  13  15
ENDBRANCH  12  13
BRANCH  12  17
ATOM     17  C   UNL     1     201.732 150.475 165.738  1.00  0.00    -0.006 C 
ATOM     18  C   UNL     1     201.086 149.860 166.989  1.00  0.00     0.008 C 
ATOM     19  C   UNL     1     202.765 149.501 165.145  1.00  0.00     0.008 C 
ENDBRANCH  12  17
ENDBRANCH  11  12
ENDBRANCH   1  11
TORSDOF 1
ENDMDL
MODEL 8
REMARK VINA RESULT:    -2.346      2.313      3.249
REMARK INTER + INTRA:          -3.805
REMARK INTER:                  -3.626
REMARK INTRA:                  -0.179
REMARK UNBOUND:                -0.224
REMARK SMILES CC1=CCC[C@@H](C)C(=O)C[C@H](C(C)C)C(=O)C1
REMARK SMILES IDX 8 1 9 2 6 3 7 4 5 5 4 6 3 7 2 8 1 9 10 11 11 12 15 13 16 14
REMARK SMILES IDX 17 15 12 17 13 18 14 19
REMARK H PARENT
REMARK Flexibility Score: 70.00
ROOT
ATOM      1  C   UNL     1     199.514 150.607 162.115  1.00  0.00     0.136 C 
ATOM      2  O   UNL     1     199.280 151.806 162.068  1.00  0.00    -0.299 OA
ENDROOT
BRANCH   1   3
ATOM      3  C   UNL     1     198.619 149.633 161.375  1.00  0.00     0.053 C 
ATOM      4  C   UNL     1     198.231 150.231 160.020  1.00  0.00     0.016 C 
BRANCH   3   5
ATOM      5  C   UNL     1     197.351 149.287 162.190  1.00  0.00     0.015 C 
BRANCH   5   6
ATOM      6  C   UNL     1     197.208 147.785 162.478  1.00  0.00     0.028 C 
BRANCH   6   7
ATOM      7  C   UNL     1     198.403 147.012 161.971  1.00  0.00    -0.028 C 
ATOM      8  C   UNL     1     199.477 146.647 162.708  1.00  0.00    -0.070 CG0
ATOM      9  C   UNL     1     200.577 145.878 162.021  1.00  0.00     0.039 C 
ATOM     10  G   UNL     1     199.640 147.002 164.172  1.00  0.00     0.000 G0
ENDBRANCH   6   7
ENDBRANCH   5   6
ENDBRANCH   3   5
ENDBRANCH   1   3
BRANCH   1  11
ATOM     11  C   UNL     1     200.707 150.126 162.900  1.00  0.00     0.087 C 
BRANCH  11  12
ATOM     12  C   UNL     1     200.301 149.553 164.279  1.00  0.00     0.066 C 
BRANCH  12  13
ATOM     13  C   UNL     1     200.668 148.081 164.391  1.00  0.00     0.140 C 
ATOM     14  O   UNL     1     201.810 147.760 164.690  1.00  0.00    -0.299 OA
BRANCH  13  15
ATOM     15  C   UNL     1     199.640 146.999 164.182  1.00  0.00     0.106 CG0
ATOM     16  G   UNL     1     199.492 146.670 162.711  1.00  0.00     0.000 G0
ENDBRANCH  13  15
ENDBRANCH  12  13
BRANCH  12  17
ATOM     17  C   UNL     1     200.884 150.397 165.453  1.00  0.00    -0.006 C 
ATOM     18  C   UNL     1     202.107 151.211 165.009  1.00  0.00     0.008 C 
ATOM     19  C   UNL     1     199.853 151.318 166.130  1.00  0.00     0.008 C 
ENDBRANCH  12  17
ENDBRANCH  11  12
ENDBRANCH   1  11
TORSDOF 1
ENDMDL
MODEL 9
REMARK VINA RESULT:    -2.296     11.960     14.114
REMARK INTER + INTRA:          -3.729
REMARK INTER:                  -3.603
REMARK INTRA:                  -0.125
REMARK UNBOUND:                -0.224
REMARK SMILES CC1=CCC[C@@H](C)C(=O)C[C@H](C(C)C)C(=O)C1
REMARK SMILES IDX 8 1 9 2 6 3 7 4 5 5 4 6 3 7 2 8 1 9 10 11 11 12 15 13 16 14
REMARK SMILES IDX 17 15 12 17 13 18 14 19
REMARK H PARENT
REMARK Flexibility Score: 70.00
ROOT
ATOM      1  C   UNL     1     214.732 152.212 170.122  1.00  0.00     0.136 C 
ATOM      2  O   UNL     1     215.594 151.676 170.804  1.00  0.00    -0.299 OA
ENDROOT
BRANCH   1   3
ATOM      3  C   UNL     1     214.308 153.636 170.421  1.00  0.00     0.053 C 
ATOM      4  C   UNL     1     215.554 154.497 170.651  1.00  0.00     0.016 C 
BRANCH   3   5
ATOM      5  C   UNL     1     213.372 153.710 171.649  1.00  0.00     0.015 C 
BRANCH   5   6
ATOM      6  C   UNL     1     211.883 153.754 171.274  1.00  0.00     0.028 C 
BRANCH   6   7
ATOM      7  C   UNL     1     211.664 154.513 169.986  1.00  0.00    -0.028 C 
ATOM      8  C   UNL     1     211.093 154.016 168.865  1.00  0.00    -0.070 CG0
ATOM      9  C   UNL     1     210.963 154.931 167.673  1.00  0.00     0.039 C 
ATOM     10  G   UNL     1     210.614 152.583 168.742  1.00  0.00     0.000 G0
ENDBRANCH   6   7
ENDBRANCH   5   6
ENDBRANCH   3   5
ENDBRANCH   1   3
BRANCH   1  11
ATOM     11  C   UNL     1     214.121 151.441 168.980  1.00  0.00     0.087 C 
BRANCH  11  12
ATOM     12  C   UNL     1     212.658 151.028 169.276  1.00  0.00     0.066 C 
BRANCH  12  13
ATOM     13  C   UNL     1     211.698 151.664 168.283  1.00  0.00     0.140 C 
ATOM     14  O   UNL     1     211.789 151.397 167.093  1.00  0.00    -0.299 OA
BRANCH  13  15
ATOM     15  C   UNL     1     210.599 152.589 168.738  1.00  0.00     0.106 CG0
ATOM     16  G   UNL     1     211.104 154.014 168.854  1.00  0.00     0.000 G0
ENDBRANCH  13  15
ENDBRANCH  12  13
BRANCH  12  17
ATOM     17  C   UNL     1     212.494 149.480 169.347  1.00  0.00    -0.006 C 
ATOM     18  C   UNL     1     213.763 148.803 169.886  1.00  0.00     0.008 C 
ATOM     19  C   UNL     1     211.267 149.019 170.153  1.00  0.00     0.008 C 
ENDBRANCH  12  17
ENDBRANCH  11  12
ENDBRANCH   1  11
TORSDOF 1
ENDMDL
