MODEL 1
REMARK VINA RESULT:    -3.366      0.000      0.000
REMARK INTER + INTRA:          -4.023
REMARK INTER:                  -3.957
REMARK INTRA:                  -0.066
REMARK UNBOUND:                -0.066
REMARK SMILES O=C([O-])CCC(=O)[O-]
REMARK SMILES IDX 4 1 2 2 1 3 3 4 5 5 6 6 7 7 8 8
REMARK H PARENT
REMARK Flexibility Score: inf
ROOT
ATOM      1  C   UNL     1     -23.999   6.038 -14.202  1.00  0.00     0.059 C 
ENDROOT
BRANCH   1   2
ATOM      2  C   UNL     1     -25.282   6.582 -14.754  1.00  0.00     0.042 C 
ATOM      3  O   UNL     1     -25.560   7.803 -14.623  1.00  0.00    -0.550 OA
ATOM      4  O   UNL     1     -26.188   5.732 -15.377  1.00  0.00    -0.550 OA
ENDBRANCH   1   2
BRANCH   1   5
ATOM      5  C   UNL     1     -22.944   5.857 -15.298  1.00  0.00     0.059 C 
BRANCH   5   6
ATOM      6  C   UNL     1     -23.158   4.588 -16.065  1.00  0.00     0.042 C 
ATOM      7  O   UNL     1     -22.870   4.530 -17.290  1.00  0.00    -0.550 OA
ATOM      8  O   UNL     1     -23.638   3.456 -15.417  1.00  0.00    -0.550 OA
ENDBRANCH   5   6
ENDBRANCH   1   5
TORSDOF 3
ENDMDL
MODEL 2
REMARK VINA RESULT:    -3.366      0.068      3.562
REMARK INTER + INTRA:          -4.022
REMARK INTER:                  -3.967
REMARK INTRA:                  -0.056
REMARK UNBOUND:                -0.066
REMARK SMILES O=C([O-])CCC(=O)[O-]
REMARK SMILES IDX 4 1 2 2 1 3 3 4 5 5 6 6 7 7 8 8
REMARK H PARENT
REMARK Flexibility Score: inf
ROOT
ATOM      1  C   UNL     1     -22.972   5.818 -15.259  1.00  0.00     0.059 C 
ENDROOT
BRANCH   1   2
ATOM      2  C   UNL     1     -23.192   4.556 -16.039  1.00  0.00     0.042 C 
ATOM      3  O   UNL     1     -23.668   3.537 -15.473  1.00  0.00    -0.550 OA
ATOM      4  O   UNL     1     -22.833   4.494 -17.379  1.00  0.00    -0.550 OA
ENDBRANCH   1   2
BRANCH   1   5
ATOM      5  C   UNL     1     -24.035   6.001 -14.171  1.00  0.00     0.059 C 
BRANCH   5   6
ATOM      6  C   UNL     1     -25.297   6.589 -14.726  1.00  0.00     0.042 C 
ATOM      7  O   UNL     1     -25.522   7.824 -14.621  1.00  0.00    -0.550 OA
ATOM      8  O   UNL     1     -26.205   5.778 -15.395  1.00  0.00    -0.550 OA
ENDBRANCH   5   6
ENDBRANCH   1   5
TORSDOF 3
ENDMDL
MODEL 3
REMARK VINA RESULT:    -3.346      7.134      9.145
REMARK INTER + INTRA:          -3.998
REMARK INTER:                  -3.931
REMARK INTRA:                  -0.068
REMARK UNBOUND:                -0.066
REMARK SMILES O=C([O-])CCC(=O)[O-]
REMARK SMILES IDX 4 1 2 2 1 3 3 4 5 5 6 6 7 7 8 8
REMARK H PARENT
REMARK Flexibility Score: inf
ROOT
ATOM      1  C   UNL     1     -30.528  11.355 -13.965  1.00  0.00     0.059 C 
ENDROOT
BRANCH   1   2
ATOM      2  C   UNL     1     -29.857  10.079 -14.374  1.00  0.00     0.042 C 
ATOM      3  O   UNL     1     -28.601  10.000 -14.390  1.00  0.00    -0.550 OA
ATOM      4  O   UNL     1     -30.620   8.990 -14.778  1.00  0.00    -0.550 OA
ENDBRANCH   1   2
BRANCH   1   5
ATOM      5  C   UNL     1     -29.696  12.125 -12.935  1.00  0.00     0.059 C 
BRANCH   5   6
ATOM      6  C   UNL     1     -30.341  12.109 -11.582  1.00  0.00     0.042 C 
ATOM      7  O   UNL     1     -31.594  12.046 -11.477  1.00  0.00    -0.550 OA
ATOM      8  O   UNL     1     -29.554  12.124 -10.437  1.00  0.00    -0.550 OA
ENDBRANCH   5   6
ENDBRANCH   1   5
TORSDOF 3
ENDMDL
MODEL 4
REMARK VINA RESULT:    -3.263      1.344      3.715
REMARK INTER + INTRA:          -3.902
REMARK INTER:                  -3.844
REMARK INTRA:                  -0.058
REMARK UNBOUND:                -0.066
REMARK SMILES O=C([O-])CCC(=O)[O-]
REMARK SMILES IDX 4 1 2 2 1 3 3 4 5 5 6 6 7 7 8 8
REMARK H PARENT
REMARK Flexibility Score: inf
ROOT
ATOM      1  C   UNL     1     -24.014   4.397 -15.481  1.00  0.00     0.059 C 
ENDROOT
BRANCH   1   2
ATOM      2  C   UNL     1     -22.893   4.949 -16.309  1.00  0.00     0.042 C 
ATOM      3  O   UNL     1     -22.691   4.514 -17.473  1.00  0.00    -0.550 OA
ATOM      4  O   UNL     1     -22.047   5.916 -15.779  1.00  0.00    -0.550 OA
ENDBRANCH   1   2
BRANCH   1   5
ATOM      5  C   UNL     1     -25.214   5.349 -15.448  1.00  0.00     0.059 C 
BRANCH   5   6
ATOM      6  C   UNL     1     -25.015   6.452 -14.454  1.00  0.00     0.042 C 
ATOM      7  O   UNL     1     -25.498   7.595 -14.669  1.00  0.00    -0.550 OA
ATOM      8  O   UNL     1     -24.329   6.206 -13.270  1.00  0.00    -0.550 OA
ENDBRANCH   5   6
ENDBRANCH   1   5
TORSDOF 3
ENDMDL
MODEL 5
REMARK VINA RESULT:    -3.261      1.344      1.738
REMARK INTER + INTRA:          -3.899
REMARK INTER:                  -3.840
REMARK INTRA:                  -0.059
REMARK UNBOUND:                -0.066
REMARK SMILES O=C([O-])CCC(=O)[O-]
REMARK SMILES IDX 4 1 2 2 1 3 3 4 5 5 6 6 7 7 8 8
REMARK H PARENT
REMARK Flexibility Score: inf
ROOT
ATOM      1  C   UNL     1     -25.214   5.366 -15.440  1.00  0.00     0.059 C 
ENDROOT
BRANCH   1   2
ATOM      2  C   UNL     1     -25.025   6.456 -14.428  1.00  0.00     0.042 C 
ATOM      3  O   UNL     1     -25.470   7.612 -14.652  1.00  0.00    -0.550 OA
ATOM      4  O   UNL     1     -24.322   6.204 -13.257  1.00  0.00    -0.550 OA
ENDBRANCH   1   2
BRANCH   1   5
ATOM      5  C   UNL     1     -24.027   4.398 -15.456  1.00  0.00     0.059 C 
BRANCH   5   6
ATOM      6  C   UNL     1     -22.896   4.926 -16.285  1.00  0.00     0.042 C 
ATOM      7  O   UNL     1     -22.716   4.502 -17.457  1.00  0.00    -0.550 OA
ATOM      8  O   UNL     1     -22.064   5.916 -15.775  1.00  0.00    -0.550 OA
ENDBRANCH   5   6
ENDBRANCH   1   5
TORSDOF 3
ENDMDL
MODEL 6
REMARK VINA RESULT:    -3.074      6.454      8.444
REMARK INTER + INTRA:          -3.679
REMARK INTER:                  -3.623
REMARK INTRA:                  -0.056
REMARK UNBOUND:                -0.066
REMARK SMILES O=C([O-])CCC(=O)[O-]
REMARK SMILES IDX 4 1 2 2 1 3 3 4 5 5 6 6 7 7 8 8
REMARK H PARENT
REMARK Flexibility Score: inf
ROOT
ATOM      1  C   UNL     1     -31.146   9.332 -14.751  1.00  0.00     0.059 C 
ENDROOT
BRANCH   1   2
ATOM      2  C   UNL     1     -30.273   8.159 -15.082  1.00  0.00     0.042 C 
ATOM      3  O   UNL     1     -29.058   8.333 -15.360  1.00  0.00    -0.550 OA
ATOM      4  O   UNL     1     -30.812   6.879 -15.123  1.00  0.00    -0.550 OA
ENDBRANCH   1   2
BRANCH   1   5
ATOM      5  C   UNL     1     -30.360  10.646 -14.775  1.00  0.00     0.059 C 
BRANCH   5   6
ATOM      6  C   UNL     1     -30.542  11.421 -13.505  1.00  0.00     0.042 C 
ATOM      7  O   UNL     1     -31.652  11.411 -12.909  1.00  0.00    -0.550 OA
ATOM      8  O   UNL     1     -29.473  12.121 -12.959  1.00  0.00    -0.550 OA
ENDBRANCH   5   6
ENDBRANCH   1   5
TORSDOF 3
ENDMDL
MODEL 7
REMARK VINA RESULT:    -3.060      6.495      7.787
REMARK INTER + INTRA:          -3.663
REMARK INTER:                  -3.599
REMARK INTRA:                  -0.064
REMARK UNBOUND:                -0.066
REMARK SMILES O=C([O-])CCC(=O)[O-]
REMARK SMILES IDX 4 1 2 2 1 3 3 4 5 5 6 6 7 7 8 8
REMARK H PARENT
REMARK Flexibility Score: inf
ROOT
ATOM      1  C   UNL     1     -30.452  10.712 -14.819  1.00  0.00     0.059 C 
ENDROOT
BRANCH   1   2
ATOM      2  C   UNL     1     -30.417  11.449 -13.514  1.00  0.00     0.042 C 
ATOM      3  O   UNL     1     -29.343  11.964 -13.106  1.00  0.00    -0.550 OA
ATOM      4  O   UNL     1     -31.561  11.532 -12.731  1.00  0.00    -0.550 OA
ENDBRANCH   1   2
BRANCH   1   5
ATOM      5  C   UNL     1     -31.174   9.367 -14.689  1.00  0.00     0.059 C 
BRANCH   5   6
ATOM      6  C   UNL     1     -30.284   8.224 -15.071  1.00  0.00     0.042 C 
ATOM      7  O   UNL     1     -29.062   8.422 -15.307  1.00  0.00    -0.550 OA
ATOM      8  O   UNL     1     -30.796   6.934 -15.128  1.00  0.00    -0.550 OA
ENDBRANCH   5   6
ENDBRANCH   1   5
TORSDOF 3
ENDMDL
MODEL 8
REMARK VINA RESULT:    -3.021      1.841      3.719
REMARK INTER + INTRA:          -3.616
REMARK INTER:                  -3.528
REMARK INTRA:                  -0.089
REMARK UNBOUND:                -0.066
REMARK SMILES O=C([O-])CCC(=O)[O-]
REMARK SMILES IDX 4 1 2 2 1 3 3 4 5 5 6 6 7 7 8 8
REMARK H PARENT
REMARK Flexibility Score: inf
ROOT
ATOM      1  C   UNL     1     -23.522   4.027 -16.163  1.00  0.00     0.059 C 
ENDROOT
BRANCH   1   2
ATOM      2  C   UNL     1     -23.390   4.309 -17.629  1.00  0.00     0.042 C 
ATOM      3  O   UNL     1     -22.261   4.555 -18.128  1.00  0.00    -0.550 OA
ATOM      4  O   UNL     1     -24.520   4.340 -18.437  1.00  0.00    -0.550 OA
ENDBRANCH   1   2
BRANCH   1   5
ATOM      5  C   UNL     1     -24.530   4.968 -15.496  1.00  0.00     0.059 C 
BRANCH   5   6
ATOM      6  C   UNL     1     -23.846   5.993 -14.643  1.00  0.00     0.042 C 
ATOM      7  O   UNL     1     -24.389   6.400 -13.582  1.00  0.00    -0.550 OA
ATOM      8  O   UNL     1     -22.590   6.468 -15.000  1.00  0.00    -0.550 OA
ENDBRANCH   5   6
ENDBRANCH   1   5
TORSDOF 3
ENDMDL
