MODEL 1
REMARK VINA RESULT:    -3.602      0.000      0.000
REMARK INTER + INTRA:          -4.047
REMARK INTER:                  -4.023
REMARK INTRA:                  -0.024
REMARK UNBOUND:                -0.024
REMARK SMILES CCCC(=O)[O-]
REMARK SMILES IDX 3 1 4 2 5 3 6 4 2 5 1 6
REMARK H PARENT
REMARK Flexibility Score: inf
ROOT
ATOM      1  C   UNL     1      77.684  56.742   9.077  1.00  0.00     0.052 C 
ENDROOT
BRANCH   1   2
ATOM      2  C   UNL     1      78.590  56.103  10.081  1.00  0.00     0.041 C 
ATOM      3  O   UNL     1      79.388  55.195   9.727  1.00  0.00    -0.550 OA
ATOM      4  O   UNL     1      78.519  56.474  11.418  1.00  0.00    -0.550 OA
ENDBRANCH   1   2
BRANCH   1   5
ATOM      5  C   UNL     1      77.779  56.017   7.732  1.00  0.00     0.003 C 
ATOM      6  C   UNL     1      77.802  57.009   6.573  1.00  0.00     0.004 C 
ENDBRANCH   1   5
TORSDOF 2
ENDMDL
MODEL 2
REMARK VINA RESULT:    -3.577      0.120      1.328
REMARK INTER + INTRA:          -4.019
REMARK INTER:                  -3.998
REMARK INTRA:                  -0.021
REMARK UNBOUND:                -0.024
REMARK SMILES CCCC(=O)[O-]
REMARK SMILES IDX 3 1 4 2 5 3 6 4 2 5 1 6
REMARK H PARENT
REMARK Flexibility Score: inf
ROOT
ATOM      1  C   UNL     1      77.741  56.744   9.082  1.00  0.00     0.052 C 
ENDROOT
BRANCH   1   2
ATOM      2  C   UNL     1      78.589  56.019  10.078  1.00  0.00     0.041 C 
ATOM      3  O   UNL     1      78.528  56.318  11.300  1.00  0.00    -0.550 OA
ATOM      4  O   UNL     1      79.486  55.046   9.652  1.00  0.00    -0.550 OA
ENDBRANCH   1   2
BRANCH   1   5
ATOM      5  C   UNL     1      77.758  56.018   7.735  1.00  0.00     0.003 C 
ATOM      6  C   UNL     1      77.799  57.009   6.576  1.00  0.00     0.004 C 
ENDBRANCH   1   5
TORSDOF 2
ENDMDL
MODEL 3
REMARK VINA RESULT:    -3.464      2.214      3.391
REMARK INTER + INTRA:          -3.893
REMARK INTER:                  -3.884
REMARK INTRA:                  -0.010
REMARK UNBOUND:                -0.024
REMARK SMILES CCCC(=O)[O-]
REMARK SMILES IDX 3 1 4 2 5 3 6 4 2 5 1 6
REMARK H PARENT
REMARK Flexibility Score: inf
ROOT
ATOM      1  C   UNL     1      77.728  56.786   8.869  1.00  0.00     0.052 C 
ENDROOT
BRANCH   1   2
ATOM      2  C   UNL     1      77.745  56.177   7.503  1.00  0.00     0.041 C 
ATOM      3  O   UNL     1      77.774  54.926   7.367  1.00  0.00    -0.550 OA
ATOM      4  O   UNL     1      77.782  56.992   6.378  1.00  0.00    -0.550 OA
ENDBRANCH   1   2
BRANCH   1   5
ATOM      5  C   UNL     1      78.441  55.875   9.871  1.00  0.00     0.003 C 
ATOM      6  C   UNL     1      78.776  56.626  11.156  1.00  0.00     0.004 C 
ENDBRANCH   1   5
TORSDOF 2
ENDMDL
MODEL 4
REMARK VINA RESULT:    -3.312      1.730      2.447
REMARK INTER + INTRA:          -3.724
REMARK INTER:                  -3.690
REMARK INTRA:                  -0.034
REMARK UNBOUND:                -0.024
REMARK SMILES CCCC(=O)[O-]
REMARK SMILES IDX 3 1 4 2 5 3 6 4 2 5 1 6
REMARK H PARENT
REMARK Flexibility Score: inf
ROOT
ATOM      1  C   UNL     1      77.824  54.834   7.670  1.00  0.00     0.052 C 
ENDROOT
BRANCH   1   2
ATOM      2  C   UNL     1      79.029  54.286   8.365  1.00  0.00     0.041 C 
ATOM      3  O   UNL     1      79.815  55.057   8.975  1.00  0.00    -0.550 OA
ATOM      4  O   UNL     1      79.312  52.927   8.299  1.00  0.00    -0.550 OA
ENDBRANCH   1   2
BRANCH   1   5
ATOM      5  C   UNL     1      77.746  56.352   7.851  1.00  0.00     0.003 C 
ATOM      6  C   UNL     1      77.783  57.070   6.505  1.00  0.00     0.004 C 
ENDBRANCH   1   5
TORSDOF 2
ENDMDL
MODEL 5
REMARK VINA RESULT:    -3.125     12.595     12.891
REMARK INTER + INTRA:          -3.515
REMARK INTER:                  -3.507
REMARK INTRA:                  -0.008
REMARK UNBOUND:                -0.024
REMARK SMILES CCCC(=O)[O-]
REMARK SMILES IDX 3 1 4 2 5 3 6 4 2 5 1 6
REMARK H PARENT
REMARK Flexibility Score: inf
ROOT
ATOM      1  C   UNL     1      84.959  65.106  15.336  1.00  0.00     0.052 C 
ENDROOT
BRANCH   1   2
ATOM      2  C   UNL     1      84.864  64.485  16.693  1.00  0.00     0.041 C 
ATOM      3  O   UNL     1      84.933  63.234  16.824  1.00  0.00    -0.550 OA
ATOM      4  O   UNL     1      84.649  65.283  17.810  1.00  0.00    -0.550 OA
ENDBRANCH   1   2
BRANCH   1   5
ATOM      5  C   UNL     1      83.796  66.075  15.108  1.00  0.00     0.003 C 
ATOM      6  C   UNL     1      83.989  66.873  13.822  1.00  0.00     0.004 C 
ENDBRANCH   1   5
TORSDOF 2
ENDMDL
MODEL 6
REMARK VINA RESULT:    -3.113     12.228     12.599
REMARK INTER + INTRA:          -3.501
REMARK INTER:                  -3.491
REMARK INTRA:                  -0.010
REMARK UNBOUND:                -0.024
REMARK SMILES CCCC(=O)[O-]
REMARK SMILES IDX 3 1 4 2 5 3 6 4 2 5 1 6
REMARK H PARENT
REMARK Flexibility Score: inf
ROOT
ATOM      1  C   UNL     1      84.861  64.048  16.467  1.00  0.00     0.052 C 
ENDROOT
BRANCH   1   2
ATOM      2  C   UNL     1      84.464  65.189  15.586  1.00  0.00     0.041 C 
ATOM      3  O   UNL     1      85.087  65.407  14.513  1.00  0.00    -0.550 OA
ATOM      4  O   UNL     1      83.439  66.044  15.972  1.00  0.00    -0.550 OA
ENDBRANCH   1   2
BRANCH   1   5
ATOM      5  C   UNL     1      85.421  62.895  15.632  1.00  0.00     0.003 C 
ATOM      6  C   UNL     1      85.636  61.649  16.487  1.00  0.00     0.004 C 
ENDBRANCH   1   5
TORSDOF 2
ENDMDL
MODEL 7
REMARK VINA RESULT:    -3.091      2.443      3.356
REMARK INTER + INTRA:          -3.476
REMARK INTER:                  -3.440
REMARK INTRA:                  -0.036
REMARK UNBOUND:                -0.024
REMARK SMILES CCCC(=O)[O-]
REMARK SMILES IDX 3 1 4 2 5 3 6 4 2 5 1 6
REMARK H PARENT
REMARK Flexibility Score: inf
ROOT
ATOM      1  C   UNL     1      77.957  54.831   7.716  1.00  0.00     0.052 C 
ENDROOT
BRANCH   1   2
ATOM      2  C   UNL     1      77.722  56.308   7.711  1.00  0.00     0.041 C 
ATOM      3  O   UNL     1      77.455  56.911   8.783  1.00  0.00    -0.550 OA
ATOM      4  O   UNL     1      77.746  57.013   6.513  1.00  0.00    -0.550 OA
ENDBRANCH   1   2
BRANCH   1   5
ATOM      5  C   UNL     1      79.456  54.528   7.760  1.00  0.00     0.003 C 
ATOM      6  C   UNL     1      79.963  54.468   9.198  1.00  0.00     0.004 C 
ENDBRANCH   1   5
TORSDOF 2
ENDMDL
MODEL 8
REMARK VINA RESULT:    -2.989     13.229     14.015
REMARK INTER + INTRA:          -3.362
REMARK INTER:                  -3.330
REMARK INTRA:                  -0.033
REMARK UNBOUND:                -0.024
REMARK SMILES CCCC(=O)[O-]
REMARK SMILES IDX 3 1 4 2 5 3 6 4 2 5 1 6
REMARK H PARENT
REMARK Flexibility Score: inf
ROOT
ATOM      1  C   UNL     1      84.633  65.416  18.536  1.00  0.00     0.052 C 
ENDROOT
BRANCH   1   2
ATOM      2  C   UNL     1      83.536  64.855  19.384  1.00  0.00     0.041 C 
ATOM      3  O   UNL     1      82.591  65.593  19.767  1.00  0.00    -0.550 OA
ATOM      4  O   UNL     1      83.583  63.528  19.795  1.00  0.00    -0.550 OA
ENDBRANCH   1   2
BRANCH   1   5
ATOM      5  C   UNL     1      84.719  64.665  17.206  1.00  0.00     0.003 C 
ATOM      6  C   UNL     1      84.027  65.442  16.090  1.00  0.00     0.004 C 
ENDBRANCH   1   5
TORSDOF 2
ENDMDL
MODEL 9
REMARK VINA RESULT:    -2.954     10.958     11.881
REMARK INTER + INTRA:          -3.324
REMARK INTER:                  -3.256
REMARK INTRA:                  -0.068
REMARK UNBOUND:                -0.024
REMARK SMILES CCCC(=O)[O-]
REMARK SMILES IDX 3 1 4 2 5 3 6 4 2 5 1 6
REMARK H PARENT
REMARK Flexibility Score: inf
ROOT
ATOM      1  C   UNL     1      85.642  62.988  15.395  1.00  0.00     0.052 C 
ENDROOT
BRANCH   1   2
ATOM      2  C   UNL     1      85.053  61.770  16.033  1.00  0.00     0.041 C 
ATOM      3  O   UNL     1      83.957  61.306  15.621  1.00  0.00    -0.550 OA
ATOM      4  O   UNL     1      85.688  61.176  17.117  1.00  0.00    -0.550 OA
ENDBRANCH   1   2
BRANCH   1   5
ATOM      5  C   UNL     1      84.757  64.209  15.653  1.00  0.00     0.003 C 
ATOM      6  C   UNL     1      84.786  64.610  17.125  1.00  0.00     0.004 C 
ENDBRANCH   1   5
TORSDOF 2
ENDMDL
