MODEL 1
REMARK VINA RESULT:    -7.313      0.000      0.000
REMARK INTER + INTRA:          -9.154
REMARK INTER:                  -8.809
REMARK INTRA:                  -0.345
REMARK UNBOUND:                -0.345
REMARK SMILES Oc1cc(O)c2c(c1)O[C@H](c1ccc(O)c(O)c1)[C@@H](O)C2
REMARK SMILES IDX 21 1 19 2 10 3 9 4 7 5 8 6 2 7 3 8 4 9 6 10 20 11 11 13
REMARK SMILES IDX 18 14 12 15 16 16 13 17 14 18 17 19 15 21 5 23 1 25
REMARK H PARENT 20 12 17 20 15 22 5 24 1 26
REMARK Flexibility Score: inf
ROOT
ATOM      1  C   UNL     1     -18.634  53.858  -1.345  1.00  0.00     0.079 C 
ATOM      2  C   UNL     1     -20.152  53.788  -1.095  1.00  0.00     0.164 C 
ATOM      3  C   UNL     1     -20.773  55.184  -1.263  1.00  0.00     0.232 C 
ATOM      4  O   UNL     1     -20.133  56.107  -0.382  1.00  0.00    -0.482 OA
ATOM      5  C   UNL     1     -18.757  56.072  -0.134  1.00  0.00     0.131 A 
ATOM      6  C   UNL     1     -18.170  57.116   0.585  1.00  0.00     0.093 A 
ATOM      7  C   UNL     1     -16.797  57.117   0.833  1.00  0.00     0.122 A 
ATOM      8  C   UNL     1     -16.002  56.071   0.350  1.00  0.00     0.092 A 
ATOM      9  C   UNL     1     -16.573  55.017  -0.373  1.00  0.00     0.126 A 
ATOM     10  C   UNL     1     -17.972  54.991  -0.589  1.00  0.00     0.039 A 
ENDROOT
BRANCH   2  11
ATOM     11  O   UNL     1     -20.743  52.894  -2.004  1.00  0.00    -0.389 OA
ATOM     12  H   UNL     1     -21.592  53.313  -2.304  1.00  0.00     0.211 HD
ENDBRANCH   2  11
BRANCH   3  13
ATOM     13  C   UNL     1     -22.258  55.160  -0.979  1.00  0.00    -0.001 A 
ATOM     14  C   UNL     1     -23.181  55.299  -2.030  1.00  0.00     0.057 A 
ATOM     15  C   UNL     1     -22.732  54.949   0.327  1.00  0.00     0.012 A 
ATOM     16  C   UNL     1     -24.559  55.248  -1.777  1.00  0.00     0.157 A 
ATOM     17  C   UNL     1     -24.104  54.899   0.580  1.00  0.00     0.050 A 
ATOM     18  C   UNL     1     -25.022  55.050  -0.465  1.00  0.00     0.157 A 
BRANCH  16  19
ATOM     19  O   UNL     1     -25.469  55.393  -2.823  1.00  0.00    -0.504 OA
ATOM     20  H   UNL     1     -26.031  54.615  -3.150  1.00  0.00     0.293 HD
ENDBRANCH  16  19
BRANCH  18  21
ATOM     21  O   UNL     1     -26.386  54.996  -0.181  1.00  0.00    -0.504 OA
ATOM     22  H   UNL     1     -27.064  55.552  -0.689  1.00  0.00     0.293 HD
ENDBRANCH  18  21
ENDBRANCH   3  13
BRANCH   9  23
ATOM     23  O   UNL     1     -15.724  54.024  -0.867  1.00  0.00    -0.507 OA
ATOM     24  H   UNL     1     -16.057  53.177  -1.310  1.00  0.00     0.293 HD
ENDBRANCH   9  23
BRANCH   7  25
ATOM     25  O   UNL     1     -16.228  58.165   1.554  1.00  0.00    -0.508 OA
ATOM     26  H   UNL     1     -15.552  58.792   1.134  1.00  0.00     0.293 HD
ENDBRANCH   7  25
TORSDOF 6
ENDMDL
MODEL 2
REMARK VINA RESULT:    -7.239      0.840      1.560
REMARK INTER + INTRA:          -9.065
REMARK INTER:                  -8.791
REMARK INTRA:                  -0.274
REMARK UNBOUND:                -0.345
REMARK SMILES Oc1cc(O)c2c(c1)O[C@H](c1ccc(O)c(O)c1)[C@@H](O)C2
REMARK SMILES IDX 21 1 19 2 10 3 9 4 7 5 8 6 2 7 3 8 4 9 6 10 20 11 11 13
REMARK SMILES IDX 18 14 12 15 16 16 13 17 14 18 17 19 15 21 5 23 1 25
REMARK H PARENT 20 12 17 20 15 22 5 24 1 26
REMARK Flexibility Score: inf
ROOT
ATOM      1  C   UNL     1     -18.622  53.844  -1.225  1.00  0.00     0.079 C 
ATOM      2  C   UNL     1     -20.121  53.741  -0.888  1.00  0.00     0.164 C 
ATOM      3  C   UNL     1     -20.781  55.124  -1.014  1.00  0.00     0.232 C 
ATOM      4  O   UNL     1     -20.111  56.059  -0.168  1.00  0.00    -0.482 OA
ATOM      5  C   UNL     1     -18.722  56.053  -0.001  1.00  0.00     0.131 A 
ATOM      6  C   UNL     1     -18.117  57.108   0.686  1.00  0.00     0.093 A 
ATOM      7  C   UNL     1     -16.732  57.138   0.855  1.00  0.00     0.122 A 
ATOM      8  C   UNL     1     -15.945  56.110   0.324  1.00  0.00     0.092 A 
ATOM      9  C   UNL     1     -16.534  55.046  -0.369  1.00  0.00     0.126 A 
ATOM     10  C   UNL     1     -17.942  54.990  -0.504  1.00  0.00     0.039 A 
ENDROOT
BRANCH   2  11
ATOM     11  O   UNL     1     -20.744  52.837  -1.764  1.00  0.00    -0.389 OA
ATOM     12  H   UNL     1     -20.023  52.278  -2.157  1.00  0.00     0.211 HD
ENDBRANCH   2  11
BRANCH   3  13
ATOM     13  C   UNL     1     -22.246  55.067  -0.646  1.00  0.00    -0.001 A 
ATOM     14  C   UNL     1     -22.665  54.325   0.471  1.00  0.00     0.057 A 
ATOM     15  C   UNL     1     -23.197  55.791  -1.385  1.00  0.00     0.012 A 
ATOM     16  C   UNL     1     -24.019  54.292   0.835  1.00  0.00     0.157 A 
ATOM     17  C   UNL     1     -24.545  55.758  -1.024  1.00  0.00     0.050 A 
ATOM     18  C   UNL     1     -24.964  55.009   0.082  1.00  0.00     0.157 A 
BRANCH  16  19
ATOM     19  O   UNL     1     -24.429  53.549   1.941  1.00  0.00    -0.504 OA
ATOM     20  H   UNL     1     -24.854  53.989   2.749  1.00  0.00     0.293 HD
ENDBRANCH  16  19
BRANCH  18  21
ATOM     21  O   UNL     1     -26.317  54.995   0.417  1.00  0.00    -0.504 OA
ATOM     22  H   UNL     1     -27.038  55.264  -0.242  1.00  0.00     0.293 HD
ENDBRANCH  18  21
ENDBRANCH   3  13
BRANCH   9  23
ATOM     23  O   UNL     1     -15.694  54.073  -0.915  1.00  0.00    -0.507 OA
ATOM     24  H   UNL     1     -14.719  54.237  -1.131  1.00  0.00     0.293 HD
ENDBRANCH   9  23
BRANCH   7  25
ATOM     25  O   UNL     1     -16.146  58.197   1.546  1.00  0.00    -0.508 OA
ATOM     26  H   UNL     1     -15.867  58.107   2.516  1.00  0.00     0.293 HD
ENDBRANCH   7  25
TORSDOF 6
ENDMDL
MODEL 3
REMARK VINA RESULT:    -7.209      2.332      7.247
REMARK INTER + INTRA:          -9.029
REMARK INTER:                  -8.671
REMARK INTRA:                  -0.358
REMARK UNBOUND:                -0.345
REMARK SMILES Oc1cc(O)c2c(c1)O[C@H](c1ccc(O)c(O)c1)[C@@H](O)C2
REMARK SMILES IDX 21 1 19 2 10 3 9 4 7 5 8 6 2 7 3 8 4 9 6 10 20 11 11 13
REMARK SMILES IDX 18 14 12 15 16 16 13 17 14 18 17 19 15 21 5 23 1 25
REMARK H PARENT 20 12 17 20 15 22 5 24 1 26
REMARK Flexibility Score: inf
ROOT
ATOM      1  C   UNL     1     -23.354  54.554  -1.646  1.00  0.00     0.079 C 
ATOM      2  C   UNL     1     -21.898  54.672  -2.134  1.00  0.00     0.164 C 
ATOM      3  C   UNL     1     -21.265  55.959  -1.581  1.00  0.00     0.232 C 
ATOM      4  O   UNL     1     -22.047  57.088  -1.968  1.00  0.00    -0.482 OA
ATOM      5  C   UNL     1     -23.445  57.054  -1.998  1.00  0.00     0.131 A 
ATOM      6  C   UNL     1     -24.148  58.244  -2.201  1.00  0.00     0.093 A 
ATOM      7  C   UNL     1     -25.544  58.244  -2.220  1.00  0.00     0.122 A 
ATOM      8  C   UNL     1     -26.241  57.047  -2.023  1.00  0.00     0.092 A 
ATOM      9  C   UNL     1     -25.553  55.846  -1.816  1.00  0.00     0.126 A 
ATOM     10  C   UNL     1     -24.138  55.835  -1.841  1.00  0.00     0.039 A 
ENDROOT
BRANCH   2  11
ATOM     11  O   UNL     1     -21.159  53.557  -1.703  1.00  0.00    -0.389 OA
ATOM     12  H   UNL     1     -21.688  53.129  -0.979  1.00  0.00     0.211 HD
ENDBRANCH   2  11
BRANCH   3  13
ATOM     13  C   UNL     1     -19.848  56.129  -2.078  1.00  0.00    -0.001 A 
ATOM     14  C   UNL     1     -18.767  56.026  -1.186  1.00  0.00     0.057 A 
ATOM     15  C   UNL     1     -19.591  56.343  -3.443  1.00  0.00     0.012 A 
ATOM     16  C   UNL     1     -17.449  56.154  -1.647  1.00  0.00     0.157 A 
ATOM     17  C   UNL     1     -18.279  56.471  -3.904  1.00  0.00     0.050 A 
ATOM     18  C   UNL     1     -17.205  56.381  -3.012  1.00  0.00     0.157 A 
BRANCH  16  19
ATOM     19  O   UNL     1     -16.382  56.057  -0.755  1.00  0.00    -0.504 OA
ATOM     20  H   UNL     1     -16.502  56.230   0.237  1.00  0.00     0.293 HD
ENDBRANCH  16  19
BRANCH  18  21
ATOM     21  O   UNL     1     -15.906  56.514  -3.501  1.00  0.00    -0.504 OA
ATOM     22  H   UNL     1     -15.694  57.064  -4.325  1.00  0.00     0.293 HD
ENDBRANCH  18  21
ENDBRANCH   3  13
BRANCH   9  23
ATOM     23  O   UNL     1     -26.303  54.691  -1.581  1.00  0.00    -0.507 OA
ATOM     24  H   UNL     1     -26.315  54.206  -0.693  1.00  0.00     0.293 HD
ENDBRANCH   9  23
BRANCH   7  25
ATOM     25  O   UNL     1     -26.229  59.440  -2.426  1.00  0.00    -0.508 OA
ATOM     26  H   UNL     1     -26.190  60.196  -1.754  1.00  0.00     0.293 HD
ENDBRANCH   7  25
TORSDOF 6
ENDMDL
MODEL 4
REMARK VINA RESULT:    -6.805      1.363      7.064
REMARK INTER + INTRA:          -8.543
REMARK INTER:                  -8.199
REMARK INTRA:                  -0.343
REMARK UNBOUND:                -0.345
REMARK SMILES Oc1cc(O)c2c(c1)O[C@H](c1ccc(O)c(O)c1)[C@@H](O)C2
REMARK SMILES IDX 21 1 19 2 10 3 9 4 7 5 8 6 2 7 3 8 4 9 6 10 20 11 11 13
REMARK SMILES IDX 18 14 12 15 16 16 13 17 14 18 17 19 15 21 5 23 1 25
REMARK H PARENT 20 12 17 20 15 22 5 24 1 26
REMARK Flexibility Score: inf
ROOT
ATOM      1  C   UNL     1     -22.834  55.943  -2.846  1.00  0.00     0.079 C 
ATOM      2  C   UNL     1     -21.389  56.241  -2.402  1.00  0.00     0.164 C 
ATOM      3  C   UNL     1     -20.833  55.050  -1.603  1.00  0.00     0.232 C 
ATOM      4  O   UNL     1     -21.683  54.775  -0.491  1.00  0.00    -0.482 OA
ATOM      5  C   UNL     1     -23.077  54.860  -0.576  1.00  0.00     0.131 A 
ATOM      6  C   UNL     1     -23.852  54.395   0.489  1.00  0.00     0.093 A 
ATOM      7  C   UNL     1     -25.245  54.452   0.426  1.00  0.00     0.122 A 
ATOM      8  C   UNL     1     -25.868  54.969  -0.716  1.00  0.00     0.092 A 
ATOM      9  C   UNL     1     -25.107  55.438  -1.793  1.00  0.00     0.126 A 
ATOM     10  C   UNL     1     -23.695  55.423  -1.714  1.00  0.00     0.039 A 
ENDROOT
BRANCH   2  11
ATOM     11  O   UNL     1     -20.583  56.474  -3.529  1.00  0.00    -0.389 OA
ATOM     12  H   UNL     1     -20.608  57.452  -3.699  1.00  0.00     0.211 HD
ENDBRANCH   2  11
BRANCH   3  13
ATOM     13  C   UNL     1     -19.431  55.329  -1.113  1.00  0.00    -0.001 A 
ATOM     14  C   UNL     1     -18.334  54.668  -1.691  1.00  0.00     0.057 A 
ATOM     15  C   UNL     1     -19.203  56.286  -0.109  1.00  0.00     0.012 A 
ATOM     16  C   UNL     1     -17.029  54.943  -1.259  1.00  0.00     0.157 A 
ATOM     17  C   UNL     1     -17.903  56.560   0.322  1.00  0.00     0.050 A 
ATOM     18  C   UNL     1     -16.813  55.892  -0.246  1.00  0.00     0.157 A 
BRANCH  16  19
ATOM     19  O   UNL     1     -15.946  54.279  -1.834  1.00  0.00    -0.504 OA
ATOM     20  H   UNL     1     -15.661  53.358  -1.521  1.00  0.00     0.293 HD
ENDBRANCH  16  19
BRANCH  18  21
ATOM     21  O   UNL     1     -15.527  56.188   0.206  1.00  0.00    -0.504 OA
ATOM     22  H   UNL     1     -15.313  57.048   0.694  1.00  0.00     0.293 HD
ENDBRANCH  18  21
ENDBRANCH   3  13
BRANCH   9  23
ATOM     23  O   UNL     1     -25.785  55.902  -2.923  1.00  0.00    -0.507 OA
ATOM     24  H   UNL     1     -25.438  56.647  -3.513  1.00  0.00     0.293 HD
ENDBRANCH   9  23
BRANCH   7  25
ATOM     25  O   UNL     1     -26.002  53.986   1.499  1.00  0.00    -0.508 OA
ATOM     26  H   UNL     1     -25.707  53.187   2.048  1.00  0.00     0.293 HD
ENDBRANCH   7  25
TORSDOF 6
ENDMDL
MODEL 5
REMARK VINA RESULT:    -6.740      2.071      6.965
REMARK INTER + INTRA:          -8.464
REMARK INTER:                  -8.104
REMARK INTRA:                  -0.360
REMARK UNBOUND:                -0.345
REMARK SMILES Oc1cc(O)c2c(c1)O[C@H](c1ccc(O)c(O)c1)[C@@H](O)C2
REMARK SMILES IDX 21 1 19 2 10 3 9 4 7 5 8 6 2 7 3 8 4 9 6 10 20 11 11 13
REMARK SMILES IDX 18 14 12 15 16 16 13 17 14 18 17 19 15 21 5 23 1 25
REMARK H PARENT 20 12 17 20 15 22 5 24 1 26
REMARK Flexibility Score: inf
ROOT
ATOM      1  C   UNL     1     -22.992  54.193   0.178  1.00  0.00     0.079 C 
ATOM      2  C   UNL     1     -21.683  54.331  -0.622  1.00  0.00     0.164 C 
ATOM      3  C   UNL     1     -21.075  55.724  -0.391  1.00  0.00     0.232 C 
ATOM      4  O   UNL     1     -22.022  56.730  -0.748  1.00  0.00    -0.482 OA
ATOM      5  C   UNL     1     -23.387  56.602  -0.472  1.00  0.00     0.131 A 
ATOM      6  C   UNL     1     -24.226  57.700  -0.675  1.00  0.00     0.093 A 
ATOM      7  C   UNL     1     -25.590  57.608  -0.394  1.00  0.00     0.122 A 
ATOM      8  C   UNL     1     -26.117  56.411   0.103  1.00  0.00     0.092 A 
ATOM      9  C   UNL     1     -25.291  55.301   0.314  1.00  0.00     0.126 A 
ATOM     10  C   UNL     1     -23.916  55.377  -0.012  1.00  0.00     0.039 A 
ENDROOT
BRANCH   2  11
ATOM     11  O   UNL     1     -20.770  53.343  -0.215  1.00  0.00    -0.389 OA
ATOM     12  H   UNL     1     -20.483  52.865  -1.037  1.00  0.00     0.211 HD
ENDBRANCH   2  11
BRANCH   3  13
ATOM     13  C   UNL     1     -19.810  55.909  -1.199  1.00  0.00    -0.001 A 
ATOM     14  C   UNL     1     -18.597  56.209  -0.555  1.00  0.00     0.057 A 
ATOM     15  C   UNL     1     -19.822  55.736  -2.593  1.00  0.00     0.012 A 
ATOM     16  C   UNL     1     -17.416  56.354  -1.297  1.00  0.00     0.157 A 
ATOM     17  C   UNL     1     -18.646  55.880  -3.332  1.00  0.00     0.050 A 
ATOM     18  C   UNL     1     -17.442  56.191  -2.692  1.00  0.00     0.157 A 
BRANCH  16  19
ATOM     19  O   UNL     1     -16.218  56.657  -0.652  1.00  0.00    -0.504 OA
ATOM     20  H   UNL     1     -15.737  55.976  -0.077  1.00  0.00     0.293 HD
ENDBRANCH  16  19
BRANCH  18  21
ATOM     21  O   UNL     1     -16.284  56.330  -3.457  1.00  0.00    -0.504 OA
ATOM     22  H   UNL     1     -15.876  55.552  -3.962  1.00  0.00     0.293 HD
ENDBRANCH  18  21
ENDBRANCH   3  13
BRANCH   9  23
ATOM     23  O   UNL     1     -25.866  54.148   0.854  1.00  0.00    -0.507 OA
ATOM     24  H   UNL     1     -25.749  53.227   0.452  1.00  0.00     0.293 HD
ENDBRANCH   9  23
BRANCH   7  25
ATOM     25  O   UNL     1     -26.413  58.713  -0.606  1.00  0.00    -0.508 OA
ATOM     26  H   UNL     1     -27.352  58.754  -0.227  1.00  0.00     0.293 HD
ENDBRANCH   7  25
TORSDOF 6
ENDMDL
MODEL 6
REMARK VINA RESULT:    -6.697      2.707      6.658
REMARK INTER + INTRA:          -8.412
REMARK INTER:                  -8.103
REMARK INTRA:                  -0.309
REMARK UNBOUND:                -0.345
REMARK SMILES Oc1cc(O)c2c(c1)O[C@H](c1ccc(O)c(O)c1)[C@@H](O)C2
REMARK SMILES IDX 21 1 19 2 10 3 9 4 7 5 8 6 2 7 3 8 4 9 6 10 20 11 11 13
REMARK SMILES IDX 18 14 12 15 16 16 13 17 14 18 17 19 15 21 5 23 1 25
REMARK H PARENT 20 12 17 20 15 22 5 24 1 26
REMARK Flexibility Score: inf
ROOT
ATOM      1  C   UNL     1     -23.127  57.414  -1.906  1.00  0.00     0.079 C 
ATOM      2  C   UNL     1     -21.691  57.004  -2.285  1.00  0.00     0.164 C 
ATOM      3  C   UNL     1     -21.217  55.861  -1.373  1.00  0.00     0.232 C 
ATOM      4  O   UNL     1     -21.310  56.263  -0.006  1.00  0.00    -0.482 OA
ATOM      5  C   UNL     1     -22.374  57.032   0.475  1.00  0.00     0.131 A 
ATOM      6  C   UNL     1     -22.502  57.227   1.853  1.00  0.00     0.093 A 
ATOM      7  C   UNL     1     -23.562  57.976   2.364  1.00  0.00     0.122 A 
ATOM      8  C   UNL     1     -24.508  58.526   1.492  1.00  0.00     0.092 A 
ATOM      9  C   UNL     1     -24.397  58.340   0.109  1.00  0.00     0.126 A 
ATOM     10  C   UNL     1     -23.299  57.618  -0.415  1.00  0.00     0.039 A 
ENDROOT
BRANCH   2  11
ATOM     11  O   UNL     1     -21.654  56.587  -3.626  1.00  0.00    -0.389 OA
ATOM     12  H   UNL     1     -20.755  56.827  -3.974  1.00  0.00     0.211 HD
ENDBRANCH   2  11
BRANCH   3  13
ATOM     13  C   UNL     1     -19.792  55.466  -1.689  1.00  0.00    -0.001 A 
ATOM     14  C   UNL     1     -18.720  56.218  -1.180  1.00  0.00     0.057 A 
ATOM     15  C   UNL     1     -19.523  54.317  -2.453  1.00  0.00     0.012 A 
ATOM     16  C   UNL     1     -17.396  55.839  -1.446  1.00  0.00     0.157 A 
ATOM     17  C   UNL     1     -18.205  53.940  -2.718  1.00  0.00     0.050 A 
ATOM     18  C   UNL     1     -17.138  54.696  -2.221  1.00  0.00     0.157 A 
BRANCH  16  19
ATOM     19  O   UNL     1     -16.337  56.593  -0.942  1.00  0.00    -0.504 OA
ATOM     20  H   UNL     1     -15.599  56.940  -1.543  1.00  0.00     0.293 HD
ENDBRANCH  16  19
BRANCH  18  21
ATOM     21  O   UNL     1     -15.833  54.294  -2.504  1.00  0.00    -0.504 OA
ATOM     22  H   UNL     1     -15.173  54.902  -2.973  1.00  0.00     0.293 HD
ENDBRANCH  18  21
ENDBRANCH   3  13
BRANCH   9  23
ATOM     23  O   UNL     1     -25.396  58.875  -0.708  1.00  0.00    -0.507 OA
ATOM     24  H   UNL     1     -25.468  58.682  -1.698  1.00  0.00     0.293 HD
ENDBRANCH   9  23
BRANCH   7  25
ATOM     25  O   UNL     1     -23.672  58.163   3.741  1.00  0.00    -0.508 OA
ATOM     26  H   UNL     1     -24.462  58.650   4.148  1.00  0.00     0.293 HD
ENDBRANCH   7  25
TORSDOF 6
ENDMDL
MODEL 7
REMARK VINA RESULT:    -6.584      1.844      7.143
REMARK INTER + INTRA:          -8.276
REMARK INTER:                  -8.007
REMARK INTRA:                  -0.269
REMARK UNBOUND:                -0.345
REMARK SMILES Oc1cc(O)c2c(c1)O[C@H](c1ccc(O)c(O)c1)[C@@H](O)C2
REMARK SMILES IDX 21 1 19 2 10 3 9 4 7 5 8 6 2 7 3 8 4 9 6 10 20 11 11 13
REMARK SMILES IDX 18 14 12 15 16 16 13 17 14 18 17 19 15 21 5 23 1 25
REMARK H PARENT 20 12 17 20 15 22 5 24 1 26
REMARK Flexibility Score: inf
ROOT
ATOM      1  C   UNL     1     -22.152  57.566   0.860  1.00  0.00     0.079 C 
ATOM      2  C   UNL     1     -20.775  56.889   0.729  1.00  0.00     0.164 C 
ATOM      3  C   UNL     1     -20.534  56.471  -0.731  1.00  0.00     0.232 C 
ATOM      4  O   UNL     1     -21.589  55.615  -1.169  1.00  0.00    -0.482 OA
ATOM      5  C   UNL     1     -22.922  55.824  -0.800  1.00  0.00     0.131 A 
ATOM      6  C   UNL     1     -23.922  55.066  -1.415  1.00  0.00     0.093 A 
ATOM      7  C   UNL     1     -25.262  55.263  -1.080  1.00  0.00     0.122 A 
ATOM      8  C   UNL     1     -25.607  56.232  -0.130  1.00  0.00     0.092 A 
ATOM      9  C   UNL     1     -24.618  57.001   0.494  1.00  0.00     0.126 A 
ATOM     10  C   UNL     1     -23.255  56.773   0.189  1.00  0.00     0.039 A 
ENDROOT
BRANCH   2  11
ATOM     11  O   UNL     1     -19.767  57.778   1.140  1.00  0.00    -0.389 OA
ATOM     12  H   UNL     1     -19.494  57.497   2.053  1.00  0.00     0.211 HD
ENDBRANCH   2  11
BRANCH   3  13
ATOM     13  C   UNL     1     -19.209  55.762  -0.885  1.00  0.00    -0.001 A 
ATOM     14  C   UNL     1     -18.366  56.064  -1.968  1.00  0.00     0.057 A 
ATOM     15  C   UNL     1     -18.782  54.830   0.076  1.00  0.00     0.012 A 
ATOM     16  C   UNL     1     -17.122  55.430  -2.101  1.00  0.00     0.157 A 
ATOM     17  C   UNL     1     -17.544  54.197  -0.055  1.00  0.00     0.050 A 
ATOM     18  C   UNL     1     -16.711  54.490  -1.141  1.00  0.00     0.157 A 
BRANCH  16  19
ATOM     19  O   UNL     1     -16.295  55.731  -3.181  1.00  0.00    -0.504 OA
ATOM     20  H   UNL     1     -15.828  56.627  -3.259  1.00  0.00     0.293 HD
ENDBRANCH  16  19
BRANCH  18  21
ATOM     21  O   UNL     1     -15.481  53.842  -1.246  1.00  0.00    -0.504 OA
ATOM     22  H   UNL     1     -15.407  52.865  -1.501  1.00  0.00     0.293 HD
ENDBRANCH  18  21
ENDBRANCH   3  13
BRANCH   9  23
ATOM     23  O   UNL     1     -25.025  57.983   1.401  1.00  0.00    -0.507 OA
ATOM     24  H   UNL     1     -24.556  58.157   2.280  1.00  0.00     0.293 HD
ENDBRANCH   9  23
BRANCH   7  25
ATOM     25  O   UNL     1     -26.247  54.496  -1.701  1.00  0.00    -0.508 OA
ATOM     26  H   UNL     1     -26.343  54.473  -2.709  1.00  0.00     0.293 HD
ENDBRANCH   7  25
TORSDOF 6
ENDMDL
MODEL 8
REMARK VINA RESULT:    -6.508      2.047      2.926
REMARK INTER + INTRA:          -8.184
REMARK INTER:                  -8.475
REMARK INTRA:                   0.291
REMARK UNBOUND:                -0.345
REMARK SMILES Oc1cc(O)c2c(c1)O[C@H](c1ccc(O)c(O)c1)[C@@H](O)C2
REMARK SMILES IDX 21 1 19 2 10 3 9 4 7 5 8 6 2 7 3 8 4 9 6 10 20 11 11 13
REMARK SMILES IDX 18 14 12 15 16 16 13 17 14 18 17 19 15 21 5 23 1 25
REMARK H PARENT 20 12 17 20 15 22 5 24 1 26
REMARK Flexibility Score: inf
ROOT
ATOM      1  C   UNL     1     -19.761  56.448  -3.199  1.00  0.00     0.079 C 
ATOM      2  C   UNL     1     -21.181  56.101  -2.715  1.00  0.00     0.164 C 
ATOM      3  C   UNL     1     -21.242  56.171  -1.180  1.00  0.00     0.232 C 
ATOM      4  O   UNL     1     -20.263  55.297  -0.617  1.00  0.00    -0.482 OA
ATOM      5  C   UNL     1     -18.990  55.143  -1.176  1.00  0.00     0.131 A 
ATOM      6  C   UNL     1     -18.022  54.423  -0.472  1.00  0.00     0.093 A 
ATOM      7  C   UNL     1     -16.739  54.266  -0.996  1.00  0.00     0.122 A 
ATOM      8  C   UNL     1     -16.417  54.842  -2.230  1.00  0.00     0.092 A 
ATOM      9  C   UNL     1     -17.373  55.568  -2.950  1.00  0.00     0.126 A 
ATOM     10  C   UNL     1     -18.688  55.692  -2.441  1.00  0.00     0.039 A 
ENDROOT
BRANCH   2  11
ATOM     11  O   UNL     1     -22.105  57.005  -3.267  1.00  0.00    -0.389 OA
ATOM     12  H   UNL     1     -22.235  56.736  -4.214  1.00  0.00     0.211 HD
ENDBRANCH   2  11
BRANCH   3  13
ATOM     13  C   UNL     1     -22.613  55.791  -0.669  1.00  0.00    -0.001 A 
ATOM     14  C   UNL     1     -22.746  54.863   0.377  1.00  0.00     0.057 A 
ATOM     15  C   UNL     1     -23.765  56.396  -1.200  1.00  0.00     0.012 A 
ATOM     16  C   UNL     1     -24.014  54.529   0.875  1.00  0.00     0.157 A 
ATOM     17  C   UNL     1     -25.028  56.063  -0.707  1.00  0.00     0.050 A 
ATOM     18  C   UNL     1     -25.160  55.130   0.328  1.00  0.00     0.157 A 
BRANCH  16  19
ATOM     19  O   UNL     1     -24.139  53.603   1.909  1.00  0.00    -0.504 OA
ATOM     20  H   UNL     1     -24.001  52.612   1.754  1.00  0.00     0.293 HD
ENDBRANCH  16  19
BRANCH  18  21
ATOM     21  O   UNL     1     -26.435  54.818   0.799  1.00  0.00    -0.504 OA
ATOM     22  H   UNL     1     -26.917  53.970   0.527  1.00  0.00     0.293 HD
ENDBRANCH  18  21
ENDBRANCH   3  13
BRANCH   9  23
ATOM     23  O   UNL     1     -16.981  56.157  -4.154  1.00  0.00    -0.507 OA
ATOM     24  H   UNL     1     -16.155  55.878  -4.667  1.00  0.00     0.293 HD
ENDBRANCH   9  23
BRANCH   7  25
ATOM     25  O   UNL     1     -15.787  53.542  -0.281  1.00  0.00    -0.508 OA
ATOM     26  H   UNL     1     -15.336  53.926   0.541  1.00  0.00     0.293 HD
ENDBRANCH   7  25
TORSDOF 6
ENDMDL
MODEL 9
REMARK VINA RESULT:    -6.468      3.116      4.300
REMARK INTER + INTRA:          -8.136
REMARK INTER:                  -7.777
REMARK INTRA:                  -0.359
REMARK UNBOUND:                -0.345
REMARK SMILES Oc1cc(O)c2c(c1)O[C@H](c1ccc(O)c(O)c1)[C@@H](O)C2
REMARK SMILES IDX 21 1 19 2 10 3 9 4 7 5 8 6 2 7 3 8 4 9 6 10 20 11 11 13
REMARK SMILES IDX 18 14 12 15 16 16 13 17 14 18 17 19 15 21 5 23 1 25
REMARK H PARENT 20 12 17 20 15 22 5 24 1 26
REMARK Flexibility Score: inf
ROOT
ATOM      1  C   UNL     1     -21.727  53.570  -0.761  1.00  0.00     0.079 C 
ATOM      2  C   UNL     1     -22.374  54.598   0.186  1.00  0.00     0.164 C 
ATOM      3  C   UNL     1     -22.830  55.829  -0.613  1.00  0.00     0.232 C 
ATOM      4  O   UNL     1     -21.722  56.385  -1.320  1.00  0.00    -0.482 OA
ATOM      5  C   UNL     1     -20.746  55.587  -1.925  1.00  0.00     0.131 A 
ATOM      6  C   UNL     1     -19.799  56.188  -2.758  1.00  0.00     0.093 A 
ATOM      7  C   UNL     1     -18.822  55.415  -3.388  1.00  0.00     0.122 A 
ATOM      8  C   UNL     1     -18.799  54.030  -3.192  1.00  0.00     0.092 A 
ATOM      9  C   UNL     1     -19.741  53.411  -2.363  1.00  0.00     0.126 A 
ATOM     10  C   UNL     1     -20.705  54.196  -1.687  1.00  0.00     0.039 A 
ENDROOT
BRANCH   2  11
ATOM     11  O   UNL     1     -23.477  54.018   0.835  1.00  0.00    -0.389 OA
ATOM     12  H   UNL     1     -23.212  53.091   1.073  1.00  0.00     0.211 HD
ENDBRANCH   2  11
BRANCH   3  13
ATOM     13  C   UNL     1     -23.430  56.878   0.295  1.00  0.00    -0.001 A 
ATOM     14  C   UNL     1     -22.696  57.373   1.386  1.00  0.00     0.057 A 
ATOM     15  C   UNL     1     -24.706  57.406   0.032  1.00  0.00     0.012 A 
ATOM     16  C   UNL     1     -23.235  58.367   2.215  1.00  0.00     0.157 A 
ATOM     17  C   UNL     1     -25.244  58.395   0.857  1.00  0.00     0.050 A 
ATOM     18  C   UNL     1     -24.517  58.878   1.950  1.00  0.00     0.157 A 
BRANCH  16  19
ATOM     19  O   UNL     1     -22.503  58.849   3.299  1.00  0.00    -0.504 OA
ATOM     20  H   UNL     1     -22.077  58.222   3.972  1.00  0.00     0.293 HD
ENDBRANCH  16  19
BRANCH  18  21
ATOM     21  O   UNL     1     -25.082  59.866   2.756  1.00  0.00    -0.504 OA
ATOM     22  H   UNL     1     -25.524  59.650   3.641  1.00  0.00     0.293 HD
ENDBRANCH  18  21
ENDBRANCH   3  13
BRANCH   9  23
ATOM     23  O   UNL     1     -19.695  52.020  -2.241  1.00  0.00    -0.507 OA
ATOM     24  H   UNL     1     -19.401  51.405  -2.989  1.00  0.00     0.293 HD
ENDBRANCH   9  23
BRANCH   7  25
ATOM     25  O   UNL     1     -17.883  56.032  -4.214  1.00  0.00    -0.508 OA
ATOM     26  H   UNL     1     -17.819  55.810  -5.200  1.00  0.00     0.293 HD
ENDBRANCH   7  25
TORSDOF 6
ENDMDL
