MODEL 1
REMARK VINA RESULT:     0.262      0.000      0.000
REMARK INTER + INTRA:           0.799
REMARK INTER:                   0.316
REMARK INTRA:                   0.483
REMARK UNBOUND:                 0.483
REMARK SMILES O=c1c(O)c(-c2ccc(O)c(O)c2)oc2cc(O)cc(O)c12
REMARK SMILES IDX 5 1 3 2 2 3 1 4 22 5 20 6 19 7 17 8 16 9 15 10 14 11 6 12
REMARK SMILES IDX 7 13 8 14 9 15 13 16 11 17 10 18 12 20 4 22 21 24 18 26
REMARK H PARENT 10 19 12 21 4 23 21 25 18 27
REMARK Flexibility Score: inf
ROOT
ATOM      1  C   UNL     1       9.593  68.196   0.968  1.00  0.00     0.180 A 
ATOM      2  C   UNL     1       9.519  68.738   2.263  1.00  0.00     0.208 A 
ATOM      3  C   UNL     1       9.721  70.116   2.437  1.00  0.00     0.238 A 
ATOM      4  O   UNL     1       9.728  70.581   3.606  1.00  0.00    -0.285 OA
ATOM      5  C   UNL     1       9.938  70.945   1.310  1.00  0.00     0.111 A 
ATOM      6  C   UNL     1      10.110  72.362   1.364  1.00  0.00     0.134 A 
ATOM      7  C   UNL     1      10.425  73.065   0.194  1.00  0.00     0.093 A 
ATOM      8  C   UNL     1      10.510  72.412  -1.038  1.00  0.00     0.123 A 
ATOM      9  C   UNL     1      10.289  71.040  -1.110  1.00  0.00     0.094 A 
ATOM     10  C   UNL     1      10.012  70.304   0.046  1.00  0.00     0.146 A 
ATOM     11  O   UNL     1       9.830  68.994  -0.066  1.00  0.00    -0.452 OA
ENDROOT
BRANCH   1  12
ATOM     12  C   UNL     1       9.405  66.751   0.707  1.00  0.00     0.025 A 
ATOM     13  C   UNL     1       8.798  65.947   1.685  1.00  0.00     0.016 A 
ATOM     14  C   UNL     1       8.590  64.585   1.451  1.00  0.00     0.051 A 
ATOM     15  C   UNL     1       8.973  64.011   0.231  1.00  0.00     0.157 A 
ATOM     16  C   UNL     1       9.768  66.175  -0.524  1.00  0.00     0.062 A 
ATOM     17  C   UNL     1       9.558  64.808  -0.759  1.00  0.00     0.158 A 
BRANCH  15  18
ATOM     18  O   UNL     1       8.770  62.653  -0.004  1.00  0.00    -0.504 OA
ATOM     19  H   UNL     1       8.107  62.114   0.540  1.00  0.00     0.293 HD
ENDBRANCH  15  18
BRANCH  17  20
ATOM     20  O   UNL     1       9.924  64.238  -1.977  1.00  0.00    -0.504 OA
ATOM     21  H   UNL     1      10.252  63.281  -2.038  1.00  0.00     0.293 HD
ENDBRANCH  17  20
ENDBRANCH   1  12
BRANCH   2  22
ATOM     22  O   UNL     1       9.228  67.914   3.355  1.00  0.00    -0.502 OA
ATOM     23  H   UNL     1       9.806  67.123   3.609  1.00  0.00     0.293 HD
ENDBRANCH   2  22
BRANCH   6  24
ATOM     24  O   UNL     1       9.960  73.125   2.526  1.00  0.00    -0.507 OA
ATOM     25  H   UNL     1      10.618  73.151   3.289  1.00  0.00     0.293 HD
ENDBRANCH   6  24
BRANCH   8  26
ATOM     26  O   UNL     1      10.806  73.122  -2.199  1.00  0.00    -0.508 OA
ATOM     27  H   UNL     1      11.056  72.651  -3.060  1.00  0.00     0.293 HD
ENDBRANCH   8  26
TORSDOF 6
ENDMDL
MODEL 2
REMARK VINA RESULT:     0.312      1.331      3.301
REMARK INTER + INTRA:           0.859
REMARK INTER:                   0.403
REMARK INTRA:                   0.456
REMARK UNBOUND:                 0.483
REMARK SMILES O=c1c(O)c(-c2ccc(O)c(O)c2)oc2cc(O)cc(O)c12
REMARK SMILES IDX 5 1 3 2 2 3 1 4 22 5 20 6 19 7 17 8 16 9 15 10 14 11 6 12
REMARK SMILES IDX 7 13 8 14 9 15 13 16 11 17 10 18 12 20 4 22 21 24 18 26
REMARK H PARENT 10 19 12 21 4 23 21 25 18 27
REMARK Flexibility Score: inf
ROOT
ATOM      1  C   UNL     1       9.553  68.216  -0.495  1.00  0.00     0.180 A 
ATOM      2  C   UNL     1       9.746  68.779  -1.768  1.00  0.00     0.208 A 
ATOM      3  C   UNL     1       9.932  70.166  -1.878  1.00  0.00     0.238 A 
ATOM      4  O   UNL     1      10.029  70.671  -3.027  1.00  0.00    -0.285 OA
ATOM      5  C   UNL     1       9.979  70.967  -0.712  1.00  0.00     0.111 A 
ATOM      6  C   UNL     1      10.207  72.376  -0.702  1.00  0.00     0.134 A 
ATOM      7  C   UNL     1      10.125  73.081   0.506  1.00  0.00     0.093 A 
ATOM      8  C   UNL     1       9.889  72.418   1.713  1.00  0.00     0.123 A 
ATOM      9  C   UNL     1       9.721  71.036   1.721  1.00  0.00     0.094 A 
ATOM     10  C   UNL     1       9.756  70.310   0.527  1.00  0.00     0.146 A 
ATOM     11  O   UNL     1       9.569  68.997   0.579  1.00  0.00    -0.452 OA
ENDROOT
BRANCH   1  12
ATOM     12  C   UNL     1       9.336  66.765  -0.299  1.00  0.00     0.025 A 
ATOM     13  C   UNL     1       9.731  65.868  -1.305  1.00  0.00     0.016 A 
ATOM     14  C   UNL     1       9.557  64.492  -1.133  1.00  0.00     0.051 A 
ATOM     15  C   UNL     1       9.000  63.993   0.052  1.00  0.00     0.157 A 
ATOM     16  C   UNL     1       8.798  66.258   0.897  1.00  0.00     0.062 A 
ATOM     17  C   UNL     1       8.624  64.877   1.070  1.00  0.00     0.158 A 
BRANCH  15  18
ATOM     18  O   UNL     1       8.823  62.622   0.226  1.00  0.00    -0.504 OA
ATOM     19  H   UNL     1       8.996  61.965  -0.526  1.00  0.00     0.293 HD
ENDBRANCH  15  18
BRANCH  17  20
ATOM     20  O   UNL     1       8.084  64.377   2.254  1.00  0.00    -0.504 OA
ATOM     21  H   UNL     1       7.188  63.904   2.270  1.00  0.00     0.293 HD
ENDBRANCH  17  20
ENDBRANCH   1  12
BRANCH   2  22
ATOM     22  O   UNL     1       9.773  67.961  -2.902  1.00  0.00    -0.502 OA
ATOM     23  H   UNL     1      10.341  67.124  -2.955  1.00  0.00     0.293 HD
ENDBRANCH   2  22
BRANCH   6  24
ATOM     24  O   UNL     1      10.538  73.124  -1.836  1.00  0.00    -0.507 OA
ATOM     25  H   UNL     1      11.319  72.934  -2.445  1.00  0.00     0.293 HD
ENDBRANCH   6  24
BRANCH   8  26
ATOM     26  O   UNL     1       9.827  73.125   2.911  1.00  0.00    -0.508 OA
ATOM     27  H   UNL     1       9.246  73.949   3.012  1.00  0.00     0.293 HD
ENDBRANCH   8  26
TORSDOF 6
ENDMDL
MODEL 3
REMARK VINA RESULT:     0.315      1.577      6.224
REMARK INTER + INTRA:           0.862
REMARK INTER:                   0.311
REMARK INTRA:                   0.551
REMARK UNBOUND:                 0.483
REMARK SMILES O=c1c(O)c(-c2ccc(O)c(O)c2)oc2cc(O)cc(O)c12
REMARK SMILES IDX 5 1 3 2 2 3 1 4 22 5 20 6 19 7 17 8 16 9 15 10 14 11 6 12
REMARK SMILES IDX 7 13 8 14 9 15 13 16 11 17 10 18 12 20 4 22 21 24 18 26
REMARK H PARENT 10 19 12 21 4 23 21 25 18 27
REMARK Flexibility Score: inf
ROOT
ATOM      1  C   UNL     1      10.284  69.887  -0.041  1.00  0.00     0.180 A 
ATOM      2  C   UNL     1      10.064  70.412   1.244  1.00  0.00     0.208 A 
ATOM      3  C   UNL     1       9.580  69.563   2.252  1.00  0.00     0.238 A 
ATOM      4  O   UNL     1       9.315  70.057   3.379  1.00  0.00    -0.285 OA
ATOM      5  C   UNL     1       9.375  68.189   1.980  1.00  0.00     0.111 A 
ATOM      6  C   UNL     1       8.930  67.229   2.938  1.00  0.00     0.134 A 
ATOM      7  C   UNL     1       8.659  65.917   2.527  1.00  0.00     0.093 A 
ATOM      8  C   UNL     1       8.880  65.515   1.208  1.00  0.00     0.123 A 
ATOM      9  C   UNL     1       9.368  66.431   0.279  1.00  0.00     0.094 A 
ATOM     10  C   UNL     1       9.609  67.756   0.648  1.00  0.00     0.146 A 
ATOM     11  O   UNL     1      10.052  68.601  -0.275  1.00  0.00    -0.452 OA
ENDROOT
BRANCH   1  12
ATOM     12  C   UNL     1      10.780  70.721  -1.159  1.00  0.00     0.025 A 
ATOM     13  C   UNL     1      11.136  72.058  -0.916  1.00  0.00     0.016 A 
ATOM     14  C   UNL     1      11.627  72.858  -1.951  1.00  0.00     0.051 A 
ATOM     15  C   UNL     1      11.784  72.329  -3.239  1.00  0.00     0.157 A 
ATOM     16  C   UNL     1      10.960  70.189  -2.449  1.00  0.00     0.062 A 
ATOM     17  C   UNL     1      11.454  70.992  -3.487  1.00  0.00     0.158 A 
BRANCH  15  18
ATOM     18  O   UNL     1      12.271  73.125  -4.274  1.00  0.00    -0.504 OA
ATOM     19  H   UNL     1      11.748  73.918  -4.624  1.00  0.00     0.293 HD
ENDBRANCH  15  18
BRANCH  17  20
ATOM     20  O   UNL     1      11.626  70.464  -4.766  1.00  0.00    -0.504 OA
ATOM     21  H   UNL     1      10.834  70.228  -5.352  1.00  0.00     0.293 HD
ENDBRANCH  17  20
ENDBRANCH   1  12
BRANCH   2  22
ATOM     22  O   UNL     1      10.346  71.754   1.513  1.00  0.00    -0.502 OA
ATOM     23  H   UNL     1      10.760  72.372   0.825  1.00  0.00     0.293 HD
ENDBRANCH   2  22
BRANCH   6  24
ATOM     24  O   UNL     1       8.761  67.500   4.299  1.00  0.00    -0.507 OA
ATOM     25  H   UNL     1       9.492  67.453   4.993  1.00  0.00     0.293 HD
ENDBRANCH   6  24
BRANCH   8  26
ATOM     26  O   UNL     1       8.626  64.204   0.812  1.00  0.00    -0.508 OA
ATOM     27  H   UNL     1       8.922  63.414   1.373  1.00  0.00     0.293 HD
ENDBRANCH   8  26
TORSDOF 6
ENDMDL
MODEL 4
REMARK VINA RESULT:     0.754      1.208      2.931
REMARK INTER + INTRA:           1.391
REMARK INTER:                   0.943
REMARK INTRA:                   0.448
REMARK UNBOUND:                 0.483
REMARK SMILES O=c1c(O)c(-c2ccc(O)c(O)c2)oc2cc(O)cc(O)c12
REMARK SMILES IDX 5 1 3 2 2 3 1 4 22 5 20 6 19 7 17 8 16 9 15 10 14 11 6 12
REMARK SMILES IDX 7 13 8 14 9 15 13 16 11 17 10 18 12 20 4 22 21 24 18 26
REMARK H PARENT 10 19 12 21 4 23 21 25 18 27
REMARK Flexibility Score: inf
ROOT
ATOM      1  C   UNL     1       9.500  68.179  -0.261  1.00  0.00     0.180 A 
ATOM      2  C   UNL     1       9.773  68.741  -1.520  1.00  0.00     0.208 A 
ATOM      3  C   UNL     1       9.887  70.136  -1.633  1.00  0.00     0.238 A 
ATOM      4  O   UNL     1      10.058  70.635  -2.775  1.00  0.00    -0.285 OA
ATOM      5  C   UNL     1       9.781  70.948  -0.478  1.00  0.00     0.111 A 
ATOM      6  C   UNL     1       9.924  72.369  -0.468  1.00  0.00     0.134 A 
ATOM      7  C   UNL     1       9.692  73.078   0.718  1.00  0.00     0.093 A 
ATOM      8  C   UNL     1       9.387  72.413   1.908  1.00  0.00     0.123 A 
ATOM      9  C   UNL     1       9.301  71.023   1.920  1.00  0.00     0.094 A 
ATOM     10  C   UNL     1       9.486  70.290   0.745  1.00  0.00     0.146 A 
ATOM     11  O   UNL     1       9.373  68.969   0.799  1.00  0.00    -0.452 OA
ENDROOT
BRANCH   1  12
ATOM     12  C   UNL     1       9.352  66.719  -0.065  1.00  0.00     0.025 A 
ATOM     13  C   UNL     1       8.783  66.237   1.125  1.00  0.00     0.016 A 
ATOM     14  C   UNL     1       8.614  64.864   1.322  1.00  0.00     0.051 A 
ATOM     15  C   UNL     1       8.996  63.955   0.327  1.00  0.00     0.157 A 
ATOM     16  C   UNL     1       9.714  65.803  -1.070  1.00  0.00     0.062 A 
ATOM     17  C   UNL     1       9.543  64.426  -0.872  1.00  0.00     0.158 A 
BRANCH  15  18
ATOM     18  O   UNL     1       8.831  62.585   0.521  1.00  0.00    -0.504 OA
ATOM     19  H   UNL     1       8.109  62.219   1.130  1.00  0.00     0.293 HD
ENDBRANCH  15  18
BRANCH  17  20
ATOM     20  O   UNL     1       9.909  63.520  -1.867  1.00  0.00    -0.504 OA
ATOM     21  H   UNL     1       9.328  62.722  -2.098  1.00  0.00     0.293 HD
ENDBRANCH  17  20
ENDBRANCH   1  12
BRANCH   2  22
ATOM     22  O   UNL     1       9.951  67.916  -2.635  1.00  0.00    -0.502 OA
ATOM     23  H   UNL     1      10.838  67.477  -2.850  1.00  0.00     0.293 HD
ENDBRANCH   2  22
BRANCH   6  24
ATOM     24  O   UNL     1      10.312  73.124  -1.578  1.00  0.00    -0.507 OA
ATOM     25  H   UNL     1      11.246  73.161  -1.955  1.00  0.00     0.293 HD
ENDBRANCH   6  24
BRANCH   8  26
ATOM     26  O   UNL     1       9.176  73.125   3.086  1.00  0.00    -0.508 OA
ATOM     27  H   UNL     1       9.890  73.729   3.476  1.00  0.00     0.293 HD
ENDBRANCH   8  26
TORSDOF 6
ENDMDL
MODEL 5
REMARK VINA RESULT:     1.044      0.627      1.445
REMARK INTER + INTRA:           1.741
REMARK INTER:                   1.293
REMARK INTRA:                   0.447
REMARK UNBOUND:                 0.483
REMARK SMILES O=c1c(O)c(-c2ccc(O)c(O)c2)oc2cc(O)cc(O)c12
REMARK SMILES IDX 5 1 3 2 2 3 1 4 22 5 20 6 19 7 17 8 16 9 15 10 14 11 6 12
REMARK SMILES IDX 7 13 8 14 9 15 13 16 11 17 10 18 12 20 4 22 21 24 18 26
REMARK H PARENT 10 19 12 21 4 23 21 25 18 27
REMARK Flexibility Score: inf
ROOT
ATOM      1  C   UNL     1       9.617  68.226   0.652  1.00  0.00     0.180 A 
ATOM      2  C   UNL     1       9.523  68.764   1.947  1.00  0.00     0.208 A 
ATOM      3  C   UNL     1       9.782  70.131   2.136  1.00  0.00     0.238 A 
ATOM      4  O   UNL     1       9.769  70.589   3.308  1.00  0.00    -0.285 OA
ATOM      5  C   UNL     1      10.076  70.955   1.023  1.00  0.00     0.111 A 
ATOM      6  C   UNL     1      10.311  72.361   1.093  1.00  0.00     0.134 A 
ATOM      7  C   UNL     1      10.698  73.055  -0.061  1.00  0.00     0.093 A 
ATOM      8  C   UNL     1      10.796  72.405  -1.294  1.00  0.00     0.123 A 
ATOM      9  C   UNL     1      10.515  71.044  -1.382  1.00  0.00     0.094 A 
ATOM     10  C   UNL     1      10.165  70.317  -0.242  1.00  0.00     0.146 A 
ATOM     11  O   UNL     1       9.927  69.017  -0.369  1.00  0.00    -0.452 OA
ENDROOT
BRANCH   1  12
ATOM     12  C   UNL     1       9.373  66.792   0.375  1.00  0.00     0.025 A 
ATOM     13  C   UNL     1       9.762  66.253  -0.862  1.00  0.00     0.016 A 
ATOM     14  C   UNL     1       9.562  64.898  -1.137  1.00  0.00     0.051 A 
ATOM     15  C   UNL     1       8.984  64.060  -0.175  1.00  0.00     0.157 A 
ATOM     16  C   UNL     1       8.813  65.942   1.346  1.00  0.00     0.062 A 
ATOM     17  C   UNL     1       8.613  64.582   1.070  1.00  0.00     0.158 A 
BRANCH  15  18
ATOM     18  O   UNL     1       8.780  62.708  -0.447  1.00  0.00    -0.504 OA
ATOM     19  H   UNL     1       8.872  62.337  -1.384  1.00  0.00     0.293 HD
ENDBRANCH  15  18
BRANCH  17  20
ATOM     20  O   UNL     1       8.052  63.743   2.031  1.00  0.00    -0.504 OA
ATOM     21  H   UNL     1       7.064  63.778   2.255  1.00  0.00     0.293 HD
ENDBRANCH  17  20
ENDBRANCH   1  12
BRANCH   2  22
ATOM     22  O   UNL     1       9.156  67.950   3.022  1.00  0.00    -0.502 OA
ATOM     23  H   UNL     1       8.252  68.019   3.473  1.00  0.00     0.293 HD
ENDBRANCH   2  22
BRANCH   6  24
ATOM     24  O   UNL     1      10.155  73.125   2.253  1.00  0.00    -0.507 OA
ATOM     25  H   UNL     1      10.901  73.379   2.882  1.00  0.00     0.293 HD
ENDBRANCH   6  24
BRANCH   8  26
ATOM     26  O   UNL     1      11.165  73.107  -2.439  1.00  0.00    -0.508 OA
ATOM     27  H   UNL     1      11.293  74.112  -2.428  1.00  0.00     0.293 HD
ENDBRANCH   8  26
TORSDOF 6
ENDMDL
MODEL 6
REMARK VINA RESULT:     1.858      1.743      6.256
REMARK INTER + INTRA:           2.722
REMARK INTER:                   2.327
REMARK INTRA:                   0.395
REMARK UNBOUND:                 0.483
REMARK SMILES O=c1c(O)c(-c2ccc(O)c(O)c2)oc2cc(O)cc(O)c12
REMARK SMILES IDX 5 1 3 2 2 3 1 4 22 5 20 6 19 7 17 8 16 9 15 10 14 11 6 12
REMARK SMILES IDX 7 13 8 14 9 15 13 16 11 17 10 18 12 20 4 22 21 24 18 26
REMARK H PARENT 10 19 12 21 4 23 21 25 18 27
REMARK Flexibility Score: inf
ROOT
ATOM      1  C   UNL     1      10.117  69.361  -0.372  1.00  0.00     0.180 A 
ATOM      2  C   UNL     1       9.949  70.054   0.839  1.00  0.00     0.208 A 
ATOM      3  C   UNL     1       9.473  69.358   1.961  1.00  0.00     0.238 A 
ATOM      4  O   UNL     1       9.254  70.000   3.021  1.00  0.00    -0.285 OA
ATOM      5  C   UNL     1       9.224  67.966   1.875  1.00  0.00     0.111 A 
ATOM      6  C   UNL     1       8.783  67.151   2.961  1.00  0.00     0.134 A 
ATOM      7  C   UNL     1       8.467  65.806   2.731  1.00  0.00     0.093 A 
ATOM      8  C   UNL     1       8.638  65.231   1.470  1.00  0.00     0.123 A 
ATOM      9  C   UNL     1       9.121  66.004   0.418  1.00  0.00     0.094 A 
ATOM     10  C   UNL     1       9.407  67.359   0.605  1.00  0.00     0.146 A 
ATOM     11  O   UNL     1       9.844  68.063  -0.431  1.00  0.00    -0.452 OA
ENDROOT
BRANCH   1  12
ATOM     12  C   UNL     1      10.601  70.029  -1.602  1.00  0.00     0.025 A 
ATOM     13  C   UNL     1      10.333  69.450  -2.852  1.00  0.00     0.016 A 
ATOM     14  C   UNL     1      10.761  70.074  -4.027  1.00  0.00     0.051 A 
ATOM     15  C   UNL     1      11.448  71.294  -3.969  1.00  0.00     0.157 A 
ATOM     16  C   UNL     1      11.273  71.264  -1.549  1.00  0.00     0.062 A 
ATOM     17  C   UNL     1      11.700  71.892  -2.729  1.00  0.00     0.158 A 
BRANCH  15  18
ATOM     18  O   UNL     1      11.878  71.918  -5.138  1.00  0.00    -0.504 OA
ATOM     19  H   UNL     1      11.435  72.760  -5.483  1.00  0.00     0.293 HD
ENDBRANCH  15  18
BRANCH  17  20
ATOM     20  O   UNL     1      12.371  73.112  -2.675  1.00  0.00    -0.504 OA
ATOM     21  H   UNL     1      12.296  73.793  -3.422  1.00  0.00     0.293 HD
ENDBRANCH  17  20
ENDBRANCH   1  12
BRANCH   2  22
ATOM     22  O   UNL     1      10.273  71.411   0.924  1.00  0.00    -0.502 OA
ATOM     23  H   UNL     1       9.621  72.143   0.670  1.00  0.00     0.293 HD
ENDBRANCH   2  22
BRANCH   6  24
ATOM     24  O   UNL     1       8.662  67.601   4.280  1.00  0.00    -0.507 OA
ATOM     25  H   UNL     1       8.715  67.014   5.098  1.00  0.00     0.293 HD
ENDBRANCH   6  24
BRANCH   8  26
ATOM     26  O   UNL     1       8.338  63.888   1.255  1.00  0.00    -0.508 OA
ATOM     27  H   UNL     1       7.658  63.398   1.825  1.00  0.00     0.293 HD
ENDBRANCH   8  26
TORSDOF 6
ENDMDL
MODEL 7
REMARK VINA RESULT:     1.882      2.678      6.455
REMARK INTER + INTRA:           2.750
REMARK INTER:                   2.950
REMARK INTRA:                  -0.200
REMARK UNBOUND:                 0.483
REMARK SMILES O=c1c(O)c(-c2ccc(O)c(O)c2)oc2cc(O)cc(O)c12
REMARK SMILES IDX 5 1 3 2 2 3 1 4 22 5 20 6 19 7 17 8 16 9 15 10 14 11 6 12
REMARK SMILES IDX 7 13 8 14 9 15 13 16 11 17 10 18 12 20 4 22 21 24 18 26
REMARK H PARENT 10 19 12 21 4 23 21 25 18 27
REMARK Flexibility Score: inf
ROOT
ATOM      1  C   UNL     1      10.089  69.395  -0.704  1.00  0.00     0.180 A 
ATOM      2  C   UNL     1       8.811  68.838  -0.876  1.00  0.00     0.208 A 
ATOM      3  C   UNL     1       8.335  67.919   0.074  1.00  0.00     0.238 A 
ATOM      4  O   UNL     1       7.221  67.369  -0.126  1.00  0.00    -0.285 OA
ATOM      5  C   UNL     1       9.119  67.611   1.212  1.00  0.00     0.111 A 
ATOM      6  C   UNL     1       8.718  66.729   2.260  1.00  0.00     0.134 A 
ATOM      7  C   UNL     1       9.622  66.417   3.284  1.00  0.00     0.093 A 
ATOM      8  C   UNL     1      10.888  67.005   3.332  1.00  0.00     0.123 A 
ATOM      9  C   UNL     1      11.267  67.910   2.344  1.00  0.00     0.094 A 
ATOM     10  C   UNL     1      10.404  68.211   1.288  1.00  0.00     0.146 A 
ATOM     11  O   UNL     1      10.815  69.062   0.356  1.00  0.00    -0.452 OA
ENDROOT
BRANCH   1  12
ATOM     12  C   UNL     1      10.665  70.359  -1.670  1.00  0.00     0.025 A 
ATOM     13  C   UNL     1      10.959  71.665  -1.247  1.00  0.00     0.016 A 
ATOM     14  C   UNL     1      11.523  72.585  -2.134  1.00  0.00     0.051 A 
ATOM     15  C   UNL     1      11.815  72.208  -3.452  1.00  0.00     0.157 A 
ATOM     16  C   UNL     1      10.980  69.979  -2.987  1.00  0.00     0.062 A 
ATOM     17  C   UNL     1      11.547  70.902  -3.877  1.00  0.00     0.158 A 
BRANCH  15  18
ATOM     18  O   UNL     1      12.375  73.124  -4.340  1.00  0.00    -0.504 OA
ATOM     19  H   UNL     1      12.730  72.836  -5.245  1.00  0.00     0.293 HD
ENDBRANCH  15  18
BRANCH  17  20
ATOM     20  O   UNL     1      11.853  70.525  -5.184  1.00  0.00    -0.504 OA
ATOM     21  H   UNL     1      12.788  70.625  -5.560  1.00  0.00     0.293 HD
ENDBRANCH  17  20
ENDBRANCH   1  12
BRANCH   2  22
ATOM     22  O   UNL     1       8.020  69.213  -1.966  1.00  0.00    -0.502 OA
ATOM     23  H   UNL     1       7.370  68.577  -2.411  1.00  0.00     0.293 HD
ENDBRANCH   2  22
BRANCH   6  24
ATOM     24  O   UNL     1       7.446  66.156   2.358  1.00  0.00    -0.507 OA
ATOM     25  H   UNL     1       6.733  66.441   3.010  1.00  0.00     0.293 HD
ENDBRANCH   6  24
BRANCH   8  26
ATOM     26  O   UNL     1      11.773  66.702   4.364  1.00  0.00    -0.508 OA
ATOM     27  H   UNL     1      12.304  65.839   4.371  1.00  0.00     0.293 HD
ENDBRANCH   8  26
TORSDOF 6
ENDMDL
MODEL 8
REMARK VINA RESULT:     2.034      1.274      1.528
REMARK INTER + INTRA:           2.933
REMARK INTER:                   2.382
REMARK INTRA:                   0.551
REMARK UNBOUND:                 0.483
REMARK SMILES O=c1c(O)c(-c2ccc(O)c(O)c2)oc2cc(O)cc(O)c12
REMARK SMILES IDX 5 1 3 2 2 3 1 4 22 5 20 6 19 7 17 8 16 9 15 10 14 11 6 12
REMARK SMILES IDX 7 13 8 14 9 15 13 16 11 17 10 18 12 20 4 22 21 24 18 26
REMARK H PARENT 10 19 12 21 4 23 21 25 18 27
REMARK Flexibility Score: inf
ROOT
ATOM      1  C   UNL     1       9.764  67.976  -0.052  1.00  0.00     0.180 A 
ATOM      2  C   UNL     1       9.536  68.856   1.020  1.00  0.00     0.208 A 
ATOM      3  C   UNL     1       9.825  70.220   0.854  1.00  0.00     0.238 A 
ATOM      4  O   UNL     1       9.689  70.989   1.841  1.00  0.00    -0.285 OA
ATOM      5  C   UNL     1      10.285  70.697  -0.397  1.00  0.00     0.111 A 
ATOM      6  C   UNL     1      10.568  72.066  -0.691  1.00  0.00     0.134 A 
ATOM      7  C   UNL     1      11.121  72.406  -1.932  1.00  0.00     0.093 A 
ATOM      8  C   UNL     1      11.341  71.436  -2.913  1.00  0.00     0.123 A 
ATOM      9  C   UNL     1      11.017  70.106  -2.656  1.00  0.00     0.094 A 
ATOM     10  C   UNL     1      10.501  69.729  -1.413  1.00  0.00     0.146 A 
ATOM     11  O   UNL     1      10.228  68.448  -1.203  1.00  0.00    -0.452 OA
ENDROOT
BRANCH   1  12
ATOM     12  C   UNL     1       9.496  66.524   0.051  1.00  0.00     0.025 A 
ATOM     13  C   UNL     1       8.899  66.014   1.215  1.00  0.00     0.016 A 
ATOM     14  C   UNL     1       8.617  64.649   1.325  1.00  0.00     0.051 A 
ATOM     15  C   UNL     1       8.914  63.779   0.267  1.00  0.00     0.157 A 
ATOM     16  C   UNL     1       9.772  65.650  -1.017  1.00  0.00     0.062 A 
ATOM     17  C   UNL     1       9.487  64.281  -0.906  1.00  0.00     0.158 A 
BRANCH  15  18
ATOM     18  O   UNL     1       8.636  62.418   0.375  1.00  0.00    -0.504 OA
ATOM     19  H   UNL     1       9.214  61.721  -0.081  1.00  0.00     0.293 HD
ENDBRANCH  15  18
BRANCH  17  20
ATOM     20  O   UNL     1       9.768  63.415  -1.962  1.00  0.00    -0.504 OA
ATOM     21  H   UNL     1      10.461  62.681  -1.877  1.00  0.00     0.293 HD
ENDBRANCH  17  20
ENDBRANCH   1  12
BRANCH   2  22
ATOM     22  O   UNL     1       9.007  68.378   2.223  1.00  0.00    -0.502 OA
ATOM     23  H   UNL     1       9.090  68.888   3.093  1.00  0.00     0.293 HD
ENDBRANCH   2  22
BRANCH   6  24
ATOM     24  O   UNL     1      10.303  73.125   0.183  1.00  0.00    -0.507 OA
ATOM     25  H   UNL     1       9.973  74.035  -0.096  1.00  0.00     0.293 HD
ENDBRANCH   6  24
BRANCH   8  26
ATOM     26  O   UNL     1      11.875  71.786  -4.151  1.00  0.00    -0.508 OA
ATOM     27  H   UNL     1      11.768  71.189  -4.963  1.00  0.00     0.293 HD
ENDBRANCH   8  26
TORSDOF 6
ENDMDL
MODEL 9
REMARK VINA RESULT:     2.039      2.718      5.785
REMARK INTER + INTRA:           2.940
REMARK INTER:                   2.844
REMARK INTRA:                   0.095
REMARK UNBOUND:                 0.483
REMARK SMILES O=c1c(O)c(-c2ccc(O)c(O)c2)oc2cc(O)cc(O)c12
REMARK SMILES IDX 5 1 3 2 2 3 1 4 22 5 20 6 19 7 17 8 16 9 15 10 14 11 6 12
REMARK SMILES IDX 7 13 8 14 9 15 13 16 11 17 10 18 12 20 4 22 21 24 18 26
REMARK H PARENT 10 19 12 21 4 23 21 25 18 27
REMARK Flexibility Score: inf
ROOT
ATOM      1  C   UNL     1      10.306  70.234  -0.393  1.00  0.00     0.180 A 
ATOM      2  C   UNL     1      10.311  68.912   0.084  1.00  0.00     0.208 A 
ATOM      3  C   UNL     1       9.864  68.658   1.390  1.00  0.00     0.238 A 
ATOM      4  O   UNL     1       9.941  67.483   1.835  1.00  0.00    -0.285 OA
ATOM      5  C   UNL     1       9.367  69.719   2.185  1.00  0.00     0.111 A 
ATOM      6  C   UNL     1       8.847  69.569   3.507  1.00  0.00     0.134 A 
ATOM      7  C   UNL     1       8.482  70.707   4.238  1.00  0.00     0.093 A 
ATOM      8  C   UNL     1       8.557  71.982   3.672  1.00  0.00     0.123 A 
ATOM      9  C   UNL     1       9.009  72.133   2.364  1.00  0.00     0.094 A 
ATOM     10  C   UNL     1       9.419  71.021   1.623  1.00  0.00     0.146 A 
ATOM     11  O   UNL     1       9.865  71.213   0.387  1.00  0.00    -0.452 OA
ENDROOT
BRANCH   1  12
ATOM     12  C   UNL     1      10.775  70.583  -1.754  1.00  0.00     0.025 A 
ATOM     13  C   UNL     1      10.336  69.822  -2.849  1.00  0.00     0.016 A 
ATOM     14  C   UNL     1      10.748  70.146  -4.145  1.00  0.00     0.051 A 
ATOM     15  C   UNL     1      11.590  71.244  -4.364  1.00  0.00     0.157 A 
ATOM     16  C   UNL     1      11.603  71.697  -1.981  1.00  0.00     0.062 A 
ATOM     17  C   UNL     1      12.014  72.023  -3.282  1.00  0.00     0.158 A 
BRANCH  15  18
ATOM     18  O   UNL     1      12.004  71.568  -5.655  1.00  0.00    -0.504 OA
ATOM     19  H   UNL     1      12.909  71.987  -5.832  1.00  0.00     0.293 HD
ENDBRANCH  15  18
BRANCH  17  20
ATOM     20  O   UNL     1      12.840  73.123  -3.505  1.00  0.00    -0.504 OA
ATOM     21  H   UNL     1      13.083  73.423  -4.442  1.00  0.00     0.293 HD
ENDBRANCH  17  20
ENDBRANCH   1  12
BRANCH   2  22
ATOM     22  O   UNL     1      10.733  67.867  -0.744  1.00  0.00    -0.502 OA
ATOM     23  H   UNL     1      10.781  67.957  -1.751  1.00  0.00     0.293 HD
ENDBRANCH   2  22
BRANCH   6  24
ATOM     24  O   UNL     1       8.647  68.337   4.135  1.00  0.00    -0.507 OA
ATOM     25  H   UNL     1       9.348  67.833   4.656  1.00  0.00     0.293 HD
ENDBRANCH   6  24
BRANCH   8  26
ATOM     26  O   UNL     1       8.174  73.106   4.400  1.00  0.00    -0.508 OA
ATOM     27  H   UNL     1       7.979  73.991   3.947  1.00  0.00     0.293 HD
ENDBRANCH   8  26
TORSDOF 6
ENDMDL
