MODEL 1
REMARK VINA RESULT:    -3.266      0.000      0.000
REMARK INTER + INTRA:          -3.552
REMARK INTER:                  -3.552
REMARK INTRA:                   0.000
REMARK UNBOUND:                 0.000
REMARK SMILES Oc1cccc(O)c1O
REMARK SMILES IDX 4 1 5 2 6 3 8 4 2 5 3 6 7 7 1 9 9 11
REMARK H PARENT 7 8 1 10 9 12
REMARK Flexibility Score: inf
ROOT
ATOM      1  C   UNL     1     156.745 161.076 165.315  1.00  0.00     0.008 A 
ATOM      2  C   UNL     1     157.720 161.807 165.992  1.00  0.00     0.050 A 
ATOM      3  C   UNL     1     158.153 161.400 167.260  1.00  0.00     0.161 A 
ATOM      4  C   UNL     1     157.605 160.253 167.859  1.00  0.00     0.200 A 
ATOM      5  C   UNL     1     156.613 159.511 167.168  1.00  0.00     0.161 A 
ATOM      6  C   UNL     1     156.194 159.935 165.901  1.00  0.00     0.050 A 
ENDROOT
BRANCH   3   7
ATOM      7  O   UNL     1     159.128 162.130 167.937  1.00  0.00    -0.504 OA
ATOM      8  H   UNL     1     160.107 162.070 167.681  1.00  0.00     0.293 HD
ENDBRANCH   3   7
BRANCH   5   9
ATOM      9  O   UNL     1     156.023 158.362 167.699  1.00  0.00    -0.504 OA
ATOM     10  H   UNL     1     156.025 157.463 167.239  1.00  0.00     0.293 HD
ENDBRANCH   5   9
BRANCH   4  11
ATOM     11  O   UNL     1     158.069 159.889 169.125  1.00  0.00    -0.502 OA
ATOM     12  H   UNL     1     158.881 159.310 169.285  1.00  0.00     0.293 HD
ENDBRANCH   4  11
TORSDOF 3
ENDMDL
MODEL 2
REMARK VINA RESULT:    -3.214      1.273      3.118
REMARK INTER + INTRA:          -3.496
REMARK INTER:                  -3.496
REMARK INTRA:                   0.000
REMARK UNBOUND:                 0.000
REMARK SMILES Oc1cccc(O)c1O
REMARK SMILES IDX 4 1 5 2 6 3 8 4 2 5 3 6 7 7 1 9 9 11
REMARK H PARENT 7 8 1 10 9 12
REMARK Flexibility Score: inf
ROOT
ATOM      1  C   UNL     1     157.023 160.418 165.569  1.00  0.00     0.008 A 
ATOM      2  C   UNL     1     155.787 159.773 165.564  1.00  0.00     0.050 A 
ATOM      3  C   UNL     1     155.251 159.270 166.756  1.00  0.00     0.161 A 
ATOM      4  C   UNL     1     155.955 159.412 167.964  1.00  0.00     0.200 A 
ATOM      5  C   UNL     1     157.211 160.069 167.966  1.00  0.00     0.161 A 
ATOM      6  C   UNL     1     157.731 160.565 166.764  1.00  0.00     0.050 A 
ENDROOT
BRANCH   3   7
ATOM      7  O   UNL     1     154.015 158.625 166.753  1.00  0.00    -0.504 OA
ATOM      8  H   UNL     1     153.460 158.539 167.597  1.00  0.00     0.293 HD
ENDBRANCH   3   7
BRANCH   5   9
ATOM      9  O   UNL     1     157.969 160.247 169.125  1.00  0.00    -0.504 OA
ATOM     10  H   UNL     1     158.823 160.786 169.164  1.00  0.00     0.293 HD
ENDBRANCH   5   9
BRANCH   4  11
ATOM     11  O   UNL     1     155.378 158.892 169.125  1.00  0.00    -0.502 OA
ATOM     12  H   UNL     1     155.722 158.077 169.611  1.00  0.00     0.293 HD
ENDBRANCH   4  11
TORSDOF 3
ENDMDL
MODEL 3
REMARK VINA RESULT:    -3.208      5.263      5.383
REMARK INTER + INTRA:          -3.490
REMARK INTER:                  -3.490
REMARK INTRA:                   0.000
REMARK UNBOUND:                 0.000
REMARK SMILES Oc1cccc(O)c1O
REMARK SMILES IDX 4 1 5 2 6 3 8 4 2 5 3 6 7 7 1 9 9 11
REMARK H PARENT 7 8 1 10 9 12
REMARK Flexibility Score: inf
ROOT
ATOM      1  C   UNL     1     157.880 154.675 165.589  1.00  0.00     0.008 A 
ATOM      2  C   UNL     1     159.129 155.296 165.584  1.00  0.00     0.050 A 
ATOM      3  C   UNL     1     159.659 155.822 166.770  1.00  0.00     0.161 A 
ATOM      4  C   UNL     1     158.935 155.727 167.970  1.00  0.00     0.200 A 
ATOM      5  C   UNL     1     157.666 155.094 167.972  1.00  0.00     0.161 A 
ATOM      6  C   UNL     1     157.154 154.576 166.777  1.00  0.00     0.050 A 
ENDROOT
BRANCH   3   7
ATOM      7  O   UNL     1     160.907 156.442 166.766  1.00  0.00    -0.504 OA
ATOM      8  H   UNL     1     161.019 157.404 166.466  1.00  0.00     0.293 HD
ENDBRANCH   3   7
BRANCH   5   9
ATOM      9  O   UNL     1     156.889 154.963 169.125  1.00  0.00    -0.504 OA
ATOM     10  H   UNL     1     157.270 154.822 170.050  1.00  0.00     0.293 HD
ENDBRANCH   5   9
BRANCH   4  11
ATOM     11  O   UNL     1     159.506 156.267 169.125  1.00  0.00    -0.502 OA
ATOM     12  H   UNL     1     160.103 155.751 169.755  1.00  0.00     0.293 HD
ENDBRANCH   4  11
TORSDOF 3
ENDMDL
MODEL 4
REMARK VINA RESULT:    -3.172      0.158      2.819
REMARK INTER + INTRA:          -3.450
REMARK INTER:                  -3.450
REMARK INTRA:                   0.000
REMARK UNBOUND:                 0.000
REMARK SMILES Oc1cccc(O)c1O
REMARK SMILES IDX 4 1 5 2 6 3 8 4 2 5 3 6 7 7 1 9 9 11
REMARK H PARENT 7 8 1 10 9 12
REMARK Flexibility Score: inf
ROOT
ATOM      1  C   UNL     1     156.927 161.141 165.247  1.00  0.00     0.008 A 
ATOM      2  C   UNL     1     156.368 159.990 165.800  1.00  0.00     0.050 A 
ATOM      3  C   UNL     1     156.723 159.586 167.094  1.00  0.00     0.161 A 
ATOM      4  C   UNL     1     157.645 160.338 167.841  1.00  0.00     0.200 A 
ATOM      5  C   UNL     1     158.211 161.508 167.275  1.00  0.00     0.161 A 
ATOM      6  C   UNL     1     157.844 161.895 165.981  1.00  0.00     0.050 A 
ENDROOT
BRANCH   3   7
ATOM      7  O   UNL     1     156.164 158.436 167.648  1.00  0.00    -0.504 OA
ATOM      8  H   UNL     1     155.446 158.487 168.362  1.00  0.00     0.293 HD
ENDBRANCH   3   7
BRANCH   5   9
ATOM      9  O   UNL     1     159.134 162.306 167.956  1.00  0.00    -0.504 OA
ATOM     10  H   UNL     1     159.456 163.204 167.625  1.00  0.00     0.293 HD
ENDBRANCH   5   9
BRANCH   4  11
ATOM     11  O   UNL     1     157.967 159.894 169.125  1.00  0.00    -0.502 OA
ATOM     12  H   UNL     1     158.446 159.026 169.320  1.00  0.00     0.293 HD
ENDBRANCH   4  11
TORSDOF 3
ENDMDL
MODEL 5
REMARK VINA RESULT:    -3.160      2.894      3.327
REMARK INTER + INTRA:          -3.437
REMARK INTER:                  -3.437
REMARK INTRA:                   0.000
REMARK UNBOUND:                 0.000
REMARK SMILES Oc1cccc(O)c1O
REMARK SMILES IDX 4 1 5 2 6 3 8 4 2 5 3 6 7 7 1 9 9 11
REMARK H PARENT 7 8 1 10 9 12
REMARK Flexibility Score: inf
ROOT
ATOM      1  C   UNL     1     160.412 158.168 165.638  1.00  0.00     0.008 A 
ATOM      2  C   UNL     1     159.841 159.441 165.634  1.00  0.00     0.050 A 
ATOM      3  C   UNL     1     159.271 159.960 166.803  1.00  0.00     0.161 A 
ATOM      4  C   UNL     1     159.269 159.201 167.986  1.00  0.00     0.200 A 
ATOM      5  C   UNL     1     159.851 157.909 167.987  1.00  0.00     0.161 A 
ATOM      6  C   UNL     1     160.416 157.407 166.808  1.00  0.00     0.050 A 
ENDROOT
BRANCH   3   7
ATOM      7  O   UNL     1     158.700 161.232 166.801  1.00  0.00    -0.504 OA
ATOM      8  H   UNL     1     158.273 161.619 165.967  1.00  0.00     0.293 HD
ENDBRANCH   3   7
BRANCH   5   9
ATOM      9  O   UNL     1     159.887 157.097 169.122  1.00  0.00    -0.504 OA
ATOM     10  H   UNL     1     160.659 157.070 169.773  1.00  0.00     0.293 HD
ENDBRANCH   5   9
BRANCH   4  11
ATOM     11  O   UNL     1     158.687 159.763 169.125  1.00  0.00    -0.502 OA
ATOM     12  H   UNL     1     158.512 160.751 169.242  1.00  0.00     0.293 HD
ENDBRANCH   4  11
TORSDOF 3
ENDMDL
MODEL 6
REMARK VINA RESULT:    -3.159      4.887      5.893
REMARK INTER + INTRA:          -3.436
REMARK INTER:                  -3.436
REMARK INTRA:                   0.000
REMARK UNBOUND:                 0.000
REMARK SMILES Oc1cccc(O)c1O
REMARK SMILES IDX 4 1 5 2 6 3 8 4 2 5 3 6 7 7 1 9 9 11
REMARK H PARENT 7 8 1 10 9 12
REMARK Flexibility Score: inf
ROOT
ATOM      1  C   UNL     1     159.650 156.051 165.549  1.00  0.00     0.008 A 
ATOM      2  C   UNL     1     158.611 155.122 165.546  1.00  0.00     0.050 A 
ATOM      3  C   UNL     1     157.977 154.769 166.744  1.00  0.00     0.161 A 
ATOM      4  C   UNL     1     158.386 155.348 167.957  1.00  0.00     0.200 A 
ATOM      5  C   UNL     1     159.443 156.293 167.958  1.00  0.00     0.161 A 
ATOM      6  C   UNL     1     160.063 156.633 166.749  1.00  0.00     0.050 A 
ENDROOT
BRANCH   3   7
ATOM      7  O   UNL     1     156.938 153.840 166.742  1.00  0.00    -0.504 OA
ATOM      8  H   UNL     1     156.808 153.189 167.508  1.00  0.00     0.293 HD
ENDBRANCH   3   7
BRANCH   5   9
ATOM      9  O   UNL     1     159.904 156.910 169.122  1.00  0.00    -0.504 OA
ATOM     10  H   UNL     1     159.689 157.863 169.380  1.00  0.00     0.293 HD
ENDBRANCH   5   9
BRANCH   4  11
ATOM     11  O   UNL     1     157.724 154.962 169.125  1.00  0.00    -0.502 OA
ATOM     12  H   UNL     1     157.896 155.369 170.033  1.00  0.00     0.293 HD
ENDBRANCH   4  11
TORSDOF 3
ENDMDL
MODEL 7
REMARK VINA RESULT:    -3.139      2.992      3.609
REMARK INTER + INTRA:          -3.414
REMARK INTER:                  -3.414
REMARK INTRA:                   0.000
REMARK UNBOUND:                 0.000
REMARK SMILES Oc1cccc(O)c1O
REMARK SMILES IDX 4 1 5 2 6 3 8 4 2 5 3 6 7 7 1 9 9 11
REMARK H PARENT 7 8 1 10 9 12
REMARK Flexibility Score: inf
ROOT
ATOM      1  C   UNL     1     159.319 159.741 165.580  1.00  0.00     0.008 A 
ATOM      2  C   UNL     1     160.049 158.553 165.578  1.00  0.00     0.050 A 
ATOM      3  C   UNL     1     160.226 157.833 166.766  1.00  0.00     0.161 A 
ATOM      4  C   UNL     1     159.670 158.304 167.967  1.00  0.00     0.200 A 
ATOM      5  C   UNL     1     158.928 159.512 167.966  1.00  0.00     0.161 A 
ATOM      6  C   UNL     1     158.763 160.217 166.768  1.00  0.00     0.050 A 
ENDROOT
BRANCH   3   7
ATOM      7  O   UNL     1     160.954 156.644 166.765  1.00  0.00    -0.504 OA
ATOM      8  H   UNL     1     161.923 156.617 167.063  1.00  0.00     0.293 HD
ENDBRANCH   3   7
BRANCH   5   9
ATOM      9  O   UNL     1     158.347 160.042 169.120  1.00  0.00    -0.504 OA
ATOM     10  H   UNL     1     158.225 159.526 169.979  1.00  0.00     0.293 HD
ENDBRANCH   5   9
BRANCH   4  11
ATOM     11  O   UNL     1     159.875 157.550 169.125  1.00  0.00    -0.502 OA
ATOM     12  H   UNL     1     160.417 156.698 169.157  1.00  0.00     0.293 HD
ENDBRANCH   4  11
TORSDOF 3
ENDMDL
MODEL 8
REMARK VINA RESULT:    -3.128      4.880      5.251
REMARK INTER + INTRA:          -3.402
REMARK INTER:                  -3.402
REMARK INTRA:                   0.000
REMARK UNBOUND:                 0.000
REMARK SMILES Oc1cccc(O)c1O
REMARK SMILES IDX 4 1 5 2 6 3 8 4 2 5 3 6 7 7 1 9 9 11
REMARK H PARENT 7 8 1 10 9 12
REMARK Flexibility Score: inf
ROOT
ATOM      1  C   UNL     1     159.707 156.133 165.505  1.00  0.00     0.008 A 
ATOM      2  C   UNL     1     160.105 156.692 166.719  1.00  0.00     0.050 A 
ATOM      3  C   UNL     1     159.477 156.308 167.911  1.00  0.00     0.161 A 
ATOM      4  C   UNL     1     158.442 155.358 167.890  1.00  0.00     0.200 A 
ATOM      5  C   UNL     1     158.040 154.791 166.655  1.00  0.00     0.161 A 
ATOM      6  C   UNL     1     158.679 155.188 165.474  1.00  0.00     0.050 A 
ENDROOT
BRANCH   3   7
ATOM      7  O   UNL     1     159.875 156.866 169.125  1.00  0.00    -0.504 OA
ATOM      8  H   UNL     1     159.259 156.876 169.930  1.00  0.00     0.293 HD
ENDBRANCH   3   7
BRANCH   5   9
ATOM      9  O   UNL     1     157.019 153.843 166.555  1.00  0.00    -0.504 OA
ATOM     10  H   UNL     1     157.177 152.847 166.504  1.00  0.00     0.293 HD
ENDBRANCH   5   9
BRANCH   4  11
ATOM     11  O   UNL     1     157.847 155.010 169.105  1.00  0.00    -0.502 OA
ATOM     12  H   UNL     1     157.766 155.634 169.895  1.00  0.00     0.293 HD
ENDBRANCH   4  11
TORSDOF 3
ENDMDL
MODEL 9
REMARK VINA RESULT:    -3.119      2.713      3.593
REMARK INTER + INTRA:          -3.392
REMARK INTER:                  -3.392
REMARK INTRA:                   0.000
REMARK UNBOUND:                 0.000
REMARK SMILES Oc1cccc(O)c1O
REMARK SMILES IDX 4 1 5 2 6 3 8 4 2 5 3 6 7 7 1 9 9 11
REMARK H PARENT 7 8 1 10 9 12
REMARK Flexibility Score: inf
ROOT
ATOM      1  C   UNL     1     159.983 158.280 165.451  1.00  0.00     0.008 A 
ATOM      2  C   UNL     1     160.148 157.565 166.637  1.00  0.00     0.050 A 
ATOM      3  C   UNL     1     159.717 158.109 167.854  1.00  0.00     0.161 A 
ATOM      4  C   UNL     1     159.117 159.379 167.887  1.00  0.00     0.200 A 
ATOM      5  C   UNL     1     158.950 160.104 166.680  1.00  0.00     0.161 A 
ATOM      6  C   UNL     1     159.387 159.543 165.474  1.00  0.00     0.050 A 
ENDROOT
BRANCH   3   7
ATOM      7  O   UNL     1     159.881 157.394 169.039  1.00  0.00    -0.504 OA
ATOM      8  H   UNL     1     159.810 157.846 169.944  1.00  0.00     0.293 HD
ENDBRANCH   3   7
BRANCH   5   9
ATOM      9  O   UNL     1     158.363 161.370 166.634  1.00  0.00    -0.504 OA
ATOM     10  H   UNL     1     158.811 162.212 166.967  1.00  0.00     0.293 HD
ENDBRANCH   5   9
BRANCH   4  11
ATOM     11  O   UNL     1     158.705 159.877 169.125  1.00  0.00    -0.502 OA
ATOM     12  H   UNL     1     158.144 159.359 169.785  1.00  0.00     0.293 HD
ENDBRANCH   4  11
TORSDOF 3
ENDMDL
