MODEL 1
REMARK VINA RESULT:     4.418      0.000      0.000
REMARK INTER + INTRA:           7.324
REMARK INTER:                   7.517
REMARK INTRA:                  -0.193
REMARK UNBOUND:                -0.193
REMARK SMILES CCCCCCCCCCCCCC(=O)[O-]
REMARK SMILES IDX 8 1 9 2 10 3 11 4 12 5 13 6 14 7 15 8 16 9 7 10 6 11 5 12
REMARK SMILES IDX 4 13 3 14 2 15 1 16
REMARK H PARENT
REMARK Flexibility Score: inf
ROOT
ATOM      1  C   UNL     1      16.383  38.950  46.287  1.00  0.00     0.000 C 
ENDROOT
BRANCH   1   2
ATOM      2  C   UNL     1      15.928  39.483  47.663  1.00  0.00     0.000 C 
BRANCH   2   3
ATOM      3  C   UNL     1      14.530  40.124  47.603  1.00  0.00     0.000 C 
BRANCH   3   4
ATOM      4  C   UNL     1      13.775  39.779  46.309  1.00  0.00     0.000 C 
BRANCH   4   5
ATOM      5  C   UNL     1      13.460  38.281  46.189  1.00  0.00     0.006 C 
BRANCH   5   6
ATOM      6  C   UNL     1      13.000  37.710  47.534  1.00  0.00     0.053 C 
BRANCH   6   7
ATOM      7  C   UNL     1      13.710  36.426  47.829  1.00  0.00     0.041 C 
ATOM      8  O   UNL     1      14.843  36.440  48.377  1.00  0.00    -0.550 OA
ATOM      9  O   UNL     1      13.142  35.215  47.451  1.00  0.00    -0.550 OA
ENDBRANCH   6   7
ENDBRANCH   5   6
ENDBRANCH   4   5
ENDBRANCH   3   4
ENDBRANCH   2   3
ENDBRANCH   1   2
BRANCH   1  10
ATOM     10  C   UNL     1      17.591  38.000  46.365  1.00  0.00     0.000 C 
BRANCH  10  11
ATOM     11  C   UNL     1      18.890  38.718  46.751  1.00  0.00    -0.000 C 
BRANCH  11  12
ATOM     12  C   UNL     1      19.997  37.710  47.094  1.00  0.00    -0.000 C 
BRANCH  12  13
ATOM     13  C   UNL     1      19.739  36.312  46.500  1.00  0.00    -0.000 C 
BRANCH  13  14
ATOM     14  C   UNL     1      20.286  36.097  45.077  1.00  0.00    -0.000 C 
BRANCH  14  15
ATOM     15  C   UNL     1      20.830  34.678  44.852  1.00  0.00    -0.003 C 
ATOM     16  C   UNL     1      21.353  34.511  43.429  1.00  0.00     0.004 C 
ENDBRANCH  14  15
ENDBRANCH  13  14
ENDBRANCH  12  13
ENDBRANCH  11  12
ENDBRANCH  10  11
ENDBRANCH   1  10
TORSDOF 12
ENDMDL
MODEL 2
REMARK VINA RESULT:     4.502      0.715      1.159
REMARK INTER + INTRA:           7.467
REMARK INTER:                   7.817
REMARK INTRA:                  -0.351
REMARK UNBOUND:                -0.193
REMARK SMILES CCCCCCCCCCCCCC(=O)[O-]
REMARK SMILES IDX 8 1 9 2 10 3 11 4 12 5 13 6 14 7 15 8 16 9 7 10 6 11 5 12
REMARK SMILES IDX 4 13 3 14 2 15 1 16
REMARK H PARENT
REMARK Flexibility Score: inf
ROOT
ATOM      1  C   UNL     1      16.335  38.954  45.986  1.00  0.00     0.000 C 
ENDROOT
BRANCH   1   2
ATOM      2  C   UNL     1      15.688  39.742  47.147  1.00  0.00     0.000 C 
BRANCH   2   3
ATOM      3  C   UNL     1      14.211  40.077  46.867  1.00  0.00     0.000 C 
BRANCH   3   4
ATOM      4  C   UNL     1      13.338  38.822  46.711  1.00  0.00     0.000 C 
BRANCH   4   5
ATOM      5  C   UNL     1      13.829  37.648  47.571  1.00  0.00     0.006 C 
BRANCH   5   6
ATOM      6  C   UNL     1      12.774  36.541  47.638  1.00  0.00     0.053 C 
BRANCH   6   7
ATOM      7  C   UNL     1      13.426  35.206  47.818  1.00  0.00     0.041 C 
ATOM      8  O   UNL     1      12.888  34.170  47.348  1.00  0.00    -0.550 OA
ATOM      9  O   UNL     1      14.604  35.100  48.548  1.00  0.00    -0.550 OA
ENDBRANCH   6   7
ENDBRANCH   5   6
ENDBRANCH   4   5
ENDBRANCH   3   4
ENDBRANCH   2   3
ENDBRANCH   1   2
BRANCH   1  10
ATOM     10  C   UNL     1      17.514  38.070  46.426  1.00  0.00     0.000 C 
BRANCH  10  11
ATOM     11  C   UNL     1      18.767  38.881  46.781  1.00  0.00    -0.000 C 
BRANCH  11  12
ATOM     12  C   UNL     1      19.958  37.956  47.073  1.00  0.00    -0.000 C 
BRANCH  12  13
ATOM     13  C   UNL     1      19.729  36.512  46.587  1.00  0.00    -0.000 C 
BRANCH  13  14
ATOM     14  C   UNL     1      20.175  36.233  45.140  1.00  0.00    -0.000 C 
BRANCH  14  15
ATOM     15  C   UNL     1      20.678  34.797  44.934  1.00  0.00    -0.003 C 
ATOM     16  C   UNL     1      21.278  34.620  43.543  1.00  0.00     0.004 C 
ENDBRANCH  14  15
ENDBRANCH  13  14
ENDBRANCH  12  13
ENDBRANCH  11  12
ENDBRANCH  10  11
ENDBRANCH   1  10
TORSDOF 12
ENDMDL
MODEL 3
REMARK VINA RESULT:     5.156      0.431      1.417
REMARK INTER + INTRA:           8.579
REMARK INTER:                   9.234
REMARK INTRA:                  -0.655
REMARK UNBOUND:                -0.193
REMARK SMILES CCCCCCCCCCCCCC(=O)[O-]
REMARK SMILES IDX 8 1 9 2 10 3 11 4 12 5 13 6 14 7 15 8 16 9 7 10 6 11 5 12
REMARK SMILES IDX 4 13 3 14 2 15 1 16
REMARK H PARENT
REMARK Flexibility Score: inf
ROOT
ATOM      1  C   UNL     1      17.511  37.945  46.455  1.00  0.00     0.000 C 
ENDROOT
BRANCH   1   2
ATOM      2  C   UNL     1      16.295  38.803  46.044  1.00  0.00     0.000 C 
BRANCH   2   3
ATOM      3  C   UNL     1      15.660  39.524  47.248  1.00  0.00     0.000 C 
BRANCH   3   4
ATOM      4  C   UNL     1      14.126  39.558  47.176  1.00  0.00     0.000 C 
BRANCH   4   5
ATOM      5  C   UNL     1      13.535  38.298  46.525  1.00  0.00     0.006 C 
BRANCH   5   6
ATOM      6  C   UNL     1      12.878  37.397  47.574  1.00  0.00     0.053 C 
BRANCH   6   7
ATOM      7  C   UNL     1      13.742  36.211  47.861  1.00  0.00     0.041 C 
ATOM      8  O   UNL     1      13.365  35.057  47.530  1.00  0.00    -0.550 OA
ATOM      9  O   UNL     1      14.943  36.374  48.542  1.00  0.00    -0.550 OA
ENDBRANCH   6   7
ENDBRANCH   5   6
ENDBRANCH   4   5
ENDBRANCH   3   4
ENDBRANCH   2   3
ENDBRANCH   1   2
BRANCH   1  10
ATOM     10  C   UNL     1      18.770  38.773  46.763  1.00  0.00     0.000 C 
BRANCH  10  11
ATOM     11  C   UNL     1      19.991  37.903  47.089  1.00  0.00    -0.000 C 
BRANCH  11  12
ATOM     12  C   UNL     1      19.765  36.449  46.648  1.00  0.00    -0.000 C 
BRANCH  12  13
ATOM     13  C   UNL     1      20.169  36.198  45.183  1.00  0.00    -0.000 C 
BRANCH  13  14
ATOM     14  C   UNL     1      20.812  34.826  44.910  1.00  0.00    -0.000 C 
BRANCH  14  15
ATOM     15  C   UNL     1      20.807  34.446  43.422  1.00  0.00    -0.003 C 
ATOM     16  C   UNL     1      22.228  34.350  42.875  1.00  0.00     0.004 C 
ENDBRANCH  14  15
ENDBRANCH  13  14
ENDBRANCH  12  13
ENDBRANCH  11  12
ENDBRANCH  10  11
ENDBRANCH   1  10
TORSDOF 12
ENDMDL
MODEL 4
REMARK VINA RESULT:     5.397      2.818      6.546
REMARK INTER + INTRA:           8.990
REMARK INTER:                   9.688
REMARK INTRA:                  -0.698
REMARK UNBOUND:                -0.193
REMARK SMILES CCCCCCCCCCCCCC(=O)[O-]
REMARK SMILES IDX 8 1 9 2 10 3 11 4 12 5 13 6 14 7 15 8 16 9 7 10 6 11 5 12
REMARK SMILES IDX 4 13 3 14 2 15 1 16
REMARK H PARENT
REMARK Flexibility Score: inf
ROOT
ATOM      1  C   UNL     1      16.355  38.988  46.226  1.00  0.00     0.000 C 
ENDROOT
BRANCH   1   2
ATOM      2  C   UNL     1      17.493  37.955  46.379  1.00  0.00     0.000 C 
BRANCH   2   3
ATOM      3  C   UNL     1      18.830  38.618  46.758  1.00  0.00     0.000 C 
BRANCH   3   4
ATOM      4  C   UNL     1      19.941  37.593  47.036  1.00  0.00     0.000 C 
BRANCH   4   5
ATOM      5  C   UNL     1      19.742  36.280  46.263  1.00  0.00     0.006 C 
BRANCH   5   6
ATOM      6  C   UNL     1      20.410  36.350  44.887  1.00  0.00     0.053 C 
BRANCH   6   7
ATOM      7  C   UNL     1      20.859  34.990  44.453  1.00  0.00     0.041 C 
ATOM      8  O   UNL     1      20.876  34.037  45.274  1.00  0.00    -0.550 OA
ATOM      9  O   UNL     1      21.306  34.788  43.152  1.00  0.00    -0.550 OA
ENDBRANCH   6   7
ENDBRANCH   5   6
ENDBRANCH   4   5
ENDBRANCH   3   4
ENDBRANCH   2   3
ENDBRANCH   1   2
BRANCH   1  10
ATOM     10  C   UNL     1      16.018  39.727  47.532  1.00  0.00     0.000 C 
BRANCH  10  11
ATOM     11  C   UNL     1      14.538  40.121  47.629  1.00  0.00    -0.000 C 
BRANCH  11  12
ATOM     12  C   UNL     1      13.770  39.691  46.370  1.00  0.00    -0.000 C 
BRANCH  12  13
ATOM     13  C   UNL     1      13.396  38.197  46.377  1.00  0.00    -0.000 C 
BRANCH  13  14
ATOM     14  C   UNL     1      13.216  37.576  47.774  1.00  0.00    -0.000 C 
BRANCH  14  15
ATOM     15  C   UNL     1      13.738  36.135  47.862  1.00  0.00    -0.003 C 
ATOM     16  C   UNL     1      15.057  36.074  48.624  1.00  0.00     0.004 C 
ENDBRANCH  14  15
ENDBRANCH  13  14
ENDBRANCH  12  13
ENDBRANCH  11  12
ENDBRANCH  10  11
ENDBRANCH   1  10
TORSDOF 12
ENDMDL
MODEL 5
REMARK VINA RESULT:     6.163      2.133      3.423
REMARK INTER + INTRA:          10.294
REMARK INTER:                  11.165
REMARK INTRA:                  -0.871
REMARK UNBOUND:                -0.193
REMARK SMILES CCCCCCCCCCCCCC(=O)[O-]
REMARK SMILES IDX 8 1 9 2 10 3 11 4 12 5 13 6 14 7 15 8 16 9 7 10 6 11 5 12
REMARK SMILES IDX 4 13 3 14 2 15 1 16
REMARK H PARENT
REMARK Flexibility Score: inf
ROOT
ATOM      1  C   UNL     1      14.520  39.977  46.319  1.00  0.00     0.000 C 
ENDROOT
BRANCH   1   2
ATOM      2  C   UNL     1      13.448  38.881  46.510  1.00  0.00     0.000 C 
BRANCH   2   3
ATOM      3  C   UNL     1      13.804  37.915  47.655  1.00  0.00     0.000 C 
BRANCH   3   4
ATOM      4  C   UNL     1      13.025  36.593  47.577  1.00  0.00     0.000 C 
BRANCH   4   5
ATOM      5  C   UNL     1      13.764  35.430  48.256  1.00  0.00     0.006 C 
BRANCH   5   6
ATOM      6  C   UNL     1      15.222  35.801  48.541  1.00  0.00     0.053 C 
BRANCH   6   7
ATOM      7  C   UNL     1      15.601  35.407  49.934  1.00  0.00     0.041 C 
ATOM      8  O   UNL     1      15.317  34.261  50.367  1.00  0.00    -0.550 OA
ATOM      9  O   UNL     1      16.223  36.326  50.771  1.00  0.00    -0.550 OA
ENDBRANCH   6   7
ENDBRANCH   5   6
ENDBRANCH   4   5
ENDBRANCH   3   4
ENDBRANCH   2   3
ENDBRANCH   1   2
BRANCH   1  10
ATOM     10  C   UNL     1      15.905  39.582  46.862  1.00  0.00     0.000 C 
BRANCH  10  11
ATOM     11  C   UNL     1      16.604  38.524  45.999  1.00  0.00    -0.000 C 
BRANCH  11  12
ATOM     12  C   UNL     1      17.579  37.684  46.837  1.00  0.00    -0.000 C 
BRANCH  12  13
ATOM     13  C   UNL     1      18.983  37.591  46.209  1.00  0.00    -0.000 C 
BRANCH  13  14
ATOM     14  C   UNL     1      20.150  37.824  47.185  1.00  0.00    -0.000 C 
BRANCH  14  15
ATOM     15  C   UNL     1      20.498  39.310  47.360  1.00  0.00    -0.003 C 
ATOM     16  C   UNL     1      20.049  40.125  46.152  1.00  0.00     0.004 C 
ENDBRANCH  14  15
ENDBRANCH  13  14
ENDBRANCH  12  13
ENDBRANCH  11  12
ENDBRANCH  10  11
ENDBRANCH   1  10
TORSDOF 12
ENDMDL
MODEL 6
REMARK VINA RESULT:     7.079      2.481      5.866
REMARK INTER + INTRA:          11.852
REMARK INTER:                  10.610
REMARK INTRA:                   1.241
REMARK UNBOUND:                -0.193
REMARK SMILES CCCCCCCCCCCCCC(=O)[O-]
REMARK SMILES IDX 8 1 9 2 10 3 11 4 12 5 13 6 14 7 15 8 16 9 7 10 6 11 5 12
REMARK SMILES IDX 4 13 3 14 2 15 1 16
REMARK H PARENT
REMARK Flexibility Score: inf
ROOT
ATOM      1  C   UNL     1      14.206  40.125  47.499  1.00  0.00     0.000 C 
ENDROOT
BRANCH   1   2
ATOM      2  C   UNL     1      15.542  39.369  47.678  1.00  0.00     0.000 C 
BRANCH   2   3
ATOM      3  C   UNL     1      16.182  38.997  46.329  1.00  0.00     0.000 C 
BRANCH   3   4
ATOM      4  C   UNL     1      17.505  38.233  46.492  1.00  0.00     0.000 C 
BRANCH   4   5
ATOM      5  C   UNL     1      18.700  39.165  46.743  1.00  0.00     0.006 C 
BRANCH   5   6
ATOM      6  C   UNL     1      19.974  38.359  47.012  1.00  0.00     0.053 C 
BRANCH   6   7
ATOM      7  C   UNL     1      19.810  36.947  46.546  1.00  0.00     0.041 C 
ATOM      8  O   UNL     1      19.033  36.681  45.593  1.00  0.00    -0.550 OA
ATOM      9  O   UNL     1      20.477  35.918  47.200  1.00  0.00    -0.550 OA
ENDBRANCH   6   7
ENDBRANCH   5   6
ENDBRANCH   4   5
ENDBRANCH   3   4
ENDBRANCH   2   3
ENDBRANCH   1   2
BRANCH   1  10
ATOM     10  C   UNL     1      13.449  39.738  46.218  1.00  0.00     0.000 C 
BRANCH  10  11
ATOM     11  C   UNL     1      12.991  38.274  46.215  1.00  0.00    -0.000 C 
BRANCH  11  12
ATOM     12  C   UNL     1      13.371  37.575  47.529  1.00  0.00    -0.000 C 
BRANCH  12  13
ATOM     13  C   UNL     1      13.047  36.068  47.522  1.00  0.00    -0.000 C 
BRANCH  13  14
ATOM     14  C   UNL     1      13.964  35.200  48.403  1.00  0.00    -0.000 C 
BRANCH  14  15
ATOM     15  C   UNL     1      15.292  35.890  48.748  1.00  0.00    -0.003 C 
ATOM     16  C   UNL     1      15.671  35.653  50.206  1.00  0.00     0.004 C 
ENDBRANCH  14  15
ENDBRANCH  13  14
ENDBRANCH  12  13
ENDBRANCH  11  12
ENDBRANCH  10  11
ENDBRANCH   1  10
TORSDOF 12
ENDMDL
