MODEL 1
REMARK VINA RESULT:    -4.559      0.000      0.000
REMARK INTER + INTRA:          -5.106
REMARK INTER:                  -4.958
REMARK INTRA:                  -0.148
REMARK UNBOUND:                -0.148
REMARK SMILES C=C(C)[C@@H]1CC=C(C)[C@H](O)C1
REMARK SMILES IDX 8 1 7 2 6 3 5 4 4 5 11 6 9 7 10 8 2 10 1 11 3 12
REMARK H PARENT 10 9
REMARK Flexibility Score: inf
ROOT
ATOM      1  C   UNL     1     131.425 130.869 137.003  1.00  0.00     0.042 C 
ATOM      2  C   UNL     1     132.387 131.999 137.243  1.00  0.00    -0.049 C 
ATOM      3  C   UNL     1     133.607 131.974 136.681  1.00  0.00    -0.025 C 
ATOM      4  C   UNL     1     134.579 133.084 136.968  1.00  0.00     0.035 C 
ATOM      5  C   UNL     1     134.600 133.395 138.483  1.00  0.00     0.021 C 
ATOM      6  C   UNL     1     133.174 133.473 139.123  1.00  0.00     0.044 C 
ATOM      7  C   UNL     1     132.019 133.161 138.146  1.00  0.00     0.140 C 
ENDROOT
BRANCH   7   8
ATOM      8  O   UNL     1     131.749 134.298 137.368  1.00  0.00    -0.389 OA
ATOM      9  H   UNL     1     132.310 134.225 136.552  1.00  0.00     0.211 HD
ENDBRANCH   7   8
BRANCH   5  10
ATOM     10  C   UNL     1     135.420 134.646 138.767  1.00  0.00    -0.077 C 
ATOM     11  C   UNL     1     136.756 134.579 138.905  1.00  0.00     0.008 C 
ATOM     12  C   UNL     1     134.744 135.986 138.901  1.00  0.00     0.039 C 
ENDBRANCH   5  10
TORSDOF 2
ENDMDL
MODEL 2
REMARK VINA RESULT:    -4.344      1.601      4.366
REMARK INTER + INTRA:          -4.872
REMARK INTER:                  -4.720
REMARK INTRA:                  -0.152
REMARK UNBOUND:                -0.148
REMARK SMILES C=C(C)[C@@H]1CC=C(C)[C@H](O)C1
REMARK SMILES IDX 8 1 7 2 6 3 5 4 4 5 11 6 9 7 10 8 2 10 1 11 3 12
REMARK H PARENT 10 9
REMARK Flexibility Score: inf
ROOT
ATOM      1  C   UNL     1     134.500 136.125 139.247  1.00  0.00     0.042 C 
ATOM      2  C   UNL     1     133.971 134.937 138.494  1.00  0.00    -0.049 C 
ATOM      3  C   UNL     1     132.677 134.890 138.136  1.00  0.00    -0.025 C 
ATOM      4  C   UNL     1     132.147 133.675 137.426  1.00  0.00     0.035 C 
ATOM      5  C   UNL     1     132.643 132.390 138.128  1.00  0.00     0.021 C 
ATOM      6  C   UNL     1     134.163 132.429 138.499  1.00  0.00     0.044 C 
ATOM      7  C   UNL     1     134.868 133.761 138.158  1.00  0.00     0.140 C 
ENDROOT
BRANCH   7   8
ATOM      8  O   UNL     1     135.185 133.781 136.791  1.00  0.00    -0.389 OA
ATOM      9  H   UNL     1     135.910 133.117 136.657  1.00  0.00     0.211 HD
ENDBRANCH   7   8
BRANCH   5  10
ATOM     10  C   UNL     1     132.288 131.155 137.311  1.00  0.00    -0.077 C 
ATOM     11  C   UNL     1     132.663 131.047 136.025  1.00  0.00     0.008 C 
ATOM     12  C   UNL     1     131.506 130.028 137.935  1.00  0.00     0.039 C 
ENDBRANCH   5  10
TORSDOF 2
ENDMDL
MODEL 3
REMARK VINA RESULT:    -4.123      1.728      4.445
REMARK INTER + INTRA:          -4.632
REMARK INTER:                  -4.486
REMARK INTRA:                  -0.146
REMARK UNBOUND:                -0.148
REMARK SMILES C=C(C)[C@@H]1CC=C(C)[C@H](O)C1
REMARK SMILES IDX 8 1 7 2 6 3 5 4 4 5 11 6 9 7 10 8 2 10 1 11 3 12
REMARK H PARENT 10 9
REMARK Flexibility Score: inf
ROOT
ATOM      1  C   UNL     1     137.743 133.974 139.997  1.00  0.00     0.042 C 
ATOM      2  C   UNL     1     136.342 134.043 139.456  1.00  0.00    -0.049 C 
ATOM      3  C   UNL     1     135.294 133.874 140.280  1.00  0.00    -0.025 C 
ATOM      4  C   UNL     1     133.899 133.896 139.720  1.00  0.00     0.035 C 
ATOM      5  C   UNL     1     133.826 133.034 138.439  1.00  0.00     0.021 C 
ATOM      6  C   UNL     1     135.023 133.271 137.458  1.00  0.00     0.044 C 
ATOM      7  C   UNL     1     136.084 134.266 137.978  1.00  0.00     0.140 C 
ENDROOT
BRANCH   7   8
ATOM      8  O   UNL     1     135.632 135.578 137.768  1.00  0.00    -0.389 OA
ATOM      9  H   UNL     1     135.575 135.705 136.784  1.00  0.00     0.211 HD
ENDBRANCH   7   8
BRANCH   5  10
ATOM     10  C   UNL     1     132.481 133.206 137.746  1.00  0.00    -0.077 C 
ATOM     11  C   UNL     1     131.946 134.427 137.570  1.00  0.00     0.008 C 
ATOM     12  C   UNL     1     131.722 132.004 137.246  1.00  0.00     0.039 C 
ENDBRANCH   5  10
TORSDOF 2
ENDMDL
MODEL 4
REMARK VINA RESULT:    -2.858      1.045      1.607
REMARK INTER + INTRA:          -3.256
REMARK INTER:                  -3.150
REMARK INTRA:                  -0.106
REMARK UNBOUND:                -0.148
REMARK SMILES C=C(C)[C@@H]1CC=C(C)[C@H](O)C1
REMARK SMILES IDX 8 1 7 2 6 3 5 4 4 5 11 6 9 7 10 8 2 10 1 11 3 12
REMARK H PARENT 10 9
REMARK Flexibility Score: inf
ROOT
ATOM      1  C   UNL     1     130.746 130.745 138.160  1.00  0.00     0.042 C 
ATOM      2  C   UNL     1     131.896 131.584 137.678  1.00  0.00    -0.049 C 
ATOM      3  C   UNL     1     132.717 131.115 136.723  1.00  0.00    -0.025 C 
ATOM      4  C   UNL     1     133.893 131.941 136.283  1.00  0.00     0.035 C 
ATOM      5  C   UNL     1     134.635 132.509 137.515  1.00  0.00     0.021 C 
ATOM      6  C   UNL     1     133.677 133.100 138.603  1.00  0.00     0.044 C 
ATOM      7  C   UNL     1     132.175 132.949 138.278  1.00  0.00     0.140 C 
ENDROOT
BRANCH   7   8
ATOM      8  O   UNL     1     131.792 133.952 137.373  1.00  0.00    -0.389 OA
ATOM      9  H   UNL     1     131.498 133.491 136.544  1.00  0.00     0.211 HD
ENDBRANCH   7   8
BRANCH   5  10
ATOM     10  C   UNL     1     135.702 133.509 137.091  1.00  0.00    -0.077 C 
ATOM     11  C   UNL     1     136.255 133.452 135.868  1.00  0.00     0.008 C 
ATOM     12  C   UNL     1     136.157 134.586 138.042  1.00  0.00     0.039 C 
ENDBRANCH   5  10
TORSDOF 2
ENDMDL
MODEL 5
REMARK VINA RESULT:    -2.703      1.448      4.167
REMARK INTER + INTRA:          -3.088
REMARK INTER:                  -2.945
REMARK INTRA:                  -0.143
REMARK UNBOUND:                -0.148
REMARK SMILES C=C(C)[C@@H]1CC=C(C)[C@H](O)C1
REMARK SMILES IDX 8 1 7 2 6 3 5 4 4 5 11 6 9 7 10 8 2 10 1 11 3 12
REMARK H PARENT 10 9
REMARK Flexibility Score: inf
ROOT
ATOM      1  C   UNL     1     135.246 136.125 138.499  1.00  0.00     0.042 C 
ATOM      2  C   UNL     1     134.538 134.800 138.438  1.00  0.00    -0.049 C 
ATOM      3  C   UNL     1     135.110 133.761 137.807  1.00  0.00    -0.025 C 
ATOM      4  C   UNL     1     134.372 132.455 137.709  1.00  0.00     0.035 C 
ATOM      5  C   UNL     1     132.904 132.704 137.290  1.00  0.00     0.021 C 
ATOM      6  C   UNL     1     132.226 133.883 138.063  1.00  0.00     0.044 C 
ATOM      7  C   UNL     1     133.161 134.621 139.048  1.00  0.00     0.140 C 
ENDROOT
BRANCH   7   8
ATOM      8  O   UNL     1     133.261 133.879 140.235  1.00  0.00    -0.389 OA
ATOM      9  H   UNL     1     133.645 132.997 139.989  1.00  0.00     0.211 HD
ENDBRANCH   7   8
BRANCH   5  10
ATOM     10  C   UNL     1     132.090 131.420 137.382  1.00  0.00    -0.077 C 
ATOM     11  C   UNL     1     132.230 130.446 136.467  1.00  0.00     0.008 C 
ATOM     12  C   UNL     1     131.108 131.220 138.508  1.00  0.00     0.039 C 
ENDBRANCH   5  10
TORSDOF 2
ENDMDL
MODEL 6
REMARK VINA RESULT:    -2.582      2.038      4.385
REMARK INTER + INTRA:          -2.956
REMARK INTER:                  -2.826
REMARK INTRA:                  -0.130
REMARK UNBOUND:                -0.148
REMARK SMILES C=C(C)[C@@H]1CC=C(C)[C@H](O)C1
REMARK SMILES IDX 8 1 7 2 6 3 5 4 4 5 11 6 9 7 10 8 2 10 1 11 3 12
REMARK H PARENT 10 9
REMARK Flexibility Score: inf
ROOT
ATOM      1  C   UNL     1     138.252 134.286 139.971  1.00  0.00     0.042 C 
ATOM      2  C   UNL     1     136.875 134.019 139.430  1.00  0.00    -0.049 C 
ATOM      3  C   UNL     1     136.669 133.985 138.103  1.00  0.00    -0.025 C 
ATOM      4  C   UNL     1     135.279 133.767 137.573  1.00  0.00     0.035 C 
ATOM      5  C   UNL     1     134.273 134.660 138.335  1.00  0.00     0.021 C 
ATOM      6  C   UNL     1     134.485 134.656 139.886  1.00  0.00     0.044 C 
ATOM      7  C   UNL     1     135.694 133.821 140.361  1.00  0.00     0.140 C 
ENDROOT
BRANCH   7   8
ATOM      8  O   UNL     1     135.337 132.464 140.392  1.00  0.00    -0.389 OA
ATOM      9  H   UNL     1     136.169 131.946 140.229  1.00  0.00     0.211 HD
ENDBRANCH   7   8
BRANCH   5  10
ATOM     10  C   UNL     1     132.841 134.307 137.956  1.00  0.00    -0.077 C 
ATOM     11  C   UNL     1     131.904 135.262 137.830  1.00  0.00     0.008 C 
ATOM     12  C   UNL     1     132.448 132.872 137.716  1.00  0.00     0.039 C 
ENDBRANCH   5  10
TORSDOF 2
ENDMDL
MODEL 7
REMARK VINA RESULT:    -2.373      1.950      3.034
REMARK INTER + INTRA:          -2.729
REMARK INTER:                  -2.599
REMARK INTRA:                  -0.130
REMARK UNBOUND:                -0.148
REMARK SMILES C=C(C)[C@@H]1CC=C(C)[C@H](O)C1
REMARK SMILES IDX 8 1 7 2 6 3 5 4 4 5 11 6 9 7 10 8 2 10 1 11 3 12
REMARK H PARENT 10 9
REMARK Flexibility Score: inf
ROOT
ATOM      1  C   UNL     1     131.857 135.008 137.312  1.00  0.00     0.042 C 
ATOM      2  C   UNL     1     133.011 134.462 138.106  1.00  0.00    -0.049 C 
ATOM      3  C   UNL     1     133.228 134.895 139.360  1.00  0.00    -0.025 C 
ATOM      4  C   UNL     1     134.414 134.380 140.127  1.00  0.00     0.035 C 
ATOM      5  C   UNL     1     135.676 134.402 139.234  1.00  0.00     0.021 C 
ATOM      6  C   UNL     1     135.429 133.851 137.791  1.00  0.00     0.044 C 
ATOM      7  C   UNL     1     133.966 133.450 137.503  1.00  0.00     0.140 C 
ENDROOT
BRANCH   7   8
ATOM      8  O   UNL     1     133.717 132.180 138.048  1.00  0.00    -0.389 OA
ATOM      9  H   UNL     1     132.924 131.817 137.573  1.00  0.00     0.211 HD
ENDBRANCH   7   8
BRANCH   5  10
ATOM     10  C   UNL     1     136.838 133.698 139.922  1.00  0.00    -0.077 C 
ATOM     11  C   UNL     1     138.095 134.160 139.801  1.00  0.00     0.008 C 
ATOM     12  C   UNL     1     136.596 132.465 140.753  1.00  0.00     0.039 C 
ENDBRANCH   5  10
TORSDOF 2
ENDMDL
MODEL 8
REMARK VINA RESULT:    -2.244      1.377      2.278
REMARK INTER + INTRA:          -2.588
REMARK INTER:                  -2.455
REMARK INTRA:                  -0.133
REMARK UNBOUND:                -0.148
REMARK SMILES C=C(C)[C@@H]1CC=C(C)[C@H](O)C1
REMARK SMILES IDX 8 1 7 2 6 3 5 4 4 5 11 6 9 7 10 8 2 10 1 11 3 12
REMARK H PARENT 10 9
REMARK Flexibility Score: inf
ROOT
ATOM      1  C   UNL     1     131.288 131.129 136.294  1.00  0.00     0.042 C 
ATOM      2  C   UNL     1     132.231 131.977 137.101  1.00  0.00    -0.049 C 
ATOM      3  C   UNL     1     131.751 132.968 137.871  1.00  0.00    -0.025 C 
ATOM      4  C   UNL     1     132.706 133.842 138.636  1.00  0.00     0.035 C 
ATOM      5  C   UNL     1     133.877 134.276 137.724  1.00  0.00     0.021 C 
ATOM      6  C   UNL     1     134.465 133.108 136.865  1.00  0.00     0.044 C 
ATOM      7  C   UNL     1     133.730 131.760 137.035  1.00  0.00     0.140 C 
ENDROOT
BRANCH   7   8
ATOM      8  O   UNL     1     134.171 131.136 138.213  1.00  0.00    -0.389 OA
ATOM      9  H   UNL     1     135.013 130.661 137.986  1.00  0.00     0.211 HD
ENDBRANCH   7   8
BRANCH   5  10
ATOM     10  C   UNL     1     134.954 134.989 138.529  1.00  0.00    -0.077 C 
ATOM     11  C   UNL     1     134.681 136.123 139.197  1.00  0.00     0.008 C 
ATOM     12  C   UNL     1     136.353 134.432 138.590  1.00  0.00     0.039 C 
ENDBRANCH   5  10
TORSDOF 2
ENDMDL
MODEL 9
REMARK VINA RESULT:    -1.710      1.355      1.881
REMARK INTER + INTRA:          -2.008
REMARK INTER:                  -1.861
REMARK INTRA:                  -0.146
REMARK UNBOUND:                -0.148
REMARK SMILES C=C(C)[C@@H]1CC=C(C)[C@H](O)C1
REMARK SMILES IDX 8 1 7 2 6 3 5 4 4 5 11 6 9 7 10 8 2 10 1 11 3 12
REMARK H PARENT 10 9
REMARK Flexibility Score: inf
ROOT
ATOM      1  C   UNL     1     131.743 129.056 137.408  1.00  0.00     0.042 C 
ATOM      2  C   UNL     1     132.240 130.473 137.347  1.00  0.00    -0.049 C 
ATOM      3  C   UNL     1     133.440 130.741 136.805  1.00  0.00    -0.025 C 
ATOM      4  C   UNL     1     133.950 132.155 136.793  1.00  0.00     0.035 C 
ATOM      5  C   UNL     1     133.735 132.810 138.177  1.00  0.00     0.021 C 
ATOM      6  C   UNL     1     132.318 132.537 138.782  1.00  0.00     0.044 C 
ATOM      7  C   UNL     1     131.425 131.615 137.923  1.00  0.00     0.140 C 
ENDROOT
BRANCH   7   8
ATOM      8  O   UNL     1     130.853 132.362 136.881  1.00  0.00    -0.389 OA
ATOM      9  H   UNL     1     130.189 132.971 137.299  1.00  0.00     0.211 HD
ENDBRANCH   7   8
BRANCH   5  10
ATOM     10  C   UNL     1     134.056 134.297 138.128  1.00  0.00    -0.077 C 
ATOM     11  C   UNL     1     133.078 135.217 138.193  1.00  0.00     0.008 C 
ATOM     12  C   UNL     1     135.483 134.765 138.003  1.00  0.00     0.039 C 
ENDBRANCH   5  10
TORSDOF 2
ENDMDL
