MODEL 1
REMARK VINA RESULT:    -3.678      0.000      0.000
REMARK INTER + INTRA:          -5.445
REMARK INTER:                  -4.968
REMARK INTRA:                  -0.477
REMARK UNBOUND:                -0.477
REMARK SMILES CCCCCCCC(=O)[O-]
REMARK SMILES IDX 5 1 6 2 7 3 8 4 9 5 10 6 4 7 3 8 2 9 1 10
REMARK H PARENT
REMARK Flexibility Score: inf
ROOT
ATOM      1  C   UNL     1     -14.756   5.210 -24.583  1.00  0.00     0.000 C 
ENDROOT
BRANCH   1   2
ATOM      2  C   UNL     1     -15.962   6.168 -24.689  1.00  0.00     0.006 C 
BRANCH   2   3
ATOM      3  C   UNL     1     -16.678   6.359 -23.345  1.00  0.00     0.053 C 
BRANCH   3   4
ATOM      4  C   UNL     1     -17.095   7.786 -23.173  1.00  0.00     0.041 C 
ATOM      5  O   UNL     1     -17.725   8.142 -22.143  1.00  0.00    -0.550 OA
ATOM      6  O   UNL     1     -16.833   8.713 -24.175  1.00  0.00    -0.550 OA
ENDBRANCH   3   4
ENDBRANCH   2   3
ENDBRANCH   1   2
BRANCH   1   7
ATOM      7  C   UNL     1     -14.035   5.267 -23.223  1.00  0.00     0.000 C 
BRANCH   7   8
ATOM      8  C   UNL     1     -13.707   3.895 -22.602  1.00  0.00    -0.000 C 
BRANCH   8   9
ATOM      9  C   UNL     1     -14.848   2.863 -22.675  1.00  0.00    -0.003 C 
ATOM     10  C   UNL     1     -15.942   3.110 -21.637  1.00  0.00     0.004 C 
ENDBRANCH   8   9
ENDBRANCH   7   8
ENDBRANCH   1   7
TORSDOF 6
ENDMDL
MODEL 2
REMARK VINA RESULT:    -3.659     13.854     15.387
REMARK INTER + INTRA:          -5.420
REMARK INTER:                  -4.957
REMARK INTRA:                  -0.463
REMARK UNBOUND:                -0.477
REMARK SMILES CCCCCCCC(=O)[O-]
REMARK SMILES IDX 5 1 6 2 7 3 8 4 9 5 10 6 4 7 3 8 2 9 1 10
REMARK H PARENT
REMARK Flexibility Score: inf
ROOT
ATOM      1  C   UNL     1      -8.636   4.193 -34.820  1.00  0.00     0.000 C 
ENDROOT
BRANCH   1   2
ATOM      2  C   UNL     1      -7.209   3.643 -35.027  1.00  0.00     0.006 C 
BRANCH   2   3
ATOM      3  C   UNL     1      -6.477   4.334 -36.185  1.00  0.00     0.053 C 
BRANCH   3   4
ATOM      4  C   UNL     1      -6.661   3.564 -37.454  1.00  0.00     0.041 C 
ATOM      5  O   UNL     1      -5.770   2.766 -37.846  1.00  0.00    -0.550 OA
ATOM      6  O   UNL     1      -7.796   3.765 -38.231  1.00  0.00    -0.550 OA
ENDBRANCH   3   4
ENDBRANCH   2   3
ENDBRANCH   1   2
BRANCH   1   7
ATOM      7  C   UNL     1      -8.684   5.509 -34.021  1.00  0.00     0.000 C 
BRANCH   7   8
ATOM      8  C   UNL     1      -7.930   5.483 -32.678  1.00  0.00    -0.000 C 
BRANCH   8   9
ATOM      9  C   UNL     1      -7.021   6.701 -32.423  1.00  0.00    -0.003 C 
ATOM     10  C   UNL     1      -6.036   6.958 -33.562  1.00  0.00     0.004 C 
ENDBRANCH   8   9
ENDBRANCH   7   8
ENDBRANCH   1   7
TORSDOF 6
ENDMDL
MODEL 3
REMARK VINA RESULT:    -3.626     13.121     14.540
REMARK INTER + INTRA:          -5.375
REMARK INTER:                  -4.898
REMARK INTRA:                  -0.477
REMARK UNBOUND:                -0.477
REMARK SMILES CCCCCCCC(=O)[O-]
REMARK SMILES IDX 5 1 6 2 7 3 8 4 9 5 10 6 4 7 3 8 2 9 1 10
REMARK H PARENT
REMARK Flexibility Score: inf
ROOT
ATOM      1  C   UNL     1      -7.921   5.786 -32.763  1.00  0.00     0.000 C 
ENDROOT
BRANCH   1   2
ATOM      2  C   UNL     1      -6.566   6.525 -32.793  1.00  0.00     0.006 C 
BRANCH   2   3
ATOM      3  C   UNL     1      -6.108   6.850 -34.221  1.00  0.00     0.053 C 
BRANCH   3   4
ATOM      4  C   UNL     1      -5.398   8.166 -34.256  1.00  0.00     0.041 C 
ATOM      5  O   UNL     1      -5.834   9.140 -33.587  1.00  0.00    -0.550 OA
ATOM      6  O   UNL     1      -4.280   8.332 -35.065  1.00  0.00    -0.550 OA
ENDBRANCH   3   4
ENDBRANCH   2   3
ENDBRANCH   1   2
BRANCH   1   7
ATOM      7  C   UNL     1      -8.472   5.442 -34.160  1.00  0.00     0.000 C 
BRANCH   7   8
ATOM      8  C   UNL     1      -8.620   3.937 -34.449  1.00  0.00    -0.000 C 
BRANCH   8   9
ATOM      9  C   UNL     1      -7.290   3.167 -34.565  1.00  0.00    -0.003 C 
ATOM     10  C   UNL     1      -6.538   3.472 -35.860  1.00  0.00     0.004 C 
ENDBRANCH   8   9
ENDBRANCH   7   8
ENDBRANCH   1   7
TORSDOF 6
ENDMDL
MODEL 4
REMARK VINA RESULT:    -3.599     13.541     14.959
REMARK INTER + INTRA:          -5.339
REMARK INTER:                  -5.123
REMARK INTRA:                  -0.216
REMARK UNBOUND:                -0.477
REMARK SMILES CCCCCCCC(=O)[O-]
REMARK SMILES IDX 5 1 6 2 7 3 8 4 9 5 10 6 4 7 3 8 2 9 1 10
REMARK H PARENT
REMARK Flexibility Score: inf
ROOT
ATOM      1  C   UNL     1      -8.365   3.932 -34.786  1.00  0.00     0.000 C 
ENDROOT
BRANCH   1   2
ATOM      2  C   UNL     1      -8.589   5.327 -34.162  1.00  0.00     0.006 C 
BRANCH   2   3
ATOM      3  C   UNL     1      -7.868   5.490 -32.818  1.00  0.00     0.053 C 
BRANCH   3   4
ATOM      4  C   UNL     1      -6.886   6.617 -32.885  1.00  0.00     0.041 C 
ATOM      5  O   UNL     1      -5.986   6.621 -33.766  1.00  0.00    -0.550 OA
ATOM      6  O   UNL     1      -6.932   7.638 -31.943  1.00  0.00    -0.550 OA
ENDBRANCH   3   4
ENDBRANCH   2   3
ENDBRANCH   1   2
BRANCH   1   7
ATOM      7  C   UNL     1      -7.620   3.967 -36.133  1.00  0.00     0.000 C 
BRANCH   7   8
ATOM      8  C   UNL     1      -6.213   3.340 -36.115  1.00  0.00    -0.000 C 
BRANCH   8   9
ATOM      9  C   UNL     1      -5.639   2.999 -37.503  1.00  0.00    -0.003 C 
ATOM     10  C   UNL     1      -4.136   2.728 -37.477  1.00  0.00     0.004 C 
ENDBRANCH   8   9
ENDBRANCH   7   8
ENDBRANCH   1   7
TORSDOF 6
ENDMDL
MODEL 5
REMARK VINA RESULT:    -3.588     12.908     14.243
REMARK INTER + INTRA:          -5.324
REMARK INTER:                  -5.138
REMARK INTRA:                  -0.186
REMARK UNBOUND:                -0.477
REMARK SMILES CCCCCCCC(=O)[O-]
REMARK SMILES IDX 5 1 6 2 7 3 8 4 9 5 10 6 4 7 3 8 2 9 1 10
REMARK H PARENT
REMARK Flexibility Score: inf
ROOT
ATOM      1  C   UNL     1      -8.863   2.932 -35.939  1.00  0.00     0.000 C 
ENDROOT
BRANCH   1   2
ATOM      2  C   UNL     1     -10.137   2.213 -35.444  1.00  0.00     0.006 C 
BRANCH   2   3
ATOM      3  C   UNL     1     -11.042   1.764 -36.599  1.00  0.00     0.053 C 
BRANCH   3   4
ATOM      4  C   UNL     1     -12.476   2.042 -36.278  1.00  0.00     0.041 C 
ATOM      5  O   UNL     1     -13.217   2.609 -37.124  1.00  0.00    -0.550 OA
ATOM      6  O   UNL     1     -12.983   1.720 -35.025  1.00  0.00    -0.550 OA
ENDBRANCH   3   4
ENDBRANCH   2   3
ENDBRANCH   1   2
BRANCH   1   7
ATOM      7  C   UNL     1      -7.901   3.338 -34.807  1.00  0.00     0.000 C 
BRANCH   7   8
ATOM      8  C   UNL     1      -6.930   4.482 -35.156  1.00  0.00    -0.000 C 
BRANCH   8   9
ATOM      9  C   UNL     1      -7.080   5.745 -34.288  1.00  0.00    -0.003 C 
ATOM     10  C   UNL     1      -7.811   5.480 -32.973  1.00  0.00     0.004 C 
ENDBRANCH   8   9
ENDBRANCH   7   8
ENDBRANCH   1   7
TORSDOF 6
ENDMDL
MODEL 6
REMARK VINA RESULT:    -3.532     13.820     15.280
REMARK INTER + INTRA:          -5.248
REMARK INTER:                  -5.069
REMARK INTRA:                  -0.179
REMARK UNBOUND:                -0.477
REMARK SMILES CCCCCCCC(=O)[O-]
REMARK SMILES IDX 5 1 6 2 7 3 8 4 9 5 10 6 4 7 3 8 2 9 1 10
REMARK H PARENT
REMARK Flexibility Score: inf
ROOT
ATOM      1  C   UNL     1      -6.000   7.038 -34.231  1.00  0.00     0.000 C 
ENDROOT
BRANCH   1   2
ATOM      2  C   UNL     1      -6.260   6.542 -32.793  1.00  0.00     0.006 C 
BRANCH   2   3
ATOM      3  C   UNL     1      -7.735   6.192 -32.551  1.00  0.00     0.053 C 
BRANCH   3   4
ATOM      4  C   UNL     1      -8.206   5.192 -33.560  1.00  0.00     0.041 C 
ATOM      5  O   UNL     1      -7.690   4.045 -33.604  1.00  0.00    -0.550 OA
ATOM      6  O   UNL     1      -9.182   5.545 -34.484  1.00  0.00    -0.550 OA
ENDBRANCH   3   4
ENDBRANCH   2   3
ENDBRANCH   1   2
BRANCH   1   7
ATOM      7  C   UNL     1      -5.096   8.283 -34.304  1.00  0.00     0.000 C 
BRANCH   7   8
ATOM      8  C   UNL     1      -3.828   8.118 -35.163  1.00  0.00    -0.000 C 
BRANCH   8   9
ATOM      9  C   UNL     1      -2.523   8.571 -34.483  1.00  0.00    -0.003 C 
ATOM     10  C   UNL     1      -1.315   7.726 -34.887  1.00  0.00     0.004 C 
ENDBRANCH   8   9
ENDBRANCH   7   8
ENDBRANCH   1   7
TORSDOF 6
ENDMDL
MODEL 7
REMARK VINA RESULT:    -3.480      5.047      6.682
REMARK INTER + INTRA:          -5.178
REMARK INTER:                  -5.039
REMARK INTRA:                  -0.139
REMARK UNBOUND:                -0.477
REMARK SMILES CCCCCCCC(=O)[O-]
REMARK SMILES IDX 5 1 6 2 7 3 8 4 9 5 10 6 4 7 3 8 2 9 1 10
REMARK H PARENT
REMARK Flexibility Score: inf
ROOT
ATOM      1  C   UNL     1     -13.206   2.860 -21.974  1.00  0.00     0.000 C 
ENDROOT
BRANCH   1   2
ATOM      2  C   UNL     1     -12.576   1.452 -21.910  1.00  0.00     0.006 C 
BRANCH   2   3
ATOM      3  C   UNL     1     -11.527   1.330 -20.797  1.00  0.00     0.053 C 
BRANCH   3   4
ATOM      4  C   UNL     1     -10.182   1.754 -21.297  1.00  0.00     0.041 C 
ATOM      5  O   UNL     1      -9.498   2.587 -20.647  1.00  0.00    -0.550 OA
ATOM      6  O   UNL     1      -9.705   1.267 -22.508  1.00  0.00    -0.550 OA
ENDBRANCH   3   4
ENDBRANCH   2   3
ENDBRANCH   1   2
BRANCH   1   7
ATOM      7  C   UNL     1     -14.336   2.987 -23.013  1.00  0.00     0.000 C 
BRANCH   7   8
ATOM      8  C   UNL     1     -14.976   4.385 -23.111  1.00  0.00    -0.000 C 
BRANCH   8   9
ATOM      9  C   UNL     1     -14.822   5.071 -24.482  1.00  0.00    -0.003 C 
ATOM     10  C   UNL     1     -15.852   6.176 -24.713  1.00  0.00     0.004 C 
ENDBRANCH   8   9
ENDBRANCH   7   8
ENDBRANCH   1   7
TORSDOF 6
ENDMDL
MODEL 8
REMARK VINA RESULT:    -3.457     13.886     15.271
REMARK INTER + INTRA:          -5.147
REMARK INTER:                  -4.835
REMARK INTRA:                  -0.311
REMARK UNBOUND:                -0.477
REMARK SMILES CCCCCCCC(=O)[O-]
REMARK SMILES IDX 5 1 6 2 7 3 8 4 9 5 10 6 4 7 3 8 2 9 1 10
REMARK H PARENT
REMARK Flexibility Score: inf
ROOT
ATOM      1  C   UNL     1      -6.489   6.769 -32.886  1.00  0.00     0.000 C 
ENDROOT
BRANCH   1   2
ATOM      2  C   UNL     1      -6.133   6.896 -34.382  1.00  0.00     0.006 C 
BRANCH   2   3
ATOM      3  C   UNL     1      -5.147   8.040 -34.655  1.00  0.00     0.053 C 
BRANCH   3   4
ATOM      4  C   UNL     1      -4.777   8.077 -36.104  1.00  0.00     0.041 C 
ATOM      5  O   UNL     1      -4.944   7.060 -36.827  1.00  0.00    -0.550 OA
ATOM      6  O   UNL     1      -4.200   9.220 -36.645  1.00  0.00    -0.550 OA
ENDBRANCH   3   4
ENDBRANCH   2   3
ENDBRANCH   1   2
BRANCH   1   7
ATOM      7  C   UNL     1      -7.682   5.833 -32.609  1.00  0.00     0.000 C 
BRANCH   7   8
ATOM      8  C   UNL     1      -8.288   5.165 -33.858  1.00  0.00    -0.000 C 
BRANCH   8   9
ATOM      9  C   UNL     1      -8.000   3.658 -33.989  1.00  0.00    -0.003 C 
ATOM     10  C   UNL     1      -6.980   3.339 -35.081  1.00  0.00     0.004 C 
ENDBRANCH   8   9
ENDBRANCH   7   8
ENDBRANCH   1   7
TORSDOF 6
ENDMDL
MODEL 9
REMARK VINA RESULT:    -3.438     13.221     14.807
REMARK INTER + INTRA:          -5.121
REMARK INTER:                  -4.924
REMARK INTRA:                  -0.197
REMARK UNBOUND:                -0.477
REMARK SMILES CCCCCCCC(=O)[O-]
REMARK SMILES IDX 5 1 6 2 7 3 8 4 9 5 10 6 4 7 3 8 2 9 1 10
REMARK H PARENT
REMARK Flexibility Score: inf
ROOT
ATOM      1  C   UNL     1      -7.794   5.876 -32.641  1.00  0.00     0.000 C 
ENDROOT
BRANCH   1   2
ATOM      2  C   UNL     1      -8.119   5.314 -34.042  1.00  0.00     0.006 C 
BRANCH   2   3
ATOM      3  C   UNL     1      -8.001   3.785 -34.101  1.00  0.00     0.053 C 
BRANCH   3   4
ATOM      4  C   UNL     1      -8.574   3.266 -35.382  1.00  0.00     0.041 C 
ATOM      5  O   UNL     1      -8.060   3.593 -36.484  1.00  0.00    -0.550 OA
ATOM      6  O   UNL     1      -9.706   2.460 -35.362  1.00  0.00    -0.550 OA
ENDBRANCH   3   4
ENDBRANCH   2   3
ENDBRANCH   1   2
BRANCH   1   7
ATOM      7  C   UNL     1      -6.736   6.996 -32.652  1.00  0.00     0.000 C 
BRANCH   7   8
ATOM      8  C   UNL     1      -5.802   6.997 -33.876  1.00  0.00    -0.000 C 
BRANCH   8   9
ATOM      9  C   UNL     1      -5.217   8.374 -34.242  1.00  0.00    -0.003 C 
ATOM     10  C   UNL     1      -4.092   8.290 -35.273  1.00  0.00     0.004 C 
ENDBRANCH   8   9
ENDBRANCH   7   8
ENDBRANCH   1   7
TORSDOF 6
ENDMDL
