MODEL 1
REMARK VINA RESULT:    -4.284      0.000      0.000
REMARK INTER + INTRA:          -7.397
REMARK INTER:                  -6.539
REMARK INTRA:                  -0.858
REMARK UNBOUND:                -0.858
REMARK SMILES CCCCCCCCCCC(=O)[O-]
REMARK SMILES IDX 7 1 8 2 9 3 10 4 11 5 12 6 13 7 6 8 5 9 4 10 3 11 2 12 1 13
REMARK H PARENT
REMARK Flexibility Score: inf
ROOT
ATOM      1  C   UNL     1       4.288   9.329  28.931  1.00  0.00     0.000 C 
ENDROOT
BRANCH   1   2
ATOM      2  C   UNL     1       5.366   8.727  28.013  1.00  0.00     0.000 C 
BRANCH   2   3
ATOM      3  C   UNL     1       6.369   7.849  28.778  1.00  0.00     0.006 C 
BRANCH   3   4
ATOM      4  C   UNL     1       7.478   7.292  27.875  1.00  0.00     0.053 C 
BRANCH   4   5
ATOM      5  C   UNL     1       7.105   5.936  27.368  1.00  0.00     0.041 C 
ATOM      6  O   UNL     1       6.450   5.816  26.300  1.00  0.00    -0.550 OA
ATOM      7  O   UNL     1       7.439   4.804  28.101  1.00  0.00    -0.550 OA
ENDBRANCH   4   5
ENDBRANCH   3   4
ENDBRANCH   2   3
ENDBRANCH   1   2
BRANCH   1   8
ATOM      8  C   UNL     1       4.550   9.038  30.418  1.00  0.00     0.000 C 
BRANCH   8   9
ATOM      9  C   UNL     1       3.957  10.114  31.343  1.00  0.00    -0.000 C 
BRANCH   9  10
ATOM     10  C   UNL     1       5.022  10.802  32.217  1.00  0.00    -0.000 C 
BRANCH  10  11
ATOM     11  C   UNL     1       6.388  11.025  31.536  1.00  0.00    -0.000 C 
BRANCH  11  12
ATOM     12  C   UNL     1       7.573  10.312  32.210  1.00  0.00    -0.003 C 
ATOM     13  C   UNL     1       8.582   9.755  31.206  1.00  0.00     0.004 C 
ENDBRANCH  11  12
ENDBRANCH  10  11
ENDBRANCH   9  10
ENDBRANCH   8   9
ENDBRANCH   1   8
TORSDOF 9
ENDMDL
MODEL 2
REMARK VINA RESULT:    -4.230      1.528      2.972
REMARK INTER + INTRA:          -7.314
REMARK INTER:                  -6.419
REMARK INTRA:                  -0.894
REMARK UNBOUND:                -0.858
REMARK SMILES CCCCCCCCCCC(=O)[O-]
REMARK SMILES IDX 7 1 8 2 9 3 10 4 11 5 12 6 13 7 6 8 5 9 4 10 3 11 2 12 1 13
REMARK H PARENT
REMARK Flexibility Score: inf
ROOT
ATOM      1  C   UNL     1       5.208   9.612  31.365  1.00  0.00     0.000 C 
ENDROOT
BRANCH   1   2
ATOM      2  C   UNL     1       3.938   9.632  30.498  1.00  0.00     0.000 C 
BRANCH   2   3
ATOM      3  C   UNL     1       4.132   8.916  29.151  1.00  0.00     0.006 C 
BRANCH   3   4
ATOM      4  C   UNL     1       5.343   9.441  28.369  1.00  0.00     0.053 C 
BRANCH   4   5
ATOM      5  C   UNL     1       6.232   8.309  27.964  1.00  0.00     0.041 C 
ATOM      6  O   UNL     1       6.426   7.343  28.747  1.00  0.00    -0.550 OA
ATOM      7  O   UNL     1       6.889   8.345  26.739  1.00  0.00    -0.550 OA
ENDBRANCH   4   5
ENDBRANCH   3   4
ENDBRANCH   2   3
ENDBRANCH   1   2
BRANCH   1   8
ATOM      8  C   UNL     1       5.591  11.009  31.881  1.00  0.00     0.000 C 
BRANCH   8   9
ATOM      9  C   UNL     1       7.069  11.100  32.298  1.00  0.00    -0.000 C 
BRANCH   9  10
ATOM     10  C   UNL     1       8.033  10.699  31.167  1.00  0.00    -0.000 C 
BRANCH  10  11
ATOM     11  C   UNL     1       8.957   9.505  31.483  1.00  0.00    -0.000 C 
BRANCH  11  12
ATOM     12  C   UNL     1       9.377   8.668  30.263  1.00  0.00    -0.003 C 
ATOM     13  C   UNL     1       9.649   9.518  29.023  1.00  0.00     0.004 C 
ENDBRANCH  11  12
ENDBRANCH  10  11
ENDBRANCH   9  10
ENDBRANCH   8   9
ENDBRANCH   1   8
TORSDOF 9
ENDMDL
MODEL 3
REMARK VINA RESULT:    -4.209      2.153      4.222
REMARK INTER + INTRA:          -7.282
REMARK INTER:                  -6.304
REMARK INTRA:                  -0.978
REMARK UNBOUND:                -0.858
REMARK SMILES CCCCCCCCCCC(=O)[O-]
REMARK SMILES IDX 7 1 8 2 9 3 10 4 11 5 12 6 13 7 6 8 5 9 4 10 3 11 2 12 1 13
REMARK H PARENT
REMARK Flexibility Score: inf
ROOT
ATOM      1  C   UNL     1       6.003  10.766  31.189  1.00  0.00     0.000 C 
ENDROOT
BRANCH   1   2
ATOM      2  C   UNL     1       7.040  10.505  32.295  1.00  0.00     0.000 C 
BRANCH   2   3
ATOM      3  C   UNL     1       8.365   9.953  31.743  1.00  0.00     0.006 C 
BRANCH   3   4
ATOM      4  C   UNL     1       8.533  10.209  30.239  1.00  0.00     0.053 C 
BRANCH   4   5
ATOM      5  C   UNL     1       9.446   9.189  29.636  1.00  0.00     0.041 C 
ATOM      6  O   UNL     1       9.606   8.072  30.194  1.00  0.00    -0.550 OA
ATOM      7  O   UNL     1      10.160   9.491  28.483  1.00  0.00    -0.550 OA
ENDBRANCH   4   5
ENDBRANCH   3   4
ENDBRANCH   2   3
ENDBRANCH   1   2
BRANCH   1   8
ATOM      8  C   UNL     1       4.660  10.069  31.465  1.00  0.00     0.000 C 
BRANCH   8   9
ATOM      9  C   UNL     1       4.124   9.314  30.237  1.00  0.00    -0.000 C 
BRANCH   9  10
ATOM     10  C   UNL     1       5.243   8.675  29.394  1.00  0.00    -0.000 C 
BRANCH  10  11
ATOM     11  C   UNL     1       5.421   9.268  27.981  1.00  0.00    -0.000 C 
BRANCH  11  12
ATOM     12  C   UNL     1       6.619   8.715  27.191  1.00  0.00    -0.003 C 
ATOM     13  C   UNL     1       6.964   7.274  27.562  1.00  0.00     0.004 C 
ENDBRANCH  11  12
ENDBRANCH  10  11
ENDBRANCH   9  10
ENDBRANCH   8   9
ENDBRANCH   1   8
TORSDOF 9
ENDMDL
MODEL 4
REMARK VINA RESULT:    -4.199      3.216      5.647
REMARK INTER + INTRA:          -7.266
REMARK INTER:                  -6.307
REMARK INTRA:                  -0.959
REMARK UNBOUND:                -0.858
REMARK SMILES CCCCCCCCCCC(=O)[O-]
REMARK SMILES IDX 7 1 8 2 9 3 10 4 11 5 12 6 13 7 6 8 5 9 4 10 3 11 2 12 1 13
REMARK H PARENT
REMARK Flexibility Score: inf
ROOT
ATOM      1  C   UNL     1       9.081   8.902  30.543  1.00  0.00     0.000 C 
ENDROOT
BRANCH   1   2
ATOM      2  C   UNL     1       8.661  10.257  31.137  1.00  0.00     0.000 C 
BRANCH   2   3
ATOM      3  C   UNL     1       7.552  10.122  32.192  1.00  0.00     0.006 C 
BRANCH   3   4
ATOM      4  C   UNL     1       6.401  11.114  31.973  1.00  0.00     0.053 C 
BRANCH   4   5
ATOM      5  C   UNL     1       5.157  10.389  31.570  1.00  0.00     0.041 C 
ATOM      6  O   UNL     1       5.205   9.485  30.695  1.00  0.00    -0.550 OA
ATOM      7  O   UNL     1       3.934  10.745  32.125  1.00  0.00    -0.550 OA
ENDBRANCH   4   5
ENDBRANCH   3   4
ENDBRANCH   2   3
ENDBRANCH   1   2
BRANCH   1   8
ATOM      8  C   UNL     1       9.887   9.053  29.243  1.00  0.00     0.000 C 
BRANCH   8   9
ATOM      9  C   UNL     1       9.630  10.398  28.543  1.00  0.00    -0.000 C 
BRANCH   9  10
ATOM     10  C   UNL     1       8.767  10.257  27.275  1.00  0.00    -0.000 C 
BRANCH  10  11
ATOM     11  C   UNL     1       7.270   9.982  27.527  1.00  0.00    -0.000 C 
BRANCH  11  12
ATOM     12  C   UNL     1       6.759   8.633  26.993  1.00  0.00    -0.003 C 
ATOM     13  C   UNL     1       6.615   7.576  28.087  1.00  0.00     0.004 C 
ENDBRANCH  11  12
ENDBRANCH  10  11
ENDBRANCH   9  10
ENDBRANCH   8   9
ENDBRANCH   1   8
TORSDOF 9
ENDMDL
MODEL 5
REMARK VINA RESULT:    -4.197      3.363      5.418
REMARK INTER + INTRA:          -7.263
REMARK INTER:                  -5.883
REMARK INTRA:                  -1.380
REMARK UNBOUND:                -0.858
REMARK SMILES CCCCCCCCCCC(=O)[O-]
REMARK SMILES IDX 7 1 8 2 9 3 10 4 11 5 12 6 13 7 6 8 5 9 4 10 3 11 2 12 1 13
REMARK H PARENT
REMARK Flexibility Score: inf
ROOT
ATOM      1  C   UNL     1       6.663   5.714  26.532  1.00  0.00     0.000 C 
ENDROOT
BRANCH   1   2
ATOM      2  C   UNL     1       7.397   5.590  27.879  1.00  0.00     0.000 C 
BRANCH   2   3
ATOM      3  C   UNL     1       7.239   6.844  28.754  1.00  0.00     0.006 C 
BRANCH   3   4
ATOM      4  C   UNL     1       6.093   7.752  28.288  1.00  0.00     0.053 C 
BRANCH   4   5
ATOM      5  C   UNL     1       6.581   9.155  28.107  1.00  0.00     0.041 C 
ATOM      6  O   UNL     1       6.320   9.785  27.049  1.00  0.00    -0.550 OA
ATOM      7  O   UNL     1       7.368   9.749  29.086  1.00  0.00    -0.550 OA
ENDBRANCH   4   5
ENDBRANCH   3   4
ENDBRANCH   2   3
ENDBRANCH   1   2
BRANCH   1   8
ATOM      8  C   UNL     1       7.630   5.879  25.348  1.00  0.00     0.000 C 
BRANCH   8   9
ATOM      9  C   UNL     1       7.807   7.349  24.932  1.00  0.00    -0.000 C 
BRANCH   9  10
ATOM     10  C   UNL     1       9.279   7.802  24.953  1.00  0.00    -0.000 C 
BRANCH  10  11
ATOM     11  C   UNL     1       9.707   8.588  26.210  1.00  0.00    -0.000 C 
BRANCH  11  12
ATOM     12  C   UNL     1      10.505   7.775  27.243  1.00  0.00    -0.003 C 
ATOM     13  C   UNL     1      10.609   8.474  28.598  1.00  0.00     0.004 C 
ENDBRANCH  11  12
ENDBRANCH  10  11
ENDBRANCH   9  10
ENDBRANCH   8   9
ENDBRANCH   1   8
TORSDOF 9
ENDMDL
MODEL 6
REMARK VINA RESULT:    -4.180      1.275      3.323
REMARK INTER + INTRA:          -7.238
REMARK INTER:                  -6.215
REMARK INTRA:                  -1.023
REMARK UNBOUND:                -0.858
REMARK SMILES CCCCCCCCCCC(=O)[O-]
REMARK SMILES IDX 7 1 8 2 9 3 10 4 11 5 12 6 13 7 6 8 5 9 4 10 3 11 2 12 1 13
REMARK H PARENT
REMARK Flexibility Score: inf
ROOT
ATOM      1  C   UNL     1       9.073   9.264  31.332  1.00  0.00     0.000 C 
ENDROOT
BRANCH   1   2
ATOM      2  C   UNL     1       9.318   8.495  30.023  1.00  0.00     0.000 C 
BRANCH   2   3
ATOM      3  C   UNL     1       8.157   8.641  29.026  1.00  0.00     0.006 C 
BRANCH   3   4
ATOM      4  C   UNL     1       7.453   7.308  28.736  1.00  0.00     0.053 C 
BRANCH   4   5
ATOM      5  C   UNL     1       6.892   7.306  27.349  1.00  0.00     0.041 C 
ATOM      6  O   UNL     1       6.410   6.251  26.862  1.00  0.00    -0.550 OA
ATOM      7  O   UNL     1       6.946   8.460  26.576  1.00  0.00    -0.550 OA
ENDBRANCH   4   5
ENDBRANCH   3   4
ENDBRANCH   2   3
ENDBRANCH   1   2
BRANCH   1   8
ATOM      8  C   UNL     1       8.165  10.489  31.134  1.00  0.00     0.000 C 
BRANCH   8   9
ATOM      9  C   UNL     1       7.304  10.791  32.373  1.00  0.00    -0.000 C 
BRANCH   9  10
ATOM     10  C   UNL     1       5.816  10.457  32.162  1.00  0.00    -0.000 C 
BRANCH  10  11
ATOM     11  C   UNL     1       5.385  10.271  30.692  1.00  0.00    -0.000 C 
BRANCH  11  12
ATOM     12  C   UNL     1       4.536   9.019  30.418  1.00  0.00    -0.003 C 
ATOM     13  C   UNL     1       3.994   8.968  28.990  1.00  0.00     0.004 C 
ENDBRANCH  11  12
ENDBRANCH  10  11
ENDBRANCH   9  10
ENDBRANCH   8   9
ENDBRANCH   1   8
TORSDOF 9
ENDMDL
MODEL 7
REMARK VINA RESULT:    -4.175      3.317      5.134
REMARK INTER + INTRA:          -7.230
REMARK INTER:                  -5.893
REMARK INTRA:                  -1.337
REMARK UNBOUND:                -0.858
REMARK SMILES CCCCCCCCCCC(=O)[O-]
REMARK SMILES IDX 7 1 8 2 9 3 10 4 11 5 12 6 13 7 6 8 5 9 4 10 3 11 2 12 1 13
REMARK H PARENT
REMARK Flexibility Score: inf
ROOT
ATOM      1  C   UNL     1       6.486   7.813  28.157  1.00  0.00     0.000 C 
ENDROOT
BRANCH   1   2
ATOM      2  C   UNL     1       5.911   9.144  27.644  1.00  0.00     0.000 C 
BRANCH   2   3
ATOM      3  C   UNL     1       6.008  10.269  28.686  1.00  0.00     0.006 C 
BRANCH   3   4
ATOM      4  C   UNL     1       6.363   9.752  30.087  1.00  0.00     0.053 C 
BRANCH   4   5
ATOM      5  C   UNL     1       5.202   9.920  31.014  1.00  0.00     0.041 C 
ATOM      6  O   UNL     1       4.045   9.585  30.650  1.00  0.00    -0.550 OA
ATOM      7  O   UNL     1       5.390  10.495  32.265  1.00  0.00    -0.550 OA
ENDBRANCH   4   5
ENDBRANCH   3   4
ENDBRANCH   2   3
ENDBRANCH   1   2
BRANCH   1   8
ATOM      8  C   UNL     1       7.199   7.015  27.052  1.00  0.00     0.000 C 
BRANCH   8   9
ATOM      9  C   UNL     1       7.874   7.924  26.010  1.00  0.00    -0.000 C 
BRANCH   9  10
ATOM     10  C   UNL     1       9.313   8.312  26.399  1.00  0.00    -0.000 C 
BRANCH  10  11
ATOM     11  C   UNL     1       9.488   9.757  26.909  1.00  0.00    -0.000 C 
BRANCH  11  12
ATOM     12  C   UNL     1       9.779   9.884  28.414  1.00  0.00    -0.003 C 
ATOM     13  C   UNL     1      10.261   8.576  29.040  1.00  0.00     0.004 C 
ENDBRANCH  11  12
ENDBRANCH  10  11
ENDBRANCH   9  10
ENDBRANCH   8   9
ENDBRANCH   1   8
TORSDOF 9
ENDMDL
MODEL 8
REMARK VINA RESULT:    -4.168      2.950      4.846
REMARK INTER + INTRA:          -7.219
REMARK INTER:                  -6.361
REMARK INTRA:                  -0.858
REMARK UNBOUND:                -0.858
REMARK SMILES CCCCCCCCCCC(=O)[O-]
REMARK SMILES IDX 7 1 8 2 9 3 10 4 11 5 12 6 13 7 6 8 5 9 4 10 3 11 2 12 1 13
REMARK H PARENT
REMARK Flexibility Score: inf
ROOT
ATOM      1  C   UNL     1       4.539   9.369  30.600  1.00  0.00     0.000 C 
ENDROOT
BRANCH   1   2
ATOM      2  C   UNL     1       4.785  10.373  31.739  1.00  0.00     0.000 C 
BRANCH   2   3
ATOM      3  C   UNL     1       6.137  11.092  31.612  1.00  0.00     0.006 C 
BRANCH   3   4
ATOM      4  C   UNL     1       7.258  10.388  32.388  1.00  0.00     0.053 C 
BRANCH   4   5
ATOM      5  C   UNL     1       8.457  10.197  31.514  1.00  0.00     0.041 C 
ATOM      6  O   UNL     1       9.237   9.229  31.710  1.00  0.00    -0.550 OA
ATOM      7  O   UNL     1       8.741  11.118  30.513  1.00  0.00    -0.550 OA
ENDBRANCH   4   5
ENDBRANCH   3   4
ENDBRANCH   2   3
ENDBRANCH   1   2
BRANCH   1   8
ATOM      8  C   UNL     1       5.448   9.623  29.386  1.00  0.00     0.000 C 
BRANCH   8   9
ATOM      9  C   UNL     1       6.008   8.322  28.787  1.00  0.00    -0.000 C 
BRANCH   9  10
ATOM     10  C   UNL     1       7.520   8.396  28.507  1.00  0.00    -0.000 C 
BRANCH  10  11
ATOM     11  C   UNL     1       7.939   9.409  27.421  1.00  0.00    -0.000 C 
BRANCH  11  12
ATOM     12  C   UNL     1       9.455   9.644  27.302  1.00  0.00    -0.003 C 
ATOM     13  C   UNL     1      10.260   8.883  28.354  1.00  0.00     0.004 C 
ENDBRANCH  11  12
ENDBRANCH  10  11
ENDBRANCH   9  10
ENDBRANCH   8   9
ENDBRANCH   1   8
TORSDOF 9
ENDMDL
MODEL 9
REMARK VINA RESULT:    -4.165      2.146      2.836
REMARK INTER + INTRA:          -7.215
REMARK INTER:                  -6.133
REMARK INTRA:                  -1.082
REMARK UNBOUND:                -0.858
REMARK SMILES CCCCCCCCCCC(=O)[O-]
REMARK SMILES IDX 7 1 8 2 9 3 10 4 11 5 12 6 13 7 6 8 5 9 4 10 3 11 2 12 1 13
REMARK H PARENT
REMARK Flexibility Score: inf
ROOT
ATOM      1  C   UNL     1       6.196   8.830  27.903  1.00  0.00     0.000 C 
ENDROOT
BRANCH   1   2
ATOM      2  C   UNL     1       6.958   7.778  28.726  1.00  0.00     0.000 C 
BRANCH   2   3
ATOM      3  C   UNL     1       8.322   8.288  29.218  1.00  0.00     0.006 C 
BRANCH   3   4
ATOM      4  C   UNL     1       8.966   9.288  28.248  1.00  0.00     0.053 C 
BRANCH   4   5
ATOM      5  C   UNL     1       9.816   8.570  27.248  1.00  0.00     0.041 C 
ATOM      6  O   UNL     1      10.958   8.150  27.571  1.00  0.00    -0.550 OA
ATOM      7  O   UNL     1       9.367   8.409  25.943  1.00  0.00    -0.550 OA
ENDBRANCH   4   5
ENDBRANCH   3   4
ENDBRANCH   2   3
ENDBRANCH   1   2
BRANCH   1   8
ATOM      8  C   UNL     1       4.759   9.044  28.406  1.00  0.00     0.000 C 
BRANCH   8   9
ATOM      9  C   UNL     1       4.574   8.602  29.868  1.00  0.00    -0.000 C 
BRANCH   9  10
ATOM     10  C   UNL     1       3.935   9.694  30.745  1.00  0.00    -0.000 C 
BRANCH  10  11
ATOM     11  C   UNL     1       4.873  10.329  31.792  1.00  0.00    -0.000 C 
BRANCH  11  12
ATOM     12  C   UNL     1       6.240  10.779  31.250  1.00  0.00    -0.003 C 
ATOM     13  C   UNL     1       7.399  10.408  32.174  1.00  0.00     0.004 C 
ENDBRANCH  11  12
ENDBRANCH  10  11
ENDBRANCH   9  10
ENDBRANCH   8   9
ENDBRANCH   1   8
TORSDOF 9
ENDMDL
