MODEL 1
REMARK VINA RESULT:    -5.450      0.000      0.000
REMARK INTER + INTRA:          -7.422
REMARK INTER:                  -6.725
REMARK INTRA:                  -0.697
REMARK UNBOUND:                -0.697
REMARK SMILES CC(C)=CCC[C@H](C)c1ccc(C)cc1
REMARK SMILES IDX 6 1 7 2 8 3 9 4 13 5 12 6 11 7 14 8 10 9 15 10 5 11 4 12
REMARK SMILES IDX 2 13 1 14 3 15
REMARK H PARENT
REMARK Flexibility Score: inf
ROOT
ATOM      1  C   UNL     1     -24.804  -1.888   7.898  1.00  0.00     0.012 C 
ENDROOT
BRANCH   1   2
ATOM      2  C   UNL     1     -26.123  -1.287   8.438  1.00  0.00     0.016 C 
ATOM      3  C   UNL     1     -26.932  -0.564   7.350  1.00  0.00     0.013 C 
BRANCH   2   4
ATOM      4  C   UNL     1     -25.836  -0.347   9.595  1.00  0.00    -0.045 A 
ATOM      5  C   UNL     1     -24.999   2.307  12.899  1.00  0.00     0.044 C 
ATOM      6  C   UNL     1     -25.268   1.400  11.735  1.00  0.00    -0.051 A 
ATOM      7  C   UNL     1     -24.586   0.181  11.617  1.00  0.00     0.004 A 
ATOM      8  C   UNL     1     -26.250   1.734  10.792  1.00  0.00     0.004 A 
ATOM      9  C   UNL     1     -24.862  -0.682  10.553  1.00  0.00     0.004 A 
ATOM     10  C   UNL     1     -26.527   0.872   9.727  1.00  0.00     0.004 A 
ENDBRANCH   2   4
ENDBRANCH   1   2
BRANCH   1  11
ATOM     11  C   UNL     1     -25.008  -3.063   6.920  1.00  0.00     0.028 C 
BRANCH  11  12
ATOM     12  C   UNL     1     -24.577  -2.720   5.512  1.00  0.00    -0.028 C 
ATOM     13  C   UNL     1     -25.376  -2.805   4.426  1.00  0.00    -0.080 C 
ATOM     14  C   UNL     1     -26.827  -3.215   4.526  1.00  0.00     0.039 C 
ATOM     15  C   UNL     1     -24.800  -2.443   3.081  1.00  0.00     0.039 C 
ENDBRANCH  11  12
ENDBRANCH   1  11
TORSDOF 4
ENDMDL
MODEL 2
REMARK VINA RESULT:    -5.351      3.986      7.271
REMARK INTER + INTRA:          -7.299
REMARK INTER:                  -6.597
REMARK INTRA:                  -0.702
REMARK UNBOUND:                -0.697
REMARK SMILES CC(C)=CCC[C@H](C)c1ccc(C)cc1
REMARK SMILES IDX 6 1 7 2 8 3 9 4 13 5 12 6 11 7 14 8 10 9 15 10 5 11 4 12
REMARK SMILES IDX 2 13 1 14 3 15
REMARK H PARENT
REMARK Flexibility Score: inf
ROOT
ATOM      1  C   UNL     1     -22.283  -0.424  12.733  1.00  0.00     0.012 C 
ENDROOT
BRANCH   1   2
ATOM      2  C   UNL     1     -23.782  -0.578  13.082  1.00  0.00     0.016 C 
ATOM      3  C   UNL     1     -24.249  -2.041  13.049  1.00  0.00     0.013 C 
BRANCH   2   4
ATOM      4  C   UNL     1     -24.627   0.268  12.146  1.00  0.00    -0.045 A 
ATOM      5  C   UNL     1     -27.030   2.697   9.502  1.00  0.00     0.044 C 
ATOM      6  C   UNL     1     -26.170   1.861  10.403  1.00  0.00    -0.051 A 
ATOM      7  C   UNL     1     -25.625   2.413  11.571  1.00  0.00     0.004 A 
ATOM      8  C   UNL     1     -25.960   0.504  10.120  1.00  0.00     0.004 A 
ATOM      9  C   UNL     1     -24.854   1.626  12.431  1.00  0.00     0.004 A 
ATOM     10  C   UNL     1     -25.189  -0.285  10.979  1.00  0.00     0.004 A 
ENDBRANCH   2   4
ENDBRANCH   1   2
BRANCH   1  11
ATOM     11  C   UNL     1     -21.432  -1.663  13.080  1.00  0.00     0.028 C 
BRANCH  11  12
ATOM     12  C   UNL     1     -20.694  -1.503  14.389  1.00  0.00    -0.028 C 
ATOM     13  C   UNL     1     -20.797  -2.355  15.434  1.00  0.00    -0.080 C 
ATOM     14  C   UNL     1     -21.645  -3.604  15.371  1.00  0.00     0.039 C 
ATOM     15  C   UNL     1     -20.011  -2.055  16.684  1.00  0.00     0.039 C 
ENDBRANCH  11  12
ENDBRANCH   1  11
TORSDOF 4
ENDMDL
MODEL 3
REMARK VINA RESULT:    -5.304      2.269      6.743
REMARK INTER + INTRA:          -7.241
REMARK INTER:                  -6.506
REMARK INTRA:                  -0.736
REMARK UNBOUND:                -0.697
REMARK SMILES CC(C)=CCC[C@H](C)c1ccc(C)cc1
REMARK SMILES IDX 6 1 7 2 8 3 9 4 13 5 12 6 11 7 14 8 10 9 15 10 5 11 4 12
REMARK SMILES IDX 2 13 1 14 3 15
REMARK H PARENT
REMARK Flexibility Score: inf
ROOT
ATOM      1  C   UNL     1     -24.811  -0.534  12.528  1.00  0.00     0.012 C 
ENDROOT
BRANCH   1   2
ATOM      2  C   UNL     1     -25.554   0.210  11.393  1.00  0.00     0.016 C 
ATOM      3  C   UNL     1     -27.045   0.418  11.701  1.00  0.00     0.013 C 
BRANCH   2   4
ATOM      4  C   UNL     1     -25.385  -0.533  10.080  1.00  0.00    -0.045 A 
ATOM      5  C   UNL     1     -24.929  -2.637   6.334  1.00  0.00     0.044 C 
ATOM      6  C   UNL     1     -25.072  -1.882   7.623  1.00  0.00    -0.051 A 
ATOM      7  C   UNL     1     -26.216  -1.109   7.865  1.00  0.00     0.004 A 
ATOM      8  C   UNL     1     -24.095  -1.998   8.621  1.00  0.00     0.004 A 
ATOM      9  C   UNL     1     -26.368  -0.434   9.080  1.00  0.00     0.004 A 
ATOM     10  C   UNL     1     -24.245  -1.323   9.837  1.00  0.00     0.004 A 
ENDBRANCH   2   4
ENDBRANCH   1   2
BRANCH   1  11
ATOM     11  C   UNL     1     -23.715   0.308  13.212  1.00  0.00     0.028 C 
BRANCH  11  12
ATOM     12  C   UNL     1     -22.762  -0.540  14.022  1.00  0.00    -0.028 C 
ATOM     13  C   UNL     1     -21.614  -1.070  13.544  1.00  0.00    -0.080 C 
ATOM     14  C   UNL     1     -21.140  -0.816  12.132  1.00  0.00     0.039 C 
ATOM     15  C   UNL     1     -20.772  -1.910  14.469  1.00  0.00     0.039 C 
ENDBRANCH  11  12
ENDBRANCH   1  11
TORSDOF 4
ENDMDL
MODEL 4
REMARK VINA RESULT:    -5.273      2.433      6.258
REMARK INTER + INTRA:          -7.203
REMARK INTER:                  -5.899
REMARK INTRA:                  -1.304
REMARK UNBOUND:                -0.697
REMARK SMILES CC(C)=CCC[C@H](C)c1ccc(C)cc1
REMARK SMILES IDX 6 1 7 2 8 3 9 4 13 5 12 6 11 7 14 8 10 9 15 10 5 11 4 12
REMARK SMILES IDX 2 13 1 14 3 15
REMARK H PARENT
REMARK Flexibility Score: inf
ROOT
ATOM      1  C   UNL     1     -23.467   0.432  12.759  1.00  0.00     0.012 C 
ENDROOT
BRANCH   1   2
ATOM      2  C   UNL     1     -23.864  -1.050  12.957  1.00  0.00     0.016 C 
ATOM      3  C   UNL     1     -22.775  -1.862  13.676  1.00  0.00     0.013 C 
BRANCH   2   4
ATOM      4  C   UNL     1     -24.200  -1.685  11.619  1.00  0.00    -0.045 A 
ATOM      5  C   UNL     1     -25.170  -3.516   7.829  1.00  0.00     0.044 C 
ATOM      6  C   UNL     1     -24.859  -2.863   9.143  1.00  0.00    -0.051 A 
ATOM      7  C   UNL     1     -25.290  -3.448  10.342  1.00  0.00     0.004 A 
ATOM      8  C   UNL     1     -24.078  -1.700   9.186  1.00  0.00     0.004 A 
ATOM      9  C   UNL     1     -24.970  -2.861  11.569  1.00  0.00     0.004 A 
ATOM     10  C   UNL     1     -23.757  -1.110  10.413  1.00  0.00     0.004 A 
ENDBRANCH   2   4
ENDBRANCH   1   2
BRANCH   1  11
ATOM     11  C   UNL     1     -24.601   1.429  13.073  1.00  0.00     0.028 C 
BRANCH  11  12
ATOM     12  C   UNL     1     -25.193   2.037  11.823  1.00  0.00    -0.028 C 
ATOM     13  C   UNL     1     -26.310   1.589  11.209  1.00  0.00    -0.080 C 
ATOM     14  C   UNL     1     -27.120   0.437  11.758  1.00  0.00     0.039 C 
ATOM     15  C   UNL     1     -26.772   2.290   9.958  1.00  0.00     0.039 C 
ENDBRANCH  11  12
ENDBRANCH   1  11
TORSDOF 4
ENDMDL
MODEL 5
REMARK VINA RESULT:    -5.246      3.291      6.268
REMARK INTER + INTRA:          -7.170
REMARK INTER:                  -6.370
REMARK INTRA:                  -0.800
REMARK UNBOUND:                -0.697
REMARK SMILES CC(C)=CCC[C@H](C)c1ccc(C)cc1
REMARK SMILES IDX 6 1 7 2 8 3 9 4 13 5 12 6 11 7 14 8 10 9 15 10 5 11 4 12
REMARK SMILES IDX 2 13 1 14 3 15
REMARK H PARENT
REMARK Flexibility Score: inf
ROOT
ATOM      1  C   UNL     1     -25.241  -0.742  12.213  1.00  0.00     0.012 C 
ENDROOT
BRANCH   1   2
ATOM      2  C   UNL     1     -24.877   0.643  11.628  1.00  0.00     0.016 C 
ATOM      3  C   UNL     1     -24.884   1.752  12.691  1.00  0.00     0.013 C 
BRANCH   2   4
ATOM      4  C   UNL     1     -25.820   0.995  10.491  1.00  0.00    -0.045 A 
ATOM      5  C   UNL     1     -28.503   2.027   7.267  1.00  0.00     0.044 C 
ATOM      6  C   UNL     1     -27.547   1.676   8.368  1.00  0.00    -0.051 A 
ATOM      7  C   UNL     1     -27.175   2.640   9.315  1.00  0.00     0.004 A 
ATOM      8  C   UNL     1     -27.070   0.364   8.498  1.00  0.00     0.004 A 
ATOM      9  C   UNL     1     -26.313   2.306  10.363  1.00  0.00     0.004 A 
ATOM     10  C   UNL     1     -26.208   0.027   9.545  1.00  0.00     0.004 A 
ENDBRANCH   2   4
ENDBRANCH   1   2
BRANCH   1  11
ATOM     11  C   UNL     1     -24.141  -1.808  12.022  1.00  0.00     0.028 C 
BRANCH  11  12
ATOM     12  C   UNL     1     -23.179  -1.854  13.186  1.00  0.00    -0.028 C 
ATOM     13  C   UNL     1     -21.921  -1.363  13.159  1.00  0.00    -0.080 C 
ATOM     14  C   UNL     1     -21.360  -0.659  11.945  1.00  0.00     0.039 C 
ATOM     15  C   UNL     1     -21.071  -1.497  14.396  1.00  0.00     0.039 C 
ENDBRANCH  11  12
ENDBRANCH   1  11
TORSDOF 4
ENDMDL
MODEL 6
REMARK VINA RESULT:    -5.233      1.167      1.952
REMARK INTER + INTRA:          -7.154
REMARK INTER:                  -6.548
REMARK INTRA:                  -0.606
REMARK UNBOUND:                -0.697
REMARK SMILES CC(C)=CCC[C@H](C)c1ccc(C)cc1
REMARK SMILES IDX 6 1 7 2 8 3 9 4 13 5 12 6 11 7 14 8 10 9 15 10 5 11 4 12
REMARK SMILES IDX 2 13 1 14 3 15
REMARK H PARENT
REMARK Flexibility Score: inf
ROOT
ATOM      1  C   UNL     1     -24.150  -2.133   7.641  1.00  0.00     0.012 C 
ENDROOT
BRANCH   1   2
ATOM      2  C   UNL     1     -24.815  -2.494   8.990  1.00  0.00     0.016 C 
ATOM      3  C   UNL     1     -26.198  -3.139   8.813  1.00  0.00     0.013 C 
BRANCH   2   4
ATOM      4  C   UNL     1     -24.915  -1.262   9.871  1.00  0.00    -0.045 A 
ATOM      5  C   UNL     1     -25.224   2.256  12.360  1.00  0.00     0.044 C 
ATOM      6  C   UNL     1     -25.137   1.020  11.515  1.00  0.00    -0.051 A 
ATOM      7  C   UNL     1     -25.991   0.854  10.416  1.00  0.00     0.004 A 
ATOM      8  C   UNL     1     -24.156   0.053  11.777  1.00  0.00     0.004 A 
ATOM      9  C   UNL     1     -25.887  -0.280   9.605  1.00  0.00     0.004 A 
ATOM     10  C   UNL     1     -24.051  -1.082  10.967  1.00  0.00     0.004 A 
ENDBRANCH   2   4
ENDBRANCH   1   2
BRANCH   1  11
ATOM     11  C   UNL     1     -24.920  -2.650   6.408  1.00  0.00     0.028 C 
BRANCH  11  12
ATOM     12  C   UNL     1     -25.455  -1.525   5.552  1.00  0.00    -0.028 C 
ATOM     13  C   UNL     1     -25.422  -1.509   4.201  1.00  0.00    -0.080 C 
ATOM     14  C   UNL     1     -24.878  -2.668   3.398  1.00  0.00     0.039 C 
ATOM     15  C   UNL     1     -25.981  -0.308   3.484  1.00  0.00     0.039 C 
ENDBRANCH  11  12
ENDBRANCH   1  11
TORSDOF 4
ENDMDL
MODEL 7
REMARK VINA RESULT:    -5.217      2.844      5.240
REMARK INTER + INTRA:          -7.134
REMARK INTER:                  -5.615
REMARK INTRA:                  -1.519
REMARK UNBOUND:                -0.697
REMARK SMILES CC(C)=CCC[C@H](C)c1ccc(C)cc1
REMARK SMILES IDX 6 1 7 2 8 3 9 4 13 5 12 6 11 7 14 8 10 9 15 10 5 11 4 12
REMARK SMILES IDX 2 13 1 14 3 15
REMARK H PARENT
REMARK Flexibility Score: inf
ROOT
ATOM      1  C   UNL     1     -25.718  -1.133   8.829  1.00  0.00     0.012 C 
ENDROOT
BRANCH   1   2
ATOM      2  C   UNL     1     -25.489  -2.290   9.830  1.00  0.00     0.016 C 
ATOM      3  C   UNL     1     -26.794  -2.773  10.481  1.00  0.00     0.013 C 
BRANCH   2   4
ATOM      4  C   UNL     1     -24.491  -1.871  10.895  1.00  0.00    -0.045 A 
ATOM      5  C   UNL     1     -21.634  -0.668  13.904  1.00  0.00     0.044 C 
ATOM      6  C   UNL     1     -22.643  -1.060  12.866  1.00  0.00    -0.051 A 
ATOM      7  C   UNL     1     -22.468  -0.676  11.529  1.00  0.00     0.004 A 
ATOM      8  C   UNL     1     -23.734  -1.871  13.211  1.00  0.00     0.004 A 
ATOM      9  C   UNL     1     -23.387  -1.071  10.553  1.00  0.00     0.004 A 
ATOM     10  C   UNL     1     -24.655  -2.267  12.236  1.00  0.00     0.004 A 
ENDBRANCH   2   4
ENDBRANCH   1   2
BRANCH   1  11
ATOM     11  C   UNL     1     -26.748  -0.089   9.306  1.00  0.00     0.028 C 
BRANCH  11  12
ATOM     12  C   UNL     1     -26.103   1.051  10.060  1.00  0.00    -0.028 C 
ATOM     13  C   UNL     1     -26.288   1.300  11.375  1.00  0.00    -0.080 C 
ATOM     14  C   UNL     1     -27.142   0.410  12.248  1.00  0.00     0.039 C 
ATOM     15  C   UNL     1     -25.588   2.486  11.987  1.00  0.00     0.039 C 
ENDBRANCH  11  12
ENDBRANCH   1  11
TORSDOF 4
ENDMDL
MODEL 8
REMARK VINA RESULT:    -5.213      5.453      7.827
REMARK INTER + INTRA:          -7.129
REMARK INTER:                  -5.568
REMARK INTRA:                  -1.561
REMARK UNBOUND:                -0.697
REMARK SMILES CC(C)=CCC[C@H](C)c1ccc(C)cc1
REMARK SMILES IDX 6 1 7 2 8 3 9 4 13 5 12 6 11 7 14 8 10 9 15 10 5 11 4 12
REMARK SMILES IDX 2 13 1 14 3 15
REMARK H PARENT
REMARK Flexibility Score: inf
ROOT
ATOM      1  C   UNL     1     -23.793  -0.767  12.888  1.00  0.00     0.012 C 
ENDROOT
BRANCH   1   2
ATOM      2  C   UNL     1     -22.338  -0.406  13.272  1.00  0.00     0.016 C 
ATOM      3  C   UNL     1     -21.339  -0.710  12.145  1.00  0.00     0.013 C 
BRANCH   2   4
ATOM      4  C   UNL     1     -21.937  -1.131  14.544  1.00  0.00    -0.045 A 
ATOM      5  C   UNL     1     -20.820  -3.187  18.176  1.00  0.00     0.044 C 
ATOM      6  C   UNL     1     -21.218  -2.500  16.903  1.00  0.00    -0.051 A 
ATOM      7  C   UNL     1     -22.490  -1.926  16.777  1.00  0.00     0.004 A 
ATOM      8  C   UNL     1     -20.297  -2.368  15.854  1.00  0.00     0.004 A 
ATOM      9  C   UNL     1     -22.850  -1.254  15.606  1.00  0.00     0.004 A 
ATOM     10  C   UNL     1     -20.655  -1.697  14.681  1.00  0.00     0.004 A 
ENDBRANCH   2   4
ENDBRANCH   1   2
BRANCH   1  11
ATOM     11  C   UNL     1     -23.939  -2.153  12.227  1.00  0.00     0.028 C 
BRANCH  11  12
ATOM     12  C   UNL     1     -24.694  -3.128  13.100  1.00  0.00    -0.028 C 
ATOM     13  C   UNL     1     -24.143  -4.213  13.689  1.00  0.00    -0.080 C 
ATOM     14  C   UNL     1     -22.671  -4.533  13.565  1.00  0.00     0.039 C 
ATOM     15  C   UNL     1     -25.028  -5.106  14.520  1.00  0.00     0.039 C 
ENDBRANCH  11  12
ENDBRANCH   1  11
TORSDOF 4
ENDMDL
MODEL 9
REMARK VINA RESULT:    -5.168      1.138      6.507
REMARK INTER + INTRA:          -7.074
REMARK INTER:                  -6.311
REMARK INTRA:                  -0.763
REMARK UNBOUND:                -0.697
REMARK SMILES CC(C)=CCC[C@H](C)c1ccc(C)cc1
REMARK SMILES IDX 6 1 7 2 8 3 9 4 13 5 12 6 11 7 14 8 10 9 15 10 5 11 4 12
REMARK SMILES IDX 2 13 1 14 3 15
REMARK H PARENT
REMARK Flexibility Score: inf
ROOT
ATOM      1  C   UNL     1     -24.506  -1.493   9.838  1.00  0.00     0.012 C 
ENDROOT
BRANCH   1   2
ATOM      2  C   UNL     1     -25.842  -1.390   9.065  1.00  0.00     0.016 C 
ATOM      3  C   UNL     1     -26.934  -2.298   9.651  1.00  0.00     0.013 C 
BRANCH   2   4
ATOM      4  C   UNL     1     -25.623  -1.706   7.596  1.00  0.00    -0.045 A 
ATOM      5  C   UNL     1     -24.979  -2.627   3.425  1.00  0.00     0.044 C 
ATOM      6  C   UNL     1     -25.226  -2.328   4.874  1.00  0.00    -0.051 A 
ATOM      7  C   UNL     1     -24.493  -2.994   5.867  1.00  0.00     0.004 A 
ATOM      8  C   UNL     1     -26.142  -1.334   5.245  1.00  0.00     0.004 A 
ATOM      9  C   UNL     1     -24.695  -2.692   7.216  1.00  0.00     0.004 A 
ATOM     10  C   UNL     1     -26.346  -1.031   6.595  1.00  0.00     0.004 A 
ENDBRANCH   2   4
ENDBRANCH   1   2
BRANCH   1  11
ATOM     11  C   UNL     1     -24.657  -1.353  11.367  1.00  0.00     0.028 C 
BRANCH  11  12
ATOM     12  C   UNL     1     -24.467   0.071  11.834  1.00  0.00    -0.028 C 
ATOM     13  C   UNL     1     -25.474   0.908  12.168  1.00  0.00    -0.080 C 
ATOM     14  C   UNL     1     -26.921   0.469  12.151  1.00  0.00     0.039 C 
ATOM     15  C   UNL     1     -25.130   2.309  12.603  1.00  0.00     0.039 C 
ENDBRANCH  11  12
ENDBRANCH   1  11
TORSDOF 4
ENDMDL
