MODEL 1
REMARK VINA RESULT:    -4.804      0.000      0.000
REMARK INTER + INTRA:          -5.726
REMARK INTER:                  -5.647
REMARK INTRA:                  -0.079
REMARK UNBOUND:                -0.079
REMARK SMILES O=C([O-])C=Cc1ccc(O)c(O)c1
REMARK SMILES IDX 6 1 13 2 7 3 11 4 8 5 9 6 5 7 4 8 2 9 1 10 3 11 12 12 10 14
REMARK H PARENT 12 13 10 15
REMARK Flexibility Score: inf
ROOT
ATOM      1  C   UNL     1      11.633 -16.509   8.478  1.00  0.00    -0.022 A 
ATOM      2  C   UNL     1      12.964 -16.922   8.665  1.00  0.00     0.058 A 
ATOM      3  C   UNL     1      11.373 -15.348   7.738  1.00  0.00     0.012 A 
ATOM      4  C   UNL     1      14.023 -16.155   8.162  1.00  0.00     0.157 A 
ATOM      5  C   UNL     1      12.427 -14.581   7.236  1.00  0.00     0.051 A 
ATOM      6  C   UNL     1      13.753 -14.974   7.448  1.00  0.00     0.157 A 
ENDROOT
BRANCH   1   7
ATOM      7  C   UNL     1      10.502 -17.332   8.955  1.00  0.00     0.010 C 
ATOM      8  C   UNL     1       9.813 -18.210   8.211  1.00  0.00     0.025 C 
BRANCH   8   9
ATOM      9  C   UNL     1      10.176 -18.650   6.850  1.00  0.00     0.064 C 
ATOM     10  O   UNL     1       9.286 -18.704   5.962  1.00  0.00    -0.545 OA
ATOM     11  O   UNL     1      11.464 -19.074   6.544  1.00  0.00    -0.545 OA
ENDBRANCH   8   9
ENDBRANCH   1   7
BRANCH   4  12
ATOM     12  O   UNL     1      15.341 -16.560   8.365  1.00  0.00    -0.504 OA
ATOM     13  H   UNL     1      15.635 -16.992   9.234  1.00  0.00     0.293 HD
ENDBRANCH   4  12
BRANCH   6  14
ATOM     14  O   UNL     1      14.784 -14.187   6.938  1.00  0.00    -0.504 OA
ATOM     15  H   UNL     1      15.585 -14.589   6.467  1.00  0.00     0.293 HD
ENDBRANCH   6  14
TORSDOF 4
ENDMDL
MODEL 2
REMARK VINA RESULT:    -4.765      1.855      4.819
REMARK INTER + INTRA:          -5.679
REMARK INTER:                  -5.412
REMARK INTRA:                  -0.268
REMARK UNBOUND:                -0.079
REMARK SMILES O=C([O-])C=Cc1ccc(O)c(O)c1
REMARK SMILES IDX 6 1 13 2 7 3 11 4 8 5 9 6 5 7 4 8 2 9 1 10 3 11 12 12 10 14
REMARK H PARENT 12 13 10 15
REMARK Flexibility Score: inf
ROOT
ATOM      1  C   UNL     1      11.021 -16.803   8.577  1.00  0.00    -0.022 A 
ATOM      2  C   UNL     1      10.229 -16.114   7.643  1.00  0.00     0.058 A 
ATOM      3  C   UNL     1      10.636 -18.087   8.988  1.00  0.00     0.012 A 
ATOM      4  C   UNL     1       9.039 -16.680   7.166  1.00  0.00     0.157 A 
ATOM      5  C   UNL     1       9.450 -18.653   8.515  1.00  0.00     0.051 A 
ATOM      6  C   UNL     1       8.645 -17.955   7.609  1.00  0.00     0.157 A 
ENDROOT
BRANCH   1   7
ATOM      7  C   UNL     1      12.305 -16.246   9.051  1.00  0.00     0.010 C 
ATOM      8  C   UNL     1      13.517 -16.583   8.586  1.00  0.00     0.025 C 
BRANCH   8   9
ATOM      9  C   UNL     1      13.776 -17.421   7.400  1.00  0.00     0.064 C 
ATOM     10  O   UNL     1      13.836 -16.881   6.265  1.00  0.00    -0.545 OA
ATOM     11  O   UNL     1      13.883 -18.804   7.498  1.00  0.00    -0.545 OA
ENDBRANCH   8   9
ENDBRANCH   1   7
BRANCH   4  12
ATOM     12  O   UNL     1       8.248 -15.985   6.252  1.00  0.00    -0.504 OA
ATOM     13  H   UNL     1       7.777 -15.124   6.506  1.00  0.00     0.293 HD
ENDBRANCH   4  12
BRANCH   6  14
ATOM     14  O   UNL     1       7.465 -18.544   7.156  1.00  0.00    -0.504 OA
ATOM     15  H   UNL     1       6.651 -17.996   6.907  1.00  0.00     0.293 HD
ENDBRANCH   6  14
TORSDOF 4
ENDMDL
MODEL 3
REMARK VINA RESULT:    -4.735      1.218      2.185
REMARK INTER + INTRA:          -5.644
REMARK INTER:                  -5.493
REMARK INTRA:                  -0.151
REMARK UNBOUND:                -0.079
REMARK SMILES O=C([O-])C=Cc1ccc(O)c(O)c1
REMARK SMILES IDX 6 1 13 2 7 3 11 4 8 5 9 6 5 7 4 8 2 9 1 10 3 11 12 12 10 14
REMARK H PARENT 12 13 10 15
REMARK Flexibility Score: inf
ROOT
ATOM      1  C   UNL     1      11.808 -17.483   8.169  1.00  0.00    -0.022 A 
ATOM      2  C   UNL     1      11.432 -16.141   7.979  1.00  0.00     0.058 A 
ATOM      3  C   UNL     1      13.131 -17.867   7.913  1.00  0.00     0.012 A 
ATOM      4  C   UNL     1      12.356 -15.207   7.489  1.00  0.00     0.157 A 
ATOM      5  C   UNL     1      14.053 -16.938   7.424  1.00  0.00     0.051 A 
ATOM      6  C   UNL     1      13.673 -15.610   7.204  1.00  0.00     0.157 A 
ENDROOT
BRANCH   1   7
ATOM      7  C   UNL     1      10.864 -18.469   8.734  1.00  0.00     0.010 C 
ATOM      8  C   UNL     1       9.720 -18.867   8.160  1.00  0.00     0.025 C 
BRANCH   8   9
ATOM      9  C   UNL     1       9.292 -18.539   6.786  1.00  0.00     0.064 C 
ATOM     10  O   UNL     1       9.838 -19.125   5.815  1.00  0.00    -0.545 OA
ATOM     11  O   UNL     1       8.352 -17.546   6.536  1.00  0.00    -0.545 OA
ENDBRANCH   8   9
ENDBRANCH   1   7
BRANCH   4  12
ATOM     12  O   UNL     1      11.973 -13.882   7.286  1.00  0.00    -0.504 OA
ATOM     13  H   UNL     1      12.027 -13.449   6.371  1.00  0.00     0.293 HD
ENDBRANCH   4  12
BRANCH   6  14
ATOM     14  O   UNL     1      14.613 -14.706   6.713  1.00  0.00    -0.504 OA
ATOM     15  H   UNL     1      15.605 -14.809   6.894  1.00  0.00     0.293 HD
ENDBRANCH   6  14
TORSDOF 4
ENDMDL
MODEL 4
REMARK VINA RESULT:    -4.635      2.566      3.520
REMARK INTER + INTRA:          -5.527
REMARK INTER:                  -5.267
REMARK INTRA:                  -0.260
REMARK UNBOUND:                -0.079
REMARK SMILES O=C([O-])C=Cc1ccc(O)c(O)c1
REMARK SMILES IDX 6 1 13 2 7 3 11 4 8 5 9 6 5 7 4 8 2 9 1 10 3 11 12 12 10 14
REMARK H PARENT 12 13 10 15
REMARK Flexibility Score: inf
ROOT
ATOM      1  C   UNL     1       9.587 -17.473   7.443  1.00  0.00    -0.022 A 
ATOM      2  C   UNL     1      10.401 -18.472   8.007  1.00  0.00     0.058 A 
ATOM      3  C   UNL     1      10.009 -16.137   7.492  1.00  0.00     0.012 A 
ATOM      4  C   UNL     1      11.596 -18.132   8.656  1.00  0.00     0.157 A 
ATOM      5  C   UNL     1      11.199 -15.796   8.140  1.00  0.00     0.051 A 
ATOM      6  C   UNL     1      11.994 -16.785   8.728  1.00  0.00     0.157 A 
ENDROOT
BRANCH   1   7
ATOM      7  C   UNL     1       8.352 -17.816   6.708  1.00  0.00     0.010 C 
ATOM      8  C   UNL     1       7.127 -17.903   7.247  1.00  0.00     0.025 C 
BRANCH   8   9
ATOM      9  C   UNL     1       6.762 -17.490   8.615  1.00  0.00     0.064 C 
ATOM     10  O   UNL     1       6.382 -18.360   9.441  1.00  0.00    -0.545 OA
ATOM     11  O   UNL     1       6.759 -16.152   8.993  1.00  0.00    -0.545 OA
ENDBRANCH   8   9
ENDBRANCH   1   7
BRANCH   4  12
ATOM     12  O   UNL     1      12.390 -19.125   9.228  1.00  0.00    -0.504 OA
ATOM     13  H   UNL     1      12.707 -19.925   8.692  1.00  0.00     0.293 HD
ENDBRANCH   4  12
BRANCH   6  14
ATOM     14  O   UNL     1      13.174 -16.414   9.370  1.00  0.00    -0.504 OA
ATOM     15  H   UNL     1      14.077 -16.479   8.916  1.00  0.00     0.293 HD
ENDBRANCH   6  14
TORSDOF 4
ENDMDL
MODEL 5
REMARK VINA RESULT:    -4.565      1.697      2.678
REMARK INTER + INTRA:          -5.445
REMARK INTER:                  -5.347
REMARK INTRA:                  -0.097
REMARK UNBOUND:                -0.079
REMARK SMILES O=C([O-])C=Cc1ccc(O)c(O)c1
REMARK SMILES IDX 6 1 13 2 7 3 11 4 8 5 9 6 5 7 4 8 2 9 1 10 3 11 12 12 10 14
REMARK H PARENT 12 13 10 15
REMARK Flexibility Score: inf
ROOT
ATOM      1  C   UNL     1      10.456 -16.612   8.268  1.00  0.00    -0.022 A 
ATOM      2  C   UNL     1      11.406 -15.682   7.808  1.00  0.00     0.058 A 
ATOM      3  C   UNL     1      10.845 -17.942   8.477  1.00  0.00     0.012 A 
ATOM      4  C   UNL     1      12.713 -16.090   7.510  1.00  0.00     0.157 A 
ATOM      5  C   UNL     1      12.148 -18.351   8.180  1.00  0.00     0.051 A 
ATOM      6  C   UNL     1      13.084 -17.435   7.693  1.00  0.00     0.157 A 
ENDROOT
BRANCH   1   7
ATOM      7  C   UNL     1       9.089 -16.190   8.637  1.00  0.00     0.010 C 
ATOM      8  C   UNL     1       7.963 -16.584   8.024  1.00  0.00     0.025 C 
BRANCH   8   9
ATOM      9  C   UNL     1       7.870 -17.644   7.003  1.00  0.00     0.064 C 
ATOM     10  O   UNL     1       7.979 -17.340   5.786  1.00  0.00    -0.545 OA
ATOM     11  O   UNL     1       7.593 -18.962   7.348  1.00  0.00    -0.545 OA
ENDBRANCH   8   9
ENDBRANCH   1   7
BRANCH   4  12
ATOM     12  O   UNL     1      13.646 -15.168   7.038  1.00  0.00    -0.504 OA
ATOM     13  H   UNL     1      14.281 -15.396   6.281  1.00  0.00     0.293 HD
ENDBRANCH   4  12
BRANCH   6  14
ATOM     14  O   UNL     1      14.376 -17.872   7.403  1.00  0.00    -0.504 OA
ATOM     15  H   UNL     1      15.152 -17.714   8.033  1.00  0.00     0.293 HD
ENDBRANCH   6  14
TORSDOF 4
ENDMDL
MODEL 6
REMARK VINA RESULT:    -4.552      1.977      2.728
REMARK INTER + INTRA:          -5.429
REMARK INTER:                  -5.299
REMARK INTRA:                  -0.130
REMARK UNBOUND:                -0.079
REMARK SMILES O=C([O-])C=Cc1ccc(O)c(O)c1
REMARK SMILES IDX 6 1 13 2 7 3 11 4 8 5 9 6 5 7 4 8 2 9 1 10 3 11 12 12 10 14
REMARK H PARENT 12 13 10 15
REMARK Flexibility Score: inf
ROOT
ATOM      1  C   UNL     1      10.960 -18.266   7.382  1.00  0.00    -0.022 A 
ATOM      2  C   UNL     1      11.254 -17.577   8.573  1.00  0.00     0.058 A 
ATOM      3  C   UNL     1      11.916 -18.301   6.357  1.00  0.00     0.012 A 
ATOM      4  C   UNL     1      12.467 -16.890   8.715  1.00  0.00     0.157 A 
ATOM      5  C   UNL     1      13.126 -17.615   6.497  1.00  0.00     0.051 A 
ATOM      6  C   UNL     1      13.406 -16.904   7.669  1.00  0.00     0.157 A 
ENDROOT
BRANCH   1   7
ATOM      7  C   UNL     1       9.711 -19.040   7.233  1.00  0.00     0.010 C 
ATOM      8  C   UNL     1       8.471 -18.532   7.292  1.00  0.00     0.025 C 
BRANCH   8   9
ATOM      9  C   UNL     1       8.135 -17.096   7.325  1.00  0.00     0.064 C 
ATOM     10  O   UNL     1       8.129 -16.440   6.251  1.00  0.00    -0.545 OA
ATOM     11  O   UNL     1       7.893 -16.435   8.523  1.00  0.00    -0.545 OA
ENDBRANCH   8   9
ENDBRANCH   1   7
BRANCH   4  12
ATOM     12  O   UNL     1      12.745 -16.195   9.891  1.00  0.00    -0.504 OA
ATOM     13  H   UNL     1      13.650 -16.257  10.343  1.00  0.00     0.293 HD
ENDBRANCH   4  12
BRANCH   6  14
ATOM     14  O   UNL     1      14.619 -16.227   7.778  1.00  0.00    -0.504 OA
ATOM     15  H   UNL     1      15.272 -16.164   7.006  1.00  0.00     0.293 HD
ENDBRANCH   6  14
TORSDOF 4
ENDMDL
MODEL 7
REMARK VINA RESULT:    -4.543      1.614      2.077
REMARK INTER + INTRA:          -5.418
REMARK INTER:                  -5.168
REMARK INTRA:                  -0.251
REMARK UNBOUND:                -0.079
REMARK SMILES O=C([O-])C=Cc1ccc(O)c(O)c1
REMARK SMILES IDX 6 1 13 2 7 3 11 4 8 5 9 6 5 7 4 8 2 9 1 10 3 11 12 12 10 14
REMARK H PARENT 12 13 10 15
REMARK Flexibility Score: inf
ROOT
ATOM      1  C   UNL     1      10.794 -17.887   8.053  1.00  0.00    -0.022 A 
ATOM      2  C   UNL     1      11.883 -18.444   7.358  1.00  0.00     0.058 A 
ATOM      3  C   UNL     1      10.805 -16.520   8.360  1.00  0.00     0.012 A 
ATOM      4  C   UNL     1      12.991 -17.654   7.023  1.00  0.00     0.157 A 
ATOM      5  C   UNL     1      11.908 -15.730   8.028  1.00  0.00     0.051 A 
ATOM      6  C   UNL     1      13.005 -16.290   7.365  1.00  0.00     0.157 A 
ENDROOT
BRANCH   1   7
ATOM      7  C   UNL     1       9.595 -18.691   8.368  1.00  0.00     0.010 C 
ATOM      8  C   UNL     1       8.460 -18.705   7.653  1.00  0.00     0.025 C 
BRANCH   8   9
ATOM      9  C   UNL     1       8.271 -18.074   6.333  1.00  0.00     0.064 C 
ATOM     10  O   UNL     1       7.920 -16.867   6.271  1.00  0.00    -0.545 OA
ATOM     11  O   UNL     1       8.402 -18.802   5.156  1.00  0.00    -0.545 OA
ENDBRANCH   8   9
ENDBRANCH   1   7
BRANCH   4  12
ATOM     12  O   UNL     1      14.075 -18.215   6.350  1.00  0.00    -0.504 OA
ATOM     13  H   UNL     1      14.869 -18.597   6.850  1.00  0.00     0.293 HD
ENDBRANCH   4  12
BRANCH   6  14
ATOM     14  O   UNL     1      14.094 -15.478   7.049  1.00  0.00    -0.504 OA
ATOM     15  H   UNL     1      14.452 -15.402   6.104  1.00  0.00     0.293 HD
ENDBRANCH   6  14
TORSDOF 4
ENDMDL
MODEL 8
REMARK VINA RESULT:    -4.526      2.640      3.813
REMARK INTER + INTRA:          -5.398
REMARK INTER:                  -5.185
REMARK INTRA:                  -0.214
REMARK UNBOUND:                -0.079
REMARK SMILES O=C([O-])C=Cc1ccc(O)c(O)c1
REMARK SMILES IDX 6 1 13 2 7 3 11 4 8 5 9 6 5 7 4 8 2 9 1 10 3 11 12 12 10 14
REMARK H PARENT 12 13 10 15
REMARK Flexibility Score: inf
ROOT
ATOM      1  C   UNL     1       9.471 -17.578   7.399  1.00  0.00    -0.022 A 
ATOM      2  C   UNL     1       9.963 -16.284   7.151  1.00  0.00     0.058 A 
ATOM      3  C   UNL     1      10.127 -18.394   8.330  1.00  0.00     0.012 A 
ATOM      4  C   UNL     1      11.127 -15.832   7.788  1.00  0.00     0.157 A 
ATOM      5  C   UNL     1      11.288 -17.946   8.965  1.00  0.00     0.051 A 
ATOM      6  C   UNL     1      11.796 -16.671   8.696  1.00  0.00     0.157 A 
ENDROOT
BRANCH   1   7
ATOM      7  C   UNL     1       8.216 -18.052   6.778  1.00  0.00     0.010 C 
ATOM      8  C   UNL     1       7.016 -18.081   7.377  1.00  0.00     0.025 C 
BRANCH   8   9
ATOM      9  C   UNL     1       6.697 -17.475   8.683  1.00  0.00     0.064 C 
ATOM     10  O   UNL     1       6.264 -18.205   9.612  1.00  0.00    -0.545 OA
ATOM     11  O   UNL     1       6.794 -16.103   8.890  1.00  0.00    -0.545 OA
ENDBRANCH   8   9
ENDBRANCH   1   7
BRANCH   4  12
ATOM     12  O   UNL     1      11.619 -14.555   7.525  1.00  0.00    -0.504 OA
ATOM     13  H   UNL     1      11.603 -13.825   8.228  1.00  0.00     0.293 HD
ENDBRANCH   4  12
BRANCH   6  14
ATOM     14  O   UNL     1      12.958 -16.253   9.343  1.00  0.00    -0.504 OA
ATOM     15  H   UNL     1      13.854 -16.698   9.182  1.00  0.00     0.293 HD
ENDBRANCH   6  14
TORSDOF 4
ENDMDL
MODEL 9
REMARK VINA RESULT:    -4.356      1.234      4.830
REMARK INTER + INTRA:          -5.199
REMARK INTER:                  -5.247
REMARK INTRA:                   0.048
REMARK UNBOUND:                -0.079
REMARK SMILES O=C([O-])C=Cc1ccc(O)c(O)c1
REMARK SMILES IDX 6 1 13 2 7 3 11 4 8 5 9 6 5 7 4 8 2 9 1 10 3 11 12 12 10 14
REMARK H PARENT 12 13 10 15
REMARK Flexibility Score: inf
ROOT
ATOM      1  C   UNL     1      11.701 -17.211   8.223  1.00  0.00    -0.022 A 
ATOM      2  C   UNL     1      11.545 -18.067   7.119  1.00  0.00     0.058 A 
ATOM      3  C   UNL     1      10.567 -16.620   8.798  1.00  0.00     0.012 A 
ATOM      4  C   UNL     1      10.276 -18.288   6.565  1.00  0.00     0.157 A 
ATOM      5  C   UNL     1       9.302 -16.839   8.247  1.00  0.00     0.051 A 
ATOM      6  C   UNL     1       9.149 -17.666   7.129  1.00  0.00     0.157 A 
ENDROOT
BRANCH   1   7
ATOM      7  C   UNL     1      13.021 -17.007   8.853  1.00  0.00     0.010 C 
ATOM      8  C   UNL     1      13.923 -16.085   8.486  1.00  0.00     0.025 C 
BRANCH   8   9
ATOM      9  C   UNL     1      13.687 -14.993   7.522  1.00  0.00     0.064 C 
ATOM     10  O   UNL     1      14.621 -14.631   6.760  1.00  0.00    -0.545 OA
ATOM     11  O   UNL     1      12.479 -14.306   7.486  1.00  0.00    -0.545 OA
ENDBRANCH   8   9
ENDBRANCH   1   7
BRANCH   4  12
ATOM     12  O   UNL     1      10.130 -19.125   5.459  1.00  0.00    -0.504 OA
ATOM     13  H   UNL     1       9.260 -19.610   5.273  1.00  0.00     0.293 HD
ENDBRANCH   4  12
BRANCH   6  14
ATOM     14  O   UNL     1       7.875 -17.863   6.599  1.00  0.00    -0.504 OA
ATOM     15  H   UNL     1       7.141 -18.326   7.121  1.00  0.00     0.293 HD
ENDBRANCH   6  14
TORSDOF 4
ENDMDL
