MODEL 1
REMARK VINA RESULT:    -3.495      0.000      0.000
REMARK INTER + INTRA:         -10.943
REMARK INTER:                  -7.581
REMARK INTRA:                  -3.362
REMARK UNBOUND:                -3.362
REMARK SMILES CCCCCCCCCCCCCCCCCCCCCC(=O)[O-]
REMARK SMILES IDX 12 1 11 2 10 3 9 4 8 5 7 6 6 7 5 8 4 9 3 10 2 11 1 12 13 13
REMARK SMILES IDX 14 14 15 15 16 16 17 17 18 18 19 19 20 20 21 21 22 22 23 23
REMARK SMILES IDX 24 24
REMARK H PARENT
REMARK Flexibility Score: inf
ROOT
ATOM      1  C   UNL     1     -43.336 -20.376  26.251  1.00  0.00     0.000 C 
ENDROOT
BRANCH   1   2
ATOM      2  C   UNL     1     -43.193 -19.289  25.167  1.00  0.00     0.000 C 
BRANCH   2   3
ATOM      3  C   UNL     1     -43.302 -17.840  25.676  1.00  0.00     0.000 C 
BRANCH   3   4
ATOM      4  C   UNL     1     -44.645 -17.184  25.325  1.00  0.00    -0.000 C 
BRANCH   4   5
ATOM      5  C   UNL     1     -45.488 -16.953  26.588  1.00  0.00    -0.000 C 
BRANCH   5   6
ATOM      6  C   UNL     1     -46.824 -17.717  26.564  1.00  0.00    -0.000 C 
BRANCH   6   7
ATOM      7  C   UNL     1     -46.711 -19.233  26.805  1.00  0.00    -0.000 C 
BRANCH   7   8
ATOM      8  C   UNL     1     -47.952 -19.889  27.441  1.00  0.00    -0.000 C 
BRANCH   8   9
ATOM      9  C   UNL     1     -47.628 -21.107  28.332  1.00  0.00    -0.000 C 
BRANCH   9  10
ATOM     10  C   UNL     1     -46.291 -21.770  27.961  1.00  0.00    -0.000 C 
BRANCH  10  11
ATOM     11  C   UNL     1     -46.478 -23.117  27.245  1.00  0.00    -0.003 C 
ATOM     12  C   UNL     1     -46.690 -22.960  25.739  1.00  0.00     0.004 C 
ENDBRANCH  10  11
ENDBRANCH   9  10
ENDBRANCH   8   9
ENDBRANCH   7   8
ENDBRANCH   6   7
ENDBRANCH   5   6
ENDBRANCH   4   5
ENDBRANCH   3   4
ENDBRANCH   2   3
ENDBRANCH   1   2
BRANCH   1  13
ATOM     13  C   UNL     1     -43.145 -21.822  25.755  1.00  0.00     0.000 C 
BRANCH  13  14
ATOM     14  C   UNL     1     -42.234 -22.652  26.670  1.00  0.00     0.000 C 
BRANCH  14  15
ATOM     15  C   UNL     1     -42.838 -22.776  28.076  1.00  0.00     0.000 C 
BRANCH  15  16
ATOM     16  C   UNL     1     -41.881 -22.289  29.176  1.00  0.00     0.000 C 
BRANCH  16  17
ATOM     17  C   UNL     1     -40.500 -21.894  28.624  1.00  0.00     0.000 C 
BRANCH  17  18
ATOM     18  C   UNL     1     -40.147 -20.427  28.917  1.00  0.00     0.000 C 
BRANCH  18  19
ATOM     19  C   UNL     1     -39.970 -19.594  27.638  1.00  0.00     0.000 C 
BRANCH  19  20
ATOM     20  C   UNL     1     -38.990 -20.273  26.673  1.00  0.00     0.006 C 
BRANCH  20  21
ATOM     21  C   UNL     1     -39.462 -20.135  25.223  1.00  0.00     0.053 C 
BRANCH  21  22
ATOM     22  C   UNL     1     -38.446 -19.398  24.410  1.00  0.00     0.041 C 
ATOM     23  O   UNL     1     -38.386 -18.142  24.456  1.00  0.00    -0.550 OA
ATOM     24  O   UNL     1     -37.532 -20.101  23.636  1.00  0.00    -0.550 OA
ENDBRANCH  21  22
ENDBRANCH  20  21
ENDBRANCH  19  20
ENDBRANCH  18  19
ENDBRANCH  17  18
ENDBRANCH  16  17
ENDBRANCH  15  16
ENDBRANCH  14  15
ENDBRANCH  13  14
ENDBRANCH   1  13
TORSDOF 20
ENDMDL
MODEL 2
REMARK VINA RESULT:    -3.486      1.170      1.844
REMARK INTER + INTRA:         -10.924
REMARK INTER:                  -7.055
REMARK INTRA:                  -3.868
REMARK UNBOUND:                -3.362
REMARK SMILES CCCCCCCCCCCCCCCCCCCCCC(=O)[O-]
REMARK SMILES IDX 12 1 11 2 10 3 9 4 8 5 7 6 6 7 5 8 4 9 3 10 2 11 1 12 13 13
REMARK SMILES IDX 14 14 15 15 16 16 17 17 18 18 19 19 20 20 21 21 22 22 23 23
REMARK SMILES IDX 24 24
REMARK H PARENT
REMARK Flexibility Score: inf
ROOT
ATOM      1  C   UNL     1     -43.260 -21.465  25.665  1.00  0.00     0.000 C 
ENDROOT
BRANCH   1   2
ATOM      2  C   UNL     1     -43.784 -20.170  26.318  1.00  0.00     0.000 C 
BRANCH   2   3
ATOM      3  C   UNL     1     -45.021 -19.552  25.641  1.00  0.00     0.000 C 
BRANCH   3   4
ATOM      4  C   UNL     1     -45.413 -18.194  26.241  1.00  0.00    -0.000 C 
BRANCH   4   5
ATOM      5  C   UNL     1     -46.796 -18.268  26.905  1.00  0.00    -0.000 C 
BRANCH   5   6
ATOM      6  C   UNL     1     -47.467 -19.644  26.741  1.00  0.00    -0.000 C 
BRANCH   6   7
ATOM      7  C   UNL     1     -47.642 -20.442  28.045  1.00  0.00    -0.000 C 
BRANCH   7   8
ATOM      8  C   UNL     1     -46.837 -21.752  28.124  1.00  0.00    -0.000 C 
BRANCH   8   9
ATOM      9  C   UNL     1     -46.847 -22.572  26.816  1.00  0.00    -0.000 C 
BRANCH   9  10
ATOM     10  C   UNL     1     -46.306 -23.999  27.010  1.00  0.00    -0.000 C 
BRANCH  10  11
ATOM     11  C   UNL     1     -45.529 -24.507  25.785  1.00  0.00    -0.003 C 
ATOM     12  C   UNL     1     -45.950 -23.814  24.489  1.00  0.00     0.004 C 
ENDBRANCH  10  11
ENDBRANCH   9  10
ENDBRANCH   8   9
ENDBRANCH   7   8
ENDBRANCH   6   7
ENDBRANCH   5   6
ENDBRANCH   4   5
ENDBRANCH   3   4
ENDBRANCH   2   3
ENDBRANCH   1   2
BRANCH   1  13
ATOM     13  C   UNL     1     -42.662 -22.493  26.644  1.00  0.00     0.000 C 
BRANCH  13  14
ATOM     14  C   UNL     1     -43.138 -22.290  28.089  1.00  0.00     0.000 C 
BRANCH  14  15
ATOM     15  C   UNL     1     -41.953 -22.335  29.066  1.00  0.00     0.000 C 
BRANCH  15  16
ATOM     16  C   UNL     1     -40.659 -22.831  28.402  1.00  0.00     0.000 C 
BRANCH  16  17
ATOM     17  C   UNL     1     -39.535 -21.780  28.443  1.00  0.00     0.000 C 
BRANCH  17  18
ATOM     18  C   UNL     1     -40.061 -20.368  28.749  1.00  0.00     0.000 C 
BRANCH  18  19
ATOM     19  C   UNL     1     -40.177 -19.494  27.491  1.00  0.00     0.000 C 
BRANCH  19  20
ATOM     20  C   UNL     1     -39.197 -19.959  26.408  1.00  0.00     0.006 C 
BRANCH  20  21
ATOM     21  C   UNL     1     -39.899 -20.099  25.054  1.00  0.00     0.053 C 
BRANCH  21  22
ATOM     22  C   UNL     1     -40.297 -18.756  24.530  1.00  0.00     0.041 C 
ATOM     23  O   UNL     1     -41.476 -18.551  24.142  1.00  0.00    -0.550 OA
ATOM     24  O   UNL     1     -39.378 -17.716  24.515  1.00  0.00    -0.550 OA
ENDBRANCH  21  22
ENDBRANCH  20  21
ENDBRANCH  19  20
ENDBRANCH  18  19
ENDBRANCH  17  18
ENDBRANCH  16  17
ENDBRANCH  15  16
ENDBRANCH  14  15
ENDBRANCH  13  14
ENDBRANCH   1  13
TORSDOF 20
ENDMDL
MODEL 3
REMARK VINA RESULT:    -3.443      3.403      7.250
REMARK INTER + INTRA:         -10.832
REMARK INTER:                  -7.618
REMARK INTRA:                  -3.213
REMARK UNBOUND:                -3.362
REMARK SMILES CCCCCCCCCCCCCCCCCCCCCC(=O)[O-]
REMARK SMILES IDX 12 1 11 2 10 3 9 4 8 5 7 6 6 7 5 8 4 9 3 10 2 11 1 12 13 13
REMARK SMILES IDX 14 14 15 15 16 16 17 17 18 18 19 19 20 20 21 21 22 22 23 23
REMARK SMILES IDX 24 24
REMARK H PARENT
REMARK Flexibility Score: inf
ROOT
ATOM      1  C   UNL     1     -41.153 -22.977  28.691  1.00  0.00     0.000 C 
ENDROOT
BRANCH   1   2
ATOM      2  C   UNL     1     -41.190 -21.586  29.356  1.00  0.00     0.000 C 
BRANCH   2   3
ATOM      3  C   UNL     1     -40.081 -20.617  28.906  1.00  0.00     0.000 C 
BRANCH   3   4
ATOM      4  C   UNL     1     -38.764 -21.332  28.573  1.00  0.00    -0.000 C 
BRANCH   4   5
ATOM      5  C   UNL     1     -38.282 -20.960  27.163  1.00  0.00    -0.000 C 
BRANCH   5   6
ATOM      6  C   UNL     1     -39.440 -20.731  26.174  1.00  0.00    -0.000 C 
BRANCH   6   7
ATOM      7  C   UNL     1     -39.123 -19.772  25.013  1.00  0.00    -0.000 C 
BRANCH   7   8
ATOM      8  C   UNL     1     -39.221 -18.274  25.357  1.00  0.00    -0.000 C 
BRANCH   8   9
ATOM      9  C   UNL     1     -40.300 -17.943  26.409  1.00  0.00    -0.000 C 
BRANCH   9  10
ATOM     10  C   UNL     1     -41.070 -16.652  26.079  1.00  0.00    -0.000 C 
BRANCH  10  11
ATOM     11  C   UNL     1     -41.019 -16.301  24.584  1.00  0.00    -0.003 C 
ATOM     12  C   UNL     1     -42.244 -16.801  23.818  1.00  0.00     0.004 C 
ENDBRANCH  10  11
ENDBRANCH   9  10
ENDBRANCH   8   9
ENDBRANCH   7   8
ENDBRANCH   6   7
ENDBRANCH   5   6
ENDBRANCH   4   5
ENDBRANCH   3   4
ENDBRANCH   2   3
ENDBRANCH   1   2
BRANCH   1  13
ATOM     13  C   UNL     1     -42.420 -23.357  27.902  1.00  0.00     0.000 C 
BRANCH  13  14
ATOM     14  C   UNL     1     -43.653 -22.545  28.324  1.00  0.00     0.000 C 
BRANCH  14  15
ATOM     15  C   UNL     1     -44.187 -21.714  27.148  1.00  0.00     0.000 C 
BRANCH  15  16
ATOM     16  C   UNL     1     -43.089 -21.343  26.139  1.00  0.00     0.000 C 
BRANCH  16  17
ATOM     17  C   UNL     1     -43.150 -19.863  25.719  1.00  0.00     0.000 C 
BRANCH  17  18
ATOM     18  C   UNL     1     -44.488 -19.201  26.087  1.00  0.00     0.000 C 
BRANCH  18  19
ATOM     19  C   UNL     1     -45.457 -19.125  24.897  1.00  0.00     0.000 C 
BRANCH  19  20
ATOM     20  C   UNL     1     -46.912 -19.240  25.367  1.00  0.00     0.006 C 
BRANCH  20  21
ATOM     21  C   UNL     1     -47.004 -19.172  26.894  1.00  0.00     0.053 C 
BRANCH  21  22
ATOM     22  C   UNL     1     -47.814 -20.313  27.420  1.00  0.00     0.041 C 
ATOM     23  O   UNL     1     -48.888 -20.644  26.853  1.00  0.00    -0.550 OA
ATOM     24  O   UNL     1     -47.360 -21.044  28.510  1.00  0.00    -0.550 OA
ENDBRANCH  21  22
ENDBRANCH  20  21
ENDBRANCH  19  20
ENDBRANCH  18  19
ENDBRANCH  17  18
ENDBRANCH  16  17
ENDBRANCH  15  16
ENDBRANCH  14  15
ENDBRANCH  13  14
ENDBRANCH   1  13
TORSDOF 20
ENDMDL
MODEL 4
REMARK VINA RESULT:    -3.410      2.615      7.228
REMARK INTER + INTRA:         -10.759
REMARK INTER:                  -8.151
REMARK INTRA:                  -2.608
REMARK UNBOUND:                -3.362
REMARK SMILES CCCCCCCCCCCCCCCCCCCCCC(=O)[O-]
REMARK SMILES IDX 12 1 11 2 10 3 9 4 8 5 7 6 6 7 5 8 4 9 3 10 2 11 1 12 13 13
REMARK SMILES IDX 14 14 15 15 16 16 17 17 18 18 19 19 20 20 21 21 22 22 23 23
REMARK SMILES IDX 24 24
REMARK H PARENT
REMARK Flexibility Score: inf
ROOT
ATOM      1  C   UNL     1     -40.643 -23.432  27.136  1.00  0.00     0.000 C 
ENDROOT
BRANCH   1   2
ATOM      2  C   UNL     1     -39.110 -23.409  26.967  1.00  0.00     0.000 C 
BRANCH   2   3
ATOM      3  C   UNL     1     -38.328 -22.856  28.173  1.00  0.00     0.000 C 
BRANCH   3   4
ATOM      4  C   UNL     1     -38.054 -21.350  28.065  1.00  0.00    -0.000 C 
BRANCH   4   5
ATOM      5  C   UNL     1     -39.098 -20.546  28.854  1.00  0.00    -0.000 C 
BRANCH   5   6
ATOM      6  C   UNL     1     -40.094 -19.803  27.946  1.00  0.00    -0.000 C 
BRANCH   6   7
ATOM      7  C   UNL     1     -39.457 -18.808  26.959  1.00  0.00    -0.000 C 
BRANCH   7   8
ATOM      8  C   UNL     1     -39.673 -19.136  25.469  1.00  0.00    -0.000 C 
BRANCH   8   9
ATOM      9  C   UNL     1     -38.394 -19.600  24.739  1.00  0.00    -0.000 C 
BRANCH   9  10
ATOM     10  C   UNL     1     -38.540 -21.004  24.128  1.00  0.00    -0.000 C 
BRANCH  10  11
ATOM     11  C   UNL     1     -37.238 -21.817  24.198  1.00  0.00    -0.003 C 
ATOM     12  C   UNL     1     -37.408 -23.249  23.691  1.00  0.00     0.004 C 
ENDBRANCH  10  11
ENDBRANCH   9  10
ENDBRANCH   8   9
ENDBRANCH   7   8
ENDBRANCH   6   7
ENDBRANCH   5   6
ENDBRANCH   4   5
ENDBRANCH   3   4
ENDBRANCH   2   3
ENDBRANCH   1   2
BRANCH   1  13
ATOM     13  C   UNL     1     -41.138 -23.710  28.568  1.00  0.00     0.000 C 
BRANCH  13  14
ATOM     14  C   UNL     1     -42.093 -22.627  29.091  1.00  0.00     0.000 C 
BRANCH  14  15
ATOM     15  C   UNL     1     -43.090 -22.207  28.001  1.00  0.00     0.000 C 
BRANCH  15  16
ATOM     16  C   UNL     1     -44.530 -22.640  28.318  1.00  0.00     0.000 C 
BRANCH  16  17
ATOM     17  C   UNL     1     -45.579 -21.755  27.622  1.00  0.00     0.000 C 
BRANCH  17  18
ATOM     18  C   UNL     1     -46.909 -21.702  28.392  1.00  0.00     0.000 C 
BRANCH  18  19
ATOM     19  C   UNL     1     -47.743 -20.459  28.048  1.00  0.00     0.000 C 
BRANCH  19  20
ATOM     20  C   UNL     1     -47.359 -19.904  26.671  1.00  0.00     0.006 C 
BRANCH  20  21
ATOM     21  C   UNL     1     -46.925 -18.438  26.771  1.00  0.00     0.053 C 
BRANCH  21  22
ATOM     22  C   UNL     1     -45.845 -18.145  25.779  1.00  0.00     0.041 C 
ATOM     23  O   UNL     1     -44.643 -18.093  26.146  1.00  0.00    -0.550 OA
ATOM     24  O   UNL     1     -46.161 -17.975  24.437  1.00  0.00    -0.550 OA
ENDBRANCH  21  22
ENDBRANCH  20  21
ENDBRANCH  19  20
ENDBRANCH  18  19
ENDBRANCH  17  18
ENDBRANCH  16  17
ENDBRANCH  15  16
ENDBRANCH  14  15
ENDBRANCH  13  14
ENDBRANCH   1  13
TORSDOF 20
ENDMDL
MODEL 5
REMARK VINA RESULT:    -3.403      2.338      7.041
REMARK INTER + INTRA:         -10.744
REMARK INTER:                  -7.706
REMARK INTRA:                  -3.038
REMARK UNBOUND:                -3.362
REMARK SMILES CCCCCCCCCCCCCCCCCCCCCC(=O)[O-]
REMARK SMILES IDX 12 1 11 2 10 3 9 4 8 5 7 6 6 7 5 8 4 9 3 10 2 11 1 12 13 13
REMARK SMILES IDX 14 14 15 15 16 16 17 17 18 18 19 19 20 20 21 21 22 22 23 23
REMARK SMILES IDX 24 24
REMARK H PARENT
REMARK Flexibility Score: inf
ROOT
ATOM      1  C   UNL     1     -43.199 -21.393  27.067  1.00  0.00     0.000 C 
ENDROOT
BRANCH   1   2
ATOM      2  C   UNL     1     -41.725 -21.844  27.090  1.00  0.00     0.000 C 
BRANCH   2   3
ATOM      3  C   UNL     1     -41.123 -22.037  28.494  1.00  0.00     0.000 C 
BRANCH   3   4
ATOM      4  C   UNL     1     -40.495 -20.753  29.055  1.00  0.00    -0.000 C 
BRANCH   4   5
ATOM      5  C   UNL     1     -38.984 -20.718  28.781  1.00  0.00    -0.000 C 
BRANCH   5   6
ATOM      6  C   UNL     1     -38.405 -22.102  28.441  1.00  0.00    -0.000 C 
BRANCH   6   7
ATOM      7  C   UNL     1     -37.782 -22.220  27.038  1.00  0.00    -0.000 C 
BRANCH   7   8
ATOM      8  C   UNL     1     -37.915 -20.964  26.156  1.00  0.00    -0.000 C 
BRANCH   8   9
ATOM      9  C   UNL     1     -38.969 -21.095  25.036  1.00  0.00    -0.000 C 
BRANCH   9  10
ATOM     10  C   UNL     1     -39.589 -19.742  24.647  1.00  0.00    -0.000 C 
BRANCH  10  11
ATOM     11  C   UNL     1     -39.749 -18.799  25.850  1.00  0.00    -0.003 C 
ATOM     12  C   UNL     1     -41.176 -18.270  25.999  1.00  0.00     0.004 C 
ENDBRANCH  10  11
ENDBRANCH   9  10
ENDBRANCH   8   9
ENDBRANCH   7   8
ENDBRANCH   6   7
ENDBRANCH   5   6
ENDBRANCH   4   5
ENDBRANCH   3   4
ENDBRANCH   2   3
ENDBRANCH   1   2
BRANCH   1  13
ATOM     13  C   UNL     1     -44.232 -22.534  27.134  1.00  0.00     0.000 C 
BRANCH  13  14
ATOM     14  C   UNL     1     -44.946 -22.614  28.491  1.00  0.00     0.000 C 
BRANCH  14  15
ATOM     15  C   UNL     1     -46.450 -22.350  28.333  1.00  0.00     0.000 C 
BRANCH  15  16
ATOM     16  C   UNL     1     -46.921 -22.465  26.874  1.00  0.00     0.000 C 
BRANCH  16  17
ATOM     17  C   UNL     1     -47.872 -21.325  26.469  1.00  0.00     0.000 C 
BRANCH  17  18
ATOM     18  C   UNL     1     -48.057 -20.288  27.589  1.00  0.00     0.000 C 
BRANCH  18  19
ATOM     19  C   UNL     1     -47.232 -19.013  27.358  1.00  0.00     0.000 C 
BRANCH  19  20
ATOM     20  C   UNL     1     -46.620 -19.003  25.952  1.00  0.00     0.006 C 
BRANCH  20  21
ATOM     21  C   UNL     1     -45.122 -18.691  26.007  1.00  0.00     0.053 C 
BRANCH  21  22
ATOM     22  C   UNL     1     -44.883 -17.231  25.793  1.00  0.00     0.041 C 
ATOM     23  O   UNL     1     -45.091 -16.411  26.724  1.00  0.00    -0.550 OA
ATOM     24  O   UNL     1     -44.384 -16.779  24.578  1.00  0.00    -0.550 OA
ENDBRANCH  21  22
ENDBRANCH  20  21
ENDBRANCH  19  20
ENDBRANCH  18  19
ENDBRANCH  17  18
ENDBRANCH  16  17
ENDBRANCH  15  16
ENDBRANCH  14  15
ENDBRANCH  13  14
ENDBRANCH   1  13
TORSDOF 20
ENDMDL
MODEL 6
REMARK VINA RESULT:    -3.389      2.718      4.728
REMARK INTER + INTRA:         -10.714
REMARK INTER:                  -7.399
REMARK INTRA:                  -3.315
REMARK UNBOUND:                -3.362
REMARK SMILES CCCCCCCCCCCCCCCCCCCCCC(=O)[O-]
REMARK SMILES IDX 12 1 11 2 10 3 9 4 8 5 7 6 6 7 5 8 4 9 3 10 2 11 1 12 13 13
REMARK SMILES IDX 14 14 15 15 16 16 17 17 18 18 19 19 20 20 21 21 22 22 23 23
REMARK SMILES IDX 24 24
REMARK H PARENT
REMARK Flexibility Score: inf
ROOT
ATOM      1  C   UNL     1     -41.846 -19.899  24.793  1.00  0.00     0.000 C 
ENDROOT
BRANCH   1   2
ATOM      2  C   UNL     1     -42.464 -21.110  25.522  1.00  0.00     0.000 C 
BRANCH   2   3
ATOM      3  C   UNL     1     -43.882 -20.883  26.079  1.00  0.00     0.000 C 
BRANCH   3   4
ATOM      4  C   UNL     1     -44.222 -21.823  27.244  1.00  0.00    -0.000 C 
BRANCH   4   5
ATOM      5  C   UNL     1     -45.135 -22.966  26.776  1.00  0.00    -0.000 C 
BRANCH   5   6
ATOM      6  C   UNL     1     -46.547 -22.893  27.386  1.00  0.00    -0.000 C 
BRANCH   6   7
ATOM      7  C   UNL     1     -46.725 -21.833  28.488  1.00  0.00    -0.000 C 
BRANCH   7   8
ATOM      8  C   UNL     1     -47.663 -20.666  28.127  1.00  0.00    -0.000 C 
BRANCH   8   9
ATOM      9  C   UNL     1     -47.981 -20.562  26.619  1.00  0.00    -0.000 C 
BRANCH   9  10
ATOM     10  C   UNL     1     -47.185 -19.443  25.924  1.00  0.00    -0.000 C 
BRANCH  10  11
ATOM     11  C   UNL     1     -46.730 -18.348  26.901  1.00  0.00    -0.003 C 
ATOM     12  C   UNL     1     -45.514 -17.573  26.394  1.00  0.00     0.004 C 
ENDBRANCH  10  11
ENDBRANCH   9  10
ENDBRANCH   8   9
ENDBRANCH   7   8
ENDBRANCH   6   7
ENDBRANCH   5   6
ENDBRANCH   4   5
ENDBRANCH   3   4
ENDBRANCH   2   3
ENDBRANCH   1   2
BRANCH   1  13
ATOM     13  C   UNL     1     -41.922 -18.567  25.561  1.00  0.00     0.000 C 
BRANCH  13  14
ATOM     14  C   UNL     1     -40.550 -17.902  25.742  1.00  0.00     0.000 C 
BRANCH  14  15
ATOM     15  C   UNL     1     -39.884 -18.369  27.045  1.00  0.00     0.000 C 
BRANCH  15  16
ATOM     16  C   UNL     1     -38.811 -19.445  26.809  1.00  0.00     0.000 C 
BRANCH  16  17
ATOM     17  C   UNL     1     -38.960 -20.645  27.760  1.00  0.00     0.000 C 
BRANCH  17  18
ATOM     18  C   UNL     1     -39.989 -20.390  28.873  1.00  0.00     0.000 C 
BRANCH  18  19
ATOM     19  C   UNL     1     -41.020 -21.522  28.997  1.00  0.00     0.000 C 
BRANCH  19  20
ATOM     20  C   UNL     1     -40.605 -22.736  28.157  1.00  0.00     0.006 C 
BRANCH  20  21
ATOM     21  C   UNL     1     -41.417 -23.976  28.544  1.00  0.00     0.053 C 
BRANCH  21  22
ATOM     22  C   UNL     1     -40.514 -25.053  29.054  1.00  0.00     0.041 C 
ATOM     23  O   UNL     1     -40.995 -26.138  29.474  1.00  0.00    -0.550 OA
ATOM     24  O   UNL     1     -39.137 -24.879  29.023  1.00  0.00    -0.550 OA
ENDBRANCH  21  22
ENDBRANCH  20  21
ENDBRANCH  19  20
ENDBRANCH  18  19
ENDBRANCH  17  18
ENDBRANCH  16  17
ENDBRANCH  15  16
ENDBRANCH  14  15
ENDBRANCH  13  14
ENDBRANCH   1  13
TORSDOF 20
ENDMDL
MODEL 7
REMARK VINA RESULT:    -3.382      3.299      7.321
REMARK INTER + INTRA:         -10.699
REMARK INTER:                  -8.297
REMARK INTRA:                  -2.402
REMARK UNBOUND:                -3.362
REMARK SMILES CCCCCCCCCCCCCCCCCCCCCC(=O)[O-]
REMARK SMILES IDX 12 1 11 2 10 3 9 4 8 5 7 6 6 7 5 8 4 9 3 10 2 11 1 12 13 13
REMARK SMILES IDX 14 14 15 15 16 16 17 17 18 18 19 19 20 20 21 21 22 22 23 23
REMARK SMILES IDX 24 24
REMARK H PARENT
REMARK Flexibility Score: inf
ROOT
ATOM      1  C   UNL     1     -42.334 -22.027  27.213  1.00  0.00     0.000 C 
ENDROOT
BRANCH   1   2
ATOM      2  C   UNL     1     -41.627 -22.154  28.578  1.00  0.00     0.000 C 
BRANCH   2   3
ATOM      3  C   UNL     1     -40.634 -21.024  28.906  1.00  0.00     0.000 C 
BRANCH   3   4
ATOM      4  C   UNL     1     -40.360 -20.103  27.708  1.00  0.00    -0.000 C 
BRANCH   4   5
ATOM      5  C   UNL     1     -38.853 -19.991  27.439  1.00  0.00    -0.000 C 
BRANCH   5   6
ATOM      6  C   UNL     1     -38.039 -21.117  28.101  1.00  0.00    -0.000 C 
BRANCH   6   7
ATOM      7  C   UNL     1     -37.591 -22.242  27.150  1.00  0.00    -0.000 C 
BRANCH   7   8
ATOM      8  C   UNL     1     -38.387 -23.555  27.270  1.00  0.00    -0.000 C 
BRANCH   8   9
ATOM      9  C   UNL     1     -38.254 -24.244  28.645  1.00  0.00    -0.000 C 
BRANCH   9  10
ATOM     10  C   UNL     1     -39.034 -25.568  28.720  1.00  0.00    -0.000 C 
BRANCH  10  11
ATOM     11  C   UNL     1     -40.393 -25.413  29.421  1.00  0.00    -0.003 C 
ATOM     12  C   UNL     1     -41.563 -25.863  28.546  1.00  0.00     0.004 C 
ENDBRANCH  10  11
ENDBRANCH   9  10
ENDBRANCH   8   9
ENDBRANCH   7   8
ENDBRANCH   6   7
ENDBRANCH   5   6
ENDBRANCH   4   5
ENDBRANCH   3   4
ENDBRANCH   2   3
ENDBRANCH   1   2
BRANCH   1  13
ATOM     13  C   UNL     1     -43.871 -21.958  27.278  1.00  0.00     0.000 C 
BRANCH  13  14
ATOM     14  C   UNL     1     -44.442 -22.550  28.574  1.00  0.00     0.000 C 
BRANCH  14  15
ATOM     15  C   UNL     1     -45.977 -22.574  28.533  1.00  0.00     0.000 C 
BRANCH  15  16
ATOM     16  C   UNL     1     -46.550 -21.766  27.358  1.00  0.00     0.000 C 
BRANCH  16  17
ATOM     17  C   UNL     1     -47.306 -20.508  27.821  1.00  0.00     0.000 C 
BRANCH  17  18
ATOM     18  C   UNL     1     -47.269 -19.381  26.775  1.00  0.00     0.000 C 
BRANCH  18  19
ATOM     19  C   UNL     1     -45.838 -18.969  26.399  1.00  0.00     0.000 C 
BRANCH  19  20
ATOM     20  C   UNL     1     -45.660 -17.449  26.499  1.00  0.00     0.006 C 
BRANCH  20  21
ATOM     21  C   UNL     1     -47.016 -16.739  26.543  1.00  0.00     0.053 C 
BRANCH  21  22
ATOM     22  C   UNL     1     -47.274 -16.025  25.255  1.00  0.00     0.041 C 
ATOM     23  O   UNL     1     -47.513 -14.790  25.251  1.00  0.00    -0.550 OA
ATOM     24  O   UNL     1     -47.202 -16.714  24.051  1.00  0.00    -0.550 OA
ENDBRANCH  21  22
ENDBRANCH  20  21
ENDBRANCH  19  20
ENDBRANCH  18  19
ENDBRANCH  17  18
ENDBRANCH  16  17
ENDBRANCH  15  16
ENDBRANCH  14  15
ENDBRANCH  13  14
ENDBRANCH   1  13
TORSDOF 20
ENDMDL
MODEL 8
REMARK VINA RESULT:    -3.326      3.238      7.445
REMARK INTER + INTRA:         -10.577
REMARK INTER:                  -7.449
REMARK INTRA:                  -3.128
REMARK UNBOUND:                -3.362
REMARK SMILES CCCCCCCCCCCCCCCCCCCCCC(=O)[O-]
REMARK SMILES IDX 12 1 11 2 10 3 9 4 8 5 7 6 6 7 5 8 4 9 3 10 2 11 1 12 13 13
REMARK SMILES IDX 14 14 15 15 16 16 17 17 18 18 19 19 20 20 21 21 22 22 23 23
REMARK SMILES IDX 24 24
REMARK H PARENT
REMARK Flexibility Score: inf
ROOT
ATOM      1  C   UNL     1     -43.367 -19.240  24.926  1.00  0.00     0.000 C 
ENDROOT
BRANCH   1   2
ATOM      2  C   UNL     1     -43.430 -20.031  26.249  1.00  0.00     0.000 C 
BRANCH   2   3
ATOM      3  C   UNL     1     -44.028 -21.445  26.137  1.00  0.00     0.000 C 
BRANCH   3   4
ATOM      4  C   UNL     1     -43.227 -22.495  26.919  1.00  0.00    -0.000 C 
BRANCH   4   5
ATOM      5  C   UNL     1     -43.436 -22.327  28.431  1.00  0.00    -0.000 C 
BRANCH   5   6
ATOM      6  C   UNL     1     -42.113 -22.271  29.216  1.00  0.00    -0.000 C 
BRANCH   6   7
ATOM      7  C   UNL     1     -40.897 -21.785  28.407  1.00  0.00    -0.000 C 
BRANCH   7   8
ATOM      8  C   UNL     1     -40.143 -20.587  29.015  1.00  0.00    -0.000 C 
BRANCH   8   9
ATOM      9  C   UNL     1     -39.180 -19.890  28.030  1.00  0.00    -0.000 C 
BRANCH   9  10
ATOM     10  C   UNL     1     -39.912 -18.961  27.046  1.00  0.00    -0.000 C 
BRANCH  10  11
ATOM     11  C   UNL     1     -39.461 -19.168  25.593  1.00  0.00    -0.003 C 
ATOM     12  C   UNL     1     -39.850 -20.541  25.043  1.00  0.00     0.004 C 
ENDBRANCH  10  11
ENDBRANCH   9  10
ENDBRANCH   8   9
ENDBRANCH   7   8
ENDBRANCH   6   7
ENDBRANCH   5   6
ENDBRANCH   4   5
ENDBRANCH   3   4
ENDBRANCH   2   3
ENDBRANCH   1   2
BRANCH   1  13
ATOM     13  C   UNL     1     -42.900 -17.779  25.061  1.00  0.00     0.000 C 
BRANCH  13  14
ATOM     14  C   UNL     1     -44.002 -16.766  24.720  1.00  0.00     0.000 C 
BRANCH  14  15
ATOM     15  C   UNL     1     -44.657 -16.221  25.998  1.00  0.00     0.000 C 
BRANCH  15  16
ATOM     16  C   UNL     1     -46.193 -16.268  25.942  1.00  0.00     0.000 C 
BRANCH  16  17
ATOM     17  C   UNL     1     -46.791 -17.237  26.977  1.00  0.00     0.000 C 
BRANCH  17  18
ATOM     18  C   UNL     1     -46.874 -18.680  26.453  1.00  0.00     0.000 C 
BRANCH  18  19
ATOM     19  C   UNL     1     -47.136 -19.701  27.571  1.00  0.00     0.000 C 
BRANCH  19  20
ATOM     20  C   UNL     1     -48.223 -20.701  27.157  1.00  0.00     0.006 C 
BRANCH  20  21
ATOM     21  C   UNL     1     -47.606 -22.034  26.723  1.00  0.00     0.053 C 
BRANCH  21  22
ATOM     22  C   UNL     1     -48.045 -22.385  25.337  1.00  0.00     0.041 C 
ATOM     23  O   UNL     1     -49.092 -23.059  25.155  1.00  0.00    -0.550 OA
ATOM     24  O   UNL     1     -47.324 -21.927  24.242  1.00  0.00    -0.550 OA
ENDBRANCH  21  22
ENDBRANCH  20  21
ENDBRANCH  19  20
ENDBRANCH  18  19
ENDBRANCH  17  18
ENDBRANCH  16  17
ENDBRANCH  15  16
ENDBRANCH  14  15
ENDBRANCH  13  14
ENDBRANCH   1  13
TORSDOF 20
ENDMDL
MODEL 9
REMARK VINA RESULT:    -3.325      2.681      6.396
REMARK INTER + INTRA:         -10.575
REMARK INTER:                  -7.036
REMARK INTRA:                  -3.538
REMARK UNBOUND:                -3.362
REMARK SMILES CCCCCCCCCCCCCCCCCCCCCC(=O)[O-]
REMARK SMILES IDX 12 1 11 2 10 3 9 4 8 5 7 6 6 7 5 8 4 9 3 10 2 11 1 12 13 13
REMARK SMILES IDX 14 14 15 15 16 16 17 17 18 18 19 19 20 20 21 21 22 22 23 23
REMARK SMILES IDX 24 24
REMARK H PARENT
REMARK Flexibility Score: inf
ROOT
ATOM      1  C   UNL     1     -45.067 -22.926  28.343  1.00  0.00     0.000 C 
ENDROOT
BRANCH   1   2
ATOM      2  C   UNL     1     -43.860 -22.027  28.006  1.00  0.00     0.000 C 
BRANCH   2   3
ATOM      3  C   UNL     1     -43.050 -22.458  26.769  1.00  0.00     0.000 C 
BRANCH   3   4
ATOM      4  C   UNL     1     -43.714 -22.044  25.448  1.00  0.00    -0.000 C 
BRANCH   4   5
ATOM      5  C   UNL     1     -42.671 -21.506  24.457  1.00  0.00    -0.000 C 
BRANCH   5   6
ATOM      6  C   UNL     1     -41.274 -21.349  25.084  1.00  0.00    -0.000 C 
BRANCH   6   7
ATOM      7  C   UNL     1     -40.766 -19.899  25.182  1.00  0.00    -0.000 C 
BRANCH   7   8
ATOM      8  C   UNL     1     -40.953 -19.232  26.558  1.00  0.00    -0.000 C 
BRANCH   8   9
ATOM      9  C   UNL     1     -39.749 -19.408  27.508  1.00  0.00    -0.000 C 
BRANCH   9  10
ATOM     10  C   UNL     1     -40.045 -20.382  28.661  1.00  0.00    -0.000 C 
BRANCH  10  11
ATOM     11  C   UNL     1     -39.650 -21.829  28.328  1.00  0.00    -0.003 C 
ATOM     12  C   UNL     1     -38.141 -22.062  28.402  1.00  0.00     0.004 C 
ENDBRANCH  10  11
ENDBRANCH   9  10
ENDBRANCH   8   9
ENDBRANCH   7   8
ENDBRANCH   6   7
ENDBRANCH   5   6
ENDBRANCH   4   5
ENDBRANCH   3   4
ENDBRANCH   2   3
ENDBRANCH   1   2
BRANCH   1  13
ATOM     13  C   UNL     1     -46.442 -22.239  28.235  1.00  0.00     0.000 C 
BRANCH  13  14
ATOM     14  C   UNL     1     -47.128 -22.484  26.884  1.00  0.00     0.000 C 
BRANCH  14  15
ATOM     15  C   UNL     1     -47.864 -21.222  26.409  1.00  0.00     0.000 C 
BRANCH  15  16
ATOM     16  C   UNL     1     -47.890 -20.116  27.476  1.00  0.00     0.000 C 
BRANCH  16  17
ATOM     17  C   UNL     1     -47.164 -18.839  27.019  1.00  0.00     0.000 C 
BRANCH  17  18
ATOM     18  C   UNL     1     -46.193 -19.098  25.855  1.00  0.00     0.000 C 
BRANCH  18  19
ATOM     19  C   UNL     1     -44.753 -18.673  26.179  1.00  0.00     0.000 C 
BRANCH  19  20
ATOM     20  C   UNL     1     -44.076 -18.047  24.954  1.00  0.00     0.006 C 
BRANCH  20  21
ATOM     21  C   UNL     1     -43.478 -16.679  25.295  1.00  0.00     0.053 C 
BRANCH  21  22
ATOM     22  C   UNL     1     -44.506 -15.604  25.134  1.00  0.00     0.041 C 
ATOM     23  O   UNL     1     -45.439 -15.738  24.301  1.00  0.00    -0.550 OA
ATOM     24  O   UNL     1     -44.461 -14.474  25.939  1.00  0.00    -0.550 OA
ENDBRANCH  21  22
ENDBRANCH  20  21
ENDBRANCH  19  20
ENDBRANCH  18  19
ENDBRANCH  17  18
ENDBRANCH  16  17
ENDBRANCH  15  16
ENDBRANCH  14  15
ENDBRANCH  13  14
ENDBRANCH   1  13
TORSDOF 20
ENDMDL
