MODEL 1
REMARK VINA RESULT:    -4.389      0.000      0.000
REMARK INTER + INTRA:          -5.081
REMARK INTER:                  -5.031
REMARK INTRA:                  -0.050
REMARK UNBOUND:                -0.050
REMARK SMILES O=C([O-])c1cc(O)c(O)c(O)c1
REMARK SMILES IDX 4 1 5 2 12 3 6 4 10 5 8 6 2 7 1 8 3 9 7 10 11 12 9 14
REMARK H PARENT 7 11 11 13 9 15
REMARK Flexibility Score: inf
ROOT
ATOM      1  C   UNL     1      15.078  57.391  34.327  1.00  0.00     0.005 A 
ATOM      2  C   UNL     1      16.473  57.243  34.230  1.00  0.00     0.060 A 
ATOM      3  C   UNL     1      14.521  58.675  34.212  1.00  0.00     0.060 A 
ATOM      4  C   UNL     1      17.297  58.354  34.025  1.00  0.00     0.162 A 
ATOM      5  C   UNL     1      15.339  59.793  34.005  1.00  0.00     0.162 A 
ATOM      6  C   UNL     1      16.733  59.636  33.912  1.00  0.00     0.200 A 
ENDROOT
BRANCH   1   7
ATOM      7  C   UNL     1      14.208  56.214  34.545  1.00  0.00     0.072 C 
ATOM      8  O   UNL     1      13.052  56.170  34.045  1.00  0.00    -0.545 OA
ATOM      9  O   UNL     1      14.654  55.140  35.307  1.00  0.00    -0.545 OA
ENDBRANCH   1   7
BRANCH   4  10
ATOM     10  O   UNL     1      18.676  58.164  33.936  1.00  0.00    -0.504 OA
ATOM     11  H   UNL     1      19.081  57.287  33.631  1.00  0.00     0.293 HD
ENDBRANCH   4  10
BRANCH   5  12
ATOM     12  O   UNL     1      14.773  61.063  33.893  1.00  0.00    -0.504 OA
ATOM     13  H   UNL     1      14.355  61.530  34.689  1.00  0.00     0.293 HD
ENDBRANCH   5  12
BRANCH   6  14
ATOM     14  O   UNL     1      17.562  60.738  33.706  1.00  0.00    -0.502 OA
ATOM     15  H   UNL     1      17.942  61.278  34.474  1.00  0.00     0.293 HD
ENDBRANCH   6  14
TORSDOF 4
ENDMDL
MODEL 2
REMARK VINA RESULT:    -4.386      0.105      2.430
REMARK INTER + INTRA:          -5.077
REMARK INTER:                  -5.027
REMARK INTRA:                  -0.050
REMARK UNBOUND:                -0.050
REMARK SMILES O=C([O-])c1cc(O)c(O)c(O)c1
REMARK SMILES IDX 4 1 5 2 12 3 6 4 10 5 8 6 2 7 1 8 3 9 7 10 11 12 9 14
REMARK H PARENT 7 11 11 13 9 15
REMARK Flexibility Score: inf
ROOT
ATOM      1  C   UNL     1      15.001  57.357  34.329  1.00  0.00     0.005 A 
ATOM      2  C   UNL     1      14.478  58.660  34.264  1.00  0.00     0.060 A 
ATOM      3  C   UNL     1      16.385  57.171  34.178  1.00  0.00     0.060 A 
ATOM      4  C   UNL     1      15.318  59.758  34.052  1.00  0.00     0.162 A 
ATOM      5  C   UNL     1      17.234  58.266  33.966  1.00  0.00     0.162 A 
ATOM      6  C   UNL     1      16.702  59.565  33.901  1.00  0.00     0.200 A 
ENDROOT
BRANCH   1   7
ATOM      7  C   UNL     1      14.111  56.196  34.553  1.00  0.00     0.072 C 
ATOM      8  O   UNL     1      12.962  56.160  34.036  1.00  0.00    -0.545 OA
ATOM      9  O   UNL     1      14.530  55.129  35.339  1.00  0.00    -0.545 OA
ENDBRANCH   1   7
BRANCH   4  10
ATOM     10  O   UNL     1      14.759  61.034  33.993  1.00  0.00    -0.504 OA
ATOM     11  H   UNL     1      15.194  61.834  34.437  1.00  0.00     0.293 HD
ENDBRANCH   4  10
BRANCH   5  12
ATOM     12  O   UNL     1      18.607  58.067  33.818  1.00  0.00    -0.504 OA
ATOM     13  H   UNL     1      19.079  57.283  34.250  1.00  0.00     0.293 HD
ENDBRANCH   5  12
BRANCH   6  14
ATOM     14  O   UNL     1      17.532  60.666  33.690  1.00  0.00    -0.502 OA
ATOM     15  H   UNL     1      17.326  61.372  32.995  1.00  0.00     0.293 HD
ENDBRANCH   6  14
TORSDOF 4
ENDMDL
MODEL 3
REMARK VINA RESULT:    -4.253      1.413      2.619
REMARK INTER + INTRA:          -4.924
REMARK INTER:                  -4.874
REMARK INTRA:                  -0.051
REMARK UNBOUND:                -0.050
REMARK SMILES O=C([O-])c1cc(O)c(O)c(O)c1
REMARK SMILES IDX 4 1 5 2 12 3 6 4 10 5 8 6 2 7 1 8 3 9 7 10 11 12 9 14
REMARK H PARENT 7 11 11 13 9 15
REMARK Flexibility Score: inf
ROOT
ATOM      1  C   UNL     1      14.379  58.686  34.203  1.00  0.00     0.005 A 
ATOM      2  C   UNL     1      14.792  57.370  33.934  1.00  0.00     0.060 A 
ATOM      3  C   UNL     1      15.325  59.722  34.143  1.00  0.00     0.060 A 
ATOM      4  C   UNL     1      16.125  57.091  33.612  1.00  0.00     0.162 A 
ATOM      5  C   UNL     1      16.662  59.451  33.820  1.00  0.00     0.162 A 
ATOM      6  C   UNL     1      17.066  58.132  33.554  1.00  0.00     0.200 A 
ENDROOT
BRANCH   1   7
ATOM      7  C   UNL     1      12.969  58.980  34.545  1.00  0.00     0.072 C 
ATOM      8  O   UNL     1      12.466  60.104  34.280  1.00  0.00    -0.545 OA
ATOM      9  O   UNL     1      12.180  58.017  35.164  1.00  0.00    -0.545 OA
ENDBRANCH   1   7
BRANCH   4  10
ATOM     10  O   UNL     1      16.494  55.771  33.352  1.00  0.00    -0.504 OA
ATOM     11  H   UNL     1      15.810  55.041  33.194  1.00  0.00     0.293 HD
ENDBRANCH   4  10
BRANCH   5  12
ATOM     12  O   UNL     1      17.592  60.490  33.764  1.00  0.00    -0.504 OA
ATOM     13  H   UNL     1      17.994  60.794  32.886  1.00  0.00     0.293 HD
ENDBRANCH   5  12
BRANCH   6  14
ATOM     14  O   UNL     1      18.392  57.845  33.231  1.00  0.00    -0.502 OA
ATOM     15  H   UNL     1      18.998  58.523  32.785  1.00  0.00     0.293 HD
ENDBRANCH   6  14
TORSDOF 4
ENDMDL
MODEL 4
REMARK VINA RESULT:    -4.246      1.421      3.083
REMARK INTER + INTRA:          -4.917
REMARK INTER:                  -4.865
REMARK INTRA:                  -0.052
REMARK UNBOUND:                -0.050
REMARK SMILES O=C([O-])c1cc(O)c(O)c(O)c1
REMARK SMILES IDX 4 1 5 2 12 3 6 4 10 5 8 6 2 7 1 8 3 9 7 10 11 12 9 14
REMARK H PARENT 7 11 11 13 9 15
REMARK Flexibility Score: inf
ROOT
ATOM      1  C   UNL     1      14.393  58.670  34.199  1.00  0.00     0.005 A 
ATOM      2  C   UNL     1      15.336  59.709  34.127  1.00  0.00     0.060 A 
ATOM      3  C   UNL     1      14.807  57.354  33.938  1.00  0.00     0.060 A 
ATOM      4  C   UNL     1      16.670  59.442  33.798  1.00  0.00     0.162 A 
ATOM      5  C   UNL     1      16.142  57.077  33.609  1.00  0.00     0.162 A 
ATOM      6  C   UNL     1      17.078  58.123  33.537  1.00  0.00     0.200 A 
ENDROOT
BRANCH   1   7
ATOM      7  C   UNL     1      12.982  58.954  34.546  1.00  0.00     0.072 C 
ATOM      8  O   UNL     1      12.072  58.135  34.253  1.00  0.00    -0.545 OA
ATOM      9  O   UNL     1      12.643  60.133  35.201  1.00  0.00    -0.545 OA
ENDBRANCH   1   7
BRANCH   4  10
ATOM     10  O   UNL     1      17.575  60.501  33.736  1.00  0.00    -0.504 OA
ATOM     11  H   UNL     1      18.557  60.384  33.952  1.00  0.00     0.293 HD
ENDBRANCH   4  10
BRANCH   5  12
ATOM     12  O   UNL     1      16.540  55.766  33.351  1.00  0.00    -0.504 OA
ATOM     13  H   UNL     1      16.929  55.495  32.456  1.00  0.00     0.293 HD
ENDBRANCH   5  12
BRANCH   6  14
ATOM     14  O   UNL     1      18.410  57.865  33.211  1.00  0.00    -0.502 OA
ATOM     15  H   UNL     1      18.824  58.184  32.343  1.00  0.00     0.293 HD
ENDBRANCH   6  14
TORSDOF 4
ENDMDL
MODEL 5
REMARK VINA RESULT:    -4.027      3.520      6.338
REMARK INTER + INTRA:          -4.665
REMARK INTER:                  -4.619
REMARK INTRA:                  -0.046
REMARK UNBOUND:                -0.050
REMARK SMILES O=C([O-])c1cc(O)c(O)c(O)c1
REMARK SMILES IDX 4 1 5 2 12 3 6 4 10 5 8 6 2 7 1 8 3 9 7 10 11 12 9 14
REMARK H PARENT 7 11 11 13 9 15
REMARK Flexibility Score: inf
ROOT
ATOM      1  C   UNL     1      14.464  54.525  35.440  1.00  0.00     0.005 A 
ATOM      2  C   UNL     1      15.007  53.304  35.876  1.00  0.00     0.060 A 
ATOM      3  C   UNL     1      13.296  55.008  36.053  1.00  0.00     0.060 A 
ATOM      4  C   UNL     1      14.397  52.577  36.903  1.00  0.00     0.162 A 
ATOM      5  C   UNL     1      12.679  54.286  37.083  1.00  0.00     0.162 A 
ATOM      6  C   UNL     1      13.229  53.065  37.512  1.00  0.00     0.200 A 
ENDROOT
BRANCH   1   7
ATOM      7  C   UNL     1      15.110  55.293  34.352  1.00  0.00     0.072 C 
ATOM      8  O   UNL     1      15.623  56.421  34.580  1.00  0.00    -0.545 OA
ATOM      9  O   UNL     1      15.158  54.779  33.061  1.00  0.00    -0.545 OA
ENDBRANCH   1   7
BRANCH   4  10
ATOM     10  O   UNL     1      14.968  51.370  37.306  1.00  0.00    -0.504 OA
ATOM     11  H   UNL     1      14.412  50.539  37.471  1.00  0.00     0.293 HD
ENDBRANCH   4  10
BRANCH   5  12
ATOM     12  O   UNL     1      11.519  54.776  37.684  1.00  0.00    -0.504 OA
ATOM     13  H   UNL     1      10.643  54.272  37.635  1.00  0.00     0.293 HD
ENDBRANCH   5  12
BRANCH   6  14
ATOM     14  O   UNL     1      12.628  52.334  38.536  1.00  0.00    -0.502 OA
ATOM     15  H   UNL     1      12.788  51.341  38.656  1.00  0.00     0.293 HD
ENDBRANCH   6  14
TORSDOF 4
ENDMDL
MODEL 6
REMARK VINA RESULT:    -3.920      2.193      3.135
REMARK INTER + INTRA:          -4.543
REMARK INTER:                  -4.490
REMARK INTRA:                  -0.053
REMARK UNBOUND:                -0.050
REMARK SMILES O=C([O-])c1cc(O)c(O)c(O)c1
REMARK SMILES IDX 4 1 5 2 12 3 6 4 10 5 8 6 2 7 1 8 3 9 7 10 11 12 9 14
REMARK H PARENT 7 11 11 13 9 15
REMARK Flexibility Score: inf
ROOT
ATOM      1  C   UNL     1      14.876  58.633  32.092  1.00  0.00     0.005 A 
ATOM      2  C   UNL     1      15.462  57.356  32.144  1.00  0.00     0.060 A 
ATOM      3  C   UNL     1      15.558  59.719  32.666  1.00  0.00     0.060 A 
ATOM      4  C   UNL     1      16.705  57.165  32.758  1.00  0.00     0.162 A 
ATOM      5  C   UNL     1      16.803  59.536  33.281  1.00  0.00     0.162 A 
ATOM      6  C   UNL     1      17.381  58.255  33.329  1.00  0.00     0.200 A 
ENDROOT
BRANCH   1   7
ATOM      7  C   UNL     1      13.561  58.833  31.444  1.00  0.00     0.072 C 
ATOM      8  O   UNL     1      12.979  59.949  31.505  1.00  0.00    -0.545 OA
ATOM      9  O   UNL     1      12.948  57.791  30.757  1.00  0.00    -0.545 OA
ENDBRANCH   1   7
BRANCH   4  10
ATOM     10  O   UNL     1      17.252  55.882  32.788  1.00  0.00    -0.504 OA
ATOM     11  H   UNL     1      17.804  55.550  33.570  1.00  0.00     0.293 HD
ENDBRANCH   4  10
BRANCH   5  12
ATOM     12  O   UNL     1      17.470  60.623  33.847  1.00  0.00    -0.504 OA
ATOM     13  H   UNL     1      17.711  60.644  34.831  1.00  0.00     0.293 HD
ENDBRANCH   5  12
BRANCH   6  14
ATOM     14  O   UNL     1      18.620  58.056  33.939  1.00  0.00    -0.502 OA
ATOM     15  H   UNL     1      19.482  58.016  33.408  1.00  0.00     0.293 HD
ENDBRANCH   6  14
TORSDOF 4
ENDMDL
MODEL 7
REMARK VINA RESULT:    -3.908     10.938     12.132
REMARK INTER + INTRA:          -4.529
REMARK INTER:                  -4.482
REMARK INTRA:                  -0.047
REMARK UNBOUND:                -0.050
REMARK SMILES O=C([O-])c1cc(O)c(O)c(O)c1
REMARK SMILES IDX 4 1 5 2 12 3 6 4 10 5 8 6 2 7 1 8 3 9 7 10 11 12 9 14
REMARK H PARENT 7 11 11 13 9 15
REMARK Flexibility Score: inf
ROOT
ATOM      1  C   UNL     1      23.263  56.439  42.230  1.00  0.00     0.005 A 
ATOM      2  C   UNL     1      22.920  55.650  43.342  1.00  0.00     0.060 A 
ATOM      3  C   UNL     1      23.384  57.828  42.393  1.00  0.00     0.060 A 
ATOM      4  C   UNL     1      22.700  56.235  44.594  1.00  0.00     0.162 A 
ATOM      5  C   UNL     1      23.167  58.423  43.644  1.00  0.00     0.162 A 
ATOM      6  C   UNL     1      22.824  57.626  44.749  1.00  0.00     0.200 A 
ENDROOT
BRANCH   1   7
ATOM      7  C   UNL     1      23.493  55.818  40.907  1.00  0.00     0.072 C 
ATOM      8  O   UNL     1      24.306  54.864  40.779  1.00  0.00    -0.545 OA
ATOM      9  O   UNL     1      22.816  56.281  39.784  1.00  0.00    -0.545 OA
ENDBRANCH   1   7
BRANCH   4  10
ATOM     10  O   UNL     1      22.361  55.417  45.671  1.00  0.00    -0.504 OA
ATOM     11  H   UNL     1      21.693  55.704  46.376  1.00  0.00     0.293 HD
ENDBRANCH   4  10
BRANCH   5  12
ATOM     12  O   UNL     1      23.291  59.804  43.792  1.00  0.00    -0.504 OA
ATOM     13  H   UNL     1      23.820  60.363  43.134  1.00  0.00     0.293 HD
ENDBRANCH   5  12
BRANCH   6  14
ATOM     14  O   UNL     1      22.604  58.201  46.001  1.00  0.00    -0.502 OA
ATOM     15  H   UNL     1      23.254  58.859  46.414  1.00  0.00     0.293 HD
ENDBRANCH   6  14
TORSDOF 4
ENDMDL
MODEL 8
REMARK VINA RESULT:    -3.890      1.330      1.474
REMARK INTER + INTRA:          -4.509
REMARK INTER:                  -4.460
REMARK INTRA:                  -0.049
REMARK UNBOUND:                -0.050
REMARK SMILES O=C([O-])c1cc(O)c(O)c(O)c1
REMARK SMILES IDX 4 1 5 2 12 3 6 4 10 5 8 6 2 7 1 8 3 9 7 10 11 12 9 14
REMARK H PARENT 7 11 11 13 9 15
REMARK Flexibility Score: inf
ROOT
ATOM      1  C   UNL     1      14.510  56.488  34.430  1.00  0.00     0.005 A 
ATOM      2  C   UNL     1      15.702  55.984  33.882  1.00  0.00     0.060 A 
ATOM      3  C   UNL     1      14.253  57.867  34.351  1.00  0.00     0.060 A 
ATOM      4  C   UNL     1      16.624  56.839  33.268  1.00  0.00     0.162 A 
ATOM      5  C   UNL     1      15.171  58.730  33.737  1.00  0.00     0.162 A 
ATOM      6  C   UNL     1      16.361  58.217  33.193  1.00  0.00     0.200 A 
ENDROOT
BRANCH   1   7
ATOM      7  C   UNL     1      13.537  55.582  35.081  1.00  0.00     0.072 C 
ATOM      8  O   UNL     1      12.298  55.749  34.920  1.00  0.00    -0.545 OA
ATOM      9  O   UNL     1      13.977  54.534  35.881  1.00  0.00    -0.545 OA
ENDBRANCH   1   7
BRANCH   4  10
ATOM     10  O   UNL     1      17.795  56.300  32.738  1.00  0.00    -0.504 OA
ATOM     11  H   UNL     1      18.285  55.532  33.181  1.00  0.00     0.293 HD
ENDBRANCH   4  10
BRANCH   5  12
ATOM     12  O   UNL     1      14.904  60.097  33.665  1.00  0.00    -0.504 OA
ATOM     13  H   UNL     1      14.029  60.449  33.295  1.00  0.00     0.293 HD
ENDBRANCH   5  12
BRANCH   6  14
ATOM     14  O   UNL     1      17.285  59.062  32.578  1.00  0.00    -0.502 OA
ATOM     15  H   UNL     1      17.101  60.047  32.431  1.00  0.00     0.293 HD
ENDBRANCH   6  14
TORSDOF 4
ENDMDL
MODEL 9
REMARK VINA RESULT:    -3.823     12.146     13.483
REMARK INTER + INTRA:          -4.432
REMARK INTER:                  -4.379
REMARK INTRA:                  -0.052
REMARK UNBOUND:                -0.050
REMARK SMILES O=C([O-])c1cc(O)c(O)c(O)c1
REMARK SMILES IDX 4 1 5 2 12 3 6 4 10 5 8 6 2 7 1 8 3 9 7 10 11 12 9 14
REMARK H PARENT 7 11 11 13 9 15
REMARK Flexibility Score: inf
ROOT
ATOM      1  C   UNL     1      24.774  54.981  42.745  1.00  0.00     0.005 A 
ATOM      2  C   UNL     1      25.395  55.559  43.865  1.00  0.00     0.060 A 
ATOM      3  C   UNL     1      23.384  54.779  42.766  1.00  0.00     0.060 A 
ATOM      4  C   UNL     1      24.646  55.928  44.987  1.00  0.00     0.162 A 
ATOM      5  C   UNL     1      22.626  55.148  43.886  1.00  0.00     0.162 A 
ATOM      6  C   UNL     1      23.256  55.724  45.002  1.00  0.00     0.200 A 
ENDROOT
BRANCH   1   7
ATOM      7  C   UNL     1      25.568  54.589  41.559  1.00  0.00     0.072 C 
ATOM      8  O   UNL     1      26.769  54.952  41.444  1.00  0.00    -0.545 OA
ATOM      9  O   UNL     1      24.998  53.815  40.555  1.00  0.00    -0.545 OA
ENDBRANCH   1   7
BRANCH   4  10
ATOM     10  O   UNL     1      25.301  56.498  46.079  1.00  0.00    -0.504 OA
ATOM     11  H   UNL     1      24.896  57.255  46.616  1.00  0.00     0.293 HD
ENDBRANCH   4  10
BRANCH   5  12
ATOM     12  O   UNL     1      21.246  54.942  43.894  1.00  0.00    -0.504 OA
ATOM     13  H   UNL     1      20.812  54.276  44.521  1.00  0.00     0.293 HD
ENDBRANCH   5  12
BRANCH   6  14
ATOM     14  O   UNL     1      22.516  56.096  46.125  1.00  0.00    -0.502 OA
ATOM     15  H   UNL     1      22.919  56.116  47.054  1.00  0.00     0.293 HD
ENDBRANCH   6  14
TORSDOF 4
ENDMDL
