MODEL 1
REMARK VINA RESULT:    -2.585      0.000      0.000
REMARK INTER + INTRA:          -3.085
REMARK INTER:                  -3.038
REMARK INTRA:                  -0.047
REMARK UNBOUND:                -0.047
REMARK SMILES CCCCC(=O)[O-]
REMARK SMILES IDX 4 1 5 2 6 3 7 4 3 5 2 6 1 7
REMARK H PARENT
REMARK Flexibility Score: inf
ROOT
ATOM      1  C   UNL     1      -1.933  -3.173   7.142  1.00  0.00     0.053 C 
ENDROOT
BRANCH   1   2
ATOM      2  C   UNL     1      -2.798  -2.383   8.073  1.00  0.00     0.041 C 
ATOM      3  O   UNL     1      -2.331  -1.383   8.677  1.00  0.00    -0.550 OA
ATOM      4  O   UNL     1      -4.108  -2.782   8.310  1.00  0.00    -0.550 OA
ENDBRANCH   1   2
BRANCH   1   5
ATOM      5  C   UNL     1      -1.816  -2.465   5.789  1.00  0.00     0.006 C 
BRANCH   5   6
ATOM      6  C   UNL     1      -0.390  -1.952   5.559  1.00  0.00    -0.003 C 
ATOM      7  C   UNL     1      -0.134  -1.678   4.080  1.00  0.00     0.004 C 
ENDBRANCH   5   6
ENDBRANCH   1   5
TORSDOF 3
ENDMDL
MODEL 2
REMARK VINA RESULT:    -2.580      2.051      2.316
REMARK INTER + INTRA:          -3.079
REMARK INTER:                  -2.987
REMARK INTRA:                  -0.092
REMARK UNBOUND:                -0.047
REMARK SMILES CCCCC(=O)[O-]
REMARK SMILES IDX 4 1 5 2 6 3 7 4 3 5 2 6 1 7
REMARK H PARENT
REMARK Flexibility Score: inf
ROOT
ATOM      1  C   UNL     1      -1.954  -3.367   7.039  1.00  0.00     0.053 C 
ENDROOT
BRANCH   1   2
ATOM      2  C   UNL     1      -3.016  -4.192   6.385  1.00  0.00     0.041 C 
ATOM      3  O   UNL     1      -3.544  -5.152   7.004  1.00  0.00    -0.550 OA
ATOM      4  O   UNL     1      -3.390  -3.930   5.072  1.00  0.00    -0.550 OA
ENDBRANCH   1   2
BRANCH   1   5
ATOM      5  C   UNL     1      -1.757  -2.049   6.283  1.00  0.00     0.006 C 
BRANCH   5   6
ATOM      6  C   UNL     1      -0.368  -1.987   5.639  1.00  0.00    -0.003 C 
ATOM      7  C   UNL     1      -0.465  -1.696   4.144  1.00  0.00     0.004 C 
ENDBRANCH   5   6
ENDBRANCH   1   5
TORSDOF 3
ENDMDL
MODEL 3
REMARK VINA RESULT:    -2.530      2.992      4.144
REMARK INTER + INTRA:          -3.021
REMARK INTER:                  -2.992
REMARK INTRA:                  -0.029
REMARK UNBOUND:                -0.047
REMARK SMILES CCCCC(=O)[O-]
REMARK SMILES IDX 4 1 5 2 6 3 7 4 3 5 2 6 1 7
REMARK H PARENT
REMARK Flexibility Score: inf
ROOT
ATOM      1  C   UNL     1      -0.435  -1.984   5.649  1.00  0.00     0.053 C 
ENDROOT
BRANCH   1   2
ATOM      2  C   UNL     1      -0.648  -1.633   4.211  1.00  0.00     0.041 C 
ATOM      3  O   UNL     1       0.126  -2.082   3.327  1.00  0.00    -0.550 OA
ATOM      4  O   UNL     1      -1.677  -0.770   3.852  1.00  0.00    -0.550 OA
ENDBRANCH   1   2
BRANCH   1   5
ATOM      5  C   UNL     1      -1.776  -2.086   6.381  1.00  0.00     0.006 C 
BRANCH   5   6
ATOM      6  C   UNL     1      -1.872  -3.394   7.175  1.00  0.00    -0.003 C 
ATOM      7  C   UNL     1      -3.041  -4.248   6.693  1.00  0.00     0.004 C 
ENDBRANCH   5   6
ENDBRANCH   1   5
TORSDOF 3
ENDMDL
MODEL 4
REMARK VINA RESULT:    -2.516      2.535      3.821
REMARK INTER + INTRA:          -3.004
REMARK INTER:                  -2.985
REMARK INTRA:                  -0.019
REMARK UNBOUND:                -0.047
REMARK SMILES CCCCC(=O)[O-]
REMARK SMILES IDX 4 1 5 2 6 3 7 4 3 5 2 6 1 7
REMARK H PARENT
REMARK Flexibility Score: inf
ROOT
ATOM      1  C   UNL     1      -2.001  -3.387   7.031  1.00  0.00     0.053 C 
ENDROOT
BRANCH   1   2
ATOM      2  C   UNL     1      -1.542  -2.127   6.370  1.00  0.00     0.041 C 
ATOM      3  O   UNL     1      -2.265  -1.097   6.395  1.00  0.00    -0.550 OA
ATOM      4  O   UNL     1      -0.333  -2.103   5.682  1.00  0.00    -0.550 OA
ENDBRANCH   1   2
BRANCH   1   5
ATOM      5  C   UNL     1      -3.045  -4.097   6.165  1.00  0.00     0.006 C 
BRANCH   5   6
ATOM      6  C   UNL     1      -3.889  -5.065   7.004  1.00  0.00    -0.003 C 
ATOM      7  C   UNL     1      -3.869  -6.471   6.411  1.00  0.00     0.004 C 
ENDBRANCH   5   6
ENDBRANCH   1   5
TORSDOF 3
ENDMDL
MODEL 5
REMARK VINA RESULT:    -2.503      1.917      2.535
REMARK INTER + INTRA:          -2.988
REMARK INTER:                  -2.954
REMARK INTRA:                  -0.035
REMARK UNBOUND:                -0.047
REMARK SMILES CCCCC(=O)[O-]
REMARK SMILES IDX 4 1 5 2 6 3 7 4 3 5 2 6 1 7
REMARK H PARENT
REMARK Flexibility Score: inf
ROOT
ATOM      1  C   UNL     1      -3.120  -4.044   6.216  1.00  0.00     0.053 C 
ENDROOT
BRANCH   1   2
ATOM      2  C   UNL     1      -4.119  -4.708   7.109  1.00  0.00     0.041 C 
ATOM      3  O   UNL     1      -4.821  -4.021   7.896  1.00  0.00    -0.550 OA
ATOM      4  O   UNL     1      -4.241  -6.093   7.107  1.00  0.00    -0.550 OA
ENDBRANCH   1   2
BRANCH   1   5
ATOM      5  C   UNL     1      -2.001  -3.405   7.043  1.00  0.00     0.006 C 
BRANCH   5   6
ATOM      6  C   UNL     1      -1.693  -1.987   6.549  1.00  0.00    -0.003 C 
ATOM      7  C   UNL     1      -0.513  -1.984   5.582  1.00  0.00     0.004 C 
ENDBRANCH   5   6
ENDBRANCH   1   5
TORSDOF 3
ENDMDL
MODEL 6
REMARK VINA RESULT:    -2.501      4.395      5.694
REMARK INTER + INTRA:          -2.987
REMARK INTER:                  -2.926
REMARK INTRA:                  -0.060
REMARK UNBOUND:                -0.047
REMARK SMILES CCCCC(=O)[O-]
REMARK SMILES IDX 4 1 5 2 6 3 7 4 3 5 2 6 1 7
REMARK H PARENT
REMARK Flexibility Score: inf
ROOT
ATOM      1  C   UNL     1      -5.679  -2.231  11.371  1.00  0.00     0.053 C 
ENDROOT
BRANCH   1   2
ATOM      2  C   UNL     1      -6.295  -3.496  10.865  1.00  0.00     0.041 C 
ATOM      3  O   UNL     1      -5.710  -4.178   9.984  1.00  0.00    -0.550 OA
ATOM      4  O   UNL     1      -7.541  -3.898  11.332  1.00  0.00    -0.550 OA
ENDBRANCH   1   2
BRANCH   1   5
ATOM      5  C   UNL     1      -4.246  -2.485  11.847  1.00  0.00     0.006 C 
BRANCH   5   6
ATOM      6  C   UNL     1      -3.328  -1.315  11.477  1.00  0.00    -0.003 C 
ATOM      7  C   UNL     1      -2.602  -1.576  10.161  1.00  0.00     0.004 C 
ENDBRANCH   5   6
ENDBRANCH   1   5
TORSDOF 3
ENDMDL
MODEL 7
REMARK VINA RESULT:    -2.479      4.390      5.675
REMARK INTER + INTRA:          -2.960
REMARK INTER:                  -2.876
REMARK INTRA:                  -0.084
REMARK UNBOUND:                -0.047
REMARK SMILES CCCCC(=O)[O-]
REMARK SMILES IDX 4 1 5 2 6 3 7 4 3 5 2 6 1 7
REMARK H PARENT
REMARK Flexibility Score: inf
ROOT
ATOM      1  C   UNL     1      -3.638  -1.027  11.572  1.00  0.00     0.053 C 
ENDROOT
BRANCH   1   2
ATOM      2  C   UNL     1      -2.552  -0.962  10.546  1.00  0.00     0.041 C 
ATOM      3  O   UNL     1      -1.687  -0.049  10.595  1.00  0.00    -0.550 OA
ATOM      4  O   UNL     1      -2.523  -1.883   9.505  1.00  0.00    -0.550 OA
ENDBRANCH   1   2
BRANCH   1   5
ATOM      5  C   UNL     1      -4.082  -2.476  11.791  1.00  0.00     0.006 C 
BRANCH   5   6
ATOM      6  C   UNL     1      -5.562  -2.658  11.434  1.00  0.00    -0.003 C 
ATOM      7  C   UNL     1      -5.754  -3.800  10.440  1.00  0.00     0.004 C 
ENDBRANCH   5   6
ENDBRANCH   1   5
TORSDOF 3
ENDMDL
MODEL 8
REMARK VINA RESULT:    -2.456      3.198      4.295
REMARK INTER + INTRA:          -2.933
REMARK INTER:                  -2.896
REMARK INTRA:                  -0.037
REMARK UNBOUND:                -0.047
REMARK SMILES CCCCC(=O)[O-]
REMARK SMILES IDX 4 1 5 2 6 3 7 4 3 5 2 6 1 7
REMARK H PARENT
REMARK Flexibility Score: inf
ROOT
ATOM      1  C   UNL     1      -3.394  -4.769   6.230  1.00  0.00     0.053 C 
ENDROOT
BRANCH   1   2
ATOM      2  C   UNL     1      -2.817  -3.634   7.014  1.00  0.00     0.041 C 
ATOM      3  O   UNL     1      -3.548  -2.960   7.785  1.00  0.00    -0.550 OA
ATOM      4  O   UNL     1      -1.480  -3.289   6.856  1.00  0.00    -0.550 OA
ENDBRANCH   1   2
BRANCH   1   5
ATOM      5  C   UNL     1      -4.247  -5.665   7.132  1.00  0.00     0.006 C 
BRANCH   5   6
ATOM      6  C   UNL     1      -4.594  -6.983   6.430  1.00  0.00    -0.003 C 
ATOM      7  C   UNL     1      -3.580  -7.310   5.337  1.00  0.00     0.004 C 
ENDBRANCH   5   6
ENDBRANCH   1   5
TORSDOF 3
ENDMDL
MODEL 9
REMARK VINA RESULT:    -2.397      2.055      2.753
REMARK INTER + INTRA:          -2.864
REMARK INTER:                  -2.766
REMARK INTRA:                  -0.098
REMARK UNBOUND:                -0.047
REMARK SMILES CCCCC(=O)[O-]
REMARK SMILES IDX 4 1 5 2 6 3 7 4 3 5 2 6 1 7
REMARK H PARENT
REMARK Flexibility Score: inf
ROOT
ATOM      1  C   UNL     1      -2.316  -1.985   7.528  1.00  0.00     0.053 C 
ENDROOT
BRANCH   1   2
ATOM      2  C   UNL     1      -2.966  -1.887   8.872  1.00  0.00     0.041 C 
ATOM      3  O   UNL     1      -2.316  -1.459   9.861  1.00  0.00    -0.550 OA
ATOM      4  O   UNL     1      -4.278  -2.314   9.042  1.00  0.00    -0.550 OA
ENDBRANCH   1   2
BRANCH   1   5
ATOM      5  C   UNL     1      -1.955  -3.439   7.212  1.00  0.00     0.006 C 
BRANCH   5   6
ATOM      6  C   UNL     1      -2.997  -4.076   6.286  1.00  0.00    -0.003 C 
ATOM      7  C   UNL     1      -3.606  -5.325   6.916  1.00  0.00     0.004 C 
ENDBRANCH   5   6
ENDBRANCH   1   5
TORSDOF 3
ENDMDL
