MODEL 1
REMARK VINA RESULT:    -3.589      0.000      0.000
REMARK INTER + INTRA:          -5.776
REMARK INTER:                  -5.267
REMARK INTRA:                  -0.509
REMARK UNBOUND:                -0.509
REMARK SMILES O=C([O-])CCCCCCCC(=O)[O-]
REMARK SMILES IDX 7 1 6 2 5 3 4 4 2 5 1 6 3 7 8 8 9 9 10 10 11 11 12 12 13 13
REMARK H PARENT
REMARK Flexibility Score: inf
ROOT
ATOM      1  C   UNL     1      22.823 -12.197  44.468  1.00  0.00     0.000 C 
ENDROOT
BRANCH   1   2
ATOM      2  C   UNL     1      21.849 -11.088  44.908  1.00  0.00     0.000 C 
BRANCH   2   3
ATOM      3  C   UNL     1      21.987  -9.755  44.144  1.00  0.00     0.006 C 
BRANCH   3   4
ATOM      4  C   UNL     1      20.660  -9.018  43.903  1.00  0.00     0.053 C 
BRANCH   4   5
ATOM      5  C   UNL     1      20.848  -7.778  43.084  1.00  0.00     0.041 C 
ATOM      6  O   UNL     1      19.882  -6.992  42.894  1.00  0.00    -0.550 OA
ATOM      7  O   UNL     1      22.097  -7.472  42.560  1.00  0.00    -0.550 OA
ENDBRANCH   4   5
ENDBRANCH   3   4
ENDBRANCH   2   3
ENDBRANCH   1   2
BRANCH   1   8
ATOM      8  C   UNL     1      22.151 -13.279  43.611  1.00  0.00     0.000 C 
BRANCH   8   9
ATOM      9  C   UNL     1      20.623 -13.233  43.765  1.00  0.00     0.006 C 
BRANCH   9  10
ATOM     10  C   UNL     1      20.042 -14.589  44.186  1.00  0.00     0.053 C 
BRANCH  10  11
ATOM     11  C   UNL     1      20.225 -14.839  45.652  1.00  0.00     0.041 C 
ATOM     12  O   UNL     1      20.399 -16.010  46.079  1.00  0.00    -0.550 OA
ATOM     13  O   UNL     1      20.234 -13.773  46.544  1.00  0.00    -0.550 OA
ENDBRANCH  10  11
ENDBRANCH   9  10
ENDBRANCH   8   9
ENDBRANCH   1   8
TORSDOF 8
ENDMDL
MODEL 2
REMARK VINA RESULT:    -3.425     13.737     16.145
REMARK INTER + INTRA:          -5.535
REMARK INTER:                  -5.156
REMARK INTRA:                  -0.379
REMARK UNBOUND:                -0.509
REMARK SMILES O=C([O-])CCCCCCCC(=O)[O-]
REMARK SMILES IDX 7 1 6 2 5 3 4 4 2 5 1 6 3 7 8 8 9 9 10 10 11 11 12 12 13 13
REMARK H PARENT
REMARK Flexibility Score: inf
ROOT
ATOM      1  C   UNL     1      34.210  -0.432  42.201  1.00  0.00     0.000 C 
ENDROOT
BRANCH   1   2
ATOM      2  C   UNL     1      32.996   0.052  43.015  1.00  0.00     0.000 C 
BRANCH   2   3
ATOM      3  C   UNL     1      31.719  -0.797  42.853  1.00  0.00     0.006 C 
BRANCH   3   4
ATOM      4  C   UNL     1      31.259  -1.509  44.136  1.00  0.00     0.053 C 
BRANCH   4   5
ATOM      5  C   UNL     1      29.789  -1.794  44.123  1.00  0.00     0.041 C 
ATOM      6  O   UNL     1      29.036  -1.206  43.303  1.00  0.00    -0.550 OA
ATOM      7  O   UNL     1      29.255  -2.736  44.993  1.00  0.00    -0.550 OA
ENDBRANCH   4   5
ENDBRANCH   3   4
ENDBRANCH   2   3
ENDBRANCH   1   2
BRANCH   1   8
ATOM      8  C   UNL     1      35.546  -0.193  42.917  1.00  0.00     0.000 C 
BRANCH   8   9
ATOM      9  C   UNL     1      36.379  -1.483  42.974  1.00  0.00     0.006 C 
BRANCH   9  10
ATOM     10  C   UNL     1      35.553  -2.723  42.607  1.00  0.00     0.053 C 
BRANCH  10  11
ATOM     11  C   UNL     1      35.732  -3.823  43.608  1.00  0.00     0.041 C 
ATOM     12  O   UNL     1      36.878  -4.104  44.045  1.00  0.00    -0.550 OA
ATOM     13  O   UNL     1      34.625  -4.518  44.082  1.00  0.00    -0.550 OA
ENDBRANCH  10  11
ENDBRANCH   9  10
ENDBRANCH   8   9
ENDBRANCH   1   8
TORSDOF 8
ENDMDL
MODEL 3
REMARK VINA RESULT:    -3.317      1.408      5.846
REMARK INTER + INTRA:          -5.378
REMARK INTER:                  -4.642
REMARK INTRA:                  -0.736
REMARK UNBOUND:                -0.509
REMARK SMILES O=C([O-])CCCCCCCC(=O)[O-]
REMARK SMILES IDX 7 1 6 2 5 3 4 4 2 5 1 6 3 7 8 8 9 9 10 10 11 11 12 12 13 13
REMARK H PARENT
REMARK Flexibility Score: inf
ROOT
ATOM      1  C   UNL     1      21.152 -10.964  45.537  1.00  0.00     0.000 C 
ENDROOT
BRANCH   1   2
ATOM      2  C   UNL     1      22.235 -11.279  44.489  1.00  0.00     0.000 C 
BRANCH   2   3
ATOM      3  C   UNL     1      22.623 -12.767  44.377  1.00  0.00     0.006 C 
BRANCH   3   4
ATOM      4  C   UNL     1      21.865 -13.544  43.288  1.00  0.00     0.053 C 
BRANCH   4   5
ATOM      5  C   UNL     1      20.571 -14.101  43.794  1.00  0.00     0.041 C 
ATOM      6  O   UNL     1      19.480 -13.739  43.278  1.00  0.00    -0.550 OA
ATOM      7  O   UNL     1      20.570 -15.047  44.811  1.00  0.00    -0.550 OA
ENDBRANCH   4   5
ENDBRANCH   3   4
ENDBRANCH   2   3
ENDBRANCH   1   2
BRANCH   1   8
ATOM      8  C   UNL     1      19.835 -10.485  44.913  1.00  0.00     0.000 C 
BRANCH   8   9
ATOM      9  C   UNL     1      20.027 -10.120  43.433  1.00  0.00     0.006 C 
BRANCH   9  10
ATOM     10  C   UNL     1      19.620  -8.671  43.135  1.00  0.00     0.053 C 
BRANCH  10  11
ATOM     11  C   UNL     1      20.792  -7.739  43.211  1.00  0.00     0.041 C 
ATOM     12  O   UNL     1      21.949  -8.153  42.943  1.00  0.00    -0.550 OA
ATOM     13  O   UNL     1      20.598  -6.405  43.549  1.00  0.00    -0.550 OA
ENDBRANCH  10  11
ENDBRANCH   9  10
ENDBRANCH   8   9
ENDBRANCH   1   8
TORSDOF 8
ENDMDL
MODEL 4
REMARK VINA RESULT:    -3.316     12.338     14.756
REMARK INTER + INTRA:          -5.376
REMARK INTER:                  -5.031
REMARK INTRA:                  -0.345
REMARK UNBOUND:                -0.509
REMARK SMILES O=C([O-])CCCCCCCC(=O)[O-]
REMARK SMILES IDX 7 1 6 2 5 3 4 4 2 5 1 6 3 7 8 8 9 9 10 10 11 11 12 12 13 13
REMARK H PARENT
REMARK Flexibility Score: inf
ROOT
ATOM      1  C   UNL     1      30.302  -1.445  43.370  1.00  0.00     0.000 C 
ENDROOT
BRANCH   1   2
ATOM      2  C   UNL     1      31.298  -0.691  42.470  1.00  0.00     0.000 C 
BRANCH   2   3
ATOM      3  C   UNL     1      32.659  -0.374  43.123  1.00  0.00     0.006 C 
BRANCH   3   4
ATOM      4  C   UNL     1      33.817  -0.193  42.128  1.00  0.00     0.053 C 
BRANCH   4   5
ATOM      5  C   UNL     1      35.016  -1.005  42.509  1.00  0.00     0.041 C 
ATOM      6  O   UNL     1      35.075  -2.227  42.210  1.00  0.00    -0.550 OA
ATOM      7  O   UNL     1      36.084  -0.405  43.163  1.00  0.00    -0.550 OA
ENDBRANCH   4   5
ENDBRANCH   3   4
ENDBRANCH   2   3
ENDBRANCH   1   2
BRANCH   1   8
ATOM      8  C   UNL     1      30.772  -1.551  44.827  1.00  0.00     0.000 C 
BRANCH   8   9
ATOM      9  C   UNL     1      30.372  -2.903  45.437  1.00  0.00     0.006 C 
BRANCH   9  10
ATOM     10  C   UNL     1      28.920  -3.278  45.116  1.00  0.00     0.053 C 
BRANCH  10  11
ATOM     11  C   UNL     1      27.965  -2.713  46.123  1.00  0.00     0.041 C 
ATOM     12  O   UNL     1      27.539  -3.430  47.065  1.00  0.00    -0.550 OA
ATOM     13  O   UNL     1      27.572  -1.383  46.037  1.00  0.00    -0.550 OA
ENDBRANCH  10  11
ENDBRANCH   9  10
ENDBRANCH   8   9
ENDBRANCH   1   8
TORSDOF 8
ENDMDL
MODEL 5
REMARK VINA RESULT:    -3.304      1.413      1.958
REMARK INTER + INTRA:          -5.358
REMARK INTER:                  -4.942
REMARK INTRA:                  -0.416
REMARK UNBOUND:                -0.509
REMARK SMILES O=C([O-])CCCCCCCC(=O)[O-]
REMARK SMILES IDX 7 1 6 2 5 3 4 4 2 5 1 6 3 7 8 8 9 9 10 10 11 11 12 12 13 13
REMARK H PARENT
REMARK Flexibility Score: inf
ROOT
ATOM      1  C   UNL     1      21.849 -11.305  45.502  1.00  0.00     0.000 C 
ENDROOT
BRANCH   1   2
ATOM      2  C   UNL     1      22.000 -10.321  44.327  1.00  0.00     0.000 C 
BRANCH   2   3
ATOM      3  C   UNL     1      20.810  -9.362  44.120  1.00  0.00     0.006 C 
BRANCH   3   4
ATOM      4  C   UNL     1      20.756  -8.703  42.732  1.00  0.00     0.053 C 
BRANCH   4   5
ATOM      5  C   UNL     1      21.330  -7.320  42.745  1.00  0.00     0.041 C 
ATOM      6  O   UNL     1      20.682  -6.370  43.257  1.00  0.00    -0.550 OA
ATOM      7  O   UNL     1      22.596  -7.087  42.224  1.00  0.00    -0.550 OA
ENDBRANCH   4   5
ENDBRANCH   3   4
ENDBRANCH   2   3
ENDBRANCH   1   2
BRANCH   1   8
ATOM      8  C   UNL     1      20.489 -11.196  46.204  1.00  0.00     0.000 C 
BRANCH   8   9
ATOM      9  C   UNL     1      19.975 -12.580  46.628  1.00  0.00     0.006 C 
BRANCH   9  10
ATOM     10  C   UNL     1      20.961 -13.700  46.270  1.00  0.00     0.053 C 
BRANCH  10  11
ATOM     11  C   UNL     1      20.332 -14.731  45.384  1.00  0.00     0.041 C 
ATOM     12  O   UNL     1      19.913 -14.414  44.240  1.00  0.00    -0.550 OA
ATOM     13  O   UNL     1      20.236 -16.050  45.810  1.00  0.00    -0.550 OA
ENDBRANCH  10  11
ENDBRANCH   9  10
ENDBRANCH   8   9
ENDBRANCH   1   8
TORSDOF 8
ENDMDL
MODEL 6
REMARK VINA RESULT:    -3.297     13.643     16.187
REMARK INTER + INTRA:          -5.348
REMARK INTER:                  -4.994
REMARK INTRA:                  -0.354
REMARK UNBOUND:                -0.509
REMARK SMILES O=C([O-])CCCCCCCC(=O)[O-]
REMARK SMILES IDX 7 1 6 2 5 3 4 4 2 5 1 6 3 7 8 8 9 9 10 10 11 11 12 12 13 13
REMARK H PARENT
REMARK Flexibility Score: inf
ROOT
ATOM      1  C   UNL     1      33.886  -0.693  42.319  1.00  0.00     0.000 C 
ENDROOT
BRANCH   1   2
ATOM      2  C   UNL     1      35.247  -0.354  42.953  1.00  0.00     0.000 C 
BRANCH   2   3
ATOM      3  C   UNL     1      36.288  -1.492  42.915  1.00  0.00     0.006 C 
BRANCH   3   4
ATOM      4  C   UNL     1      35.725  -2.856  42.485  1.00  0.00     0.053 C 
BRANCH   4   5
ATOM      5  C   UNL     1      35.789  -3.863  43.592  1.00  0.00     0.041 C 
ATOM      6  O   UNL     1      36.896  -4.168  44.108  1.00  0.00    -0.550 OA
ATOM      7  O   UNL     1      34.622  -4.439  44.078  1.00  0.00    -0.550 OA
ENDBRANCH   4   5
ENDBRANCH   3   4
ENDBRANCH   2   3
ENDBRANCH   1   2
BRANCH   1   8
ATOM      8  C   UNL     1      32.699  -0.118  43.104  1.00  0.00     0.000 C 
BRANCH   8   9
ATOM      9  C   UNL     1      31.533  -1.118  43.149  1.00  0.00     0.006 C 
BRANCH   9  10
ATOM     10  C   UNL     1      31.266  -1.635  44.569  1.00  0.00     0.053 C 
BRANCH  10  11
ATOM     11  C   UNL     1      29.810  -1.902  44.797  1.00  0.00     0.041 C 
ATOM     12  O   UNL     1      28.976  -1.701  43.876  1.00  0.00    -0.550 OA
ATOM     13  O   UNL     1      29.378  -2.404  46.019  1.00  0.00    -0.550 OA
ENDBRANCH  10  11
ENDBRANCH   9  10
ENDBRANCH   8   9
ENDBRANCH   1   8
TORSDOF 8
ENDMDL
MODEL 7
REMARK VINA RESULT:    -3.296     13.149     15.482
REMARK INTER + INTRA:          -5.346
REMARK INTER:                  -5.107
REMARK INTRA:                  -0.239
REMARK UNBOUND:                -0.509
REMARK SMILES O=C([O-])CCCCCCCC(=O)[O-]
REMARK SMILES IDX 7 1 6 2 5 3 4 4 2 5 1 6 3 7 8 8 9 9 10 10 11 11 12 12 13 13
REMARK H PARENT
REMARK Flexibility Score: inf
ROOT
ATOM      1  C   UNL     1      31.720  -0.771  42.881  1.00  0.00     0.000 C 
ENDROOT
BRANCH   1   2
ATOM      2  C   UNL     1      33.027   0.025  43.057  1.00  0.00     0.000 C 
BRANCH   2   3
ATOM      3  C   UNL     1      34.226  -0.498  42.240  1.00  0.00     0.006 C 
BRANCH   3   4
ATOM      4  C   UNL     1      35.591  -0.319  42.924  1.00  0.00     0.053 C 
BRANCH   4   5
ATOM      5  C   UNL     1      36.296  -1.625  43.119  1.00  0.00     0.041 C 
ATOM      6  O   UNL     1      35.648  -2.704  43.102  1.00  0.00    -0.550 OA
ATOM      7  O   UNL     1      37.675  -1.653  43.286  1.00  0.00    -0.550 OA
ENDBRANCH   4   5
ENDBRANCH   3   4
ENDBRANCH   2   3
ENDBRANCH   1   2
BRANCH   1   8
ATOM      8  C   UNL     1      31.317  -1.548  44.141  1.00  0.00     0.000 C 
BRANCH   8   9
ATOM      9  C   UNL     1      29.789  -1.608  44.287  1.00  0.00     0.006 C 
BRANCH   9  10
ATOM     10  C   UNL     1      29.351  -1.786  45.746  1.00  0.00     0.053 C 
BRANCH  10  11
ATOM     11  C   UNL     1      28.669  -3.102  45.964  1.00  0.00     0.041 C 
ATOM     12  O   UNL     1      27.689  -3.187  46.748  1.00  0.00    -0.550 OA
ATOM     13  O   UNL     1      29.099  -4.230  45.274  1.00  0.00    -0.550 OA
ENDBRANCH  10  11
ENDBRANCH   9  10
ENDBRANCH   8   9
ENDBRANCH   1   8
TORSDOF 8
ENDMDL
MODEL 8
REMARK VINA RESULT:    -3.275     13.158     15.963
REMARK INTER + INTRA:          -5.315
REMARK INTER:                  -5.079
REMARK INTRA:                  -0.237
REMARK UNBOUND:                -0.509
REMARK SMILES O=C([O-])CCCCCCCC(=O)[O-]
REMARK SMILES IDX 7 1 6 2 5 3 4 4 2 5 1 6 3 7 8 8 9 9 10 10 11 11 12 12 13 13
REMARK H PARENT
REMARK Flexibility Score: inf
ROOT
ATOM      1  C   UNL     1      31.779  -0.759  42.840  1.00  0.00     0.000 C 
ENDROOT
BRANCH   1   2
ATOM      2  C   UNL     1      31.355  -1.513  44.113  1.00  0.00     0.000 C 
BRANCH   2   3
ATOM      3  C   UNL     1      29.832  -1.596  44.347  1.00  0.00     0.006 C 
BRANCH   3   4
ATOM      4  C   UNL     1      29.423  -1.810  45.813  1.00  0.00     0.053 C 
BRANCH   4   5
ATOM      5  C   UNL     1      28.684  -3.097  46.007  1.00  0.00     0.041 C 
ATOM      6  O   UNL     1      27.685  -3.145  46.772  1.00  0.00    -0.550 OA
ATOM      7  O   UNL     1      29.076  -4.236  45.316  1.00  0.00    -0.550 OA
ENDBRANCH   4   5
ENDBRANCH   3   4
ENDBRANCH   2   3
ENDBRANCH   1   2
BRANCH   1   8
ATOM      8  C   UNL     1      33.064   0.059  43.028  1.00  0.00     0.000 C 
BRANCH   8   9
ATOM      9  C   UNL     1      34.226  -0.549  42.228  1.00  0.00     0.006 C 
BRANCH   9  10
ATOM     10  C   UNL     1      35.573  -0.385  42.945  1.00  0.00     0.053 C 
BRANCH  10  11
ATOM     11  C   UNL     1      36.296  -1.691  43.072  1.00  0.00     0.041 C 
ATOM     12  O   UNL     1      35.684  -2.775  42.889  1.00  0.00    -0.550 OA
ATOM     13  O   UNL     1      37.655  -1.707  43.362  1.00  0.00    -0.550 OA
ENDBRANCH  10  11
ENDBRANCH   9  10
ENDBRANCH   8   9
ENDBRANCH   1   8
TORSDOF 8
ENDMDL
MODEL 9
REMARK VINA RESULT:    -3.221      1.824      2.722
REMARK INTER + INTRA:          -5.236
REMARK INTER:                  -4.386
REMARK INTRA:                  -0.849
REMARK UNBOUND:                -0.509
REMARK SMILES O=C([O-])CCCCCCCC(=O)[O-]
REMARK SMILES IDX 7 1 6 2 5 3 4 4 2 5 1 6 3 7 8 8 9 9 10 10 11 11 12 12 13 13
REMARK H PARENT
REMARK Flexibility Score: inf
ROOT
ATOM      1  C   UNL     1      19.672 -12.683  42.210  1.00  0.00     0.000 C 
ENDROOT
BRANCH   1   2
ATOM      2  C   UNL     1      19.920 -11.167  42.308  1.00  0.00     0.000 C 
BRANCH   2   3
ATOM      3  C   UNL     1      19.414 -10.504  43.606  1.00  0.00     0.006 C 
BRANCH   3   4
ATOM      4  C   UNL     1      20.338 -10.693  44.820  1.00  0.00     0.053 C 
BRANCH   4   5
ATOM      5  C   UNL     1      21.775 -10.453  44.474  1.00  0.00     0.041 C 
ATOM      6  O   UNL     1      22.626 -11.369  44.627  1.00  0.00    -0.550 OA
ATOM      7  O   UNL     1      22.170  -9.229  43.949  1.00  0.00    -0.550 OA
ENDBRANCH   4   5
ENDBRANCH   3   4
ENDBRANCH   2   3
ENDBRANCH   1   2
BRANCH   1   8
ATOM      8  C   UNL     1      20.970 -13.499  42.137  1.00  0.00     0.000 C 
BRANCH   8   9
ATOM      9  C   UNL     1      21.234 -14.232  43.461  1.00  0.00     0.006 C 
BRANCH   9  10
ATOM     10  C   UNL     1      19.968 -14.354  44.320  1.00  0.00     0.053 C 
BRANCH  10  11
ATOM     11  C   UNL     1      20.298 -14.601  45.760  1.00  0.00     0.041 C 
ATOM     12  O   UNL     1      21.012 -13.783  46.397  1.00  0.00    -0.550 OA
ATOM     13  O   UNL     1      19.788 -15.719  46.409  1.00  0.00    -0.550 OA
ENDBRANCH  10  11
ENDBRANCH   9  10
ENDBRANCH   8   9
ENDBRANCH   1   8
TORSDOF 8
ENDMDL
