MODEL 1
REMARK VINA RESULT:    -4.331      0.000      0.000
REMARK INTER + INTRA:          -6.112
REMARK INTER:                  -5.850
REMARK INTRA:                  -0.262
REMARK UNBOUND:                -0.262
REMARK SMILES CCCCCCCC(=O)[O-]
REMARK SMILES IDX 5 1 6 2 7 3 8 4 9 5 10 6 4 7 3 8 2 9 1 10
REMARK H PARENT
REMARK Flexibility Score: inf
ROOT
ATOM      1  C   UNL     1       2.376 -37.502  18.390  1.00  0.00     0.000 C 
ENDROOT
BRANCH   1   2
ATOM      2  C   UNL     1       3.114 -37.130  19.683  1.00  0.00     0.006 C 
BRANCH   2   3
ATOM      3  C   UNL     1       4.639 -37.176  19.516  1.00  0.00     0.053 C 
BRANCH   3   4
ATOM      4  C   UNL     1       5.287 -35.903  19.967  1.00  0.00     0.041 C 
ATOM      5  O   UNL     1       5.551 -34.997  19.131  1.00  0.00    -0.550 OA
ATOM      6  O   UNL     1       5.568 -35.701  21.311  1.00  0.00    -0.550 OA
ENDBRANCH   3   4
ENDBRANCH   2   3
ENDBRANCH   1   2
BRANCH   1   7
ATOM      7  C   UNL     1       3.142 -37.007  17.157  1.00  0.00     0.000 C 
BRANCH   7   8
ATOM      8  C   UNL     1       2.180 -36.484  16.084  1.00  0.00    -0.000 C 
BRANCH   8   9
ATOM      9  C   UNL     1       2.855 -36.453  14.708  1.00  0.00    -0.003 C 
ATOM     10  C   UNL     1       3.860 -37.592  14.561  1.00  0.00     0.004 C 
ENDBRANCH   8   9
ENDBRANCH   7   8
ENDBRANCH   1   7
TORSDOF 6
ENDMDL
MODEL 2
REMARK VINA RESULT:    -4.293      0.935      1.266
REMARK INTER + INTRA:          -6.061
REMARK INTER:                  -5.798
REMARK INTRA:                  -0.263
REMARK UNBOUND:                -0.262
REMARK SMILES CCCCCCCC(=O)[O-]
REMARK SMILES IDX 5 1 6 2 7 3 8 4 9 5 10 6 4 7 3 8 2 9 1 10
REMARK H PARENT
REMARK Flexibility Score: inf
ROOT
ATOM      1  C   UNL     1       2.275 -37.540  18.361  1.00  0.00     0.000 C 
ENDROOT
BRANCH   1   2
ATOM      2  C   UNL     1       2.980 -37.097  19.651  1.00  0.00     0.006 C 
BRANCH   2   3
ATOM      3  C   UNL     1       4.452 -36.734  19.413  1.00  0.00     0.053 C 
BRANCH   3   4
ATOM      4  C   UNL     1       5.302 -37.042  20.608  1.00  0.00     0.041 C 
ATOM      5  O   UNL     1       5.505 -38.238  20.949  1.00  0.00    -0.550 OA
ATOM      6  O   UNL     1       5.897 -36.012  21.324  1.00  0.00    -0.550 OA
ENDBRANCH   3   4
ENDBRANCH   2   3
ENDBRANCH   1   2
BRANCH   1   7
ATOM      7  C   UNL     1       3.085 -37.134  17.124  1.00  0.00     0.000 C 
BRANCH   7   8
ATOM      8  C   UNL     1       2.213 -36.370  16.121  1.00  0.00    -0.000 C 
BRANCH   8   9
ATOM      9  C   UNL     1       2.799 -36.453  14.706  1.00  0.00    -0.003 C 
ATOM     10  C   UNL     1       3.808 -37.591  14.594  1.00  0.00     0.004 C 
ENDBRANCH   8   9
ENDBRANCH   7   8
ENDBRANCH   1   7
TORSDOF 6
ENDMDL
MODEL 3
REMARK VINA RESULT:    -4.092      2.892      5.214
REMARK INTER + INTRA:          -5.790
REMARK INTER:                  -5.595
REMARK INTRA:                  -0.196
REMARK UNBOUND:                -0.262
REMARK SMILES CCCCCCCC(=O)[O-]
REMARK SMILES IDX 5 1 6 2 7 3 8 4 9 5 10 6 4 7 3 8 2 9 1 10
REMARK H PARENT
REMARK Flexibility Score: inf
ROOT
ATOM      1  C   UNL     1       2.730 -37.345  19.660  1.00  0.00     0.000 C 
ENDROOT
BRANCH   1   2
ATOM      2  C   UNL     1       2.339 -37.510  18.185  1.00  0.00     0.006 C 
BRANCH   2   3
ATOM      3  C   UNL     1       3.356 -36.861  17.237  1.00  0.00     0.053 C 
BRANCH   3   4
ATOM      4  C   UNL     1       2.966 -37.030  15.801  1.00  0.00     0.041 C 
ATOM      5  O   UNL     1       1.944 -36.448  15.350  1.00  0.00    -0.550 OA
ATOM      6  O   UNL     1       3.750 -37.800  14.952  1.00  0.00    -0.550 OA
ENDBRANCH   3   4
ENDBRANCH   2   3
ENDBRANCH   1   2
BRANCH   1   7
ATOM      7  C   UNL     1       4.224 -37.031  19.801  1.00  0.00     0.000 C 
BRANCH   7   8
ATOM      8  C   UNL     1       4.445 -35.767  20.640  1.00  0.00    -0.000 C 
BRANCH   8   9
ATOM      9  C   UNL     1       5.910 -35.644  21.075  1.00  0.00    -0.003 C 
ATOM     10  C   UNL     1       6.027 -35.520  22.591  1.00  0.00     0.004 C 
ENDBRANCH   8   9
ENDBRANCH   7   8
ENDBRANCH   1   7
TORSDOF 6
ENDMDL
MODEL 4
REMARK VINA RESULT:    -4.074      2.790      5.769
REMARK INTER + INTRA:          -5.765
REMARK INTER:                  -5.653
REMARK INTRA:                  -0.112
REMARK UNBOUND:                -0.262
REMARK SMILES CCCCCCCC(=O)[O-]
REMARK SMILES IDX 5 1 6 2 7 3 8 4 9 5 10 6 4 7 3 8 2 9 1 10
REMARK H PARENT
REMARK Flexibility Score: inf
ROOT
ATOM      1  C   UNL     1       4.243 -36.366  19.775  1.00  0.00     0.000 C 
ENDROOT
BRANCH   1   2
ATOM      2  C   UNL     1       3.977 -37.422  18.693  1.00  0.00     0.006 C 
BRANCH   2   3
ATOM      3  C   UNL     1       2.600 -37.249  18.037  1.00  0.00     0.053 C 
BRANCH   3   4
ATOM      4  C   UNL     1       2.714 -36.952  16.573  1.00  0.00     0.041 C 
ATOM      5  O   UNL     1       2.127 -35.950  16.084  1.00  0.00    -0.550 OA
ATOM      6  O   UNL     1       3.495 -37.758  15.757  1.00  0.00    -0.550 OA
ENDBRANCH   3   4
ENDBRANCH   2   3
ENDBRANCH   1   2
BRANCH   1   7
ATOM      7  C   UNL     1       5.335 -36.835  20.744  1.00  0.00     0.000 C 
BRANCH   7   8
ATOM      8  C   UNL     1       6.032 -35.641  21.407  1.00  0.00    -0.000 C 
BRANCH   8   9
ATOM      9  C   UNL     1       6.122 -35.831  22.927  1.00  0.00    -0.003 C 
ATOM     10  C   UNL     1       6.078 -34.491  23.653  1.00  0.00     0.004 C 
ENDBRANCH   8   9
ENDBRANCH   7   8
ENDBRANCH   1   7
TORSDOF 6
ENDMDL
MODEL 5
REMARK VINA RESULT:    -3.838      2.304      3.655
REMARK INTER + INTRA:          -5.446
REMARK INTER:                  -5.277
REMARK INTRA:                  -0.170
REMARK UNBOUND:                -0.262
REMARK SMILES CCCCCCCC(=O)[O-]
REMARK SMILES IDX 5 1 6 2 7 3 8 4 9 5 10 6 4 7 3 8 2 9 1 10
REMARK H PARENT
REMARK Flexibility Score: inf
ROOT
ATOM      1  C   UNL     1       4.582 -35.748  20.767  1.00  0.00     0.000 C 
ENDROOT
BRANCH   1   2
ATOM      2  C   UNL     1       5.961 -35.513  21.400  1.00  0.00     0.006 C 
BRANCH   2   3
ATOM      3  C   UNL     1       6.125 -36.258  22.731  1.00  0.00     0.053 C 
BRANCH   3   4
ATOM      4  C   UNL     1       5.747 -35.399  23.899  1.00  0.00     0.041 C 
ATOM      5  O   UNL     1       5.757 -34.144  23.792  1.00  0.00    -0.550 OA
ATOM      6  O   UNL     1       5.351 -35.984  25.094  1.00  0.00    -0.550 OA
ENDBRANCH   3   4
ENDBRANCH   2   3
ENDBRANCH   1   2
BRANCH   1   7
ATOM      7  C   UNL     1       4.576 -37.024  19.918  1.00  0.00     0.000 C 
BRANCH   7   8
ATOM      8  C   UNL     1       3.235 -37.200  19.197  1.00  0.00    -0.000 C 
BRANCH   8   9
ATOM      9  C   UNL     1       3.403 -37.050  17.680  1.00  0.00    -0.003 C 
ATOM     10  C   UNL     1       2.051 -36.916  16.986  1.00  0.00     0.004 C 
ENDBRANCH   8   9
ENDBRANCH   7   8
ENDBRANCH   1   7
TORSDOF 6
ENDMDL
MODEL 6
REMARK VINA RESULT:    -3.742      3.161      6.054
REMARK INTER + INTRA:          -5.316
REMARK INTER:                  -5.197
REMARK INTRA:                  -0.119
REMARK UNBOUND:                -0.262
REMARK SMILES CCCCCCCC(=O)[O-]
REMARK SMILES IDX 5 1 6 2 7 3 8 4 9 5 10 6 4 7 3 8 2 9 1 10
REMARK H PARENT
REMARK Flexibility Score: inf
ROOT
ATOM      1  C   UNL     1       5.031 -35.980  20.253  1.00  0.00     0.000 C 
ENDROOT
BRANCH   1   2
ATOM      2  C   UNL     1       4.043 -37.093  19.872  1.00  0.00     0.006 C 
BRANCH   2   3
ATOM      3  C   UNL     1       3.807 -37.166  18.358  1.00  0.00     0.053 C 
BRANCH   3   4
ATOM      4  C   UNL     1       2.349 -37.241  18.024  1.00  0.00     0.041 C 
ATOM      5  O   UNL     1       1.923 -36.771  16.935  1.00  0.00    -0.550 OA
ATOM      6  O   UNL     1       1.465 -37.859  18.898  1.00  0.00    -0.550 OA
ENDBRANCH   3   4
ENDBRANCH   2   3
ENDBRANCH   1   2
BRANCH   1   7
ATOM      7  C   UNL     1       5.579 -36.194  21.669  1.00  0.00     0.000 C 
BRANCH   7   8
ATOM      8  C   UNL     1       5.044 -35.129  22.633  1.00  0.00    -0.000 C 
BRANCH   8   9
ATOM      9  C   UNL     1       6.112 -34.730  23.660  1.00  0.00    -0.003 C 
ATOM     10  C   UNL     1       6.125 -35.693  24.843  1.00  0.00     0.004 C 
ENDBRANCH   8   9
ENDBRANCH   7   8
ENDBRANCH   1   7
TORSDOF 6
ENDMDL
MODEL 7
REMARK VINA RESULT:    -3.646      1.608      2.120
REMARK INTER + INTRA:          -5.188
REMARK INTER:                  -5.080
REMARK INTRA:                  -0.108
REMARK UNBOUND:                -0.262
REMARK SMILES CCCCCCCC(=O)[O-]
REMARK SMILES IDX 5 1 6 2 7 3 8 4 9 5 10 6 4 7 3 8 2 9 1 10
REMARK H PARENT
REMARK Flexibility Score: inf
ROOT
ATOM      1  C   UNL     1       3.983 -36.749  19.236  1.00  0.00     0.000 C 
ENDROOT
BRANCH   1   2
ATOM      2  C   UNL     1       4.421 -35.645  20.209  1.00  0.00     0.006 C 
BRANCH   2   3
ATOM      3  C   UNL     1       5.771 -35.955  20.869  1.00  0.00     0.053 C 
BRANCH   3   4
ATOM      4  C   UNL     1       5.709 -35.813  22.359  1.00  0.00     0.041 C 
ATOM      5  O   UNL     1       5.249 -34.760  22.876  1.00  0.00    -0.550 OA
ATOM      6  O   UNL     1       6.125 -36.855  23.176  1.00  0.00    -0.550 OA
ENDBRANCH   3   4
ENDBRANCH   2   3
ENDBRANCH   1   2
BRANCH   1   7
ATOM      7  C   UNL     1       3.819 -36.196  17.815  1.00  0.00     0.000 C 
BRANCH   7   8
ATOM      8  C   UNL     1       2.754 -36.979  17.038  1.00  0.00    -0.000 C 
BRANCH   8   9
ATOM      9  C   UNL     1       3.331 -37.547  15.736  1.00  0.00    -0.003 C 
ATOM     10  C   UNL     1       3.069 -36.609  14.562  1.00  0.00     0.004 C 
ENDBRANCH   8   9
ENDBRANCH   7   8
ENDBRANCH   1   7
TORSDOF 6
ENDMDL
MODEL 8
REMARK VINA RESULT:    -3.380      3.149      4.382
REMARK INTER + INTRA:          -4.827
REMARK INTER:                  -4.545
REMARK INTRA:                  -0.282
REMARK UNBOUND:                -0.262
REMARK SMILES CCCCCCCC(=O)[O-]
REMARK SMILES IDX 5 1 6 2 7 3 8 4 9 5 10 6 4 7 3 8 2 9 1 10
REMARK H PARENT
REMARK Flexibility Score: inf
ROOT
ATOM      1  C   UNL     1       4.577 -35.312  20.964  1.00  0.00     0.000 C 
ENDROOT
BRANCH   1   2
ATOM      2  C   UNL     1       5.887 -35.198  21.757  1.00  0.00     0.006 C 
BRANCH   2   3
ATOM      3  C   UNL     1       6.011 -36.282  22.835  1.00  0.00     0.053 C 
BRANCH   3   4
ATOM      4  C   UNL     1       6.027 -35.699  24.214  1.00  0.00     0.041 C 
ATOM      5  O   UNL     1       5.986 -36.454  25.222  1.00  0.00    -0.550 OA
ATOM      6  O   UNL     1       6.121 -34.324  24.388  1.00  0.00    -0.550 OA
ENDBRANCH   3   4
ENDBRANCH   2   3
ENDBRANCH   1   2
BRANCH   1   7
ATOM      7  C   UNL     1       4.813 -35.987  19.608  1.00  0.00     0.000 C 
BRANCH   7   8
ATOM      8  C   UNL     1       4.094 -37.339  19.533  1.00  0.00    -0.000 C 
BRANCH   8   9
ATOM      9  C   UNL     1       2.614 -37.197  19.912  1.00  0.00    -0.003 C 
ATOM     10  C   UNL     1       1.709 -37.756  18.819  1.00  0.00     0.004 C 
ENDBRANCH   8   9
ENDBRANCH   7   8
ENDBRANCH   1   7
TORSDOF 6
ENDMDL
MODEL 9
REMARK VINA RESULT:    -2.797      2.891      5.231
REMARK INTER + INTRA:          -4.040
REMARK INTER:                  -3.829
REMARK INTRA:                  -0.212
REMARK UNBOUND:                -0.262
REMARK SMILES CCCCCCCC(=O)[O-]
REMARK SMILES IDX 5 1 6 2 7 3 8 4 9 5 10 6 4 7 3 8 2 9 1 10
REMARK H PARENT
REMARK Flexibility Score: inf
ROOT
ATOM      1  C   UNL     1       4.772 -35.629  19.328  1.00  0.00     0.000 C 
ENDROOT
BRANCH   1   2
ATOM      2  C   UNL     1       3.882 -36.500  18.429  1.00  0.00     0.006 C 
BRANCH   2   3
ATOM      3  C   UNL     1       3.710 -35.902  17.027  1.00  0.00     0.053 C 
BRANCH   3   4
ATOM      4  C   UNL     1       2.941 -36.815  16.122  1.00  0.00     0.041 C 
ATOM      5  O   UNL     1       1.721 -36.599  15.894  1.00  0.00    -0.550 OA
ATOM      6  O   UNL     1       3.578 -37.882  15.503  1.00  0.00    -0.550 OA
ENDBRANCH   3   4
ENDBRANCH   2   3
ENDBRANCH   1   2
BRANCH   1   7
ATOM      7  C   UNL     1       5.274 -36.424  20.540  1.00  0.00     0.000 C 
BRANCH   7   8
ATOM      8  C   UNL     1       4.749 -37.864  20.510  1.00  0.00    -0.000 C 
BRANCH   8   9
ATOM      9  C   UNL     1       5.858 -38.861  20.869  1.00  0.00    -0.003 C 
ATOM     10  C   UNL     1       5.485 -39.680  22.101  1.00  0.00     0.004 C 
ENDBRANCH   8   9
ENDBRANCH   7   8
ENDBRANCH   1   7
TORSDOF 6
ENDMDL
