MODEL 1
REMARK VINA RESULT:    86.448      0.000      0.000
REMARK INTER + INTRA:         135.894
REMARK INTER:                 136.985
REMARK INTRA:                  -1.090
REMARK UNBOUND:                -1.090
REMARK SMILES C[C@@H]1O[C@H](OC[C@H]2O[C@H](Oc3cc(O)c4c(c3)O[C@@H](c3ccc(O)cc3)CC4=O)[C@@H](O)[C@@H](O)[C@@H]2O)[C@@H](O)[C@@H](O)[C@@H]1O
REMARK SMILES IDX 7 1 34 2 32 3 30 4 9 5 8 6 6 7 5 8 4 9 1 10 2 11 40 12 3 13
REMARK SMILES IDX 38 14 36 15 41 16 39 18 37 20 35 22 33 24 10 26 11 27 12 28
REMARK SMILES IDX 17 29 13 30 16 31 15 32 18 33 28 34 19 35 29 36 27 37 14 38
REMARK SMILES IDX 20 40 21 41 26 42 22 43 25 44 23 45 24 46 31 48
REMARK H PARENT 41 17 39 19 37 21 35 23 33 25 14 39 24 47 31 49
REMARK Flexibility Score: inf
ROOT
ATOM      1  C   UNL     1     -38.134  30.257 -20.631  1.00  0.00     0.180 C 
ATOM      2  C   UNL     1     -37.984  28.758 -21.042  1.00  0.00     0.177 C 
ATOM      3  C   UNL     1     -36.673  28.141 -20.514  1.00  0.00     0.180 C 
ATOM      4  C   UNL     1     -36.305  28.633 -19.092  1.00  0.00     0.214 C 
ATOM      5  C   UNL     1     -36.511  30.171 -18.925  1.00  0.00     0.339 C 
ATOM      6  O   UNL     1     -36.938  30.810 -20.115  1.00  0.00    -0.332 OA
ENDROOT
BRANCH   1   7
ATOM      7  C   UNL     1     -39.394  30.592 -19.783  1.00  0.00     0.198 C 
BRANCH   7   8
ATOM      8  O   UNL     1     -40.587  30.091 -20.369  1.00  0.00    -0.347 OA
BRANCH   8   9
ATOM      9  C   UNL     1     -41.128  30.964 -21.360  1.00  0.00     0.281 C 
ATOM     10  C   UNL     1     -42.319  29.105 -24.277  1.00  0.00     0.041 C 
ATOM     11  C   UNL     1     -42.133  30.461 -23.561  1.00  0.00     0.150 C 
ATOM     12  C   UNL     1     -43.482  30.987 -23.028  1.00  0.00     0.174 C 
ATOM     13  O   UNL     1     -41.082  30.289 -22.619  1.00  0.00    -0.344 OA
ATOM     14  C   UNL     1     -43.261  32.163 -22.082  1.00  0.00     0.179 C 
ATOM     15  C   UNL     1     -42.457  31.644 -20.897  1.00  0.00     0.202 C 
BRANCH  12  16
ATOM     16  O   UNL     1     -44.191  29.954 -22.376  1.00  0.00    -0.388 OA
ATOM     17  H   UNL     1     -44.191  30.176 -21.403  1.00  0.00     0.211 HD
ENDBRANCH  12  16
BRANCH  14  18
ATOM     18  O   UNL     1     -42.574  33.200 -22.739  1.00  0.00    -0.387 OA
ATOM     19  H   UNL     1     -43.031  34.037 -22.463  1.00  0.00     0.211 HD
ENDBRANCH  14  18
BRANCH  15  20
ATOM     20  O   UNL     1     -42.184  32.692 -20.002  1.00  0.00    -0.385 OA
ATOM     21  H   UNL     1     -41.450  32.359 -19.412  1.00  0.00     0.211 HD
ENDBRANCH  15  20
ENDBRANCH   8   9
ENDBRANCH   7   8
ENDBRANCH   1   7
BRANCH   2  22
ATOM     22  O   UNL     1     -37.990  28.652 -22.449  1.00  0.00    -0.387 OA
ATOM     23  H   UNL     1     -38.310  27.731 -22.672  1.00  0.00     0.211 HD
ENDBRANCH   2  22
BRANCH   3  24
ATOM     24  O   UNL     1     -36.751  26.742 -20.535  1.00  0.00    -0.387 OA
ATOM     25  H   UNL     1     -37.720  26.508 -20.512  1.00  0.00     0.211 HD
ENDBRANCH   3  24
BRANCH   5  26
ATOM     26  O   UNL     1     -35.320  30.822 -18.441  1.00  0.00    -0.462 OA
BRANCH  26  27
ATOM     27  C   UNL     1     -34.041  30.242 -18.363  1.00  0.00     0.130 A 
ATOM     28  C   UNL     1     -33.085  30.614 -19.313  1.00  0.00     0.093 A 
ATOM     29  C   UNL     1     -33.676  29.364 -17.330  1.00  0.00     0.094 A 
ATOM     30  C   UNL     1     -31.730  30.313 -19.102  1.00  0.00     0.133 A 
ATOM     31  C   UNL     1     -32.333  29.087 -17.091  1.00  0.00     0.138 A 
ATOM     32  C   UNL     1     -31.348  29.607 -17.938  1.00  0.00     0.102 A 
ATOM     33  O   UNL     1     -31.976  28.372 -15.942  1.00  0.00    -0.484 OA
ATOM     34  C   UNL     1     -29.957  29.489 -17.489  1.00  0.00     0.174 C 
ATOM     35  C   UNL     1     -30.694  28.415 -15.311  1.00  0.00     0.211 C 
ATOM     36  O   UNL     1     -28.997  29.632 -18.292  1.00  0.00    -0.294 OA
ATOM     37  C   UNL     1     -29.689  29.371 -16.018  1.00  0.00     0.131 C 
BRANCH  30  38
ATOM     38  O   UNL     1     -30.772  30.795 -19.993  1.00  0.00    -0.507 OA
ATOM     39  H   UNL     1     -31.003  30.999 -20.954  1.00  0.00     0.293 HD
ENDBRANCH  30  38
BRANCH  35  40
ATOM     40  C   UNL     1     -30.186  26.995 -15.126  1.00  0.00    -0.007 A 
ATOM     41  C   UNL     1     -30.247  26.316 -13.883  1.00  0.00     0.011 A 
ATOM     42  C   UNL     1     -29.554  26.358 -16.220  1.00  0.00     0.011 A 
ATOM     43  C   UNL     1     -29.803  24.999 -13.780  1.00  0.00     0.046 A 
ATOM     44  C   UNL     1     -29.063  25.052 -16.091  1.00  0.00     0.046 A 
ATOM     45  C   UNL     1     -29.217  24.363 -14.882  1.00  0.00     0.115 A 
BRANCH  45  46
ATOM     46  O   UNL     1     -28.789  23.054 -14.768  1.00  0.00    -0.508 OA
ATOM     47  H   UNL     1     -27.830  22.823 -14.514  1.00  0.00     0.293 HD
ENDBRANCH  45  46
ENDBRANCH  35  40
ENDBRANCH  26  27
ENDBRANCH   5  26
BRANCH   4  48
ATOM     48  O   UNL     1     -37.003  27.918 -18.106  1.00  0.00    -0.384 OA
ATOM     49  H   UNL     1     -37.760  27.454 -18.530  1.00  0.00     0.211 HD
ENDBRANCH   4  48
TORSDOF 14
ENDMDL
