MODEL 1
REMARK VINA RESULT:    -3.619      0.000      0.000
REMARK INTER + INTRA:          -4.380
REMARK INTER:                  -4.253
REMARK INTRA:                  -0.127
REMARK UNBOUND:                -0.127
REMARK SMILES O=C([O-])CCC(=O)[O-]
REMARK SMILES IDX 4 1 2 2 1 3 3 4 5 5 6 6 7 7 8 8
REMARK H PARENT
REMARK Flexibility Score: inf
ROOT
ATOM      1  C   UNL     1      59.825  29.237  10.168  1.00  0.00     0.059 C 
ENDROOT
BRANCH   1   2
ATOM      2  C   UNL     1      61.020  28.431   9.769  1.00  0.00     0.042 C 
ATOM      3  O   UNL     1      60.920  27.550   8.875  1.00  0.00    -0.550 OA
ATOM      4  O   UNL     1      62.256  28.686  10.350  1.00  0.00    -0.550 OA
ENDBRANCH   1   2
BRANCH   1   5
ATOM      5  C   UNL     1      59.955  29.706  11.617  1.00  0.00     0.059 C 
BRANCH   5   6
ATOM      6  C   UNL     1      59.665  28.582  12.561  1.00  0.00     0.042 C 
ATOM      7  O   UNL     1      60.547  28.189  13.369  1.00  0.00    -0.550 OA
ATOM      8  O   UNL     1      58.436  27.936  12.514  1.00  0.00    -0.550 OA
ENDBRANCH   5   6
ENDBRANCH   1   5
TORSDOF 3
ENDMDL
MODEL 2
REMARK VINA RESULT:    -3.601      0.053      3.639
REMARK INTER + INTRA:          -4.359
REMARK INTER:                  -4.244
REMARK INTRA:                  -0.115
REMARK UNBOUND:                -0.127
REMARK SMILES O=C([O-])CCC(=O)[O-]
REMARK SMILES IDX 4 1 2 2 1 3 3 4 5 5 6 6 7 7 8 8
REMARK H PARENT
REMARK Flexibility Score: inf
ROOT
ATOM      1  C   UNL     1      59.940  29.672  11.604  1.00  0.00     0.059 C 
ENDROOT
BRANCH   1   2
ATOM      2  C   UNL     1      59.680  28.555  12.564  1.00  0.00     0.042 C 
ATOM      3  O   UNL     1      60.558  28.225  13.405  1.00  0.00    -0.550 OA
ATOM      4  O   UNL     1      58.449  27.912  12.565  1.00  0.00    -0.550 OA
ENDBRANCH   1   2
BRANCH   1   5
ATOM      5  C   UNL     1      59.819  29.177  10.162  1.00  0.00     0.059 C 
BRANCH   5   6
ATOM      6  C   UNL     1      61.057  28.444   9.753  1.00  0.00     0.042 C 
ATOM      7  O   UNL     1      61.000  27.543   8.875  1.00  0.00    -0.550 OA
ATOM      8  O   UNL     1      62.267  28.723  10.377  1.00  0.00    -0.550 OA
ENDBRANCH   5   6
ENDBRANCH   1   5
TORSDOF 3
ENDMDL
MODEL 3
REMARK VINA RESULT:    -3.590     14.152     15.964
REMARK INTER + INTRA:          -4.346
REMARK INTER:                  -4.264
REMARK INTRA:                  -0.083
REMARK UNBOUND:                -0.127
REMARK SMILES O=C([O-])CCC(=O)[O-]
REMARK SMILES IDX 4 1 2 2 1 3 3 4 5 5 6 6 7 7 8 8
REMARK H PARENT
REMARK Flexibility Score: inf
ROOT
ATOM      1  C   UNL     1      61.106  27.159  26.820  1.00  0.00     0.059 C 
ENDROOT
BRANCH   1   2
ATOM      2  C   UNL     1      60.394  27.331  25.516  1.00  0.00     0.042 C 
ATOM      3  O   UNL     1      60.784  28.198  24.690  1.00  0.00    -0.550 OA
ATOM      4  O   UNL     1      59.330  26.500  25.190  1.00  0.00    -0.550 OA
ENDBRANCH   1   2
BRANCH   1   5
ATOM      5  C   UNL     1      62.082  28.313  27.053  1.00  0.00     0.059 C 
BRANCH   5   6
ATOM      6  C   UNL     1      61.708  29.075  28.285  1.00  0.00     0.042 C 
ATOM      7  O   UNL     1      60.677  28.761  28.936  1.00  0.00    -0.550 OA
ATOM      8  O   UNL     1      62.473  30.162  28.688  1.00  0.00    -0.550 OA
ENDBRANCH   5   6
ENDBRANCH   1   5
TORSDOF 3
ENDMDL
MODEL 4
REMARK VINA RESULT:    -3.565     14.096     16.051
REMARK INTER + INTRA:          -4.317
REMARK INTER:                  -4.181
REMARK INTRA:                  -0.136
REMARK UNBOUND:                -0.127
REMARK SMILES O=C([O-])CCC(=O)[O-]
REMARK SMILES IDX 4 1 2 2 1 3 3 4 5 5 6 6 7 7 8 8
REMARK H PARENT
REMARK Flexibility Score: inf
ROOT
ATOM      1  C   UNL     1      61.539  27.202  27.760  1.00  0.00     0.059 C 
ENDROOT
BRANCH   1   2
ATOM      2  C   UNL     1      61.379  28.620  28.208  1.00  0.00     0.042 C 
ATOM      3  O   UNL     1      60.557  28.908  29.118  1.00  0.00    -0.550 OA
ATOM      4  O   UNL     1      62.172  29.618  27.655  1.00  0.00    -0.550 OA
ENDBRANCH   1   2
BRANCH   1   5
ATOM      5  C   UNL     1      61.919  27.148  26.280  1.00  0.00     0.059 C 
BRANCH   5   6
ATOM      6  C   UNL     1      60.729  27.442  25.422  1.00  0.00     0.042 C 
ATOM      7  O   UNL     1      60.705  28.477  24.705  1.00  0.00    -0.550 OA
ATOM      8  O   UNL     1      59.627  26.597  25.450  1.00  0.00    -0.550 OA
ENDBRANCH   5   6
ENDBRANCH   1   5
TORSDOF 3
ENDMDL
MODEL 5
REMARK VINA RESULT:    -3.500      1.702      2.222
REMARK INTER + INTRA:          -4.240
REMARK INTER:                  -4.140
REMARK INTRA:                  -0.100
REMARK UNBOUND:                -0.127
REMARK SMILES O=C([O-])CCC(=O)[O-]
REMARK SMILES IDX 4 1 2 2 1 3 3 4 5 5 6 6 7 7 8 8
REMARK H PARENT
REMARK Flexibility Score: inf
ROOT
ATOM      1  C   UNL     1      59.672  29.111  11.740  1.00  0.00     0.059 C 
ENDROOT
BRANCH   1   2
ATOM      2  C   UNL     1      60.171  28.996  10.334  1.00  0.00     0.042 C 
ATOM      3  O   UNL     1      59.750  29.784   9.446  1.00  0.00    -0.550 OA
ATOM      4  O   UNL     1      61.136  28.049  10.015  1.00  0.00    -0.550 OA
ENDBRANCH   1   2
BRANCH   1   5
ATOM      5  C   UNL     1      60.367  28.091  12.641  1.00  0.00     0.059 C 
BRANCH   5   6
ATOM      6  C   UNL     1      61.511  28.725  13.367  1.00  0.00     0.042 C 
ATOM      7  O   UNL     1      62.695  28.519  12.989  1.00  0.00    -0.550 OA
ATOM      8  O   UNL     1      61.272  29.505  14.491  1.00  0.00    -0.550 OA
ENDBRANCH   5   6
ENDBRANCH   1   5
TORSDOF 3
ENDMDL
MODEL 6
REMARK VINA RESULT:    -3.451      1.747      3.575
REMARK INTER + INTRA:          -4.183
REMARK INTER:                  -4.068
REMARK INTRA:                  -0.115
REMARK UNBOUND:                -0.127
REMARK SMILES O=C([O-])CCC(=O)[O-]
REMARK SMILES IDX 4 1 2 2 1 3 3 4 5 5 6 6 7 7 8 8
REMARK H PARENT
REMARK Flexibility Score: inf
ROOT
ATOM      1  C   UNL     1      60.526  28.204  12.752  1.00  0.00     0.059 C 
ENDROOT
BRANCH   1   2
ATOM      2  C   UNL     1      61.634  28.876  13.498  1.00  0.00     0.042 C 
ATOM      3  O   UNL     1      62.820  28.796  13.080  1.00  0.00    -0.550 OA
ATOM      4  O   UNL     1      61.351  29.634  14.628  1.00  0.00    -0.550 OA
ENDBRANCH   1   2
BRANCH   1   5
ATOM      5  C   UNL     1      59.798  29.205  11.855  1.00  0.00     0.059 C 
BRANCH   5   6
ATOM      6  C   UNL     1      60.193  29.013  10.425  1.00  0.00     0.042 C 
ATOM      7  O   UNL     1      59.603  29.650   9.513  1.00  0.00    -0.550 OA
ATOM      8  O   UNL     1      61.181  28.093  10.095  1.00  0.00    -0.550 OA
ENDBRANCH   5   6
ENDBRANCH   1   5
TORSDOF 3
ENDMDL
MODEL 7
REMARK VINA RESULT:    -3.449      1.926      3.647
REMARK INTER + INTRA:          -4.181
REMARK INTER:                  -4.073
REMARK INTRA:                  -0.108
REMARK UNBOUND:                -0.127
REMARK SMILES O=C([O-])CCC(=O)[O-]
REMARK SMILES IDX 4 1 2 2 1 3 3 4 5 5 6 6 7 7 8 8
REMARK H PARENT
REMARK Flexibility Score: inf
ROOT
ATOM      1  C   UNL     1      60.848  28.238  12.981  1.00  0.00     0.059 C 
ENDROOT
BRANCH   1   2
ATOM      2  C   UNL     1      59.548  28.620  12.349  1.00  0.00     0.042 C 
ATOM      3  O   UNL     1      59.508  29.534  11.483  1.00  0.00    -0.550 OA
ATOM      4  O   UNL     1      58.386  27.933  12.679  1.00  0.00    -0.550 OA
ENDBRANCH   1   2
BRANCH   1   5
ATOM      5  C   UNL     1      61.818  29.420  12.966  1.00  0.00     0.059 C 
BRANCH   5   6
ATOM      6  C   UNL     1      62.948  29.159  12.020  1.00  0.00     0.042 C 
ATOM      7  O   UNL     1      64.131  29.430  12.356  1.00  0.00    -0.550 OA
ATOM      8  O   UNL     1      62.689  28.663  10.749  1.00  0.00    -0.550 OA
ENDBRANCH   5   6
ENDBRANCH   1   5
TORSDOF 3
ENDMDL
MODEL 8
REMARK VINA RESULT:    -3.432     13.457     15.161
REMARK INTER + INTRA:          -4.161
REMARK INTER:                  -4.053
REMARK INTRA:                  -0.108
REMARK UNBOUND:                -0.127
REMARK SMILES O=C([O-])CCC(=O)[O-]
REMARK SMILES IDX 4 1 2 2 1 3 3 4 5 5 6 6 7 7 8 8
REMARK H PARENT
REMARK Flexibility Score: inf
ROOT
ATOM      1  C   UNL     1      60.865  28.077  25.404  1.00  0.00     0.059 C 
ENDROOT
BRANCH   1   2
ATOM      2  C   UNL     1      61.846  28.809  24.545  1.00  0.00     0.042 C 
ATOM      3  O   UNL     1      62.304  28.268  23.504  1.00  0.00    -0.550 OA
ATOM      4  O   UNL     1      62.219  30.108  24.867  1.00  0.00    -0.550 OA
ENDBRANCH   1   2
BRANCH   1   5
ATOM      5  C   UNL     1      61.591  27.132  26.361  1.00  0.00     0.059 C 
BRANCH   5   6
ATOM      6  C   UNL     1      61.461  27.614  27.772  1.00  0.00     0.042 C 
ATOM      7  O   UNL     1      61.052  28.781  28.008  1.00  0.00    -0.550 OA
ATOM      8  O   UNL     1      61.838  26.789  28.824  1.00  0.00    -0.550 OA
ENDBRANCH   5   6
ENDBRANCH   1   5
TORSDOF 3
ENDMDL
MODEL 9
REMARK VINA RESULT:    -3.405     13.462     15.541
REMARK INTER + INTRA:          -4.129
REMARK INTER:                  -4.023
REMARK INTRA:                  -0.106
REMARK UNBOUND:                -0.127
REMARK SMILES O=C([O-])CCC(=O)[O-]
REMARK SMILES IDX 4 1 2 2 1 3 3 4 5 5 6 6 7 7 8 8
REMARK H PARENT
REMARK Flexibility Score: inf
ROOT
ATOM      1  C   UNL     1      61.522  27.198  26.560  1.00  0.00     0.059 C 
ENDROOT
BRANCH   1   2
ATOM      2  C   UNL     1      61.199  27.884  27.850  1.00  0.00     0.042 C 
ATOM      3  O   UNL     1      61.405  29.119  27.978  1.00  0.00    -0.550 OA
ATOM      4  O   UNL     1      60.625  27.168  28.893  1.00  0.00    -0.550 OA
ENDBRANCH   1   2
BRANCH   1   5
ATOM      5  C   UNL     1      60.782  27.862  25.400  1.00  0.00     0.059 C 
BRANCH   5   6
ATOM      6  C   UNL     1      61.734  28.637  24.545  1.00  0.00     0.042 C 
ATOM      7  O   UNL     1      61.839  29.884  24.683  1.00  0.00    -0.550 OA
ATOM      8  O   UNL     1      62.470  27.988  23.562  1.00  0.00    -0.550 OA
ENDBRANCH   5   6
ENDBRANCH   1   5
TORSDOF 3
ENDMDL
