MODEL 1
REMARK VINA RESULT:    -1.628      0.000      0.000
REMARK INTER + INTRA:          -4.811
REMARK INTER:                  -2.866
REMARK INTRA:                  -1.945
REMARK UNBOUND:                -1.945
REMARK SMILES CCCCCCCCCCCCCCC(=O)[O-]
REMARK SMILES IDX 9 1 10 2 11 3 12 4 13 5 14 6 15 7 16 8 17 9 8 10 7 11 6 12
REMARK SMILES IDX 5 13 4 14 3 15 2 16 1 17
REMARK H PARENT
REMARK Flexibility Score: inf
ROOT
ATOM      1  C   UNL     1     174.912 178.041 194.161  1.00  0.00     0.000 C 
ENDROOT
BRANCH   1   2
ATOM      2  C   UNL     1     173.756 177.085 194.509  1.00  0.00     0.000 C 
BRANCH   2   3
ATOM      3  C   UNL     1     172.863 177.628 195.636  1.00  0.00     0.000 C 
BRANCH   3   4
ATOM      4  C   UNL     1     173.523 178.786 196.404  1.00  0.00     0.000 C 
BRANCH   4   5
ATOM      5  C   UNL     1     173.036 178.884 197.859  1.00  0.00     0.006 C 
BRANCH   5   6
ATOM      6  C   UNL     1     172.742 177.509 198.475  1.00  0.00     0.053 C 
BRANCH   6   7
ATOM      7  C   UNL     1     172.098 177.666 199.816  1.00  0.00     0.041 C 
ATOM      8  O   UNL     1     171.059 177.014 200.100  1.00  0.00    -0.550 OA
ATOM      9  O   UNL     1     172.617 178.569 200.736  1.00  0.00    -0.550 OA
ENDBRANCH   6   7
ENDBRANCH   5   6
ENDBRANCH   4   5
ENDBRANCH   3   4
ENDBRANCH   2   3
ENDBRANCH   1   2
BRANCH   1  10
ATOM     10  C   UNL     1     175.529 177.748 192.783  1.00  0.00     0.000 C 
BRANCH  10  11
ATOM     11  C   UNL     1     174.616 176.875 191.903  1.00  0.00    -0.000 C 
BRANCH  11  12
ATOM     12  C   UNL     1     174.472 177.428 190.476  1.00  0.00    -0.000 C 
BRANCH  12  13
ATOM     13  C   UNL     1     173.133 178.145 190.249  1.00  0.00    -0.000 C 
BRANCH  13  14
ATOM     14  C   UNL     1     172.077 177.671 191.255  1.00  0.00    -0.000 C 
BRANCH  14  15
ATOM     15  C   UNL     1     171.459 178.856 192.006  1.00  0.00    -0.000 C 
BRANCH  15  16
ATOM     16  C   UNL     1     172.430 180.041 192.057  1.00  0.00    -0.003 C 
ATOM     17  C   UNL     1     172.416 180.707 193.430  1.00  0.00     0.004 C 
ENDBRANCH  15  16
ENDBRANCH  14  15
ENDBRANCH  13  14
ENDBRANCH  12  13
ENDBRANCH  11  12
ENDBRANCH  10  11
ENDBRANCH   1  10
TORSDOF 13
ENDMDL
MODEL 2
REMARK VINA RESULT:    -1.584      3.222      7.377
REMARK INTER + INTRA:          -4.733
REMARK INTER:                  -2.892
REMARK INTRA:                  -1.841
REMARK UNBOUND:                -1.945
REMARK SMILES CCCCCCCCCCCCCCC(=O)[O-]
REMARK SMILES IDX 9 1 10 2 11 3 12 4 13 5 14 6 15 7 16 8 17 9 8 10 7 11 6 12
REMARK SMILES IDX 5 13 4 14 3 15 2 16 1 17
REMARK H PARENT
REMARK Flexibility Score: inf
ROOT
ATOM      1  C   UNL     1     173.693 181.092 198.070  1.00  0.00     0.000 C 
ENDROOT
BRANCH   1   2
ATOM      2  C   UNL     1     173.099 180.056 197.099  1.00  0.00     0.000 C 
BRANCH   2   3
ATOM      3  C   UNL     1     174.158 179.083 196.557  1.00  0.00     0.000 C 
BRANCH   3   4
ATOM      4  C   UNL     1     173.664 177.626 196.538  1.00  0.00     0.000 C 
BRANCH   4   5
ATOM      5  C   UNL     1     172.685 177.349 195.385  1.00  0.00     0.006 C 
BRANCH   5   6
ATOM      6  C   UNL     1     173.177 177.915 194.046  1.00  0.00     0.053 C 
BRANCH   6   7
ATOM      7  C   UNL     1     172.257 177.507 192.939  1.00  0.00     0.041 C 
ATOM      8  O   UNL     1     171.178 176.913 193.198  1.00  0.00    -0.550 OA
ATOM      9  O   UNL     1     172.614 177.740 191.616  1.00  0.00    -0.550 OA
ENDBRANCH   6   7
ENDBRANCH   5   6
ENDBRANCH   4   5
ENDBRANCH   3   4
ENDBRANCH   2   3
ENDBRANCH   1   2
BRANCH   1  10
ATOM     10  C   UNL     1     172.891 181.207 199.377  1.00  0.00     0.000 C 
BRANCH  10  11
ATOM     11  C   UNL     1     171.626 180.330 199.371  1.00  0.00    -0.000 C 
BRANCH  11  12
ATOM     12  C   UNL     1     171.279 179.787 200.767  1.00  0.00    -0.000 C 
BRANCH  12  13
ATOM     13  C   UNL     1     171.008 178.275 200.766  1.00  0.00    -0.000 C 
BRANCH  13  14
ATOM     14  C   UNL     1     171.994 177.540 199.850  1.00  0.00    -0.000 C 
BRANCH  14  15
ATOM     15  C   UNL     1     173.217 177.051 200.636  1.00  0.00    -0.000 C 
BRANCH  15  16
ATOM     16  C   UNL     1     174.461 177.875 200.284  1.00  0.00    -0.003 C 
ATOM     17  C   UNL     1     175.547 176.998 199.669  1.00  0.00     0.004 C 
ENDBRANCH  15  16
ENDBRANCH  14  15
ENDBRANCH  13  14
ENDBRANCH  12  13
ENDBRANCH  11  12
ENDBRANCH  10  11
ENDBRANCH   1  10
TORSDOF 13
ENDMDL
MODEL 3
REMARK VINA RESULT:    -1.582      3.349      7.311
REMARK INTER + INTRA:          -4.730
REMARK INTER:                  -2.959
REMARK INTRA:                  -1.771
REMARK UNBOUND:                -1.945
REMARK SMILES CCCCCCCCCCCCCCC(=O)[O-]
REMARK SMILES IDX 9 1 10 2 11 3 12 4 13 5 14 6 15 7 16 8 17 9 8 10 7 11 6 12
REMARK SMILES IDX 5 13 4 14 3 15 2 16 1 17
REMARK H PARENT
REMARK Flexibility Score: inf
ROOT
ATOM      1  C   UNL     1     174.198 180.157 197.007  1.00  0.00     0.000 C 
ENDROOT
BRANCH   1   2
ATOM      2  C   UNL     1     173.116 179.240 196.409  1.00  0.00     0.000 C 
BRANCH   2   3
ATOM      3  C   UNL     1     173.496 177.753 196.487  1.00  0.00     0.000 C 
BRANCH   3   4
ATOM      4  C   UNL     1     172.636 176.875 195.560  1.00  0.00     0.000 C 
BRANCH   4   5
ATOM      5  C   UNL     1     173.016 177.032 194.079  1.00  0.00     0.006 C 
BRANCH   5   6
ATOM      6  C   UNL     1     171.793 177.248 193.177  1.00  0.00     0.053 C 
BRANCH   6   7
ATOM      7  C   UNL     1     171.995 178.444 192.303  1.00  0.00     0.041 C 
ATOM      8  O   UNL     1     172.089 178.308 191.054  1.00  0.00    -0.550 OA
ATOM      9  O   UNL     1     172.129 179.706 192.869  1.00  0.00    -0.550 OA
ENDBRANCH   6   7
ENDBRANCH   5   6
ENDBRANCH   4   5
ENDBRANCH   3   4
ENDBRANCH   2   3
ENDBRANCH   1   2
BRANCH   1  10
ATOM     10  C   UNL     1     173.788 180.750 198.365  1.00  0.00     0.000 C 
BRANCH  10  11
ATOM     11  C   UNL     1     172.359 180.351 198.775  1.00  0.00    -0.000 C 
BRANCH  11  12
ATOM     12  C   UNL     1     172.170 180.323 200.300  1.00  0.00    -0.000 C 
BRANCH  12  13
ATOM     13  C   UNL     1     171.438 179.063 200.786  1.00  0.00    -0.000 C 
BRANCH  13  14
ATOM     14  C   UNL     1     171.857 177.835 199.968  1.00  0.00    -0.000 C 
BRANCH  14  15
ATOM     15  C   UNL     1     172.937 177.029 200.699  1.00  0.00    -0.000 C 
BRANCH  15  16
ATOM     16  C   UNL     1     174.253 177.033 199.912  1.00  0.00    -0.003 C 
ATOM     17  C   UNL     1     175.241 178.039 200.492  1.00  0.00     0.004 C 
ENDBRANCH  15  16
ENDBRANCH  14  15
ENDBRANCH  13  14
ENDBRANCH  12  13
ENDBRANCH  11  12
ENDBRANCH  10  11
ENDBRANCH   1  10
TORSDOF 13
ENDMDL
MODEL 4
REMARK VINA RESULT:    -1.480      1.223      2.487
REMARK INTER + INTRA:          -4.550
REMARK INTER:                  -2.473
REMARK INTRA:                  -2.076
REMARK UNBOUND:                -1.945
REMARK SMILES CCCCCCCCCCCCCCC(=O)[O-]
REMARK SMILES IDX 9 1 10 2 11 3 12 4 13 5 14 6 15 7 16 8 17 9 8 10 7 11 6 12
REMARK SMILES IDX 5 13 4 14 3 15 2 16 1 17
REMARK H PARENT
REMARK Flexibility Score: inf
ROOT
ATOM      1  C   UNL     1     175.121 177.910 194.498  1.00  0.00     0.000 C 
ENDROOT
BRANCH   1   2
ATOM      2  C   UNL     1     173.899 177.049 194.131  1.00  0.00     0.000 C 
BRANCH   2   3
ATOM      3  C   UNL     1     172.728 177.245 195.107  1.00  0.00     0.000 C 
BRANCH   3   4
ATOM      4  C   UNL     1     173.140 178.010 196.376  1.00  0.00     0.000 C 
BRANCH   4   5
ATOM      5  C   UNL     1     173.106 177.129 197.635  1.00  0.00     0.006 C 
BRANCH   5   6
ATOM      6  C   UNL     1     173.311 177.935 198.925  1.00  0.00     0.053 C 
BRANCH   6   7
ATOM      7  C   UNL     1     171.996 178.204 199.585  1.00  0.00     0.041 C 
ATOM      8  O   UNL     1     171.658 179.384 199.865  1.00  0.00    -0.550 OA
ATOM      9  O   UNL     1     171.165 177.148 199.938  1.00  0.00    -0.550 OA
ENDBRANCH   6   7
ENDBRANCH   5   6
ENDBRANCH   4   5
ENDBRANCH   3   4
ENDBRANCH   2   3
ENDBRANCH   1   2
BRANCH   1  10
ATOM     10  C   UNL     1     175.904 178.384 193.263  1.00  0.00     0.000 C 
BRANCH  10  11
ATOM     11  C   UNL     1     175.982 179.919 193.168  1.00  0.00    -0.000 C 
BRANCH  11  12
ATOM     12  C   UNL     1     175.049 180.619 194.168  1.00  0.00    -0.000 C 
BRANCH  12  13
ATOM     13  C   UNL     1     173.876 181.339 193.484  1.00  0.00    -0.000 C 
BRANCH  13  14
ATOM     14  C   UNL     1     172.553 180.613 193.755  1.00  0.00    -0.000 C 
BRANCH  14  15
ATOM     15  C   UNL     1     172.083 179.843 192.514  1.00  0.00    -0.000 C 
BRANCH  15  16
ATOM     16  C   UNL     1     172.811 180.332 191.256  1.00  0.00    -0.003 C 
ATOM     17  C   UNL     1     173.386 179.163 190.462  1.00  0.00     0.004 C 
ENDBRANCH  15  16
ENDBRANCH  14  15
ENDBRANCH  13  14
ENDBRANCH  12  13
ENDBRANCH  11  12
ENDBRANCH  10  11
ENDBRANCH   1  10
TORSDOF 13
ENDMDL
MODEL 5
REMARK VINA RESULT:    -1.476      3.349      6.869
REMARK INTER + INTRA:          -4.542
REMARK INTER:                  -2.481
REMARK INTRA:                  -2.061
REMARK UNBOUND:                -1.945
REMARK SMILES CCCCCCCCCCCCCCC(=O)[O-]
REMARK SMILES IDX 9 1 10 2 11 3 12 4 13 5 14 6 15 7 16 8 17 9 8 10 7 11 6 12
REMARK SMILES IDX 5 13 4 14 3 15 2 16 1 17
REMARK H PARENT
REMARK Flexibility Score: inf
ROOT
ATOM      1  C   UNL     1     174.983 177.959 198.124  1.00  0.00     0.000 C 
ENDROOT
BRANCH   1   2
ATOM      2  C   UNL     1     174.022 176.875 197.602  1.00  0.00     0.000 C 
BRANCH   2   3
ATOM      3  C   UNL     1     173.098 177.394 196.490  1.00  0.00     0.000 C 
BRANCH   3   4
ATOM      4  C   UNL     1     173.126 178.928 196.368  1.00  0.00     0.000 C 
BRANCH   4   5
ATOM      5  C   UNL     1     173.500 179.402 194.955  1.00  0.00     0.006 C 
BRANCH   5   6
ATOM      6  C   UNL     1     173.469 178.265 193.924  1.00  0.00     0.053 C 
BRANCH   6   7
ATOM      7  C   UNL     1     172.375 178.493 192.930  1.00  0.00     0.041 C 
ATOM      8  O   UNL     1     172.064 179.664 192.587  1.00  0.00    -0.550 OA
ATOM      9  O   UNL     1     171.664 177.414 192.417  1.00  0.00    -0.550 OA
ENDBRANCH   6   7
ENDBRANCH   5   6
ENDBRANCH   4   5
ENDBRANCH   3   4
ENDBRANCH   2   3
ENDBRANCH   1   2
BRANCH   1  10
ATOM     10  C   UNL     1     174.966 178.078 199.657  1.00  0.00     0.000 C 
BRANCH  10  11
ATOM     11  C   UNL     1     173.697 177.470 200.281  1.00  0.00    -0.000 C 
BRANCH  11  12
ATOM     12  C   UNL     1     172.778 178.533 200.903  1.00  0.00    -0.000 C 
BRANCH  12  13
ATOM     13  C   UNL     1     171.700 179.031 199.929  1.00  0.00    -0.000 C 
BRANCH  13  14
ATOM     14  C   UNL     1     171.481 180.542 200.076  1.00  0.00    -0.000 C 
BRANCH  14  15
ATOM     15  C   UNL     1     172.266 181.318 199.012  1.00  0.00    -0.000 C 
BRANCH  15  16
ATOM     16  C   UNL     1     173.670 181.672 199.514  1.00  0.00    -0.003 C 
ATOM     17  C   UNL     1     174.687 181.641 198.377  1.00  0.00     0.004 C 
ENDBRANCH  15  16
ENDBRANCH  14  15
ENDBRANCH  13  14
ENDBRANCH  12  13
ENDBRANCH  11  12
ENDBRANCH  10  11
ENDBRANCH   1  10
TORSDOF 13
ENDMDL
MODEL 6
REMARK VINA RESULT:    -1.450      3.354      7.181
REMARK INTER + INTRA:          -4.497
REMARK INTER:                  -2.584
REMARK INTRA:                  -1.914
REMARK UNBOUND:                -1.945
REMARK SMILES CCCCCCCCCCCCCCC(=O)[O-]
REMARK SMILES IDX 9 1 10 2 11 3 12 4 13 5 14 6 15 7 16 8 17 9 8 10 7 11 6 12
REMARK SMILES IDX 5 13 4 14 3 15 2 16 1 17
REMARK H PARENT
REMARK Flexibility Score: inf
ROOT
ATOM      1  C   UNL     1     174.475 180.755 197.906  1.00  0.00     0.000 C 
ENDROOT
BRANCH   1   2
ATOM      2  C   UNL     1     174.525 179.437 197.111  1.00  0.00     0.000 C 
BRANCH   2   3
ATOM      3  C   UNL     1     173.128 178.933 196.718  1.00  0.00     0.000 C 
BRANCH   3   4
ATOM      4  C   UNL     1     173.112 177.428 196.401  1.00  0.00     0.000 C 
BRANCH   4   5
ATOM      5  C   UNL     1     172.607 177.129 194.980  1.00  0.00     0.006 C 
BRANCH   5   6
ATOM      6  C   UNL     1     173.338 177.950 193.910  1.00  0.00     0.053 C 
BRANCH   6   7
ATOM      7  C   UNL     1     172.374 178.433 192.873  1.00  0.00     0.041 C 
ATOM      8  O   UNL     1     171.434 177.689 192.487  1.00  0.00    -0.550 OA
ATOM      9  O   UNL     1     172.541 179.686 192.297  1.00  0.00    -0.550 OA
ENDBRANCH   6   7
ENDBRANCH   5   6
ENDBRANCH   4   5
ENDBRANCH   3   4
ENDBRANCH   2   3
ENDBRANCH   1   2
BRANCH   1  10
ATOM     10  C   UNL     1     174.991 180.599 199.346  1.00  0.00     0.000 C 
BRANCH  10  11
ATOM     11  C   UNL     1     175.272 179.131 199.715  1.00  0.00    -0.000 C 
BRANCH  11  12
ATOM     12  C   UNL     1     174.765 178.769 201.120  1.00  0.00    -0.000 C 
BRANCH  12  13
ATOM     13  C   UNL     1     173.863 177.526 201.125  1.00  0.00    -0.000 C 
BRANCH  13  14
ATOM     14  C   UNL     1     172.793 177.619 200.030  1.00  0.00    -0.000 C 
BRANCH  14  15
ATOM     15  C   UNL     1     171.522 178.295 200.558  1.00  0.00    -0.000 C 
BRANCH  15  16
ATOM     16  C   UNL     1     171.342 179.687 199.941  1.00  0.00    -0.003 C 
ATOM     17  C   UNL     1     171.593 180.783 200.971  1.00  0.00     0.004 C 
ENDBRANCH  15  16
ENDBRANCH  14  15
ENDBRANCH  13  14
ENDBRANCH  12  13
ENDBRANCH  11  12
ENDBRANCH  10  11
ENDBRANCH   1  10
TORSDOF 13
ENDMDL
MODEL 7
REMARK VINA RESULT:    -1.438      1.748      3.247
REMARK INTER + INTRA:          -4.477
REMARK INTER:                  -2.138
REMARK INTRA:                  -2.338
REMARK UNBOUND:                -1.945
REMARK SMILES CCCCCCCCCCCCCCC(=O)[O-]
REMARK SMILES IDX 9 1 10 2 11 3 12 4 13 5 14 6 15 7 16 8 17 9 8 10 7 11 6 12
REMARK SMILES IDX 5 13 4 14 3 15 2 16 1 17
REMARK H PARENT
REMARK Flexibility Score: inf
ROOT
ATOM      1  C   UNL     1     175.449 181.464 196.128  1.00  0.00     0.000 C 
ENDROOT
BRANCH   1   2
ATOM      2  C   UNL     1     173.974 181.568 196.556  1.00  0.00     0.000 C 
BRANCH   2   3
ATOM      3  C   UNL     1     173.476 180.299 197.265  1.00  0.00     0.000 C 
BRANCH   3   4
ATOM      4  C   UNL     1     174.420 179.845 198.392  1.00  0.00     0.000 C 
BRANCH   4   5
ATOM      5  C   UNL     1     174.348 178.330 198.648  1.00  0.00     0.006 C 
BRANCH   5   6
ATOM      6  C   UNL     1     172.919 177.781 198.532  1.00  0.00     0.053 C 
BRANCH   6   7
ATOM      7  C   UNL     1     172.343 177.536 199.891  1.00  0.00     0.041 C 
ATOM      8  O   UNL     1     171.159 177.126 200.012  1.00  0.00    -0.550 OA
ATOM      9  O   UNL     1     173.097 177.807 201.026  1.00  0.00    -0.550 OA
ENDBRANCH   6   7
ENDBRANCH   5   6
ENDBRANCH   4   5
ENDBRANCH   3   4
ENDBRANCH   2   3
ENDBRANCH   1   2
BRANCH   1  10
ATOM     10  C   UNL     1     175.647 180.568 194.894  1.00  0.00     0.000 C 
BRANCH  10  11
ATOM     11  C   UNL     1     176.744 179.509 195.104  1.00  0.00    -0.000 C 
BRANCH  11  12
ATOM     12  C   UNL     1     176.175 178.147 195.530  1.00  0.00    -0.000 C 
BRANCH  12  13
ATOM     13  C   UNL     1     175.366 177.466 194.416  1.00  0.00    -0.000 C 
BRANCH  13  14
ATOM     14  C   UNL     1     174.028 176.940 194.951  1.00  0.00    -0.000 C 
BRANCH  14  15
ATOM     15  C   UNL     1     172.914 177.977 194.761  1.00  0.00    -0.000 C 
BRANCH  15  16
ATOM     16  C   UNL     1     172.864 178.471 193.310  1.00  0.00    -0.003 C 
ATOM     17  C   UNL     1     172.511 179.954 193.244  1.00  0.00     0.004 C 
ENDBRANCH  15  16
ENDBRANCH  14  15
ENDBRANCH  13  14
ENDBRANCH  12  13
ENDBRANCH  11  12
ENDBRANCH  10  11
ENDBRANCH   1  10
TORSDOF 13
ENDMDL
MODEL 8
REMARK VINA RESULT:    -1.404      1.899      3.597
REMARK INTER + INTRA:          -4.416
REMARK INTER:                  -2.207
REMARK INTRA:                  -2.209
REMARK UNBOUND:                -1.945
REMARK SMILES CCCCCCCCCCCCCCC(=O)[O-]
REMARK SMILES IDX 9 1 10 2 11 3 12 4 13 5 14 6 15 7 16 8 17 9 8 10 7 11 6 12
REMARK SMILES IDX 5 13 4 14 3 15 2 16 1 17
REMARK H PARENT
REMARK Flexibility Score: inf
ROOT
ATOM      1  C   UNL     1     175.184 181.397 192.367  1.00  0.00     0.000 C 
ENDROOT
BRANCH   1   2
ATOM      2  C   UNL     1     175.392 179.888 192.138  1.00  0.00     0.000 C 
BRANCH   2   3
ATOM      3  C   UNL     1     174.899 179.041 193.322  1.00  0.00     0.000 C 
BRANCH   3   4
ATOM      4  C   UNL     1     174.342 179.901 194.471  1.00  0.00     0.000 C 
BRANCH   4   5
ATOM      5  C   UNL     1     173.224 179.191 195.251  1.00  0.00     0.006 C 
BRANCH   5   6
ATOM      6  C   UNL     1     173.765 178.158 196.248  1.00  0.00     0.053 C 
BRANCH   6   7
ATOM      7  C   UNL     1     173.066 178.287 197.564  1.00  0.00     0.041 C 
ATOM      8  O   UNL     1     172.737 177.259 198.211  1.00  0.00    -0.550 OA
ATOM      9  O   UNL     1     172.733 179.544 198.055  1.00  0.00    -0.550 OA
ENDBRANCH   6   7
ENDBRANCH   5   6
ENDBRANCH   4   5
ENDBRANCH   3   4
ENDBRANCH   2   3
ENDBRANCH   1   2
BRANCH   1  10
ATOM     10  C   UNL     1     174.173 182.011 191.385  1.00  0.00     0.000 C 
BRANCH  10  11
ATOM     11  C   UNL     1     173.040 182.768 192.103  1.00  0.00    -0.000 C 
BRANCH  11  12
ATOM     12  C   UNL     1     171.648 182.224 191.744  1.00  0.00    -0.000 C 
BRANCH  12  13
ATOM     13  C   UNL     1     171.271 180.974 192.553  1.00  0.00    -0.000 C 
BRANCH  13  14
ATOM     14  C   UNL     1     170.875 179.818 191.626  1.00  0.00    -0.000 C 
BRANCH  14  15
ATOM     15  C   UNL     1     171.608 178.527 192.010  1.00  0.00    -0.000 C 
BRANCH  15  16
ATOM     16  C   UNL     1     172.281 177.893 190.788  1.00  0.00    -0.003 C 
ATOM     17  C   UNL     1     172.676 178.952 189.763  1.00  0.00     0.004 C 
ENDBRANCH  15  16
ENDBRANCH  14  15
ENDBRANCH  13  14
ENDBRANCH  12  13
ENDBRANCH  11  12
ENDBRANCH  10  11
ENDBRANCH   1  10
TORSDOF 13
ENDMDL
MODEL 9
REMARK VINA RESULT:    -1.378      3.089      6.647
REMARK INTER + INTRA:          -4.370
REMARK INTER:                  -2.253
REMARK INTRA:                  -2.117
REMARK UNBOUND:                -1.945
REMARK SMILES CCCCCCCCCCCCCCC(=O)[O-]
REMARK SMILES IDX 9 1 10 2 11 3 12 4 13 5 14 6 15 7 16 8 17 9 8 10 7 11 6 12
REMARK SMILES IDX 5 13 4 14 3 15 2 16 1 17
REMARK H PARENT
REMARK Flexibility Score: inf
ROOT
ATOM      1  C   UNL     1     174.603 179.342 196.332  1.00  0.00     0.000 C 
ENDROOT
BRANCH   1   2
ATOM      2  C   UNL     1     175.639 178.227 196.565  1.00  0.00     0.000 C 
BRANCH   2   3
ATOM      3  C   UNL     1     176.142 177.608 195.251  1.00  0.00     0.000 C 
BRANCH   3   4
ATOM      4  C   UNL     1     175.660 178.383 194.012  1.00  0.00     0.000 C 
BRANCH   4   5
ATOM      5  C   UNL     1     174.858 177.502 193.040  1.00  0.00     0.006 C 
BRANCH   5   6
ATOM      6  C   UNL     1     173.620 176.876 193.697  1.00  0.00     0.053 C 
BRANCH   6   7
ATOM      7  C   UNL     1     172.385 177.619 193.296  1.00  0.00     0.041 C 
ATOM      8  O   UNL     1     171.349 176.990 192.956  1.00  0.00    -0.550 OA
ATOM      9  O   UNL     1     172.392 179.008 193.251  1.00  0.00    -0.550 OA
ENDBRANCH   6   7
ENDBRANCH   5   6
ENDBRANCH   4   5
ENDBRANCH   3   4
ENDBRANCH   2   3
ENDBRANCH   1   2
BRANCH   1  10
ATOM     10  C   UNL     1     173.182 178.926 196.745  1.00  0.00     0.000 C 
BRANCH  10  11
ATOM     11  C   UNL     1     173.140 177.528 197.389  1.00  0.00    -0.000 C 
BRANCH  11  12
ATOM     12  C   UNL     1     172.788 177.578 198.884  1.00  0.00    -0.000 C 
BRANCH  12  13
ATOM     13  C   UNL     1     172.354 178.978 199.346  1.00  0.00    -0.000 C 
BRANCH  13  14
ATOM     14  C   UNL     1     173.374 179.573 200.325  1.00  0.00    -0.000 C 
BRANCH  14  15
ATOM     15  C   UNL     1     174.526 178.595 200.583  1.00  0.00    -0.000 C 
BRANCH  15  16
ATOM     16  C   UNL     1     175.868 179.201 200.156  1.00  0.00    -0.003 C 
ATOM     17  C   UNL     1     175.700 180.645 199.694  1.00  0.00     0.004 C 
ENDBRANCH  15  16
ENDBRANCH  14  15
ENDBRANCH  13  14
ENDBRANCH  12  13
ENDBRANCH  11  12
ENDBRANCH  10  11
ENDBRANCH   1  10
TORSDOF 13
ENDMDL
