MODEL 1
REMARK VINA RESULT:    -5.286      0.000      0.000
REMARK INTER + INTRA:          -5.946
REMARK INTER:                  -5.749
REMARK INTRA:                  -0.197
REMARK UNBOUND:                -0.197
REMARK SMILES Cc1ccc(C(C)C)c(O)c1
REMARK SMILES IDX 1 1 2 2 11 3 9 4 5 5 4 6 3 7 10 8 6 10 7 11 8 12
REMARK H PARENT 10 9
REMARK Flexibility Score: inf
ROOT
ATOM      1  C   UNL     1      20.571 -20.499 -11.616  1.00  0.00     0.044 C 
ATOM      2  C   UNL     1      20.788 -19.039 -11.879  1.00  0.00    -0.047 A 
ATOM      3  C   UNL     1      21.327 -18.215 -10.883  1.00  0.00     0.049 A 
ATOM      4  C   UNL     1      21.499 -16.840 -11.107  1.00  0.00     0.119 A 
ATOM      5  C   UNL     1      21.117 -16.272 -12.343  1.00  0.00    -0.004 A 
ATOM      6  C   UNL     1      20.558 -17.108 -13.331  1.00  0.00     0.008 A 
ATOM      7  C   UNL     1      20.391 -18.475 -13.097  1.00  0.00     0.004 A 
ENDROOT
BRANCH   4   8
ATOM      8  O   UNL     1      22.046 -16.043 -10.101  1.00  0.00    -0.508 OA
ATOM      9  H   UNL     1      21.528 -15.277  -9.688  1.00  0.00     0.293 HD
ENDBRANCH   4   8
BRANCH   5  10
ATOM     10  C   UNL     1      21.294 -14.785 -12.612  1.00  0.00     0.017 C 
ATOM     11  C   UNL     1      20.161 -14.245 -13.494  1.00  0.00     0.012 C 
ATOM     12  C   UNL     1      22.664 -14.493 -13.235  1.00  0.00     0.012 C 
ENDBRANCH   5  10
TORSDOF 2
ENDMDL
MODEL 2
REMARK VINA RESULT:    -5.121      2.559      4.965
REMARK INTER + INTRA:          -5.767
REMARK INTER:                  -5.591
REMARK INTRA:                  -0.176
REMARK UNBOUND:                -0.197
REMARK SMILES Cc1ccc(C(C)C)c(O)c1
REMARK SMILES IDX 1 1 2 2 11 3 9 4 5 5 4 6 3 7 10 8 6 10 7 11 8 12
REMARK H PARENT 10 9
REMARK Flexibility Score: inf
ROOT
ATOM      1  C   UNL     1      21.944 -14.824  -9.728  1.00  0.00     0.044 C 
ATOM      2  C   UNL     1      22.170 -16.298  -9.887  1.00  0.00    -0.047 A 
ATOM      3  C   UNL     1      22.951 -16.997  -8.957  1.00  0.00     0.049 A 
ATOM      4  C   UNL     1      23.198 -18.368  -9.119  1.00  0.00     0.119 A 
ATOM      5  C   UNL     1      22.667 -19.056 -10.232  1.00  0.00    -0.004 A 
ATOM      6  C   UNL     1      21.899 -18.339 -11.171  1.00  0.00     0.008 A 
ATOM      7  C   UNL     1      21.659 -16.973 -11.002  1.00  0.00     0.004 A 
ENDROOT
BRANCH   4   8
ATOM      8  O   UNL     1      23.972 -19.042  -8.173  1.00  0.00    -0.508 OA
ATOM      9  H   UNL     1      24.953 -19.238  -8.330  1.00  0.00     0.293 HD
ENDBRANCH   4   8
BRANCH   5  10
ATOM     10  C   UNL     1      22.920 -20.544 -10.429  1.00  0.00     0.017 C 
ATOM     11  C   UNL     1      24.261 -20.787 -11.134  1.00  0.00     0.012 C 
ATOM     12  C   UNL     1      21.768 -21.206 -11.194  1.00  0.00     0.012 C 
ENDBRANCH   5  10
TORSDOF 2
ENDMDL
MODEL 3
REMARK VINA RESULT:    -5.105      2.475      4.909
REMARK INTER + INTRA:          -5.750
REMARK INTER:                  -5.672
REMARK INTRA:                  -0.077
REMARK UNBOUND:                -0.197
REMARK SMILES Cc1ccc(C(C)C)c(O)c1
REMARK SMILES IDX 1 1 2 2 11 3 9 4 5 5 4 6 3 7 10 8 6 10 7 11 8 12
REMARK H PARENT 10 9
REMARK Flexibility Score: inf
ROOT
ATOM      1  C   UNL     1      21.670 -14.108 -10.531  1.00  0.00     0.044 C 
ATOM      2  C   UNL     1      22.107 -15.527 -10.316  1.00  0.00    -0.047 A 
ATOM      3  C   UNL     1      22.914 -15.859  -9.221  1.00  0.00     0.049 A 
ATOM      4  C   UNL     1      23.358 -17.177  -9.033  1.00  0.00     0.119 A 
ATOM      5  C   UNL     1      23.002 -18.182  -9.960  1.00  0.00    -0.004 A 
ATOM      6  C   UNL     1      22.206 -17.832 -11.068  1.00  0.00     0.008 A 
ATOM      7  C   UNL     1      21.769 -16.517 -11.247  1.00  0.00     0.004 A 
ENDROOT
BRANCH   4   8
ATOM      8  O   UNL     1      24.154 -17.483  -7.928  1.00  0.00    -0.508 OA
ATOM      9  H   UNL     1      23.834 -17.320  -6.981  1.00  0.00     0.293 HD
ENDBRANCH   4   8
BRANCH   5  10
ATOM     10  C   UNL     1      23.470 -19.619  -9.778  1.00  0.00     0.017 C 
ATOM     11  C   UNL     1      24.965 -19.755 -10.091  1.00  0.00     0.012 C 
ATOM     12  C   UNL     1      22.638 -20.584 -10.631  1.00  0.00     0.012 C 
ENDBRANCH   5  10
TORSDOF 2
ENDMDL
MODEL 4
REMARK VINA RESULT:    -5.096     17.860     20.005
REMARK INTER + INTRA:          -5.739
REMARK INTER:                  -6.077
REMARK INTRA:                   0.338
REMARK UNBOUND:                -0.197
REMARK SMILES Cc1ccc(C(C)C)c(O)c1
REMARK SMILES IDX 1 1 2 2 11 3 9 4 5 5 4 6 3 7 10 8 6 10 7 11 8 12
REMARK H PARENT 10 9
REMARK Flexibility Score: inf
ROOT
ATOM      1  C   UNL     1      25.663 -34.125   2.212  1.00  0.00     0.044 C 
ATOM      2  C   UNL     1      24.614 -33.110   1.868  1.00  0.00    -0.047 A 
ATOM      3  C   UNL     1      24.776 -32.278   0.752  1.00  0.00     0.049 A 
ATOM      4  C   UNL     1      23.818 -31.301   0.445  1.00  0.00     0.119 A 
ATOM      5  C   UNL     1      22.681 -31.140   1.268  1.00  0.00    -0.004 A 
ATOM      6  C   UNL     1      22.539 -31.969   2.398  1.00  0.00     0.008 A 
ATOM      7  C   UNL     1      23.499 -32.939   2.697  1.00  0.00     0.004 A 
ENDROOT
BRANCH   4   8
ATOM      8  O   UNL     1      23.999 -30.491  -0.677  1.00  0.00    -0.508 OA
ATOM      9  H   UNL     1      23.734 -30.800  -1.605  1.00  0.00     0.293 HD
ENDBRANCH   4   8
BRANCH   5  10
ATOM     10  C   UNL     1      21.627 -30.088   0.955  1.00  0.00     0.017 C 
ATOM     11  C   UNL     1      20.973 -30.350  -0.408  1.00  0.00     0.012 C 
ATOM     12  C   UNL     1      22.219 -28.674   1.019  1.00  0.00     0.012 C 
ENDBRANCH   5  10
TORSDOF 2
ENDMDL
MODEL 5
REMARK VINA RESULT:    -5.067      3.023      3.553
REMARK INTER + INTRA:          -5.708
REMARK INTER:                  -5.555
REMARK INTRA:                  -0.153
REMARK UNBOUND:                -0.197
REMARK SMILES Cc1ccc(C(C)C)c(O)c1
REMARK SMILES IDX 1 1 2 2 11 3 9 4 5 5 4 6 3 7 10 8 6 10 7 11 8 12
REMARK H PARENT 10 9
REMARK Flexibility Score: inf
ROOT
ATOM      1  C   UNL     1      24.699 -20.676 -11.661  1.00  0.00     0.044 C 
ATOM      2  C   UNL     1      24.280 -19.339 -11.125  1.00  0.00    -0.047 A 
ATOM      3  C   UNL     1      24.443 -19.040  -9.766  1.00  0.00     0.049 A 
ATOM      4  C   UNL     1      24.019 -17.806  -9.250  1.00  0.00     0.119 A 
ATOM      5  C   UNL     1      23.411 -16.855 -10.099  1.00  0.00    -0.004 A 
ATOM      6  C   UNL     1      23.235 -17.175 -11.460  1.00  0.00     0.008 A 
ATOM      7  C   UNL     1      23.660 -18.406 -11.965  1.00  0.00     0.004 A 
ENDROOT
BRANCH   4   8
ATOM      8  O   UNL     1      24.201 -17.530  -7.894  1.00  0.00    -0.508 OA
ATOM      9  H   UNL     1      24.506 -18.243  -7.242  1.00  0.00     0.293 HD
ENDBRANCH   4   8
BRANCH   5  10
ATOM     10  C   UNL     1      22.944 -15.509  -9.564  1.00  0.00     0.017 C 
ATOM     11  C   UNL     1      21.822 -14.929 -10.434  1.00  0.00     0.012 C 
ATOM     12  C   UNL     1      24.113 -14.524  -9.443  1.00  0.00     0.012 C 
ENDBRANCH   5  10
TORSDOF 2
ENDMDL
MODEL 6
REMARK VINA RESULT:    -5.034      3.191      5.237
REMARK INTER + INTRA:          -5.673
REMARK INTER:                  -5.523
REMARK INTRA:                  -0.149
REMARK UNBOUND:                -0.197
REMARK SMILES Cc1ccc(C(C)C)c(O)c1
REMARK SMILES IDX 1 1 2 2 11 3 9 4 5 5 4 6 3 7 10 8 6 10 7 11 8 12
REMARK H PARENT 10 9
REMARK Flexibility Score: inf
ROOT
ATOM      1  C   UNL     1      22.156 -16.731  -9.383  1.00  0.00     0.044 C 
ATOM      2  C   UNL     1      22.031 -18.080 -10.026  1.00  0.00    -0.047 A 
ATOM      3  C   UNL     1      23.006 -19.061  -9.806  1.00  0.00     0.049 A 
ATOM      4  C   UNL     1      22.917 -20.312 -10.433  1.00  0.00     0.119 A 
ATOM      5  C   UNL     1      21.842 -20.591 -11.307  1.00  0.00    -0.004 A 
ATOM      6  C   UNL     1      20.877 -19.590 -11.536  1.00  0.00     0.008 A 
ATOM      7  C   UNL     1      20.975 -18.346 -10.907  1.00  0.00     0.004 A 
ENDROOT
BRANCH   4   8
ATOM      8  O   UNL     1      23.898 -21.275 -10.189  1.00  0.00    -0.508 OA
ATOM      9  H   UNL     1      24.436 -21.280  -9.331  1.00  0.00     0.293 HD
ENDBRANCH   4   8
BRANCH   5  10
ATOM     10  C   UNL     1      21.722 -21.941 -11.999  1.00  0.00     0.017 C 
ATOM     11  C   UNL     1      20.900 -21.828 -13.289  1.00  0.00     0.012 C 
ATOM     12  C   UNL     1      21.128 -22.995 -11.058  1.00  0.00     0.012 C 
ENDBRANCH   5  10
TORSDOF 2
ENDMDL
MODEL 7
REMARK VINA RESULT:    -5.026      2.025      3.395
REMARK INTER + INTRA:          -5.664
REMARK INTER:                  -5.502
REMARK INTRA:                  -0.162
REMARK UNBOUND:                -0.197
REMARK SMILES Cc1ccc(C(C)C)c(O)c1
REMARK SMILES IDX 1 1 2 2 11 3 9 4 5 5 4 6 3 7 10 8 6 10 7 11 8 12
REMARK H PARENT 10 9
REMARK Flexibility Score: inf
ROOT
ATOM      1  C   UNL     1      19.714 -18.353 -13.412  1.00  0.00     0.044 C 
ATOM      2  C   UNL     1      20.689 -17.739 -12.453  1.00  0.00    -0.047 A 
ATOM      3  C   UNL     1      21.536 -16.705 -12.872  1.00  0.00     0.049 A 
ATOM      4  C   UNL     1      22.477 -16.150 -11.992  1.00  0.00     0.119 A 
ATOM      5  C   UNL     1      22.586 -16.640 -10.671  1.00  0.00    -0.004 A 
ATOM      6  C   UNL     1      21.741 -17.693 -10.267  1.00  0.00     0.008 A 
ATOM      7  C   UNL     1      20.808 -18.240 -11.151  1.00  0.00     0.004 A 
ENDROOT
BRANCH   4   8
ATOM      8  O   UNL     1      23.303 -15.115 -12.432  1.00  0.00    -0.508 OA
ATOM      9  H   UNL     1      23.978 -15.252 -13.175  1.00  0.00     0.293 HD
ENDBRANCH   4   8
BRANCH   5  10
ATOM     10  C   UNL     1      23.597 -16.055  -9.697  1.00  0.00     0.017 C 
ATOM     11  C   UNL     1      23.993 -17.082  -8.629  1.00  0.00     0.012 C 
ATOM     12  C   UNL     1      23.067 -14.768  -9.053  1.00  0.00     0.012 C 
ENDBRANCH   5  10
TORSDOF 2
ENDMDL
MODEL 8
REMARK VINA RESULT:    -4.936      1.806      2.567
REMARK INTER + INTRA:          -5.566
REMARK INTER:                  -5.400
REMARK INTRA:                  -0.165
REMARK UNBOUND:                -0.197
REMARK SMILES Cc1ccc(C(C)C)c(O)c1
REMARK SMILES IDX 1 1 2 2 11 3 9 4 5 5 4 6 3 7 10 8 6 10 7 11 8 12
REMARK H PARENT 10 9
REMARK Flexibility Score: inf
ROOT
ATOM      1  C   UNL     1      20.328 -18.983 -13.533  1.00  0.00     0.044 C 
ATOM      2  C   UNL     1      20.871 -18.046 -12.495  1.00  0.00    -0.047 A 
ATOM      3  C   UNL     1      21.185 -18.518 -11.214  1.00  0.00     0.049 A 
ATOM      4  C   UNL     1      21.659 -17.641 -10.226  1.00  0.00     0.119 A 
ATOM      5  C   UNL     1      21.813 -16.267 -10.514  1.00  0.00    -0.004 A 
ATOM      6  C   UNL     1      21.476 -15.801 -11.801  1.00  0.00     0.008 A 
ATOM      7  C   UNL     1      21.004 -16.681 -12.778  1.00  0.00     0.004 A 
ENDROOT
BRANCH   4   8
ATOM      8  O   UNL     1      21.973 -18.139  -8.961  1.00  0.00    -0.508 OA
ATOM      9  H   UNL     1      21.606 -19.023  -8.630  1.00  0.00     0.293 HD
ENDBRANCH   4   8
BRANCH   5  10
ATOM     10  C   UNL     1      22.326 -15.296  -9.460  1.00  0.00     0.017 C 
ATOM     11  C   UNL     1      21.812 -13.875  -9.723  1.00  0.00     0.012 C 
ATOM     12  C   UNL     1      23.857 -15.322  -9.381  1.00  0.00     0.012 C 
ENDBRANCH   5  10
TORSDOF 2
ENDMDL
MODEL 9
REMARK VINA RESULT:    -4.896      2.520      4.613
REMARK INTER + INTRA:          -5.522
REMARK INTER:                  -5.323
REMARK INTRA:                  -0.199
REMARK UNBOUND:                -0.197
REMARK SMILES Cc1ccc(C(C)C)c(O)c1
REMARK SMILES IDX 1 1 2 2 11 3 9 4 5 5 4 6 3 7 10 8 6 10 7 11 8 12
REMARK H PARENT 10 9
REMARK Flexibility Score: inf
ROOT
ATOM      1  C   UNL     1      20.640 -15.459 -13.124  1.00  0.00     0.044 C 
ATOM      2  C   UNL     1      21.466 -16.597 -12.603  1.00  0.00    -0.047 A 
ATOM      3  C   UNL     1      22.694 -16.910 -13.200  1.00  0.00     0.049 A 
ATOM      4  C   UNL     1      23.455 -17.996 -12.742  1.00  0.00     0.119 A 
ATOM      5  C   UNL     1      22.981 -18.794 -11.678  1.00  0.00    -0.004 A 
ATOM      6  C   UNL     1      21.735 -18.481 -11.098  1.00  0.00     0.008 A 
ATOM      7  C   UNL     1      20.984 -17.398 -11.561  1.00  0.00     0.004 A 
ENDROOT
BRANCH   4   8
ATOM      8  O   UNL     1      24.679 -18.281 -13.349  1.00  0.00    -0.508 OA
ATOM      9  H   UNL     1      24.859 -19.173 -13.793  1.00  0.00     0.293 HD
ENDBRANCH   4   8
BRANCH   5  10
ATOM     10  C   UNL     1      23.788 -19.977 -11.163  1.00  0.00     0.017 C 
ATOM     11  C   UNL     1      22.868 -21.129 -10.737  1.00  0.00     0.012 C 
ATOM     12  C   UNL     1      24.714 -19.558 -10.015  1.00  0.00     0.012 C 
ENDBRANCH   5  10
TORSDOF 2
ENDMDL
