MODEL 1
REMARK VINA RESULT:    -5.236      0.000      0.000
REMARK INTER + INTRA:          -8.620
REMARK INTER:                  -7.990
REMARK INTRA:                  -0.629
REMARK UNBOUND:                -0.629
REMARK SMILES C[C@@H]1O[C@@H](Oc2cc(O)c3c(=O)c(O[C@@H]4O[C@H](C)[C@H](O)[C@H](O)[C@@H]4O)c(-c4ccc(O)cc4)oc3c2)[C@@H](O)[C@H](O)[C@@H]1O
REMARK SMILES IDX 6 1 7 2 8 3 10 4 34 5 35 6 33 7 25 8 13 9 11 10 12 11 5 12
REMARK SMILES IDX 4 13 1 14 2 15 40 16 3 17 38 18 36 19 41 20 39 22 37 24 9 26
REMARK SMILES IDX 26 28 27 29 32 30 28 31 31 32 29 33 30 34 14 36 15 37 23 38
REMARK SMILES IDX 16 39 21 40 17 41 19 42 18 43 24 44 22 46 20 48
REMARK H PARENT 41 21 39 23 37 25 9 27 30 35 24 45 22 47 20 49
REMARK Flexibility Score: inf
ROOT
ATOM      1  C   UNL     1      -1.376  -7.016  27.987  1.00  0.00     0.130 A 
ATOM      2  C   UNL     1      -2.191  -7.987  28.599  1.00  0.00     0.093 A 
ATOM      3  C   UNL     1      -3.410  -8.364  28.022  1.00  0.00     0.134 A 
ATOM      4  C   UNL     1      -3.826  -7.772  26.809  1.00  0.00     0.111 A 
ATOM      5  C   UNL     1      -3.001  -6.801  26.197  1.00  0.00     0.146 A 
ATOM      6  C   UNL     1      -1.803  -6.414  26.800  1.00  0.00     0.094 A 
ATOM      7  O   UNL     1      -3.353  -6.245  25.045  1.00  0.00    -0.452 OA
ATOM      8  C   UNL     1      -4.471  -6.553  24.396  1.00  0.00     0.180 A 
ATOM      9  C   UNL     1      -5.344  -7.526  24.927  1.00  0.00     0.214 A 
ATOM     10  C   UNL     1      -5.030  -8.114  26.158  1.00  0.00     0.239 A 
ATOM     11  O   UNL     1      -5.826  -8.954  26.659  1.00  0.00    -0.285 OA
ENDROOT
BRANCH   1  12
ATOM     12  O   UNL     1      -0.141  -6.614  28.523  1.00  0.00    -0.462 OA
BRANCH  12  13
ATOM     13  C   UNL     1       0.969  -7.480  28.807  1.00  0.00     0.339 C 
ATOM     14  C   UNL     1       3.464  -4.895  29.631  1.00  0.00     0.042 C 
ATOM     15  C   UNL     1       2.508  -5.703  28.748  1.00  0.00     0.151 C 
ATOM     16  C   UNL     1       3.232  -6.230  27.490  1.00  0.00     0.174 C 
ATOM     17  O   UNL     1       1.974  -6.771  29.518  1.00  0.00    -0.335 OA
ATOM     18  C   UNL     1       2.221  -7.031  26.647  1.00  0.00     0.180 C 
ATOM     19  C   UNL     1       1.547  -8.114  27.520  1.00  0.00     0.214 C 
BRANCH  16  20
ATOM     20  O   UNL     1       4.308  -7.051  27.876  1.00  0.00    -0.388 OA
ATOM     21  H   UNL     1       3.975  -7.986  27.863  1.00  0.00     0.211 HD
ENDBRANCH  16  20
BRANCH  18  22
ATOM     22  O   UNL     1       2.827  -7.589  25.507  1.00  0.00    -0.387 OA
ATOM     23  H   UNL     1       2.128  -7.704  24.808  1.00  0.00     0.211 HD
ENDBRANCH  18  22
BRANCH  19  24
ATOM     24  O   UNL     1       0.567  -8.830  26.807  1.00  0.00    -0.384 OA
ATOM     25  H   UNL     1       0.450  -9.717  27.241  1.00  0.00     0.211 HD
ENDBRANCH  19  24
ENDBRANCH  12  13
ENDBRANCH   1  12
BRANCH   3  26
ATOM     26  O   UNL     1      -4.199  -9.329  28.655  1.00  0.00    -0.507 OA
ATOM     27  H   UNL     1      -5.153  -9.136  28.944  1.00  0.00     0.293 HD
ENDBRANCH   3  26
BRANCH   8  28
ATOM     28  C   UNL     1      -4.750  -5.848  23.127  1.00  0.00     0.021 A 
ATOM     29  C   UNL     1      -5.880  -5.022  23.029  1.00  0.00     0.016 A 
ATOM     30  C   UNL     1      -3.919  -6.003  22.002  1.00  0.00     0.016 A 
ATOM     31  C   UNL     1      -6.148  -4.324  21.848  1.00  0.00     0.047 A 
ATOM     32  C   UNL     1      -4.178  -5.290  20.827  1.00  0.00     0.047 A 
ATOM     33  C   UNL     1      -5.295  -4.447  20.746  1.00  0.00     0.115 A 
BRANCH  33  34
ATOM     34  O   UNL     1      -5.565  -3.737  19.576  1.00  0.00    -0.508 OA
ATOM     35  H   UNL     1      -5.692  -2.728  19.589  1.00  0.00     0.293 HD
ENDBRANCH  33  34
ENDBRANCH   8  28
BRANCH   9  36
ATOM     36  O   UNL     1      -6.510  -7.918  24.254  1.00  0.00    -0.454 OA
BRANCH  36  37
ATOM     37  C   UNL     1      -7.088  -9.221  24.376  1.00  0.00     0.339 C 
ATOM     38  C   UNL     1      -8.630  -9.163  24.330  1.00  0.00     0.214 C 
ATOM     39  O   UNL     1      -6.543 -10.109  23.406  1.00  0.00    -0.335 OA
ATOM     40  C   UNL     1      -9.125  -8.792  22.929  1.00  0.00     0.180 C 
ATOM     41  C   UNL     1      -6.956  -9.845  22.068  1.00  0.00     0.151 C 
ATOM     42  C   UNL     1      -8.498  -9.737  21.902  1.00  0.00     0.174 C 
ATOM     43  C   UNL     1      -6.153  -8.704  21.422  1.00  0.00     0.042 C 
BRANCH  38  44
ATOM     44  O   UNL     1      -9.125  -8.240  25.264  1.00  0.00    -0.384 OA
ATOM     45  H   UNL     1     -10.109  -8.193  25.127  1.00  0.00     0.211 HD
ENDBRANCH  38  44
BRANCH  40  46
ATOM     46  O   UNL     1      -8.802  -7.457  22.624  1.00  0.00    -0.387 OA
ATOM     47  H   UNL     1      -9.613  -7.045  22.220  1.00  0.00     0.211 HD
ENDBRANCH  40  46
BRANCH  42  48
ATOM     48  O   UNL     1      -8.844  -9.322  20.606  1.00  0.00    -0.388 OA
ATOM     49  H   UNL     1      -9.805  -9.073  20.629  1.00  0.00     0.211 HD
ENDBRANCH  42  48
ENDBRANCH  36  37
ENDBRANCH   9  36
TORSDOF 13
ENDMDL
MODEL 2
REMARK VINA RESULT:    -4.963      1.578      2.133
REMARK INTER + INTRA:          -8.204
REMARK INTER:                  -8.082
REMARK INTRA:                  -0.122
REMARK UNBOUND:                -0.629
REMARK SMILES C[C@@H]1O[C@@H](Oc2cc(O)c3c(=O)c(O[C@@H]4O[C@H](C)[C@H](O)[C@H](O)[C@@H]4O)c(-c4ccc(O)cc4)oc3c2)[C@@H](O)[C@H](O)[C@@H]1O
REMARK SMILES IDX 6 1 7 2 8 3 10 4 34 5 35 6 33 7 25 8 13 9 11 10 12 11 5 12
REMARK SMILES IDX 4 13 1 14 2 15 40 16 3 17 38 18 36 19 41 20 39 22 37 24 9 26
REMARK SMILES IDX 26 28 27 29 32 30 28 31 31 32 29 33 30 34 14 36 15 37 23 38
REMARK SMILES IDX 16 39 21 40 17 41 19 42 18 43 24 44 22 46 20 48
REMARK H PARENT 41 21 39 23 37 25 9 27 30 35 24 45 22 47 20 49
REMARK Flexibility Score: inf
ROOT
ATOM      1  C   UNL     1       0.238  -8.679  27.755  1.00  0.00     0.130 A 
ATOM      2  C   UNL     1      -0.627  -9.080  28.791  1.00  0.00     0.093 A 
ATOM      3  C   UNL     1      -2.016  -8.981  28.642  1.00  0.00     0.134 A 
ATOM      4  C   UNL     1      -2.560  -8.481  27.438  1.00  0.00     0.111 A 
ATOM      5  C   UNL     1      -1.686  -8.084  26.400  1.00  0.00     0.146 A 
ATOM      6  C   UNL     1      -0.304  -8.161  26.574  1.00  0.00     0.094 A 
ATOM      7  O   UNL     1      -2.167  -7.634  25.247  1.00  0.00    -0.452 OA
ATOM      8  C   UNL     1      -3.466  -7.530  24.989  1.00  0.00     0.180 A 
ATOM      9  C   UNL     1      -4.408  -7.921  25.964  1.00  0.00     0.214 A 
ATOM     10  C   UNL     1      -3.946  -8.370  27.207  1.00  0.00     0.239 A 
ATOM     11  O   UNL     1      -4.783  -8.682  28.098  1.00  0.00    -0.285 OA
ENDROOT
BRANCH   1  12
ATOM     12  O   UNL     1       1.636  -8.770  27.855  1.00  0.00    -0.462 OA
BRANCH  12  13
ATOM     13  C   UNL     1       2.419  -8.389  28.997  1.00  0.00     0.339 C 
ATOM     14  C   UNL     1       0.637  -5.277  29.850  1.00  0.00     0.042 C 
ATOM     15  C   UNL     1       1.519  -6.216  29.022  1.00  0.00     0.151 C 
ATOM     16  C   UNL     1       2.861  -5.540  28.665  1.00  0.00     0.174 C 
ATOM     17  O   UNL     1       1.728  -7.411  29.761  1.00  0.00    -0.335 OA
ATOM     18  C   UNL     1       3.699  -6.532  27.835  1.00  0.00     0.180 C 
ATOM     19  C   UNL     1       3.821  -7.877  28.586  1.00  0.00     0.214 C 
BRANCH  16  20
ATOM     20  O   UNL     1       3.541  -5.192  29.847  1.00  0.00    -0.388 OA
ATOM     21  H   UNL     1       2.857  -5.123  30.563  1.00  0.00     0.211 HD
ENDBRANCH  16  20
BRANCH  18  22
ATOM     22  O   UNL     1       4.963  -6.001  27.520  1.00  0.00    -0.387 OA
ATOM     23  H   UNL     1       5.101  -5.180  28.065  1.00  0.00     0.211 HD
ENDBRANCH  18  22
BRANCH  19  24
ATOM     24  O   UNL     1       4.525  -8.837  27.835  1.00  0.00    -0.384 OA
ATOM     25  H   UNL     1       4.028  -9.697  27.883  1.00  0.00     0.211 HD
ENDBRANCH  19  24
ENDBRANCH  12  13
ENDBRANCH   1  12
BRANCH   3  26
ATOM     26  O   UNL     1      -2.849  -9.384  29.690  1.00  0.00    -0.507 OA
ATOM     27  H   UNL     1      -2.738 -10.285  30.146  1.00  0.00     0.293 HD
ENDBRANCH   3  26
BRANCH   8  28
ATOM     28  C   UNL     1      -3.868  -7.000  23.668  1.00  0.00     0.021 A 
ATOM     29  C   UNL     1      -4.371  -5.693  23.572  1.00  0.00     0.016 A 
ATOM     30  C   UNL     1      -3.778  -7.783  22.504  1.00  0.00     0.016 A 
ATOM     31  C   UNL     1      -4.730  -5.162  22.331  1.00  0.00     0.047 A 
ATOM     32  C   UNL     1      -4.121  -7.244  21.259  1.00  0.00     0.047 A 
ATOM     33  C   UNL     1      -4.599  -5.930  21.169  1.00  0.00     0.115 A 
BRANCH  33  34
ATOM     34  O   UNL     1      -4.949  -5.385  19.933  1.00  0.00    -0.508 OA
ATOM     35  H   UNL     1      -4.598  -5.780  19.064  1.00  0.00     0.293 HD
ENDBRANCH  33  34
ENDBRANCH   8  28
BRANCH   9  36
ATOM     36  O   UNL     1      -5.789  -7.874  25.717  1.00  0.00    -0.454 OA
BRANCH  36  37
ATOM     37  C   UNL     1      -6.735  -8.714  26.385  1.00  0.00     0.339 C 
ATOM     38  C   UNL     1      -8.145  -8.085  26.390  1.00  0.00     0.214 C 
ATOM     39  O   UNL     1      -6.722 -10.027  25.837  1.00  0.00    -0.335 OA
ATOM     40  C   UNL     1      -8.751  -8.082  24.983  1.00  0.00     0.180 C 
ATOM     41  C   UNL     1      -7.276 -10.125  24.528  1.00  0.00     0.151 C 
ATOM     42  C   UNL     1      -8.692  -9.497  24.403  1.00  0.00     0.174 C 
ATOM     43  C   UNL     1      -6.278  -9.698  23.437  1.00  0.00     0.042 C 
BRANCH  38  44
ATOM     44  O   UNL     1      -8.108  -6.774  26.889  1.00  0.00    -0.384 OA
ATOM     45  H   UNL     1      -8.954  -6.635  27.393  1.00  0.00     0.211 HD
ENDBRANCH  38  44
BRANCH  40  46
ATOM     46  O   UNL     1      -8.064  -7.183  24.147  1.00  0.00    -0.387 OA
ATOM     47  H   UNL     1      -7.970  -7.623  23.259  1.00  0.00     0.211 HD
ENDBRANCH  40  46
BRANCH  42  48
ATOM     48  O   UNL     1      -9.125  -9.476  23.067  1.00  0.00    -0.388 OA
ATOM     49  H   UNL     1      -9.283 -10.419  22.800  1.00  0.00     0.211 HD
ENDBRANCH  42  48
ENDBRANCH  36  37
ENDBRANCH   9  36
TORSDOF 13
ENDMDL
MODEL 3
REMARK VINA RESULT:    -3.773     11.946     17.648
REMARK INTER + INTRA:          -6.388
REMARK INTER:                  -4.705
REMARK INTRA:                  -1.683
REMARK UNBOUND:                -0.629
REMARK SMILES C[C@@H]1O[C@@H](Oc2cc(O)c3c(=O)c(O[C@@H]4O[C@H](C)[C@H](O)[C@H](O)[C@@H]4O)c(-c4ccc(O)cc4)oc3c2)[C@@H](O)[C@H](O)[C@@H]1O
REMARK SMILES IDX 6 1 7 2 8 3 10 4 34 5 35 6 33 7 25 8 13 9 11 10 12 11 5 12
REMARK SMILES IDX 4 13 1 14 2 15 40 16 3 17 38 18 36 19 41 20 39 22 37 24 9 26
REMARK SMILES IDX 26 28 27 29 32 30 28 31 31 32 29 33 30 34 14 36 15 37 23 38
REMARK SMILES IDX 16 39 21 40 17 41 19 42 18 43 24 44 22 46 20 48
REMARK H PARENT 41 21 39 23 37 25 9 27 30 35 24 45 22 47 20 49
REMARK Flexibility Score: inf
ROOT
ATOM      1  C   UNL     1      -5.254   2.381  16.834  1.00  0.00     0.130 A 
ATOM      2  C   UNL     1      -3.884   2.600  17.073  1.00  0.00     0.093 A 
ATOM      3  C   UNL     1      -3.181   3.577  16.356  1.00  0.00     0.134 A 
ATOM      4  C   UNL     1      -3.850   4.358  15.389  1.00  0.00     0.111 A 
ATOM      5  C   UNL     1      -5.227   4.136  15.157  1.00  0.00     0.146 A 
ATOM      6  C   UNL     1      -5.908   3.139  15.857  1.00  0.00     0.094 A 
ATOM      7  O   UNL     1      -5.890   4.870  14.272  1.00  0.00    -0.452 OA
ATOM      8  C   UNL     1      -5.328   5.843  13.563  1.00  0.00     0.180 A 
ATOM      9  C   UNL     1      -3.962   6.144  13.745  1.00  0.00     0.214 A 
ATOM     10  C   UNL     1      -3.215   5.372  14.643  1.00  0.00     0.239 A 
ATOM     11  O   UNL     1      -1.983   5.608  14.780  1.00  0.00    -0.285 OA
ENDROOT
BRANCH   1  12
ATOM     12  O   UNL     1      -6.002   1.421  17.534  1.00  0.00    -0.462 OA
BRANCH  12  13
ATOM     13  C   UNL     1      -5.480   0.493  18.498  1.00  0.00     0.339 C 
ATOM     14  C   UNL     1      -6.730  -2.621  16.973  1.00  0.00     0.042 C 
ATOM     15  C   UNL     1      -6.811  -1.267  17.684  1.00  0.00     0.151 C 
ATOM     16  C   UNL     1      -7.652  -1.372  18.975  1.00  0.00     0.174 C 
ATOM     17  O   UNL     1      -5.490  -0.825  17.967  1.00  0.00    -0.335 OA
ATOM     18  C   UNL     1      -7.694   0.017  19.641  1.00  0.00     0.180 C 
ATOM     19  C   UNL     1      -6.257   0.555  19.834  1.00  0.00     0.214 C 
BRANCH  16  20
ATOM     20  O   UNL     1      -7.066  -2.313  19.842  1.00  0.00    -0.388 OA
ATOM     21  H   UNL     1      -6.083  -2.188  19.782  1.00  0.00     0.211 HD
ENDBRANCH  16  20
BRANCH  18  22
ATOM     22  O   UNL     1      -8.401  -0.015  20.857  1.00  0.00    -0.387 OA
ATOM     23  H   UNL     1      -9.098  -0.722  20.793  1.00  0.00     0.211 HD
ENDBRANCH  18  22
BRANCH  19  24
ATOM     24  O   UNL     1      -6.249   1.851  20.381  1.00  0.00    -0.384 OA
ATOM     25  H   UNL     1      -5.380   1.989  20.844  1.00  0.00     0.211 HD
ENDBRANCH  19  24
ENDBRANCH  12  13
ENDBRANCH   1  12
BRANCH   3  26
ATOM     26  O   UNL     1      -1.819   3.770  16.614  1.00  0.00    -0.507 OA
ATOM     27  H   UNL     1      -1.273   3.093  17.138  1.00  0.00     0.293 HD
ENDBRANCH   3  26
BRANCH   8  28
ATOM     28  C   UNL     1      -6.178   6.576  12.600  1.00  0.00     0.021 A 
ATOM     29  C   UNL     1      -7.009   7.609  13.059  1.00  0.00     0.016 A 
ATOM     30  C   UNL     1      -6.190   6.248  11.233  1.00  0.00     0.016 A 
ATOM     31  C   UNL     1      -7.799   8.335  12.164  1.00  0.00     0.047 A 
ATOM     32  C   UNL     1      -6.968   6.986  10.334  1.00  0.00     0.047 A 
ATOM     33  C   UNL     1      -7.776   8.033  10.798  1.00  0.00     0.115 A 
BRANCH  33  34
ATOM     34  O   UNL     1      -8.560   8.771   9.910  1.00  0.00    -0.508 OA
ATOM     35  H   UNL     1      -8.175   9.133   9.041  1.00  0.00     0.293 HD
ENDBRANCH  33  34
ENDBRANCH   8  28
BRANCH   9  36
ATOM     36  O   UNL     1      -3.338   7.193  13.054  1.00  0.00    -0.454 OA
BRANCH  36  37
ATOM     37  C   UNL     1      -3.541   8.573  13.372  1.00  0.00     0.339 C 
ATOM     38  C   UNL     1      -2.202   9.294  13.642  1.00  0.00     0.214 C 
ATOM     39  O   UNL     1      -4.317   9.216  12.367  1.00  0.00    -0.335 OA
ATOM     40  C   UNL     1      -1.388   9.443  12.353  1.00  0.00     0.180 C 
ATOM     41  C   UNL     1      -3.637   9.407  11.130  1.00  0.00     0.151 C 
ATOM     42  C   UNL     1      -2.255  10.104  11.280  1.00  0.00     0.174 C 
ATOM     43  C   UNL     1      -3.632   8.137  10.263  1.00  0.00     0.042 C 
BRANCH  38  44
ATOM     44  O   UNL     1      -1.444   8.601  14.600  1.00  0.00    -0.384 OA
ATOM     45  H   UNL     1      -1.902   8.729  15.474  1.00  0.00     0.211 HD
ENDBRANCH  38  44
BRANCH  40  46
ATOM     46  O   UNL     1      -0.928   8.191  11.907  1.00  0.00    -0.387 OA
ATOM     47  H   UNL     1       0.051   8.159  12.086  1.00  0.00     0.211 HD
ENDBRANCH  40  46
BRANCH  42  48
ATOM     48  O   UNL     1      -1.560  10.125  10.060  1.00  0.00    -0.388 OA
ATOM     49  H   UNL     1      -1.620  11.052   9.710  1.00  0.00     0.211 HD
ENDBRANCH  42  48
ENDBRANCH  36  37
ENDBRANCH   9  36
TORSDOF 13
ENDMDL
MODEL 4
REMARK VINA RESULT:    -3.582      2.135      3.475
REMARK INTER + INTRA:          -6.095
REMARK INTER:                  -5.509
REMARK INTRA:                  -0.587
REMARK UNBOUND:                -0.629
REMARK SMILES C[C@@H]1O[C@@H](Oc2cc(O)c3c(=O)c(O[C@@H]4O[C@H](C)[C@H](O)[C@H](O)[C@@H]4O)c(-c4ccc(O)cc4)oc3c2)[C@@H](O)[C@H](O)[C@@H]1O
REMARK SMILES IDX 6 1 7 2 8 3 10 4 34 5 35 6 33 7 25 8 13 9 11 10 12 11 5 12
REMARK SMILES IDX 4 13 1 14 2 15 40 16 3 17 38 18 36 19 41 20 39 22 37 24 9 26
REMARK SMILES IDX 26 28 27 29 32 30 28 31 31 32 29 33 30 34 14 36 15 37 23 38
REMARK SMILES IDX 16 39 21 40 17 41 19 42 18 43 24 44 22 46 20 48
REMARK H PARENT 41 21 39 23 37 25 9 27 30 35 24 45 22 47 20 49
REMARK Flexibility Score: inf
ROOT
ATOM      1  C   UNL     1      -3.503  -9.307  27.422  1.00  0.00     0.130 A 
ATOM      2  C   UNL     1      -4.856  -9.683  27.509  1.00  0.00     0.093 A 
ATOM      3  C   UNL     1      -5.756  -9.359  26.486  1.00  0.00     0.134 A 
ATOM      4  C   UNL     1      -5.303  -8.654  25.349  1.00  0.00     0.111 A 
ATOM      5  C   UNL     1      -3.941  -8.283  25.265  1.00  0.00     0.146 A 
ATOM      6  C   UNL     1      -3.063  -8.587  26.306  1.00  0.00     0.094 A 
ATOM      7  O   UNL     1      -3.481  -7.642  24.198  1.00  0.00    -0.452 OA
ATOM      8  C   UNL     1      -4.240  -7.315  23.158  1.00  0.00     0.180 A 
ATOM      9  C   UNL     1      -5.607  -7.662  23.151  1.00  0.00     0.214 A 
ATOM     10  C   UNL     1      -6.144  -8.309  24.270  1.00  0.00     0.239 A 
ATOM     11  O   UNL     1      -7.375  -8.587  24.289  1.00  0.00    -0.285 OA
ENDROOT
BRANCH   1  12
ATOM     12  O   UNL     1      -2.562  -9.619  28.417  1.00  0.00    -0.462 OA
BRANCH  12  13
ATOM     13  C   UNL     1      -2.254  -8.807  29.561  1.00  0.00     0.339 C 
ATOM     14  C   UNL     1      -2.759  -5.499  28.016  1.00  0.00     0.042 C 
ATOM     15  C   UNL     1      -2.088  -6.853  28.262  1.00  0.00     0.151 C 
ATOM     16  C   UNL     1      -0.575  -6.680  28.520  1.00  0.00     0.174 C 
ATOM     17  O   UNL     1      -2.728  -7.482  29.363  1.00  0.00    -0.335 OA
ATOM     18  C   UNL     1       0.038  -8.073  28.760  1.00  0.00     0.180 C 
ATOM     19  C   UNL     1      -0.739  -8.809  29.875  1.00  0.00     0.214 C 
BRANCH  16  20
ATOM     20  O   UNL     1      -0.382  -5.859  29.647  1.00  0.00    -0.388 OA
ATOM     21  H   UNL     1      -1.023  -5.105  29.567  1.00  0.00     0.211 HD
ENDBRANCH  16  20
BRANCH  18  22
ATOM     22  O   UNL     1       1.411  -7.988  29.057  1.00  0.00    -0.387 OA
ATOM     23  H   UNL     1       1.917  -8.431  28.323  1.00  0.00     0.211 HD
ENDBRANCH  18  22
BRANCH  19  24
ATOM     24  O   UNL     1      -0.253 -10.113  30.083  1.00  0.00    -0.384 OA
ATOM     25  H   UNL     1      -0.972 -10.650  30.511  1.00  0.00     0.211 HD
ENDBRANCH  19  24
ENDBRANCH  12  13
ENDBRANCH   1  12
BRANCH   3  26
ATOM     26  O   UNL     1      -7.096  -9.744  26.602  1.00  0.00    -0.507 OA
ATOM     27  H   UNL     1      -7.710  -9.797  25.795  1.00  0.00     0.293 HD
ENDBRANCH   3  26
BRANCH   8  28
ATOM     28  C   UNL     1      -3.602  -6.589  22.039  1.00  0.00     0.021 A 
ATOM     29  C   UNL     1      -3.824  -5.211  21.894  1.00  0.00     0.016 A 
ATOM     30  C   UNL     1      -2.793  -7.252  21.099  1.00  0.00     0.016 A 
ATOM     31  C   UNL     1      -3.209  -4.499  20.860  1.00  0.00     0.047 A 
ATOM     32  C   UNL     1      -2.164  -6.535  20.075  1.00  0.00     0.047 A 
ATOM     33  C   UNL     1      -2.371  -5.155  19.952  1.00  0.00     0.115 A 
BRANCH  33  34
ATOM     34  O   UNL     1      -1.753  -4.433  18.931  1.00  0.00    -0.508 OA
ATOM     35  H   UNL     1      -2.262  -3.733  18.397  1.00  0.00     0.293 HD
ENDBRANCH  33  34
ENDBRANCH   8  28
BRANCH   9  36
ATOM     36  O   UNL     1      -6.435  -7.381  22.054  1.00  0.00    -0.454 OA
BRANCH  36  37
ATOM     37  C   UNL     1      -6.353  -8.078  20.808  1.00  0.00     0.339 C 
ATOM     38  C   UNL     1      -7.697  -8.744  20.442  1.00  0.00     0.214 C 
ATOM     39  O   UNL     1      -5.867  -7.222  19.780  1.00  0.00    -0.335 OA
ATOM     40  C   UNL     1      -8.751  -7.693  20.081  1.00  0.00     0.180 C 
ATOM     41  C   UNL     1      -6.786  -6.213  19.370  1.00  0.00     0.151 C 
ATOM     42  C   UNL     1      -8.192  -6.764  19.001  1.00  0.00     0.174 C 
ATOM     43  C   UNL     1      -6.792  -5.006  20.323  1.00  0.00     0.042 C 
BRANCH  38  44
ATOM     44  O   UNL     1      -8.168  -9.538  21.500  1.00  0.00    -0.384 OA
ATOM     45  H   UNL     1      -7.630  -9.295  22.301  1.00  0.00     0.211 HD
ENDBRANCH  38  44
BRANCH  40  46
ATOM     46  O   UNL     1      -9.125  -6.951  21.216  1.00  0.00    -0.387 OA
ATOM     47  H   UNL     1      -8.732  -6.042  21.114  1.00  0.00     0.211 HD
ENDBRANCH  40  46
BRANCH  42  48
ATOM     48  O   UNL     1      -9.101  -5.722  18.759  1.00  0.00    -0.388 OA
ATOM     49  H   UNL     1      -9.092  -5.552  17.781  1.00  0.00     0.211 HD
ENDBRANCH  42  48
ENDBRANCH  36  37
ENDBRANCH   9  36
TORSDOF 13
ENDMDL
MODEL 5
REMARK VINA RESULT:    -3.508     10.352     16.176
REMARK INTER + INTRA:          -5.983
REMARK INTER:                  -4.548
REMARK INTRA:                  -1.436
REMARK UNBOUND:                -0.629
REMARK SMILES C[C@@H]1O[C@@H](Oc2cc(O)c3c(=O)c(O[C@@H]4O[C@H](C)[C@H](O)[C@H](O)[C@@H]4O)c(-c4ccc(O)cc4)oc3c2)[C@@H](O)[C@H](O)[C@@H]1O
REMARK SMILES IDX 6 1 7 2 8 3 10 4 34 5 35 6 33 7 25 8 13 9 11 10 12 11 5 12
REMARK SMILES IDX 4 13 1 14 2 15 40 16 3 17 38 18 36 19 41 20 39 22 37 24 9 26
REMARK SMILES IDX 26 28 27 29 32 30 28 31 31 32 29 33 30 34 14 36 15 37 23 38
REMARK SMILES IDX 16 39 21 40 17 41 19 42 18 43 24 44 22 46 20 48
REMARK H PARENT 41 21 39 23 37 25 9 27 30 35 24 45 22 47 20 49
REMARK Flexibility Score: inf
ROOT
ATOM      1  C   UNL     1      -5.374   0.774  17.837  1.00  0.00     0.130 A 
ATOM      2  C   UNL     1      -4.058   1.153  18.162  1.00  0.00     0.093 A 
ATOM      3  C   UNL     1      -3.452   2.247  17.531  1.00  0.00     0.134 A 
ATOM      4  C   UNL     1      -4.169   2.985  16.563  1.00  0.00     0.111 A 
ATOM      5  C   UNL     1      -5.492   2.603  16.245  1.00  0.00     0.146 A 
ATOM      6  C   UNL     1      -6.071   1.492  16.860  1.00  0.00     0.094 A 
ATOM      7  O   UNL     1      -6.199   3.292  15.358  1.00  0.00    -0.452 OA
ATOM      8  C   UNL     1      -5.733   4.363  14.726  1.00  0.00     0.180 A 
ATOM      9  C   UNL     1      -4.428   4.825  14.997  1.00  0.00     0.214 A 
ATOM     10  C   UNL     1      -3.634   4.110  15.901  1.00  0.00     0.239 A 
ATOM     11  O   UNL     1      -2.451   4.493  16.118  1.00  0.00    -0.285 OA
ENDROOT
BRANCH   1  12
ATOM     12  O   UNL     1      -6.026  -0.308  18.450  1.00  0.00    -0.462 OA
BRANCH  12  13
ATOM     13  C   UNL     1      -7.223  -0.943  17.973  1.00  0.00     0.339 C 
ATOM     14  C   UNL     1      -8.987  -1.240  21.196  1.00  0.00     0.042 C 
ATOM     15  C   UNL     1      -7.908  -1.523  20.147  1.00  0.00     0.151 C 
ATOM     16  C   UNL     1      -7.761  -3.041  19.904  1.00  0.00     0.174 C 
ATOM     17  O   UNL     1      -8.252  -0.843  18.948  1.00  0.00    -0.335 OA
ATOM     18  C   UNL     1      -6.665  -3.259  18.843  1.00  0.00     0.180 C 
ATOM     19  C   UNL     1      -6.975  -2.419  17.583  1.00  0.00     0.214 C 
BRANCH  16  20
ATOM     20  O   UNL     1      -8.988  -3.567  19.456  1.00  0.00    -0.388 OA
ATOM     21  H   UNL     1      -9.544  -2.796  19.170  1.00  0.00     0.211 HD
ENDBRANCH  16  20
BRANCH  18  22
ATOM     22  O   UNL     1      -6.514  -4.622  18.530  1.00  0.00    -0.387 OA
ATOM     23  H   UNL     1      -6.232  -5.102  19.356  1.00  0.00     0.211 HD
ENDBRANCH  18  22
BRANCH  19  24
ATOM     24  O   UNL     1      -5.964  -2.537  16.610  1.00  0.00    -0.384 OA
ATOM     25  H   UNL     1      -5.144  -2.093  16.956  1.00  0.00     0.211 HD
ENDBRANCH  19  24
ENDBRANCH  12  13
ENDBRANCH   1  12
BRANCH   3  26
ATOM     26  O   UNL     1      -2.143   2.598  17.874  1.00  0.00    -0.507 OA
ATOM     27  H   UNL     1      -1.485   1.918  18.243  1.00  0.00     0.293 HD
ENDBRANCH   3  26
BRANCH   8  28
ATOM     28  C   UNL     1      -6.622   5.031  13.750  1.00  0.00     0.021 A 
ATOM     29  C   UNL     1      -7.468   6.064  14.181  1.00  0.00     0.016 A 
ATOM     30  C   UNL     1      -6.655   4.641  12.400  1.00  0.00     0.016 A 
ATOM     31  C   UNL     1      -8.295   6.729  13.272  1.00  0.00     0.047 A 
ATOM     32  C   UNL     1      -7.470   5.318  11.487  1.00  0.00     0.047 A 
ATOM     33  C   UNL     1      -8.294   6.366  11.921  1.00  0.00     0.115 A 
BRANCH  33  34
ATOM     34  O   UNL     1      -9.115   7.044  11.019  1.00  0.00    -0.508 OA
ATOM     35  H   UNL     1     -10.088   6.778  10.889  1.00  0.00     0.293 HD
ENDBRANCH  33  34
ENDBRANCH   8  28
BRANCH   9  36
ATOM     36  O   UNL     1      -3.912   5.980  14.391  1.00  0.00    -0.454 OA
BRANCH  36  37
ATOM     37  C   UNL     1      -3.749   7.224  15.079  1.00  0.00     0.339 C 
ATOM     38  C   UNL     1      -2.314   7.771  14.926  1.00  0.00     0.214 C 
ATOM     39  O   UNL     1      -4.740   8.161  14.672  1.00  0.00    -0.335 OA
ATOM     40  C   UNL     1      -2.052   8.235  13.491  1.00  0.00     0.180 C 
ATOM     41  C   UNL     1      -4.573   8.657  13.347  1.00  0.00     0.151 C 
ATOM     42  C   UNL     1      -3.149   9.213  13.065  1.00  0.00     0.174 C 
ATOM     43  C   UNL     1      -5.111   7.682  12.285  1.00  0.00     0.042 C 
BRANCH  38  44
ATOM     44  O   UNL     1      -1.366   6.801  15.288  1.00  0.00    -0.384 OA
ATOM     45  H   UNL     1      -1.097   6.998  16.225  1.00  0.00     0.211 HD
ENDBRANCH  38  44
BRANCH  40  46
ATOM     46  O   UNL     1      -2.010   7.137  12.612  1.00  0.00    -0.387 OA
ATOM     47  H   UNL     1      -1.683   7.477  11.735  1.00  0.00     0.211 HD
ENDBRANCH  40  46
BRANCH  42  48
ATOM     48  O   UNL     1      -2.988   9.541  11.709  1.00  0.00    -0.388 OA
ATOM     49  H   UNL     1      -3.450  10.407  11.565  1.00  0.00     0.211 HD
ENDBRANCH  42  48
ENDBRANCH  36  37
ENDBRANCH   9  36
TORSDOF 13
ENDMDL
MODEL 6
REMARK VINA RESULT:    -3.322      2.745      8.864
REMARK INTER + INTRA:          -5.699
REMARK INTER:                  -7.235
REMARK INTRA:                   1.536
REMARK UNBOUND:                -0.629
REMARK SMILES C[C@@H]1O[C@@H](Oc2cc(O)c3c(=O)c(O[C@@H]4O[C@H](C)[C@H](O)[C@H](O)[C@@H]4O)c(-c4ccc(O)cc4)oc3c2)[C@@H](O)[C@H](O)[C@@H]1O
REMARK SMILES IDX 6 1 7 2 8 3 10 4 34 5 35 6 33 7 25 8 13 9 11 10 12 11 5 12
REMARK SMILES IDX 4 13 1 14 2 15 40 16 3 17 38 18 36 19 41 20 39 22 37 24 9 26
REMARK SMILES IDX 26 28 27 29 32 30 28 31 31 32 29 33 30 34 14 36 15 37 23 38
REMARK SMILES IDX 16 39 21 40 17 41 19 42 18 43 24 44 22 46 20 48
REMARK H PARENT 41 21 39 23 37 25 9 27 30 35 24 45 22 47 20 49
REMARK Flexibility Score: inf
ROOT
ATOM      1  C   UNL     1      -5.713  -4.446  21.399  1.00  0.00     0.130 A 
ATOM      2  C   UNL     1      -6.986  -4.551  21.991  1.00  0.00     0.093 A 
ATOM      3  C   UNL     1      -7.178  -5.326  23.141  1.00  0.00     0.134 A 
ATOM      4  C   UNL     1      -6.084  -6.006  23.722  1.00  0.00     0.111 A 
ATOM      5  C   UNL     1      -4.808  -5.892  23.126  1.00  0.00     0.146 A 
ATOM      6  C   UNL     1      -4.638  -5.140  21.963  1.00  0.00     0.094 A 
ATOM      7  O   UNL     1      -3.756  -6.498  23.662  1.00  0.00    -0.452 OA
ATOM      8  C   UNL     1      -3.820  -7.231  24.768  1.00  0.00     0.180 A 
ATOM      9  C   UNL     1      -5.053  -7.382  25.438  1.00  0.00     0.214 A 
ATOM     10  C   UNL     1      -6.195  -6.788  24.890  1.00  0.00     0.239 A 
ATOM     11  O   UNL     1      -7.308  -6.953  25.461  1.00  0.00    -0.285 OA
ENDROOT
BRANCH   1  12
ATOM     12  O   UNL     1      -5.470  -3.672  20.253  1.00  0.00    -0.462 OA
BRANCH  12  13
ATOM     13  C   UNL     1      -5.852  -4.021  18.912  1.00  0.00     0.339 C 
ATOM     14  C   UNL     1      -8.545  -1.545  18.464  1.00  0.00     0.042 C 
ATOM     15  C   UNL     1      -7.844  -2.778  19.042  1.00  0.00     0.151 C 
ATOM     16  C   UNL     1      -8.753  -4.023  18.951  1.00  0.00     0.174 C 
ATOM     17  O   UNL     1      -6.627  -2.979  18.336  1.00  0.00    -0.335 OA
ATOM     18  C   UNL     1      -7.993  -5.224  19.546  1.00  0.00     0.180 C 
ATOM     19  C   UNL     1      -6.613  -5.367  18.864  1.00  0.00     0.214 C 
BRANCH  16  20
ATOM     20  O   UNL     1      -9.081  -4.268  17.604  1.00  0.00    -0.388 OA
ATOM     21  H   UNL     1     -10.048  -4.491  17.579  1.00  0.00     0.211 HD
ENDBRANCH  16  20
BRANCH  18  22
ATOM     22  O   UNL     1      -8.743  -6.410  19.446  1.00  0.00    -0.387 OA
ATOM     23  H   UNL     1      -9.404  -6.299  18.710  1.00  0.00     0.211 HD
ENDBRANCH  18  22
BRANCH  19  24
ATOM     24  O   UNL     1      -5.856  -6.413  19.422  1.00  0.00    -0.384 OA
ATOM     25  H   UNL     1      -6.470  -7.003  19.936  1.00  0.00     0.211 HD
ENDBRANCH  19  24
ENDBRANCH  12  13
ENDBRANCH   1  12
BRANCH   3  26
ATOM     26  O   UNL     1      -8.455  -5.413  23.705  1.00  0.00    -0.507 OA
ATOM     27  H   UNL     1      -8.593  -5.543  24.703  1.00  0.00     0.293 HD
ENDBRANCH   3  26
BRANCH   8  28
ATOM     28  C   UNL     1      -2.574  -7.864  25.252  1.00  0.00     0.021 A 
ATOM     29  C   UNL     1      -2.127  -9.054  24.658  1.00  0.00     0.016 A 
ATOM     30  C   UNL     1      -1.834  -7.311  26.312  1.00  0.00     0.016 A 
ATOM     31  C   UNL     1      -0.938  -9.653  25.080  1.00  0.00     0.047 A 
ATOM     32  C   UNL     1      -0.634  -7.902  26.722  1.00  0.00     0.047 A 
ATOM     33  C   UNL     1      -0.182  -9.077  26.106  1.00  0.00     0.115 A 
BRANCH  33  34
ATOM     34  O   UNL     1       1.010  -9.678  26.512  1.00  0.00    -0.508 OA
ATOM     35  H   UNL     1       1.280  -9.707  27.492  1.00  0.00     0.293 HD
ENDBRANCH  33  34
ENDBRANCH   8  28
BRANCH   9  36
ATOM     36  O   UNL     1      -5.159  -8.105  26.636  1.00  0.00    -0.454 OA
BRANCH  36  37
ATOM     37  C   UNL     1      -5.299  -9.528  26.684  1.00  0.00     0.339 C 
ATOM     38  C   UNL     1      -4.636 -10.119  27.947  1.00  0.00     0.214 C 
ATOM     39  O   UNL     1      -6.665  -9.907  26.554  1.00  0.00    -0.335 OA
ATOM     40  C   UNL     1      -5.418  -9.740  29.208  1.00  0.00     0.180 C 
ATOM     41  C   UNL     1      -7.472  -9.600  27.687  1.00  0.00     0.151 C 
ATOM     42  C   UNL     1      -6.888 -10.124  29.028  1.00  0.00     0.174 C 
ATOM     43  C   UNL     1      -7.920  -8.129  27.705  1.00  0.00     0.042 C 
BRANCH  38  44
ATOM     44  O   UNL     1      -3.307  -9.681  28.067  1.00  0.00    -0.384 OA
ATOM     45  H   UNL     1      -2.745 -10.496  28.162  1.00  0.00     0.211 HD
ENDBRANCH  38  44
BRANCH  40  46
ATOM     46  O   UNL     1      -5.302  -8.362  29.470  1.00  0.00    -0.387 OA
ATOM     47  H   UNL     1      -5.724  -7.883  28.706  1.00  0.00     0.211 HD
ENDBRANCH  40  46
BRANCH  42  48
ATOM     48  O   UNL     1      -7.633  -9.662  30.125  1.00  0.00    -0.388 OA
ATOM     49  H   UNL     1      -8.391 -10.291  30.244  1.00  0.00     0.211 HD
ENDBRANCH  42  48
ENDBRANCH  36  37
ENDBRANCH   9  36
TORSDOF 13
ENDMDL
MODEL 7
REMARK VINA RESULT:    -2.903      2.258      4.939
REMARK INTER + INTRA:          -5.060
REMARK INTER:                  -6.032
REMARK INTRA:                   0.972
REMARK UNBOUND:                -0.629
REMARK SMILES C[C@@H]1O[C@@H](Oc2cc(O)c3c(=O)c(O[C@@H]4O[C@H](C)[C@H](O)[C@H](O)[C@@H]4O)c(-c4ccc(O)cc4)oc3c2)[C@@H](O)[C@H](O)[C@@H]1O
REMARK SMILES IDX 6 1 7 2 8 3 10 4 34 5 35 6 33 7 25 8 13 9 11 10 12 11 5 12
REMARK SMILES IDX 4 13 1 14 2 15 40 16 3 17 38 18 36 19 41 20 39 22 37 24 9 26
REMARK SMILES IDX 26 28 27 29 32 30 28 31 31 32 29 33 30 34 14 36 15 37 23 38
REMARK SMILES IDX 16 39 21 40 17 41 19 42 18 43 24 44 22 46 20 48
REMARK H PARENT 41 21 39 23 37 25 9 27 30 35 24 45 22 47 20 49
REMARK Flexibility Score: inf
ROOT
ATOM      1  C   UNL     1       0.698  -9.411  28.001  1.00  0.00     0.130 A 
ATOM      2  C   UNL     1       0.975  -9.094  26.658  1.00  0.00     0.093 A 
ATOM      3  C   UNL     1      -0.064  -8.941  25.731  1.00  0.00     0.134 A 
ATOM      4  C   UNL     1      -1.405  -9.099  26.145  1.00  0.00     0.111 A 
ATOM      5  C   UNL     1      -1.676  -9.413  27.497  1.00  0.00     0.146 A 
ATOM      6  C   UNL     1      -0.629  -9.592  28.402  1.00  0.00     0.094 A 
ATOM      7  O   UNL     1      -2.927  -9.544  27.922  1.00  0.00    -0.452 OA
ATOM      8  C   UNL     1      -3.986  -9.388  27.136  1.00  0.00     0.180 A 
ATOM      9  C   UNL     1      -3.807  -9.056  25.776  1.00  0.00     0.214 A 
ATOM     10  C   UNL     1      -2.504  -8.941  25.276  1.00  0.00     0.239 A 
ATOM     11  O   UNL     1      -2.336  -8.685  24.052  1.00  0.00    -0.285 OA
ENDROOT
BRANCH   1  12
ATOM     12  O   UNL     1       1.706  -9.564  28.967  1.00  0.00    -0.462 OA
BRANCH  12  13
ATOM     13  C   UNL     1       1.924  -8.698  30.092  1.00  0.00     0.339 C 
ATOM     14  C   UNL     1      -0.120  -5.843  28.970  1.00  0.00     0.042 C 
ATOM     15  C   UNL     1       1.050  -6.831  28.960  1.00  0.00     0.151 C 
ATOM     16  C   UNL     1       2.402  -6.084  28.926  1.00  0.00     0.174 C 
ATOM     17  O   UNL     1       0.952  -7.661  30.109  1.00  0.00    -0.335 OA
ATOM     18  C   UNL     1       3.534  -7.129  28.917  1.00  0.00     0.180 C 
ATOM     19  C   UNL     1       3.356  -8.112  30.097  1.00  0.00     0.214 C 
BRANCH  16  20
ATOM     20  O   UNL     1       2.509  -5.255  30.058  1.00  0.00    -0.388 OA
ATOM     21  H   UNL     1       2.809  -5.830  30.809  1.00  0.00     0.211 HD
ENDBRANCH  16  20
BRANCH  18  22
ATOM     22  O   UNL     1       4.801  -6.518  28.941  1.00  0.00    -0.387 OA
ATOM     23  H   UNL     1       5.492  -7.231  28.877  1.00  0.00     0.211 HD
ENDBRANCH  18  22
BRANCH  19  24
ATOM     24  O   UNL     1       4.333  -9.125  30.091  1.00  0.00    -0.384 OA
ATOM     25  H   UNL     1       4.973  -8.936  29.353  1.00  0.00     0.211 HD
ENDBRANCH  19  24
ENDBRANCH  12  13
ENDBRANCH   1  12
BRANCH   3  26
ATOM     26  O   UNL     1       0.241  -8.628  24.402  1.00  0.00    -0.507 OA
ATOM     27  H   UNL     1      -0.131  -7.799  23.948  1.00  0.00     0.293 HD
ENDBRANCH   3  26
BRANCH   8  28
ATOM     28  C   UNL     1      -5.325  -9.575  27.735  1.00  0.00     0.021 A 
ATOM     29  C   UNL     1      -5.506  -9.349  29.108  1.00  0.00     0.016 A 
ATOM     30  C   UNL     1      -6.423  -9.996  26.963  1.00  0.00     0.016 A 
ATOM     31  C   UNL     1      -6.768  -9.491  29.689  1.00  0.00     0.047 A 
ATOM     32  C   UNL     1      -7.690 -10.121  27.542  1.00  0.00     0.047 A 
ATOM     33  C   UNL     1      -7.867  -9.869  28.909  1.00  0.00     0.115 A 
BRANCH  33  34
ATOM     34  O   UNL     1      -9.125  -9.997  29.498  1.00  0.00    -0.508 OA
ATOM     35  H   UNL     1      -9.901 -10.422  28.997  1.00  0.00     0.293 HD
ENDBRANCH  33  34
ENDBRANCH   8  28
BRANCH   9  36
ATOM     36  O   UNL     1      -4.896  -8.834  24.921  1.00  0.00    -0.454 OA
BRANCH  36  37
ATOM     37  C   UNL     1      -4.797  -8.099  23.697  1.00  0.00     0.339 C 
ATOM     38  C   UNL     1      -5.934  -8.469  22.721  1.00  0.00     0.214 C 
ATOM     39  O   UNL     1      -4.726  -6.700  23.951  1.00  0.00    -0.335 OA
ATOM     40  C   UNL     1      -7.284  -7.949  23.226  1.00  0.00     0.180 C 
ATOM     41  C   UNL     1      -5.943  -6.124  24.419  1.00  0.00     0.151 C 
ATOM     42  C   UNL     1      -7.171  -6.453  23.526  1.00  0.00     0.174 C 
ATOM     43  C   UNL     1      -6.156  -6.350  25.925  1.00  0.00     0.042 C 
BRANCH  38  44
ATOM     44  O   UNL     1      -6.004  -9.859  22.537  1.00  0.00    -0.384 OA
ATOM     45  H   UNL     1      -6.970 -10.094  22.494  1.00  0.00     0.211 HD
ENDBRANCH  38  44
BRANCH  40  46
ATOM     46  O   UNL     1      -7.687  -8.649  24.378  1.00  0.00    -0.387 OA
ATOM     47  H   UNL     1      -7.837  -9.595  24.108  1.00  0.00     0.211 HD
ENDBRANCH  40  46
BRANCH  42  48
ATOM     48  O   UNL     1      -8.364  -5.999  24.111  1.00  0.00    -0.388 OA
ATOM     49  H   UNL     1      -8.481  -5.053  23.832  1.00  0.00     0.211 HD
ENDBRANCH  42  48
ENDBRANCH  36  37
ENDBRANCH   9  36
TORSDOF 13
ENDMDL
MODEL 8
REMARK VINA RESULT:    -2.611      1.914      2.964
REMARK INTER + INTRA:          -4.614
REMARK INTER:                  -6.730
REMARK INTRA:                   2.116
REMARK UNBOUND:                -0.629
REMARK SMILES C[C@@H]1O[C@@H](Oc2cc(O)c3c(=O)c(O[C@@H]4O[C@H](C)[C@H](O)[C@H](O)[C@@H]4O)c(-c4ccc(O)cc4)oc3c2)[C@@H](O)[C@H](O)[C@@H]1O
REMARK SMILES IDX 6 1 7 2 8 3 10 4 34 5 35 6 33 7 25 8 13 9 11 10 12 11 5 12
REMARK SMILES IDX 4 13 1 14 2 15 40 16 3 17 38 18 36 19 41 20 39 22 37 24 9 26
REMARK SMILES IDX 26 28 27 29 32 30 28 31 31 32 29 33 30 34 14 36 15 37 23 38
REMARK SMILES IDX 16 39 21 40 17 41 19 42 18 43 24 44 22 46 20 48
REMARK H PARENT 41 21 39 23 37 25 9 27 30 35 24 45 22 47 20 49
REMARK Flexibility Score: inf
ROOT
ATOM      1  C   UNL     1      -0.246  -8.305  27.102  1.00  0.00     0.130 A 
ATOM      2  C   UNL     1      -1.049  -8.497  28.242  1.00  0.00     0.093 A 
ATOM      3  C   UNL     1      -2.438  -8.639  28.122  1.00  0.00     0.134 A 
ATOM      4  C   UNL     1      -3.041  -8.598  26.846  1.00  0.00     0.111 A 
ATOM      5  C   UNL     1      -2.228  -8.410  25.705  1.00  0.00     0.146 A 
ATOM      6  C   UNL     1      -0.850  -8.240  25.843  1.00  0.00     0.094 A 
ATOM      7  O   UNL     1      -2.763  -8.392  24.490  1.00  0.00    -0.452 OA
ATOM      8  C   UNL     1      -4.062  -8.550  24.262  1.00  0.00     0.180 A 
ATOM      9  C   UNL     1      -4.944  -8.761  25.343  1.00  0.00     0.214 A 
ATOM     10  C   UNL     1      -4.428  -8.754  26.644  1.00  0.00     0.239 A 
ATOM     11  O   UNL     1      -5.217  -8.900  27.618  1.00  0.00    -0.285 OA
ENDROOT
BRANCH   1  12
ATOM     12  O   UNL     1       1.150  -8.168  27.172  1.00  0.00    -0.462 OA
BRANCH  12  13
ATOM     13  C   UNL     1       1.940  -8.251  28.369  1.00  0.00     0.339 C 
ATOM     14  C   UNL     1       0.735  -5.180  30.014  1.00  0.00     0.042 C 
ATOM     15  C   UNL     1       1.462  -6.026  28.964  1.00  0.00     0.151 C 
ATOM     16  C   UNL     1       2.922  -5.552  28.788  1.00  0.00     0.174 C 
ATOM     17  O   UNL     1       1.411  -7.388  29.366  1.00  0.00    -0.335 OA
ATOM     18  C   UNL     1       3.595  -6.440  27.724  1.00  0.00     0.180 C 
ATOM     19  C   UNL     1       3.429  -7.931  28.097  1.00  0.00     0.214 C 
BRANCH  16  20
ATOM     20  O   UNL     1       3.602  -5.658  30.016  1.00  0.00    -0.388 OA
ATOM     21  H   UNL     1       4.477  -6.085  29.825  1.00  0.00     0.211 HD
ENDBRANCH  16  20
BRANCH  18  22
ATOM     22  O   UNL     1       4.949  -6.099  27.550  1.00  0.00    -0.387 OA
ATOM     23  H   UNL     1       5.264  -5.644  28.377  1.00  0.00     0.211 HD
ENDBRANCH  18  22
BRANCH  19  24
ATOM     24  O   UNL     1       3.974  -8.782  27.118  1.00  0.00    -0.384 OA
ATOM     25  H   UNL     1       3.648  -9.706  27.291  1.00  0.00     0.211 HD
ENDBRANCH  19  24
ENDBRANCH  12  13
ENDBRANCH   1  12
BRANCH   3  26
ATOM     26  O   UNL     1      -3.210  -8.825  29.273  1.00  0.00    -0.507 OA
ATOM     27  H   UNL     1      -4.134  -9.246  29.236  1.00  0.00     0.293 HD
ENDBRANCH   3  26
BRANCH   8  28
ATOM     28  C   UNL     1      -4.529  -8.495  22.859  1.00  0.00     0.021 A 
ATOM     29  C   UNL     1      -5.131  -9.626  22.287  1.00  0.00     0.016 A 
ATOM     30  C   UNL     1      -4.364  -7.340  22.075  1.00  0.00     0.016 A 
ATOM     31  C   UNL     1      -5.605  -9.588  20.973  1.00  0.00     0.047 A 
ATOM     32  C   UNL     1      -4.855  -7.297  20.766  1.00  0.00     0.047 A 
ATOM     33  C   UNL     1      -5.478  -8.422  20.210  1.00  0.00     0.115 A 
BRANCH  33  34
ATOM     34  O   UNL     1      -5.965  -8.391  18.903  1.00  0.00    -0.508 OA
ATOM     35  H   UNL     1      -6.634  -9.083  18.573  1.00  0.00     0.293 HD
ENDBRANCH  33  34
ENDBRANCH   8  28
BRANCH   9  36
ATOM     36  O   UNL     1      -6.315  -8.981  25.145  1.00  0.00    -0.454 OA
BRANCH  36  37
ATOM     37  C   UNL     1      -7.075  -8.335  24.119  1.00  0.00     0.339 C 
ATOM     38  C   UNL     1      -8.589  -8.577  24.299  1.00  0.00     0.214 C 
ATOM     39  O   UNL     1      -6.746  -6.952  24.040  1.00  0.00    -0.335 OA
ATOM     40  C   UNL     1      -9.123  -7.830  25.525  1.00  0.00     0.180 C 
ATOM     41  C   UNL     1      -7.211  -6.172  25.138  1.00  0.00     0.151 C 
ATOM     42  C   UNL     1      -8.726  -6.355  25.434  1.00  0.00     0.174 C 
ATOM     43  C   UNL     1      -6.292  -6.284  26.367  1.00  0.00     0.042 C 
BRANCH  38  44
ATOM     44  O   UNL     1      -8.866  -9.947  24.425  1.00  0.00    -0.384 OA
ATOM     45  H   UNL     1      -8.702 -10.355  23.533  1.00  0.00     0.211 HD
ENDBRANCH  38  44
BRANCH  40  46
ATOM     46  O   UNL     1      -8.623  -8.398  26.711  1.00  0.00    -0.387 OA
ATOM     47  H   UNL     1      -7.848  -8.969  26.458  1.00  0.00     0.211 HD
ENDBRANCH  40  46
BRANCH  42  48
ATOM     48  O   UNL     1      -9.099  -5.693  26.615  1.00  0.00    -0.388 OA
ATOM     49  H   UNL     1      -8.500  -4.907  26.706  1.00  0.00     0.211 HD
ENDBRANCH  42  48
ENDBRANCH  36  37
ENDBRANCH   9  36
TORSDOF 13
ENDMDL
MODEL 9
REMARK VINA RESULT:    -2.331      4.236      9.860
REMARK INTER + INTRA:          -4.187
REMARK INTER:                  -4.914
REMARK INTRA:                   0.727
REMARK UNBOUND:                -0.629
REMARK SMILES C[C@@H]1O[C@@H](Oc2cc(O)c3c(=O)c(O[C@@H]4O[C@H](C)[C@H](O)[C@H](O)[C@@H]4O)c(-c4ccc(O)cc4)oc3c2)[C@@H](O)[C@H](O)[C@@H]1O
REMARK SMILES IDX 6 1 7 2 8 3 10 4 34 5 35 6 33 7 25 8 13 9 11 10 12 11 5 12
REMARK SMILES IDX 4 13 1 14 2 15 40 16 3 17 38 18 36 19 41 20 39 22 37 24 9 26
REMARK SMILES IDX 26 28 27 29 32 30 28 31 31 32 29 33 30 34 14 36 15 37 23 38
REMARK SMILES IDX 16 39 21 40 17 41 19 42 18 43 24 44 22 46 20 48
REMARK H PARENT 41 21 39 23 37 25 9 27 30 35 24 45 22 47 20 49
REMARK Flexibility Score: inf
ROOT
ATOM      1  C   UNL     1      -6.014  -1.136  18.031  1.00  0.00     0.130 A 
ATOM      2  C   UNL     1      -7.042  -1.769  17.307  1.00  0.00     0.093 A 
ATOM      3  C   UNL     1      -7.624  -2.953  17.778  1.00  0.00     0.134 A 
ATOM      4  C   UNL     1      -7.183  -3.516  18.996  1.00  0.00     0.111 A 
ATOM      5  C   UNL     1      -6.154  -2.872  19.721  1.00  0.00     0.146 A 
ATOM      6  C   UNL     1      -5.564  -1.710  19.224  1.00  0.00     0.094 A 
ATOM      7  O   UNL     1      -5.736  -3.364  20.881  1.00  0.00    -0.452 OA
ATOM      8  C   UNL     1      -6.241  -4.461  21.434  1.00  0.00     0.180 A 
ATOM      9  C   UNL     1      -7.284  -5.156  20.787  1.00  0.00     0.214 A 
ATOM     10  C   UNL     1      -7.734  -4.693  19.545  1.00  0.00     0.239 A 
ATOM     11  O   UNL     1      -8.638  -5.333  18.940  1.00  0.00    -0.285 OA
ENDROOT
BRANCH   1  12
ATOM     12  O   UNL     1      -5.409   0.057  17.603  1.00  0.00    -0.462 OA
BRANCH  12  13
ATOM     13  C   UNL     1      -5.229   1.237  18.402  1.00  0.00     0.339 C 
ATOM     14  C   UNL     1      -5.752   3.754  15.761  1.00  0.00     0.042 C 
ATOM     15  C   UNL     1      -5.044   2.620  16.509  1.00  0.00     0.151 C 
ATOM     16  C   UNL     1      -3.566   2.976  16.780  1.00  0.00     0.174 C 
ATOM     17  O   UNL     1      -5.743   2.373  17.722  1.00  0.00    -0.335 OA
ATOM     18  C   UNL     1      -2.914   1.801  17.533  1.00  0.00     0.180 C 
ATOM     19  C   UNL     1      -3.745   1.449  18.787  1.00  0.00     0.214 C 
BRANCH  16  20
ATOM     20  O   UNL     1      -3.500   4.151  17.553  1.00  0.00    -0.388 OA
ATOM     21  H   UNL     1      -3.287   4.894  16.931  1.00  0.00     0.211 HD
ENDBRANCH  16  20
BRANCH  18  22
ATOM     22  O   UNL     1      -1.575   2.079  17.862  1.00  0.00    -0.387 OA
ATOM     23  H   UNL     1      -1.020   1.950  17.046  1.00  0.00     0.211 HD
ENDBRANCH  18  22
BRANCH  19  24
ATOM     24  O   UNL     1      -3.221   0.337  19.472  1.00  0.00    -0.384 OA
ATOM     25  H   UNL     1      -2.363   0.080  19.039  1.00  0.00     0.211 HD
ENDBRANCH  19  24
ENDBRANCH  12  13
ENDBRANCH   1  12
BRANCH   3  26
ATOM     26  O   UNL     1      -8.641  -3.561  17.035  1.00  0.00    -0.507 OA
ATOM     27  H   UNL     1      -9.391  -3.022  16.613  1.00  0.00     0.293 HD
ENDBRANCH   3  26
BRANCH   8  28
ATOM     28  C   UNL     1      -5.675  -4.908  22.725  1.00  0.00     0.021 A 
ATOM     29  C   UNL     1      -6.536  -5.347  23.742  1.00  0.00     0.016 A 
ATOM     30  C   UNL     1      -4.289  -4.884  22.967  1.00  0.00     0.016 A 
ATOM     31  C   UNL     1      -6.021  -5.801  24.960  1.00  0.00     0.047 A 
ATOM     32  C   UNL     1      -3.774  -5.355  24.179  1.00  0.00     0.047 A 
ATOM     33  C   UNL     1      -4.639  -5.815  25.181  1.00  0.00     0.115 A 
BRANCH  33  34
ATOM     34  O   UNL     1      -4.136  -6.281  26.395  1.00  0.00    -0.508 OA
ATOM     35  H   UNL     1      -4.657  -6.168  27.261  1.00  0.00     0.293 HD
ENDBRANCH  33  34
ENDBRANCH   8  28
BRANCH   9  36
ATOM     36  O   UNL     1      -7.881  -6.291  21.357  1.00  0.00    -0.454 OA
BRANCH  36  37
ATOM     37  C   UNL     1      -8.123  -7.500  20.631  1.00  0.00     0.339 C 
ATOM     38  C   UNL     1      -6.817  -8.286  20.390  1.00  0.00     0.214 C 
ATOM     39  O   UNL     1      -9.125  -8.282  21.271  1.00  0.00    -0.335 OA
ATOM     40  C   UNL     1      -6.279  -8.874  21.698  1.00  0.00     0.180 C 
ATOM     41  C   UNL     1      -8.711  -8.879  22.497  1.00  0.00     0.151 C 
ATOM     42  C   UNL     1      -7.384  -9.680  22.384  1.00  0.00     0.174 C 
ATOM     43  C   UNL     1      -8.776  -7.895  23.678  1.00  0.00     0.042 C 
BRANCH  38  44
ATOM     44  O   UNL     1      -5.839  -7.466  19.805  1.00  0.00    -0.384 OA
ATOM     45  H   UNL     1      -5.471  -7.968  19.029  1.00  0.00     0.211 HD
ENDBRANCH  38  44
BRANCH  40  46
ATOM     46  O   UNL     1      -5.819  -7.854  22.550  1.00  0.00    -0.387 OA
ATOM     47  H   UNL     1      -6.174  -6.994  22.196  1.00  0.00     0.211 HD
ENDBRANCH  40  46
BRANCH  42  48
ATOM     48  O   UNL     1      -6.939 -10.112  23.644  1.00  0.00    -0.388 OA
ATOM     49  H   UNL     1      -6.269 -10.826  23.484  1.00  0.00     0.211 HD
ENDBRANCH  42  48
ENDBRANCH  36  37
ENDBRANCH   9  36
TORSDOF 13
ENDMDL
