MODEL 1
REMARK VINA RESULT:    -3.925      0.000      0.000
REMARK INTER + INTRA:          -4.394
REMARK INTER:                  -4.269
REMARK INTRA:                  -0.125
REMARK UNBOUND:                -0.125
REMARK SMILES Cc1ccc(C(C)C)cc1O
REMARK SMILES IDX 1 1 2 2 10 3 9 4 5 5 4 6 3 7 11 8 6 10 7 11 8 12
REMARK H PARENT 11 9
REMARK Flexibility Score: inf
ROOT
ATOM      1  C   UNL     1       8.050   7.538  18.033  1.00  0.00     0.048 C 
ATOM      2  C   UNL     1       7.847   6.064  18.255  1.00  0.00    -0.009 A 
ATOM      3  C   UNL     1       8.924   5.155  18.168  1.00  0.00     0.118 A 
ATOM      4  C   UNL     1       8.701   3.789  18.379  1.00  0.00     0.050 A 
ATOM      5  C   UNL     1       7.417   3.305  18.677  1.00  0.00    -0.042 A 
ATOM      6  C   UNL     1       6.350   4.215  18.762  1.00  0.00     0.004 A 
ATOM      7  C   UNL     1       6.563   5.579  18.553  1.00  0.00     0.007 A 
ENDROOT
BRANCH   3   8
ATOM      8  O   UNL     1      10.223   5.575  17.875  1.00  0.00    -0.508 OA
ATOM      9  H   UNL     1      10.563   5.698  16.929  1.00  0.00     0.293 HD
ENDBRANCH   3   8
BRANCH   5  10
ATOM     10  C   UNL     1       7.200   1.820  18.904  1.00  0.00     0.013 C 
ATOM     11  C   UNL     1       8.294   0.990  18.220  1.00  0.00     0.012 C 
ATOM     12  C   UNL     1       5.805   1.387  18.435  1.00  0.00     0.012 C 
ENDBRANCH   5  10
TORSDOF 2
ENDMDL
MODEL 2
REMARK VINA RESULT:    -3.075      1.555      2.128
REMARK INTER + INTRA:          -3.469
REMARK INTER:                  -3.343
REMARK INTRA:                  -0.127
REMARK UNBOUND:                -0.125
REMARK SMILES Cc1ccc(C(C)C)cc1O
REMARK SMILES IDX 1 1 2 2 10 3 9 4 5 5 4 6 3 7 11 8 6 10 7 11 8 12
REMARK H PARENT 11 9
REMARK Flexibility Score: inf
ROOT
ATOM      1  C   UNL     1       7.962   7.722  17.875  1.00  0.00     0.048 C 
ATOM      2  C   UNL     1       7.939   6.235  18.095  1.00  0.00    -0.009 A 
ATOM      3  C   UNL     1       6.752   5.568  18.470  1.00  0.00     0.118 A 
ATOM      4  C   UNL     1       6.764   4.182  18.668  1.00  0.00     0.050 A 
ATOM      5  C   UNL     1       7.944   3.439  18.500  1.00  0.00    -0.042 A 
ATOM      6  C   UNL     1       9.122   4.109  18.127  1.00  0.00     0.004 A 
ATOM      7  C   UNL     1       9.119   5.491  17.927  1.00  0.00     0.007 A 
ENDROOT
BRANCH   3   8
ATOM      8  O   UNL     1       5.548   6.251  18.652  1.00  0.00    -0.508 OA
ATOM      9  H   UNL     1       5.360   7.158  18.243  1.00  0.00     0.293 HD
ENDBRANCH   3   8
BRANCH   5  10
ATOM     10  C   UNL     1       7.933   1.938  18.718  1.00  0.00     0.013 C 
ATOM     11  C   UNL     1       9.220   1.293  18.188  1.00  0.00     0.012 C 
ATOM     12  C   UNL     1       6.692   1.294  18.088  1.00  0.00     0.012 C 
ENDBRANCH   5  10
TORSDOF 2
ENDMDL
MODEL 3
REMARK VINA RESULT:    -2.852      1.924      4.552
REMARK INTER + INTRA:          -3.227
REMARK INTER:                  -3.101
REMARK INTRA:                  -0.127
REMARK UNBOUND:                -0.125
REMARK SMILES Cc1ccc(C(C)C)cc1O
REMARK SMILES IDX 1 1 2 2 10 3 9 4 5 5 4 6 3 7 11 8 6 10 7 11 8 12
REMARK H PARENT 11 9
REMARK Flexibility Score: inf
ROOT
ATOM      1  C   UNL     1       9.554   1.270  18.112  1.00  0.00     0.048 C 
ATOM      2  C   UNL     1       8.968   2.651  18.219  1.00  0.00    -0.009 A 
ATOM      3  C   UNL     1       7.638   2.852  18.650  1.00  0.00     0.118 A 
ATOM      4  C   UNL     1       7.123   4.150  18.738  1.00  0.00     0.050 A 
ATOM      5  C   UNL     1       7.910   5.263  18.404  1.00  0.00    -0.042 A 
ATOM      6  C   UNL     1       9.233   5.057  17.976  1.00  0.00     0.004 A 
ATOM      7  C   UNL     1       9.756   3.766  17.885  1.00  0.00     0.007 A 
ENDROOT
BRANCH   3   8
ATOM      8  O   UNL     1       6.806   1.785  18.996  1.00  0.00    -0.508 OA
ATOM      9  H   UNL     1       6.479   1.624  19.941  1.00  0.00     0.293 HD
ENDBRANCH   3   8
BRANCH   5  10
ATOM     10  C   UNL     1       7.331   6.662  18.508  1.00  0.00     0.013 C 
ATOM     11  C   UNL     1       5.935   6.731  17.876  1.00  0.00     0.012 C 
ATOM     12  C   UNL     1       8.272   7.700  17.883  1.00  0.00     0.012 C 
ENDBRANCH   5  10
TORSDOF 2
ENDMDL
MODEL 4
REMARK VINA RESULT:    -2.600      1.333      4.154
REMARK INTER + INTRA:          -2.953
REMARK INTER:                  -2.831
REMARK INTRA:                  -0.122
REMARK UNBOUND:                -0.125
REMARK SMILES Cc1ccc(C(C)C)cc1O
REMARK SMILES IDX 1 1 2 2 10 3 9 4 5 5 4 6 3 7 11 8 6 10 7 11 8 12
REMARK H PARENT 11 9
REMARK Flexibility Score: inf
ROOT
ATOM      1  C   UNL     1       8.240   1.059  18.399  1.00  0.00     0.048 C 
ATOM      2  C   UNL     1       8.195   2.557  18.263  1.00  0.00    -0.009 A 
ATOM      3  C   UNL     1       9.372   3.308  18.051  1.00  0.00     0.118 A 
ATOM      4  C   UNL     1       9.296   4.701  17.930  1.00  0.00     0.050 A 
ATOM      5  C   UNL     1       8.063   5.367  18.015  1.00  0.00    -0.042 A 
ATOM      6  C   UNL     1       6.896   4.613  18.226  1.00  0.00     0.004 A 
ATOM      7  C   UNL     1       6.962   3.224  18.349  1.00  0.00     0.007 A 
ENDROOT
BRANCH   3   8
ATOM      8  O   UNL     1      10.627   2.704  17.957  1.00  0.00    -0.508 OA
ATOM      9  H   UNL     1      11.492   3.230  17.921  1.00  0.00     0.293 HD
ENDBRANCH   3   8
BRANCH   5  10
ATOM     10  C   UNL     1       8.005   6.877  17.879  1.00  0.00     0.013 C 
ATOM     11  C   UNL     1       9.412   7.488  17.885  1.00  0.00     0.012 C 
ATOM     12  C   UNL     1       7.129   7.499  18.973  1.00  0.00     0.012 C 
ENDBRANCH   5  10
TORSDOF 2
ENDMDL
MODEL 5
REMARK VINA RESULT:    -1.562      1.676      4.196
REMARK INTER + INTRA:          -1.825
REMARK INTER:                  -1.698
REMARK INTRA:                  -0.127
REMARK UNBOUND:                -0.125
REMARK SMILES Cc1ccc(C(C)C)cc1O
REMARK SMILES IDX 1 1 2 2 10 3 9 4 5 5 4 6 3 7 11 8 6 10 7 11 8 12
REMARK H PARENT 11 9
REMARK Flexibility Score: inf
ROOT
ATOM      1  C   UNL     1       5.749   1.374  19.391  1.00  0.00     0.048 C 
ATOM      2  C   UNL     1       6.401   2.670  18.994  1.00  0.00    -0.009 A 
ATOM      3  C   UNL     1       7.618   2.689  18.277  1.00  0.00     0.118 A 
ATOM      4  C   UNL     1       8.199   3.912  17.923  1.00  0.00     0.050 A 
ATOM      5  C   UNL     1       7.590   5.128  18.270  1.00  0.00    -0.042 A 
ATOM      6  C   UNL     1       6.379   5.103  18.984  1.00  0.00     0.004 A 
ATOM      7  C   UNL     1       5.792   3.888  19.341  1.00  0.00     0.007 A 
ENDROOT
BRANCH   3   8
ATOM      8  O   UNL     1       8.272   1.513  17.902  1.00  0.00    -0.508 OA
ATOM      9  H   UNL     1       9.277   1.452  17.793  1.00  0.00     0.293 HD
ENDBRANCH   3   8
BRANCH   5  10
ATOM     10  C   UNL     1       8.237   6.442  17.875  1.00  0.00     0.013 C 
ATOM     11  C   UNL     1       9.728   6.456  18.238  1.00  0.00     0.012 C 
ATOM     12  C   UNL     1       7.505   7.633  18.506  1.00  0.00     0.012 C 
ENDBRANCH   5  10
TORSDOF 2
ENDMDL
MODEL 6
REMARK VINA RESULT:    -1.234      1.536      2.543
REMARK INTER + INTRA:          -1.467
REMARK INTER:                  -1.367
REMARK INTRA:                  -0.100
REMARK UNBOUND:                -0.125
REMARK SMILES Cc1ccc(C(C)C)cc1O
REMARK SMILES IDX 1 1 2 2 10 3 9 4 5 5 4 6 3 7 11 8 6 10 7 11 8 12
REMARK H PARENT 11 9
REMARK Flexibility Score: inf
ROOT
ATOM      1  C   UNL     1       9.981   5.452  17.882  1.00  0.00     0.048 C 
ATOM      2  C   UNL     1       8.975   4.355  18.099  1.00  0.00    -0.009 A 
ATOM      3  C   UNL     1       7.630   4.648  18.420  1.00  0.00     0.118 A 
ATOM      4  C   UNL     1       6.719   3.604  18.616  1.00  0.00     0.050 A 
ATOM      5  C   UNL     1       7.120   2.263  18.499  1.00  0.00    -0.042 A 
ATOM      6  C   UNL     1       8.459   1.979  18.180  1.00  0.00     0.004 A 
ATOM      7  C   UNL     1       9.375   3.014  17.982  1.00  0.00     0.007 A 
ENDROOT
BRANCH   3   8
ATOM      8  O   UNL     1       7.171   5.960  18.550  1.00  0.00    -0.508 OA
ATOM      9  H   UNL     1       7.789   6.750  18.687  1.00  0.00     0.293 HD
ENDBRANCH   3   8
BRANCH   5  10
ATOM     10  C   UNL     1       6.114   1.148  18.715  1.00  0.00     0.013 C 
ATOM     11  C   UNL     1       4.848   1.375  17.878  1.00  0.00     0.012 C 
ATOM     12  C   UNL     1       5.771   0.991  20.202  1.00  0.00     0.012 C 
ENDBRANCH   5  10
TORSDOF 2
ENDMDL
