MODEL 1
REMARK VINA RESULT:    -3.241      0.000      0.000
REMARK INTER + INTRA:          -3.720
REMARK INTER:                  -3.904
REMARK INTRA:                   0.184
REMARK UNBOUND:                 0.184
REMARK SMILES O=c1c(O)c(-c2ccc(O)c(O)c2)oc2cc(O)cc(O)c12
REMARK SMILES IDX 5 1 3 2 2 3 1 4 22 5 20 6 19 7 17 8 16 9 15 10 14 11 6 12
REMARK SMILES IDX 7 13 8 14 9 15 13 16 11 17 10 18 12 20 4 22 21 24 18 26
REMARK H PARENT 10 19 12 21 4 23 21 25 18 27
REMARK Flexibility Score: inf
ROOT
ATOM      1  C   UNL     1       8.787  12.131 -16.448  1.00  0.00     0.180 A 
ATOM      2  C   UNL     1       7.586  12.839 -16.251  1.00  0.00     0.208 A 
ATOM      3  C   UNL     1       7.289  13.919 -17.097  1.00  0.00     0.238 A 
ATOM      4  O   UNL     1       6.221  14.567 -16.923  1.00  0.00    -0.285 OA
ATOM      5  C   UNL     1       8.182  14.258 -18.133  1.00  0.00     0.111 A 
ATOM      6  C   UNL     1       7.954  15.330 -19.031  1.00  0.00     0.134 A 
ATOM      7  C   UNL     1       8.887  15.599 -20.043  1.00  0.00     0.093 A 
ATOM      8  C   UNL     1      10.041  14.819 -20.175  1.00  0.00     0.123 A 
ATOM      9  C   UNL     1      10.270  13.762 -19.292  1.00  0.00     0.094 A 
ATOM     10  C   UNL     1       9.353  13.478 -18.276  1.00  0.00     0.146 A 
ATOM     11  O   UNL     1       9.599  12.471 -17.446  1.00  0.00    -0.452 OA
ENDROOT
BRANCH   1  12
ATOM     12  C   UNL     1       9.181  10.993 -15.587  1.00  0.00     0.025 A 
ATOM     13  C   UNL     1       8.229  10.079 -15.100  1.00  0.00     0.016 A 
ATOM     14  C   UNL     1       8.622   9.026 -14.268  1.00  0.00     0.051 A 
ATOM     15  C   UNL     1       9.966   8.879 -13.900  1.00  0.00     0.157 A 
ATOM     16  C   UNL     1      10.523  10.852 -15.198  1.00  0.00     0.062 A 
ATOM     17  C   UNL     1      10.920   9.799 -14.366  1.00  0.00     0.158 A 
BRANCH  15  18
ATOM     18  O   UNL     1      10.354   7.826 -13.073  1.00  0.00    -0.504 OA
ATOM     19  H   UNL     1      10.807   6.999 -13.445  1.00  0.00     0.293 HD
ENDBRANCH  15  18
BRANCH  17  20
ATOM     20  O   UNL     1      12.264   9.685 -14.012  1.00  0.00    -0.504 OA
ATOM     21  H   UNL     1      12.878   9.005 -14.445  1.00  0.00     0.293 HD
ENDBRANCH  17  20
ENDBRANCH   1  12
BRANCH   2  22
ATOM     22  O   UNL     1       6.695  12.451 -15.247  1.00  0.00    -0.502 OA
ATOM     23  H   UNL     1       6.433  11.483 -15.099  1.00  0.00     0.293 HD
ENDBRANCH   2  22
BRANCH   6  24
ATOM     24  O   UNL     1       6.812  16.125 -18.926  1.00  0.00    -0.507 OA
ATOM     25  H   UNL     1       6.859  17.088 -18.615  1.00  0.00     0.293 HD
ENDBRANCH   6  24
BRANCH   8  26
ATOM     26  O   UNL     1      10.967  15.085 -21.181  1.00  0.00    -0.508 OA
ATOM     27  H   UNL     1      11.057  16.009 -21.588  1.00  0.00     0.293 HD
ENDBRANCH   8  26
TORSDOF 6
ENDMDL
