MODEL 1
REMARK VINA RESULT:    -5.653      0.000      0.000
REMARK INTER + INTRA:          -9.770
REMARK INTER:                  -8.958
REMARK INTRA:                  -0.812
REMARK UNBOUND:                -0.812
REMARK SMILES CCCCCCCCCCCC(=O)[O-]
REMARK SMILES IDX 7 1 8 2 9 3 10 4 11 5 12 6 13 7 14 8 6 9 5 10 4 11 3 12 2 13
REMARK SMILES IDX 1 14
REMARK H PARENT
REMARK Flexibility Score: inf
ROOT
ATOM      1  C   UNL     1      62.978 151.605   3.181  1.00  0.00     0.000 C 
ENDROOT
BRANCH   1   2
ATOM      2  C   UNL     1      63.974 152.369   4.067  1.00  0.00     0.000 C 
BRANCH   2   3
ATOM      3  C   UNL     1      65.219 151.533   4.414  1.00  0.00     0.000 C 
BRANCH   3   4
ATOM      4  C   UNL     1      65.044 150.035   4.109  1.00  0.00     0.006 C 
BRANCH   4   5
ATOM      5  C   UNL     1      64.968 149.148   5.364  1.00  0.00     0.053 C 
BRANCH   5   6
ATOM      6  C   UNL     1      63.560 148.931   5.831  1.00  0.00     0.041 C 
ATOM      7  O   UNL     1      63.040 149.719   6.664  1.00  0.00    -0.550 OA
ATOM      8  O   UNL     1      62.832 147.839   5.372  1.00  0.00    -0.550 OA
ENDBRANCH   5   6
ENDBRANCH   4   5
ENDBRANCH   3   4
ENDBRANCH   2   3
ENDBRANCH   1   2
BRANCH   1   9
ATOM      9  C   UNL     1      61.585 151.497   3.819  1.00  0.00     0.000 C 
BRANCH   9  10
ATOM     10  C   UNL     1      60.535 152.242   2.981  1.00  0.00    -0.000 C 
BRANCH  10  11
ATOM     11  C   UNL     1      61.124 152.793   1.666  1.00  0.00    -0.000 C 
BRANCH  11  12
ATOM     12  C   UNL     1      60.165 153.722   0.902  1.00  0.00    -0.000 C 
BRANCH  12  13
ATOM     13  C   UNL     1      58.796 153.858   1.584  1.00  0.00    -0.003 C 
ATOM     14  C   UNL     1      58.174 155.223   1.301  1.00  0.00     0.004 C 
ENDBRANCH  12  13
ENDBRANCH  11  12
ENDBRANCH  10  11
ENDBRANCH   9  10
ENDBRANCH   1   9
TORSDOF 10
ENDMDL
MODEL 2
REMARK VINA RESULT:    -5.505      3.349      6.549
REMARK INTER + INTRA:          -9.535
REMARK INTER:                  -8.676
REMARK INTRA:                  -0.860
REMARK UNBOUND:                -0.812
REMARK SMILES CCCCCCCCCCCC(=O)[O-]
REMARK SMILES IDX 7 1 8 2 9 3 10 4 11 5 12 6 13 7 14 8 6 9 5 10 4 11 3 12 2 13
REMARK SMILES IDX 1 14
REMARK H PARENT
REMARK Flexibility Score: inf
ROOT
ATOM      1  C   UNL     1      64.045 152.272   4.297  1.00  0.00     0.000 C 
ENDROOT
BRANCH   1   2
ATOM      2  C   UNL     1      63.307 151.567   3.149  1.00  0.00     0.000 C 
BRANCH   2   3
ATOM      3  C   UNL     1      61.777 151.660   3.283  1.00  0.00     0.000 C 
BRANCH   3   4
ATOM      4  C   UNL     1      61.104 152.322   2.068  1.00  0.00     0.006 C 
BRANCH   4   5
ATOM      5  C   UNL     1      59.751 152.982   2.387  1.00  0.00     0.053 C 
BRANCH   5   6
ATOM      6  C   UNL     1      59.271 153.873   1.282  1.00  0.00     0.041 C 
ATOM      7  O   UNL     1      59.927 153.964   0.211  1.00  0.00    -0.550 OA
ATOM      8  O   UNL     1      58.117 154.630   1.446  1.00  0.00    -0.550 OA
ENDBRANCH   5   6
ENDBRANCH   4   5
ENDBRANCH   3   4
ENDBRANCH   2   3
ENDBRANCH   1   2
BRANCH   1   9
ATOM      9  C   UNL     1      65.042 151.348   5.013  1.00  0.00     0.000 C 
BRANCH   9  10
ATOM     10  C   UNL     1      64.904 149.900   4.519  1.00  0.00    -0.000 C 
BRANCH  10  11
ATOM     11  C   UNL     1      64.461 148.941   5.643  1.00  0.00    -0.000 C 
BRANCH  11  12
ATOM     12  C   UNL     1      63.135 149.342   6.310  1.00  0.00    -0.000 C 
BRANCH  12  13
ATOM     13  C   UNL     1      61.921 148.620   5.708  1.00  0.00    -0.003 C 
ATOM     14  C   UNL     1      62.294 147.218   5.234  1.00  0.00     0.004 C 
ENDBRANCH  12  13
ENDBRANCH  11  12
ENDBRANCH  10  11
ENDBRANCH   9  10
ENDBRANCH   1   9
TORSDOF 10
ENDMDL
MODEL 3
REMARK VINA RESULT:    -5.400      3.194      6.296
REMARK INTER + INTRA:          -9.368
REMARK INTER:                  -8.275
REMARK INTRA:                  -1.094
REMARK UNBOUND:                -0.812
REMARK SMILES CCCCCCCCCCCC(=O)[O-]
REMARK SMILES IDX 7 1 8 2 9 3 10 4 11 5 12 6 13 7 14 8 6 9 5 10 4 11 3 12 2 13
REMARK SMILES IDX 1 14
REMARK H PARENT
REMARK Flexibility Score: inf
ROOT
ATOM      1  C   UNL     1      64.269 152.266   4.224  1.00  0.00     0.000 C 
ENDROOT
BRANCH   1   2
ATOM      2  C   UNL     1      63.326 151.506   3.279  1.00  0.00     0.000 C 
BRANCH   2   3
ATOM      3  C   UNL     1      61.853 151.596   3.715  1.00  0.00     0.000 C 
BRANCH   3   4
ATOM      4  C   UNL     1      60.882 151.749   2.530  1.00  0.00     0.006 C 
BRANCH   4   5
ATOM      5  C   UNL     1      61.199 152.945   1.615  1.00  0.00     0.053 C 
BRANCH   5   6
ATOM      6  C   UNL     1      59.963 153.613   1.094  1.00  0.00     0.041 C 
ATOM      7  O   UNL     1      58.940 153.713   1.822  1.00  0.00    -0.550 OA
ATOM      8  O   UNL     1      59.927 154.097  -0.209  1.00  0.00    -0.550 OA
ENDBRANCH   5   6
ENDBRANCH   4   5
ENDBRANCH   3   4
ENDBRANCH   2   3
ENDBRANCH   1   2
BRANCH   1   9
ATOM      9  C   UNL     1      65.106 151.326   5.104  1.00  0.00     0.000 C 
BRANCH   9  10
ATOM     10  C   UNL     1      64.955 149.867   4.651  1.00  0.00    -0.000 C 
BRANCH  10  11
ATOM     11  C   UNL     1      64.421 148.958   5.778  1.00  0.00    -0.000 C 
BRANCH  11  12
ATOM     12  C   UNL     1      63.076 148.289   5.446  1.00  0.00    -0.000 C 
BRANCH  12  13
ATOM     13  C   UNL     1      61.906 148.869   6.253  1.00  0.00    -0.003 C 
ATOM     14  C   UNL     1      62.387 149.933   7.235  1.00  0.00     0.004 C 
ENDBRANCH  12  13
ENDBRANCH  11  12
ENDBRANCH  10  11
ENDBRANCH   9  10
ENDBRANCH   1   9
TORSDOF 10
ENDMDL
MODEL 4
REMARK VINA RESULT:    -5.304      0.888      1.665
REMARK INTER + INTRA:          -9.217
REMARK INTER:                  -8.329
REMARK INTRA:                  -0.888
REMARK UNBOUND:                -0.812
REMARK SMILES CCCCCCCCCCCC(=O)[O-]
REMARK SMILES IDX 7 1 8 2 9 3 10 4 11 5 12 6 13 7 14 8 6 9 5 10 4 11 3 12 2 13
REMARK SMILES IDX 1 14
REMARK H PARENT
REMARK Flexibility Score: inf
ROOT
ATOM      1  C   UNL     1      61.649 151.430   3.315  1.00  0.00     0.000 C 
ENDROOT
BRANCH   1   2
ATOM      2  C   UNL     1      63.107 151.888   3.157  1.00  0.00     0.000 C 
BRANCH   2   3
ATOM      3  C   UNL     1      63.970 151.550   4.386  1.00  0.00     0.000 C 
BRANCH   3   4
ATOM      4  C   UNL     1      64.898 150.344   4.157  1.00  0.00     0.006 C 
BRANCH   4   5
ATOM      5  C   UNL     1      64.972 149.379   5.354  1.00  0.00     0.053 C 
BRANCH   5   6
ATOM      6  C   UNL     1      63.617 148.964   5.843  1.00  0.00     0.041 C 
ATOM      7  O   UNL     1      62.996 148.029   5.272  1.00  0.00    -0.550 OA
ATOM      8  O   UNL     1      63.024 149.633   6.908  1.00  0.00    -0.550 OA
ENDBRANCH   5   6
ENDBRANCH   4   5
ENDBRANCH   3   4
ENDBRANCH   2   3
ENDBRANCH   1   2
BRANCH   1   9
ATOM      9  C   UNL     1      61.005 151.948   4.610  1.00  0.00     0.000 C 
BRANCH   9  10
ATOM     10  C   UNL     1      59.830 152.888   4.303  1.00  0.00    -0.000 C 
BRANCH  10  11
ATOM     11  C   UNL     1      59.284 152.692   2.873  1.00  0.00    -0.000 C 
BRANCH  11  12
ATOM     12  C   UNL     1      58.979 154.011   2.143  1.00  0.00    -0.000 C 
BRANCH  12  13
ATOM     13  C   UNL     1      59.434 154.001   0.677  1.00  0.00    -0.003 C 
ATOM     14  C   UNL     1      60.950 153.868   0.571  1.00  0.00     0.004 C 
ENDBRANCH  12  13
ENDBRANCH  11  12
ENDBRANCH  10  11
ENDBRANCH   9  10
ENDBRANCH   1   9
TORSDOF 10
ENDMDL
MODEL 5
REMARK VINA RESULT:    -5.170      2.516      6.397
REMARK INTER + INTRA:          -9.004
REMARK INTER:                  -8.196
REMARK INTRA:                  -0.809
REMARK UNBOUND:                -0.812
REMARK SMILES CCCCCCCCCCCC(=O)[O-]
REMARK SMILES IDX 7 1 8 2 9 3 10 4 11 5 12 6 13 7 14 8 6 9 5 10 4 11 3 12 2 13
REMARK SMILES IDX 1 14
REMARK H PARENT
REMARK Flexibility Score: inf
ROOT
ATOM      1  C   UNL     1      61.237 151.860   2.075  1.00  0.00     0.000 C 
ENDROOT
BRANCH   1   2
ATOM      2  C   UNL     1      61.307 153.201   1.330  1.00  0.00     0.000 C 
BRANCH   2   3
ATOM      3  C   UNL     1      59.919 153.727   0.925  1.00  0.00     0.000 C 
BRANCH   3   4
ATOM      4  C   UNL     1      58.827 153.409   1.962  1.00  0.00     0.006 C 
BRANCH   4   5
ATOM      5  C   UNL     1      58.632 154.509   3.019  1.00  0.00     0.053 C 
BRANCH   5   6
ATOM      6  C   UNL     1      58.969 154.043   4.403  1.00  0.00     0.041 C 
ATOM      7  O   UNL     1      58.849 152.828   4.710  1.00  0.00    -0.550 OA
ATOM      8  O   UNL     1      59.385 154.956   5.366  1.00  0.00    -0.550 OA
ENDBRANCH   5   6
ENDBRANCH   4   5
ENDBRANCH   3   4
ENDBRANCH   2   3
ENDBRANCH   1   2
BRANCH   1   9
ATOM      9  C   UNL     1      62.017 151.878   3.398  1.00  0.00     0.000 C 
BRANCH   9  10
ATOM     10  C   UNL     1      63.491 151.507   3.175  1.00  0.00    -0.000 C 
BRANCH  10  11
ATOM     11  C   UNL     1      64.425 152.189   4.196  1.00  0.00    -0.000 C 
BRANCH  11  12
ATOM     12  C   UNL     1      64.816 151.283   5.375  1.00  0.00    -0.000 C 
BRANCH  12  13
ATOM     13  C   UNL     1      64.974 149.810   4.971  1.00  0.00    -0.003 C 
ATOM     14  C   UNL     1      64.088 148.907   5.824  1.00  0.00     0.004 C 
ENDBRANCH  12  13
ENDBRANCH  11  12
ENDBRANCH  10  11
ENDBRANCH   9  10
ENDBRANCH   1   9
TORSDOF 10
ENDMDL
MODEL 6
REMARK VINA RESULT:    -5.136      1.349      2.057
REMARK INTER + INTRA:          -8.951
REMARK INTER:                  -8.262
REMARK INTRA:                  -0.689
REMARK UNBOUND:                -0.812
REMARK SMILES CCCCCCCCCCCC(=O)[O-]
REMARK SMILES IDX 7 1 8 2 9 3 10 4 11 5 12 6 13 7 14 8 6 9 5 10 4 11 3 12 2 13
REMARK SMILES IDX 1 14
REMARK H PARENT
REMARK Flexibility Score: inf
ROOT
ATOM      1  C   UNL     1      62.452 151.950   2.777  1.00  0.00     0.000 C 
ENDROOT
BRANCH   1   2
ATOM      2  C   UNL     1      62.222 151.662   4.268  1.00  0.00     0.000 C 
BRANCH   2   3
ATOM      3  C   UNL     1      63.520 151.736   5.092  1.00  0.00     0.000 C 
BRANCH   3   4
ATOM      4  C   UNL     1      64.783 151.468   4.254  1.00  0.00     0.006 C 
BRANCH   4   5
ATOM      5  C   UNL     1      65.041 149.977   3.974  1.00  0.00     0.053 C 
BRANCH   5   6
ATOM      6  C   UNL     1      64.810 149.118   5.180  1.00  0.00     0.041 C 
ATOM      7  O   UNL     1      65.731 148.945   6.021  1.00  0.00    -0.550 OA
ATOM      8  O   UNL     1      63.588 148.479   5.359  1.00  0.00    -0.550 OA
ENDBRANCH   5   6
ENDBRANCH   4   5
ENDBRANCH   3   4
ENDBRANCH   2   3
ENDBRANCH   1   2
BRANCH   1   9
ATOM      9  C   UNL     1      61.141 152.007   1.979  1.00  0.00     0.000 C 
BRANCH   9  10
ATOM     10  C   UNL     1      61.029 153.324   1.195  1.00  0.00    -0.000 C 
BRANCH  10  11
ATOM     11  C   UNL     1      59.567 153.796   1.053  1.00  0.00    -0.000 C 
BRANCH  11  12
ATOM     12  C   UNL     1      58.657 153.341   2.207  1.00  0.00    -0.000 C 
BRANCH  12  13
ATOM     13  C   UNL     1      58.802 154.214   3.462  1.00  0.00    -0.003 C 
ATOM     14  C   UNL     1      58.841 153.359   4.725  1.00  0.00     0.004 C 
ENDBRANCH  12  13
ENDBRANCH  11  12
ENDBRANCH  10  11
ENDBRANCH   9  10
ENDBRANCH   1   9
TORSDOF 10
ENDMDL
MODEL 7
REMARK VINA RESULT:    -5.110      3.438      6.048
REMARK INTER + INTRA:          -8.909
REMARK INTER:                  -7.859
REMARK INTRA:                  -1.050
REMARK UNBOUND:                -0.812
REMARK SMILES CCCCCCCCCCCC(=O)[O-]
REMARK SMILES IDX 7 1 8 2 9 3 10 4 11 5 12 6 13 7 14 8 6 9 5 10 4 11 3 12 2 13
REMARK SMILES IDX 1 14
REMARK H PARENT
REMARK Flexibility Score: inf
ROOT
ATOM      1  C   UNL     1      64.611 150.735   3.871  1.00  0.00     0.000 C 
ENDROOT
BRANCH   1   2
ATOM      2  C   UNL     1      63.671 151.920   3.604  1.00  0.00     0.000 C 
BRANCH   2   3
ATOM      3  C   UNL     1      62.204 151.486   3.436  1.00  0.00     0.000 C 
BRANCH   3   4
ATOM      4  C   UNL     1      61.602 151.906   2.083  1.00  0.00     0.006 C 
BRANCH   4   5
ATOM      5  C   UNL     1      60.317 152.743   2.206  1.00  0.00     0.053 C 
BRANCH   5   6
ATOM      6  C   UNL     1      60.154 153.715   1.078  1.00  0.00     0.041 C 
ATOM      7  O   UNL     1      61.116 153.951   0.299  1.00  0.00    -0.550 OA
ATOM      8  O   UNL     1      58.950 154.389   0.904  1.00  0.00    -0.550 OA
ENDBRANCH   5   6
ENDBRANCH   4   5
ENDBRANCH   3   4
ENDBRANCH   2   3
ENDBRANCH   1   2
BRANCH   1   9
ATOM      9  C   UNL     1      64.669 150.351   5.357  1.00  0.00     0.000 C 
BRANCH   9  10
ATOM     10  C   UNL     1      64.133 148.929   5.580  1.00  0.00    -0.000 C 
BRANCH  10  11
ATOM     11  C   UNL     1      62.676 148.927   6.087  1.00  0.00    -0.000 C 
BRANCH  11  12
ATOM     12  C   UNL     1      62.420 149.923   7.231  1.00  0.00    -0.000 C 
BRANCH  12  13
ATOM     13  C   UNL     1      61.193 150.812   6.986  1.00  0.00    -0.003 C 
ATOM     14  C   UNL     1      61.585 152.286   6.923  1.00  0.00     0.004 C 
ENDBRANCH  12  13
ENDBRANCH  11  12
ENDBRANCH  10  11
ENDBRANCH   9  10
ENDBRANCH   1   9
TORSDOF 10
ENDMDL
MODEL 8
REMARK VINA RESULT:    -5.028      3.332      6.354
REMARK INTER + INTRA:          -8.779
REMARK INTER:                  -7.687
REMARK INTRA:                  -1.092
REMARK UNBOUND:                -0.812
REMARK SMILES CCCCCCCCCCCC(=O)[O-]
REMARK SMILES IDX 7 1 8 2 9 3 10 4 11 5 12 6 13 7 14 8 6 9 5 10 4 11 3 12 2 13
REMARK SMILES IDX 1 14
REMARK H PARENT
REMARK Flexibility Score: inf
ROOT
ATOM      1  C   UNL     1      61.730 150.784   5.996  1.00  0.00     0.000 C 
ENDROOT
BRANCH   1   2
ATOM      2  C   UNL     1      61.314 151.873   4.995  1.00  0.00     0.000 C 
BRANCH   2   3
ATOM      3  C   UNL     1      61.592 151.472   3.536  1.00  0.00     0.000 C 
BRANCH   3   4
ATOM      4  C   UNL     1      60.520 151.983   2.556  1.00  0.00     0.006 C 
BRANCH   4   5
ATOM      5  C   UNL     1      61.030 153.058   1.580  1.00  0.00     0.053 C 
BRANCH   5   6
ATOM      6  C   UNL     1      59.915 153.800   0.908  1.00  0.00     0.041 C 
ATOM      7  O   UNL     1      60.008 154.123  -0.305  1.00  0.00    -0.550 OA
ATOM      8  O   UNL     1      58.785 154.166   1.631  1.00  0.00    -0.550 OA
ENDBRANCH   5   6
ENDBRANCH   4   5
ENDBRANCH   3   4
ENDBRANCH   2   3
ENDBRANCH   1   2
BRANCH   1   9
ATOM      9  C   UNL     1      61.510 149.365   5.449  1.00  0.00     0.000 C 
BRANCH   9  10
ATOM     10  C   UNL     1      62.797 148.532   5.547  1.00  0.00    -0.000 C 
BRANCH  10  11
ATOM     11  C   UNL     1      64.033 149.402   5.854  1.00  0.00    -0.000 C 
BRANCH  11  12
ATOM     12  C   UNL     1      64.982 149.571   4.655  1.00  0.00    -0.000 C 
BRANCH  12  13
ATOM     13  C   UNL     1      65.023 151.011   4.124  1.00  0.00    -0.003 C 
ATOM     14  C   UNL     1      65.122 152.017   5.268  1.00  0.00     0.004 C 
ENDBRANCH  12  13
ENDBRANCH  11  12
ENDBRANCH  10  11
ENDBRANCH   9  10
ENDBRANCH   1   9
TORSDOF 10
ENDMDL
MODEL 9
REMARK VINA RESULT:    -5.011      2.891      5.776
REMARK INTER + INTRA:          -8.753
REMARK INTER:                  -7.944
REMARK INTRA:                  -0.810
REMARK UNBOUND:                -0.812
REMARK SMILES CCCCCCCCCCCC(=O)[O-]
REMARK SMILES IDX 7 1 8 2 9 3 10 4 11 5 12 6 13 7 14 8 6 9 5 10 4 11 3 12 2 13
REMARK SMILES IDX 1 14
REMARK H PARENT
REMARK Flexibility Score: inf
ROOT
ATOM      1  C   UNL     1      65.039 150.134   4.062  1.00  0.00     0.000 C 
ENDROOT
BRANCH   1   2
ATOM      2  C   UNL     1      64.641 151.569   4.437  1.00  0.00     0.000 C 
BRANCH   2   3
ATOM      3  C   UNL     1      63.647 152.187   3.438  1.00  0.00     0.000 C 
BRANCH   3   4
ATOM      4  C   UNL     1      62.277 151.486   3.438  1.00  0.00     0.006 C 
BRANCH   4   5
ATOM      5  C   UNL     1      61.378 151.875   2.251  1.00  0.00     0.053 C 
BRANCH   5   6
ATOM      6  C   UNL     1      60.182 152.673   2.673  1.00  0.00     0.041 C 
ATOM      7  O   UNL     1      59.404 153.156   1.808  1.00  0.00    -0.550 OA
ATOM      8  O   UNL     1      59.943 152.915   4.022  1.00  0.00    -0.550 OA
ENDBRANCH   5   6
ENDBRANCH   4   5
ENDBRANCH   3   4
ENDBRANCH   2   3
ENDBRANCH   1   2
BRANCH   1   9
ATOM      9  C   UNL     1      65.070 149.194   5.277  1.00  0.00     0.000 C 
BRANCH   9  10
ATOM     10  C   UNL     1      63.737 149.233   6.038  1.00  0.00    -0.000 C 
BRANCH  10  11
ATOM     11  C   UNL     1      62.735 148.183   5.515  1.00  0.00    -0.000 C 
BRANCH  11  12
ATOM     12  C   UNL     1      61.264 148.548   5.777  1.00  0.00    -0.000 C 
BRANCH  12  13
ATOM     13  C   UNL     1      60.618 147.680   6.866  1.00  0.00    -0.003 C 
ATOM     14  C   UNL     1      59.407 148.377   7.479  1.00  0.00     0.004 C 
ENDBRANCH  12  13
ENDBRANCH  11  12
ENDBRANCH  10  11
ENDBRANCH   9  10
ENDBRANCH   1   9
TORSDOF 10
ENDMDL
