MODEL 1
REMARK VINA RESULT:    51.401      0.000      0.000
REMARK INTER + INTRA:          84.431
REMARK INTER:                  84.455
REMARK INTRA:                  -0.023
REMARK UNBOUND:                -0.023
REMARK SMILES COc1ccc([C@H]2CC(=O)c3c(O)cc(O[C@H]4O[C@H](CO[C@H]5O[C@@H](C)[C@H](O)[C@@H](O)[C@@H]5O)[C@@H](O)[C@@H](O)[C@@H]4O)cc3O2)cc1O
REMARK SMILES IDX 19 1 32 2 34 3 36 4 17 5 18 6 20 7 21 8 22 9 25 10 24 11
REMARK SMILES IDX 26 12 23 13 28 14 30 15 27 16 29 18 31 20 33 22 35 24 16 26
REMARK SMILES IDX 15 27 14 28 38 29 12 30 39 31 11 32 40 33 9 34 7 35 10 36
REMARK SMILES IDX 8 37 13 38 6 40 41 41 5 42 42 43 4 44 3 45 43 46 2 48 1 49
REMARK SMILES IDX 37 50
REMARK H PARENT 27 17 29 19 31 21 33 23 35 25 13 39 43 47 37 51
REMARK Flexibility Score: inf
ROOT
ATOM      1  C   UNL     1       7.048 176.687  45.516  1.00  0.00     0.180 C 
ATOM      2  C   UNL     1       5.864 177.140  44.582  1.00  0.00     0.177 C 
ATOM      3  C   UNL     1       4.523 176.489  44.954  1.00  0.00     0.180 C 
ATOM      4  C   UNL     1       4.703 174.988  45.227  1.00  0.00     0.214 C 
ATOM      5  C   UNL     1       5.859 174.763  46.222  1.00  0.00     0.339 C 
ATOM      6  O   UNL     1       7.084 175.277  45.720  1.00  0.00    -0.332 OA
ENDROOT
BRANCH   1   7
ATOM      7  C   UNL     1       7.176 177.472  46.859  1.00  0.00     0.198 C 
BRANCH   7   8
ATOM      8  O   UNL     1       8.438 178.125  46.952  1.00  0.00    -0.347 OA
BRANCH   8   9
ATOM      9  C   UNL     1       9.518 177.314  46.519  1.00  0.00     0.281 C 
ATOM     10  C   UNL     1      12.362 178.125  44.333  1.00  0.00     0.041 C 
ATOM     11  C   UNL     1      11.434 177.260  45.202  1.00  0.00     0.150 C 
ATOM     12  C   UNL     1      12.249 176.434  46.256  1.00  0.00     0.174 C 
ATOM     13  O   UNL     1      10.480 178.092  45.829  1.00  0.00    -0.344 OA
ATOM     14  C   UNL     1      11.693 176.627  47.673  1.00  0.00     0.179 C 
ATOM     15  C   UNL     1      10.158 176.514  47.689  1.00  0.00     0.202 C 
BRANCH  12  16
ATOM     16  O   UNL     1      12.218 175.075  45.919  1.00  0.00    -0.388 OA
ATOM     17  H   UNL     1      12.303 175.014  44.932  1.00  0.00     0.211 HD
ENDBRANCH  12  16
BRANCH  14  18
ATOM     18  O   UNL     1      12.075 177.880  48.146  1.00  0.00    -0.387 OA
ATOM     19  H   UNL     1      12.697 178.283  47.476  1.00  0.00     0.211 HD
ENDBRANCH  14  18
BRANCH  15  20
ATOM     20  O   UNL     1       9.785 175.166  47.568  1.00  0.00    -0.385 OA
ATOM     21  H   UNL     1      10.104 174.859  46.679  1.00  0.00     0.211 HD
ENDBRANCH  15  20
ENDBRANCH   8   9
ENDBRANCH   7   8
ENDBRANCH   1   7
BRANCH   2  22
ATOM     22  O   UNL     1       6.192 176.873  43.233  1.00  0.00    -0.387 OA
ATOM     23  H   UNL     1       5.827 175.974  43.000  1.00  0.00     0.211 HD
ENDBRANCH   2  22
BRANCH   3  24
ATOM     24  O   UNL     1       3.598 176.692  43.919  1.00  0.00    -0.387 OA
ATOM     25  H   UNL     1       3.354 177.657  43.920  1.00  0.00     0.211 HD
ENDBRANCH   3  24
BRANCH   5  26
ATOM     26  O   UNL     1       5.966 173.354  46.450  1.00  0.00    -0.462 OA
BRANCH  26  27
ATOM     27  C   UNL     1       7.146 172.626  46.289  1.00  0.00     0.130 A 
ATOM     28  C   UNL     1       8.152 173.099  45.435  1.00  0.00     0.093 A 
ATOM     29  C   UNL     1       7.314 171.387  46.932  1.00  0.00     0.094 A 
ATOM     30  C   UNL     1       9.331 172.358  45.227  1.00  0.00     0.133 A 
ATOM     31  C   UNL     1       8.497 170.650  46.752  1.00  0.00     0.138 A 
ATOM     32  C   UNL     1       9.502 171.119  45.881  1.00  0.00     0.102 A 
ATOM     33  O   UNL     1       8.662 169.423  47.414  1.00  0.00    -0.484 OA
ATOM     34  C   UNL     1      10.682 170.251  45.634  1.00  0.00     0.174 C 
ATOM     35  C   UNL     1       9.909 168.726  47.441  1.00  0.00     0.211 C 
ATOM     36  O   UNL     1      11.677 170.677  44.996  1.00  0.00    -0.294 OA
ATOM     37  C   UNL     1      10.643 168.825  46.094  1.00  0.00     0.131 C 
BRANCH  30  38
ATOM     38  O   UNL     1      10.312 172.839  44.351  1.00  0.00    -0.507 OA
ATOM     39  H   UNL     1      10.375 172.484  43.396  1.00  0.00     0.293 HD
ENDBRANCH  30  38
BRANCH  35  40
ATOM     40  C   UNL     1       9.664 167.284  47.817  1.00  0.00    -0.003 A 
ATOM     41  C   UNL     1       9.929 166.252  46.909  1.00  0.00     0.057 A 
ATOM     42  C   UNL     1       9.163 166.960  49.091  1.00  0.00     0.011 A 
ATOM     43  C   UNL     1       9.821 164.905  47.297  1.00  0.00     0.158 A 
ATOM     44  C   UNL     1       9.035 165.617  49.475  1.00  0.00     0.051 A 
ATOM     45  C   UNL     1       9.399 164.577  48.598  1.00  0.00     0.160 A 
BRANCH  43  46
ATOM     46  O   UNL     1      10.141 163.882  46.404  1.00  0.00    -0.504 OA
ATOM     47  H   UNL     1      10.643 163.049  46.693  1.00  0.00     0.293 HD
ENDBRANCH  43  46
BRANCH  45  48
ATOM     48  O   UNL     1       9.374 163.231  48.987  1.00  0.00    -0.493 OA
ATOM     49  C   UNL     1      10.206 162.217  48.404  1.00  0.00     0.278 C 
ENDBRANCH  45  48
ENDBRANCH  35  40
ENDBRANCH  26  27
ENDBRANCH   5  26
BRANCH   4  50
ATOM     50  O   UNL     1       3.514 174.416  45.704  1.00  0.00    -0.384 OA
ATOM     51  H   UNL     1       3.629 173.436  45.729  1.00  0.00     0.211 HD
ENDBRANCH   4  50
TORSDOF 15
ENDMDL
