MODEL 1
REMARK VINA RESULT:    -3.655      0.000      0.000
REMARK INTER + INTRA:          -5.153
REMARK INTER:                  -4.937
REMARK INTRA:                  -0.217
REMARK UNBOUND:                -0.217
REMARK SMILES CCCCCCCC(=O)[O-]
REMARK SMILES IDX 5 1 6 2 7 3 8 4 9 5 10 6 4 7 3 8 2 9 1 10
REMARK H PARENT
REMARK Flexibility Score: inf
ROOT
ATOM      1  C   UNL     1      -1.010  18.801  29.426  1.00  0.00     0.000 C 
ENDROOT
BRANCH   1   2
ATOM      2  C   UNL     1      -0.726  17.448  28.755  1.00  0.00     0.006 C 
BRANCH   2   3
ATOM      3  C   UNL     1       0.390  17.542  27.706  1.00  0.00     0.053 C 
BRANCH   3   4
ATOM      4  C   UNL     1       1.393  16.440  27.862  1.00  0.00     0.041 C 
ATOM      5  O   UNL     1       1.213  15.537  28.721  1.00  0.00    -0.550 OA
ATOM      6  O   UNL     1       2.542  16.429  27.082  1.00  0.00    -0.550 OA
ENDBRANCH   3   4
ENDBRANCH   2   3
ENDBRANCH   1   2
BRANCH   1   7
ATOM      7  C   UNL     1      -2.500  19.155  29.340  1.00  0.00     0.000 C 
BRANCH   7   8
ATOM      8  C   UNL     1      -2.761  20.567  29.886  1.00  0.00    -0.000 C 
BRANCH   8   9
ATOM      9  C   UNL     1      -1.466  21.312  30.243  1.00  0.00    -0.003 C 
ATOM     10  C   UNL     1      -1.699  22.791  30.549  1.00  0.00     0.004 C 
ENDBRANCH   8   9
ENDBRANCH   7   8
ENDBRANCH   1   7
TORSDOF 6
ENDMDL
MODEL 2
REMARK VINA RESULT:    -3.600      1.134      1.729
REMARK INTER + INTRA:          -5.080
REMARK INTER:                  -4.828
REMARK INTRA:                  -0.252
REMARK UNBOUND:                -0.217
REMARK SMILES CCCCCCCC(=O)[O-]
REMARK SMILES IDX 5 1 6 2 7 3 8 4 9 5 10 6 4 7 3 8 2 9 1 10
REMARK H PARENT
REMARK Flexibility Score: inf
ROOT
ATOM      1  C   UNL     1       0.639  18.902  29.664  1.00  0.00     0.000 C 
ENDROOT
BRANCH   1   2
ATOM      2  C   UNL     1       0.233  17.552  29.054  1.00  0.00     0.006 C 
BRANCH   2   3
ATOM      3  C   UNL     1       0.751  17.383  27.619  1.00  0.00     0.053 C 
BRANCH   3   4
ATOM      4  C   UNL     1       2.058  16.650  27.583  1.00  0.00     0.041 C 
ATOM      5  O   UNL     1       3.142  17.282  27.693  1.00  0.00    -0.550 OA
ATOM      6  O   UNL     1       2.079  15.274  27.393  1.00  0.00    -0.550 OA
ENDBRANCH   3   4
ENDBRANCH   2   3
ENDBRANCH   1   2
BRANCH   1   7
ATOM      7  C   UNL     1      -0.593  19.766  29.957  1.00  0.00     0.000 C 
BRANCH   7   8
ATOM      8  C   UNL     1      -1.868  19.113  29.400  1.00  0.00    -0.000 C 
BRANCH   8   9
ATOM      9  C   UNL     1      -3.125  19.956  29.661  1.00  0.00    -0.003 C 
ATOM     10  C   UNL     1      -2.801  21.411  30.002  1.00  0.00     0.004 C 
ENDBRANCH   8   9
ENDBRANCH   7   8
ENDBRANCH   1   7
TORSDOF 6
ENDMDL
MODEL 3
REMARK VINA RESULT:    -3.576      3.221      4.389
REMARK INTER + INTRA:          -5.046
REMARK INTER:                  -4.819
REMARK INTRA:                  -0.228
REMARK UNBOUND:                -0.217
REMARK SMILES CCCCCCCC(=O)[O-]
REMARK SMILES IDX 5 1 6 2 7 3 8 4 9 5 10 6 4 7 3 8 2 9 1 10
REMARK H PARENT
REMARK Flexibility Score: inf
ROOT
ATOM      1  C   UNL     1       0.589  15.858  30.025  1.00  0.00     0.000 C 
ENDROOT
BRANCH   1   2
ATOM      2  C   UNL     1       0.267  14.435  30.506  1.00  0.00     0.006 C 
BRANCH   2   3
ATOM      3  C   UNL     1      -0.985  13.862  29.828  1.00  0.00     0.053 C 
BRANCH   3   4
ATOM      4  C   UNL     1      -0.952  12.365  29.774  1.00  0.00     0.041 C 
ATOM      5  O   UNL     1      -0.149  11.777  29.002  1.00  0.00    -0.550 OA
ATOM      6  O   UNL     1      -1.830  11.620  30.551  1.00  0.00    -0.550 OA
ENDBRANCH   3   4
ENDBRANCH   2   3
ENDBRANCH   1   2
BRANCH   1   7
ATOM      7  C   UNL     1      -0.485  16.368  29.056  1.00  0.00     0.000 C 
BRANCH   7   8
ATOM      8  C   UNL     1      -0.145  17.779  28.552  1.00  0.00    -0.000 C 
BRANCH   8   9
ATOM      9  C   UNL     1      -0.762  18.882  29.425  1.00  0.00    -0.003 C 
ATOM     10  C   UNL     1      -2.278  18.984  29.267  1.00  0.00     0.004 C 
ENDBRANCH   8   9
ENDBRANCH   7   8
ENDBRANCH   1   7
TORSDOF 6
ENDMDL
MODEL 4
REMARK VINA RESULT:    -3.512      4.344      5.645
REMARK INTER + INTRA:          -4.961
REMARK INTER:                  -4.745
REMARK INTRA:                  -0.216
REMARK UNBOUND:                -0.217
REMARK SMILES CCCCCCCC(=O)[O-]
REMARK SMILES IDX 5 1 6 2 7 3 8 4 9 5 10 6 4 7 3 8 2 9 1 10
REMARK H PARENT
REMARK Flexibility Score: inf
ROOT
ATOM      1  C   UNL     1       0.056  14.201  30.457  1.00  0.00     0.000 C 
ENDROOT
BRANCH   1   2
ATOM      2  C   UNL     1      -1.205  13.513  29.912  1.00  0.00     0.006 C 
BRANCH   2   3
ATOM      3  C   UNL     1      -1.065  11.986  29.877  1.00  0.00     0.053 C 
BRANCH   3   4
ATOM      4  C   UNL     1      -1.497  11.358  31.168  1.00  0.00     0.041 C 
ATOM      5  O   UNL     1      -0.733  10.557  31.769  1.00  0.00    -0.550 OA
ATOM      6  O   UNL     1      -2.754  11.632  31.689  1.00  0.00    -0.550 OA
ENDBRANCH   3   4
ENDBRANCH   2   3
ENDBRANCH   1   2
BRANCH   1   7
ATOM      7  C   UNL     1       0.500  15.345  29.538  1.00  0.00     0.000 C 
BRANCH   7   8
ATOM      8  C   UNL     1      -0.708  16.160  29.052  1.00  0.00    -0.000 C 
BRANCH   8   9
ATOM      9  C   UNL     1      -0.321  17.577  28.602  1.00  0.00    -0.003 C 
ATOM     10  C   UNL     1      -1.290  18.644  29.111  1.00  0.00     0.004 C 
ENDBRANCH   8   9
ENDBRANCH   7   8
ENDBRANCH   1   7
TORSDOF 6
ENDMDL
MODEL 5
REMARK VINA RESULT:    -3.509      1.508      2.126
REMARK INTER + INTRA:          -4.957
REMARK INTER:                  -4.642
REMARK INTRA:                  -0.315
REMARK UNBOUND:                -0.217
REMARK SMILES CCCCCCCC(=O)[O-]
REMARK SMILES IDX 5 1 6 2 7 3 8 4 9 5 10 6 4 7 3 8 2 9 1 10
REMARK H PARENT
REMARK Flexibility Score: inf
ROOT
ATOM      1  C   UNL     1       0.561  19.345  30.698  1.00  0.00     0.000 C 
ENDROOT
BRANCH   1   2
ATOM      2  C   UNL     1       0.980  18.026  30.032  1.00  0.00     0.006 C 
BRANCH   2   3
ATOM      3  C   UNL     1       1.914  18.250  28.835  1.00  0.00     0.053 C 
BRANCH   3   4
ATOM      4  C   UNL     1       1.618  17.302  27.713  1.00  0.00     0.041 C 
ATOM      5  O   UNL     1       2.504  16.503  27.309  1.00  0.00    -0.550 OA
ATOM      6  O   UNL     1       0.375  17.322  27.093  1.00  0.00    -0.550 OA
ENDBRANCH   3   4
ENDBRANCH   2   3
ENDBRANCH   1   2
BRANCH   1   7
ATOM      7  C   UNL     1      -0.566  20.025  29.913  1.00  0.00     0.000 C 
BRANCH   7   8
ATOM      8  C   UNL     1      -1.589  18.992  29.413  1.00  0.00    -0.000 C 
BRANCH   8   9
ATOM      9  C   UNL     1      -3.031  19.517  29.467  1.00  0.00    -0.003 C 
ATOM     10  C   UNL     1      -3.124  20.936  30.028  1.00  0.00     0.004 C 
ENDBRANCH   8   9
ENDBRANCH   7   8
ENDBRANCH   1   7
TORSDOF 6
ENDMDL
MODEL 6
REMARK VINA RESULT:    -3.496      1.462      2.544
REMARK INTER + INTRA:          -4.939
REMARK INTER:                  -4.717
REMARK INTRA:                  -0.222
REMARK UNBOUND:                -0.217
REMARK SMILES CCCCCCCC(=O)[O-]
REMARK SMILES IDX 5 1 6 2 7 3 8 4 9 5 10 6 4 7 3 8 2 9 1 10
REMARK H PARENT
REMARK Flexibility Score: inf
ROOT
ATOM      1  C   UNL     1       0.407  17.670  27.627  1.00  0.00     0.000 C 
ENDROOT
BRANCH   1   2
ATOM      2  C   UNL     1       1.892  17.491  27.978  1.00  0.00     0.006 C 
BRANCH   2   3
ATOM      3  C   UNL     1       2.512  16.275  27.278  1.00  0.00     0.053 C 
BRANCH   3   4
ATOM      4  C   UNL     1       2.364  15.028  28.096  1.00  0.00     0.041 C 
ATOM      5  O   UNL     1       2.349  13.900  27.533  1.00  0.00    -0.550 OA
ATOM      6  O   UNL     1       2.209  15.112  29.473  1.00  0.00    -0.550 OA
ENDBRANCH   3   4
ENDBRANCH   2   3
ENDBRANCH   1   2
BRANCH   1   7
ATOM      7  C   UNL     1      -0.475  17.513  28.872  1.00  0.00     0.000 C 
BRANCH   7   8
ATOM      8  C   UNL     1      -0.960  18.880  29.378  1.00  0.00    -0.000 C 
BRANCH   8   9
ATOM      9  C   UNL     1      -2.475  19.070  29.207  1.00  0.00    -0.003 C 
ATOM     10  C   UNL     1      -2.983  20.366  29.838  1.00  0.00     0.004 C 
ENDBRANCH   8   9
ENDBRANCH   7   8
ENDBRANCH   1   7
TORSDOF 6
ENDMDL
MODEL 7
REMARK VINA RESULT:    -3.454      1.331      1.903
REMARK INTER + INTRA:          -4.882
REMARK INTER:                  -4.647
REMARK INTRA:                  -0.236
REMARK UNBOUND:                -0.217
REMARK SMILES CCCCCCCC(=O)[O-]
REMARK SMILES IDX 5 1 6 2 7 3 8 4 9 5 10 6 4 7 3 8 2 9 1 10
REMARK H PARENT
REMARK Flexibility Score: inf
ROOT
ATOM      1  C   UNL     1       0.742  18.921  29.562  1.00  0.00     0.000 C 
ENDROOT
BRANCH   1   2
ATOM      2  C   UNL     1       0.609  17.700  28.639  1.00  0.00     0.006 C 
BRANCH   2   3
ATOM      3  C   UNL     1       1.003  16.394  29.341  1.00  0.00     0.053 C 
BRANCH   3   4
ATOM      4  C   UNL     1       1.923  15.565  28.498  1.00  0.00     0.041 C 
ATOM      5  O   UNL     1       2.579  14.621  29.015  1.00  0.00    -0.550 OA
ATOM      6  O   UNL     1       2.082  15.854  27.149  1.00  0.00    -0.550 OA
ENDBRANCH   3   4
ENDBRANCH   2   3
ENDBRANCH   1   2
BRANCH   1   7
ATOM      7  C   UNL     1      -0.634  19.502  29.908  1.00  0.00     0.000 C 
BRANCH   7   8
ATOM      8  C   UNL     1      -1.752  18.735  29.185  1.00  0.00    -0.000 C 
BRANCH   8   9
ATOM      9  C   UNL     1      -3.124  19.408  29.340  1.00  0.00    -0.003 C 
ATOM     10  C   UNL     1      -3.036  20.788  29.991  1.00  0.00     0.004 C 
ENDBRANCH   8   9
ENDBRANCH   7   8
ENDBRANCH   1   7
TORSDOF 6
ENDMDL
MODEL 8
REMARK VINA RESULT:    -3.441      3.490      4.707
REMARK INTER + INTRA:          -4.865
REMARK INTER:                  -4.617
REMARK INTRA:                  -0.248
REMARK UNBOUND:                -0.217
REMARK SMILES CCCCCCCC(=O)[O-]
REMARK SMILES IDX 5 1 6 2 7 3 8 4 9 5 10 6 4 7 3 8 2 9 1 10
REMARK H PARENT
REMARK Flexibility Score: inf
ROOT
ATOM      1  C   UNL     1       0.318  14.452  30.561  1.00  0.00     0.000 C 
ENDROOT
BRANCH   1   2
ATOM      2  C   UNL     1      -0.870  13.884  29.770  1.00  0.00     0.006 C 
BRANCH   2   3
ATOM      3  C   UNL     1      -0.934  12.353  29.836  1.00  0.00     0.053 C 
BRANCH   3   4
ATOM      4  C   UNL     1       0.341  11.722  29.367  1.00  0.00     0.041 C 
ATOM      5  O   UNL     1       1.127  11.191  30.195  1.00  0.00    -0.550 OA
ATOM      6  O   UNL     1       0.677  11.749  28.019  1.00  0.00    -0.550 OA
ENDBRANCH   3   4
ENDBRANCH   2   3
ENDBRANCH   1   2
BRANCH   1   7
ATOM      7  C   UNL     1       0.735  15.824  30.019  1.00  0.00     0.000 C 
BRANCH   7   8
ATOM      8  C   UNL     1      -0.351  16.405  29.100  1.00  0.00    -0.000 C 
BRANCH   8   9
ATOM      9  C   UNL     1      -0.276  17.936  28.992  1.00  0.00    -0.003 C 
ATOM     10  C   UNL     1      -1.640  18.607  29.150  1.00  0.00     0.004 C 
ENDBRANCH   8   9
ENDBRANCH   7   8
ENDBRANCH   1   7
TORSDOF 6
ENDMDL
MODEL 9
REMARK VINA RESULT:    -3.412      2.597      3.644
REMARK INTER + INTRA:          -4.825
REMARK INTER:                  -4.577
REMARK INTRA:                  -0.248
REMARK UNBOUND:                -0.217
REMARK SMILES CCCCCCCC(=O)[O-]
REMARK SMILES IDX 5 1 6 2 7 3 8 4 9 5 10 6 4 7 3 8 2 9 1 10
REMARK H PARENT
REMARK Flexibility Score: inf
ROOT
ATOM      1  C   UNL     1       0.183  16.580  29.164  1.00  0.00     0.000 C 
ENDROOT
BRANCH   1   2
ATOM      2  C   UNL     1       0.976  15.334  29.587  1.00  0.00     0.006 C 
BRANCH   2   3
ATOM      3  C   UNL     1       0.179  14.434  30.541  1.00  0.00     0.053 C 
BRANCH   3   4
ATOM      4  C   UNL     1      -0.427  13.264  29.826  1.00  0.00     0.041 C 
ATOM      5  O   UNL     1      -1.630  12.952  30.029  1.00  0.00    -0.550 OA
ATOM      6  O   UNL     1       0.347  12.499  28.963  1.00  0.00    -0.550 OA
ENDBRANCH   3   4
ENDBRANCH   2   3
ENDBRANCH   1   2
BRANCH   1   7
ATOM      7  C   UNL     1       0.719  17.836  29.861  1.00  0.00     0.000 C 
BRANCH   7   8
ATOM      8  C   UNL     1      -0.274  19.001  29.735  1.00  0.00    -0.000 C 
BRANCH   8   9
ATOM      9  C   UNL     1      -1.605  18.576  29.095  1.00  0.00    -0.003 C 
ATOM     10  C   UNL     1      -2.764  19.498  29.473  1.00  0.00     0.004 C 
ENDBRANCH   8   9
ENDBRANCH   7   8
ENDBRANCH   1   7
TORSDOF 6
ENDMDL
