MODEL 1
REMARK VINA RESULT:    -4.535      0.000      0.000
REMARK INTER + INTRA:         -16.803
REMARK INTER:                 -11.428
REMARK INTRA:                  -5.375
REMARK UNBOUND:                -5.375
REMARK SMILES CCCCCCCCCCCCCCCCCCCCCCCCCCCC(=O)[O-]
REMARK SMILES IDX 15 1 16 2 17 3 18 4 19 5 20 6 21 7 22 8 23 9 24 10 25 11
REMARK SMILES IDX 26 12 27 13 28 14 29 15 30 16 14 17 13 18 12 19 11 20 10 21
REMARK SMILES IDX 9 22 8 23 7 24 6 25 5 26 4 27 3 28 2 29 1 30
REMARK H PARENT
REMARK Flexibility Score: inf
ROOT
ATOM      1  C   UNL     1       7.810  28.918  26.567  1.00  0.00     0.000 C 
ENDROOT
BRANCH   1   2
ATOM      2  C   UNL     1       7.419  29.857  27.726  1.00  0.00     0.000 C 
BRANCH   2   3
ATOM      3  C   UNL     1       8.112  29.560  29.071  1.00  0.00     0.000 C 
BRANCH   3   4
ATOM      4  C   UNL     1       7.353  30.055  30.317  1.00  0.00     0.000 C 
BRANCH   4   5
ATOM      5  C   UNL     1       8.122  31.129  31.097  1.00  0.00     0.000 C 
BRANCH   5   6
ATOM      6  C   UNL     1       9.136  31.844  30.191  1.00  0.00     0.000 C 
BRANCH   6   7
ATOM      7  C   UNL     1      10.576  31.747  30.721  1.00  0.00     0.000 C 
BRANCH   7   8
ATOM      8  C   UNL     1      11.476  30.879  29.828  1.00  0.00     0.000 C 
BRANCH   8   9
ATOM      9  C   UNL     1      11.711  31.548  28.466  1.00  0.00     0.000 C 
BRANCH   9  10
ATOM     10  C   UNL     1      11.788  30.499  27.347  1.00  0.00     0.000 C 
BRANCH  10  11
ATOM     11  C   UNL     1      10.918  30.859  26.131  1.00  0.00     0.000 C 
BRANCH  11  12
ATOM     12  C   UNL     1       9.961  32.028  26.409  1.00  0.00     0.006 C 
BRANCH  12  13
ATOM     13  C   UNL     1       9.510  32.692  25.105  1.00  0.00     0.053 C 
BRANCH  13  14
ATOM     14  C   UNL     1      10.637  33.450  24.478  1.00  0.00     0.041 C 
ATOM     15  O   UNL     1      11.028  34.537  24.981  1.00  0.00    -0.550 OA
ATOM     16  O   UNL     1      11.246  32.967  23.324  1.00  0.00    -0.550 OA
ENDBRANCH  13  14
ENDBRANCH  12  13
ENDBRANCH  11  12
ENDBRANCH  10  11
ENDBRANCH   9  10
ENDBRANCH   8   9
ENDBRANCH   7   8
ENDBRANCH   6   7
ENDBRANCH   5   6
ENDBRANCH   4   5
ENDBRANCH   3   4
ENDBRANCH   2   3
ENDBRANCH   1   2
BRANCH   1  17
ATOM     17  C   UNL     1       8.520  27.618  26.996  1.00  0.00     0.000 C 
BRANCH  17  18
ATOM     18  C   UNL     1       7.933  26.327  26.391  1.00  0.00     0.000 C 
BRANCH  18  19
ATOM     19  C   UNL     1       7.148  25.439  27.378  1.00  0.00     0.000 C 
BRANCH  19  20
ATOM     20  C   UNL     1       6.716  26.131  28.685  1.00  0.00     0.000 C 
BRANCH  20  21
ATOM     21  C   UNL     1       5.187  26.247  28.822  1.00  0.00     0.000 C 
BRANCH  21  22
ATOM     22  C   UNL     1       4.688  27.699  28.715  1.00  0.00    -0.000 C 
BRANCH  22  23
ATOM     23  C   UNL     1       3.748  27.985  27.526  1.00  0.00    -0.000 C 
BRANCH  23  24
ATOM     24  C   UNL     1       4.316  27.621  26.140  1.00  0.00    -0.000 C 
BRANCH  24  25
ATOM     25  C   UNL     1       4.603  28.823  25.223  1.00  0.00    -0.000 C 
BRANCH  25  26
ATOM     26  C   UNL     1       4.748  28.422  23.747  1.00  0.00    -0.000 C 
BRANCH  26  27
ATOM     27  C   UNL     1       6.009  27.572  23.530  1.00  0.00    -0.000 C 
BRANCH  27  28
ATOM     28  C   UNL     1       7.133  28.350  22.828  1.00  0.00    -0.000 C 
BRANCH  28  29
ATOM     29  C   UNL     1       8.509  27.690  23.005  1.00  0.00    -0.003 C 
ATOM     30  C   UNL     1       9.579  28.726  23.337  1.00  0.00     0.004 C 
ENDBRANCH  28  29
ENDBRANCH  27  28
ENDBRANCH  26  27
ENDBRANCH  25  26
ENDBRANCH  24  25
ENDBRANCH  23  24
ENDBRANCH  22  23
ENDBRANCH  21  22
ENDBRANCH  20  21
ENDBRANCH  19  20
ENDBRANCH  18  19
ENDBRANCH  17  18
ENDBRANCH   1  17
TORSDOF 26
ENDMDL
MODEL 2
REMARK VINA RESULT:    -4.445      2.526      5.145
REMARK INTER + INTRA:         -16.577
REMARK INTER:                 -11.897
REMARK INTRA:                  -4.680
REMARK UNBOUND:                -5.375
REMARK SMILES CCCCCCCCCCCCCCCCCCCCCCCCCCCC(=O)[O-]
REMARK SMILES IDX 15 1 16 2 17 3 18 4 19 5 20 6 21 7 22 8 23 9 24 10 25 11
REMARK SMILES IDX 26 12 27 13 28 14 29 15 30 16 14 17 13 18 12 19 11 20 10 21
REMARK SMILES IDX 9 22 8 23 7 24 6 25 5 26 4 27 3 28 2 29 1 30
REMARK H PARENT
REMARK Flexibility Score: inf
ROOT
ATOM      1  C   UNL     1       6.786  26.024  28.976  1.00  0.00     0.000 C 
ENDROOT
BRANCH   1   2
ATOM      2  C   UNL     1       6.227  27.461  29.026  1.00  0.00     0.000 C 
BRANCH   2   3
ATOM      3  C   UNL     1       6.651  28.285  30.259  1.00  0.00     0.000 C 
BRANCH   3   4
ATOM      4  C   UNL     1       7.440  29.569  29.944  1.00  0.00     0.000 C 
BRANCH   4   5
ATOM      5  C   UNL     1       7.679  29.769  28.441  1.00  0.00     0.000 C 
BRANCH   5   6
ATOM      6  C   UNL     1       9.005  29.125  28.007  1.00  0.00     0.000 C 
BRANCH   6   7
ATOM      7  C   UNL     1       9.598  29.778  26.748  1.00  0.00     0.000 C 
BRANCH   7   8
ATOM      8  C   UNL     1       9.334  31.291  26.690  1.00  0.00     0.000 C 
BRANCH   8   9
ATOM      9  C   UNL     1      10.650  32.081  26.736  1.00  0.00     0.000 C 
BRANCH   9  10
ATOM     10  C   UNL     1      11.858  31.132  26.763  1.00  0.00     0.000 C 
BRANCH  10  11
ATOM     11  C   UNL     1      13.084  31.747  27.457  1.00  0.00     0.000 C 
BRANCH  11  12
ATOM     12  C   UNL     1      13.458  31.020  28.758  1.00  0.00     0.006 C 
BRANCH  12  13
ATOM     13  C   UNL     1      12.245  30.301  29.354  1.00  0.00     0.053 C 
BRANCH  13  14
ATOM     14  C   UNL     1      11.597  31.140  30.411  1.00  0.00     0.041 C 
ATOM     15  O   UNL     1      10.421  31.564  30.251  1.00  0.00    -0.550 OA
ATOM     16  O   UNL     1      12.298  31.472  31.566  1.00  0.00    -0.550 OA
ENDBRANCH  13  14
ENDBRANCH  12  13
ENDBRANCH  11  12
ENDBRANCH  10  11
ENDBRANCH   9  10
ENDBRANCH   8   9
ENDBRANCH   7   8
ENDBRANCH   6   7
ENDBRANCH   5   6
ENDBRANCH   4   5
ENDBRANCH   3   4
ENDBRANCH   2   3
ENDBRANCH   1   2
BRANCH   1  17
ATOM     17  C   UNL     1       6.927  25.433  27.559  1.00  0.00     0.000 C 
BRANCH  17  18
ATOM     18  C   UNL     1       8.291  25.681  26.884  1.00  0.00     0.000 C 
BRANCH  18  19
ATOM     19  C   UNL     1       8.234  26.472  25.561  1.00  0.00     0.000 C 
BRANCH  19  20
ATOM     20  C   UNL     1       6.824  26.898  25.110  1.00  0.00     0.000 C 
BRANCH  20  21
ATOM     21  C   UNL     1       6.606  28.420  25.189  1.00  0.00     0.000 C 
BRANCH  21  22
ATOM     22  C   UNL     1       5.125  28.818  25.061  1.00  0.00    -0.000 C 
BRANCH  22  23
ATOM     23  C   UNL     1       4.290  28.666  26.349  1.00  0.00    -0.000 C 
BRANCH  23  24
ATOM     24  C   UNL     1       4.138  29.951  27.187  1.00  0.00    -0.000 C 
BRANCH  24  25
ATOM     25  C   UNL     1       2.890  29.992  28.087  1.00  0.00    -0.000 C 
BRANCH  25  26
ATOM     26  C   UNL     1       3.133  29.361  29.466  1.00  0.00    -0.000 C 
BRANCH  26  27
ATOM     27  C   UNL     1       2.823  30.361  30.591  1.00  0.00    -0.000 C 
BRANCH  27  28
ATOM     28  C   UNL     1       3.997  30.540  31.564  1.00  0.00    -0.000 C 
BRANCH  28  29
ATOM     29  C   UNL     1       4.869  31.758  31.223  1.00  0.00    -0.003 C 
ATOM     30  C   UNL     1       4.765  32.831  32.303  1.00  0.00     0.004 C 
ENDBRANCH  28  29
ENDBRANCH  27  28
ENDBRANCH  26  27
ENDBRANCH  25  26
ENDBRANCH  24  25
ENDBRANCH  23  24
ENDBRANCH  22  23
ENDBRANCH  21  22
ENDBRANCH  20  21
ENDBRANCH  19  20
ENDBRANCH  18  19
ENDBRANCH  17  18
ENDBRANCH   1  17
TORSDOF 26
ENDMDL
MODEL 3
REMARK VINA RESULT:    -4.429      1.497      2.931
REMARK INTER + INTRA:         -16.537
REMARK INTER:                 -10.914
REMARK INTRA:                  -5.624
REMARK UNBOUND:                -5.375
REMARK SMILES CCCCCCCCCCCCCCCCCCCCCCCCCCCC(=O)[O-]
REMARK SMILES IDX 15 1 16 2 17 3 18 4 19 5 20 6 21 7 22 8 23 9 24 10 25 11
REMARK SMILES IDX 26 12 27 13 28 14 29 15 30 16 14 17 13 18 12 19 11 20 10 21
REMARK SMILES IDX 9 22 8 23 7 24 6 25 5 26 4 27 3 28 2 29 1 30
REMARK H PARENT
REMARK Flexibility Score: inf
ROOT
ATOM      1  C   UNL     1       5.944  30.616  27.598  1.00  0.00     0.000 C 
ENDROOT
BRANCH   1   2
ATOM      2  C   UNL     1       5.410  30.038  28.925  1.00  0.00     0.000 C 
BRANCH   2   3
ATOM      3  C   UNL     1       6.037  30.640  30.199  1.00  0.00     0.000 C 
BRANCH   3   4
ATOM      4  C   UNL     1       7.541  30.361  30.379  1.00  0.00     0.000 C 
BRANCH   4   5
ATOM      5  C   UNL     1       8.395  31.635  30.335  1.00  0.00     0.000 C 
BRANCH   5   6
ATOM      6  C   UNL     1       9.534  31.566  31.363  1.00  0.00     0.000 C 
BRANCH   6   7
ATOM      7  C   UNL     1      10.925  31.657  30.713  1.00  0.00     0.000 C 
BRANCH   7   8
ATOM      8  C   UNL     1      10.852  31.876  29.194  1.00  0.00     0.000 C 
BRANCH   8   9
ATOM      9  C   UNL     1      11.742  30.870  28.450  1.00  0.00     0.000 C 
BRANCH   9  10
ATOM     10  C   UNL     1      10.914  29.684  27.933  1.00  0.00     0.000 C 
BRANCH  10  11
ATOM     11  C   UNL     1       9.587  30.118  27.289  1.00  0.00     0.000 C 
BRANCH  11  12
ATOM     12  C   UNL     1       9.737  30.482  25.804  1.00  0.00     0.006 C 
BRANCH  12  13
ATOM     13  C   UNL     1       9.287  31.923  25.543  1.00  0.00     0.053 C 
BRANCH  13  14
ATOM     14  C   UNL     1      10.445  32.773  25.126  1.00  0.00     0.041 C 
ATOM     15  O   UNL     1      10.783  32.833  23.913  1.00  0.00    -0.550 OA
ATOM     16  O   UNL     1      11.167  33.486  26.078  1.00  0.00    -0.550 OA
ENDBRANCH  13  14
ENDBRANCH  12  13
ENDBRANCH  11  12
ENDBRANCH  10  11
ENDBRANCH   9  10
ENDBRANCH   8   9
ENDBRANCH   7   8
ENDBRANCH   6   7
ENDBRANCH   5   6
ENDBRANCH   4   5
ENDBRANCH   3   4
ENDBRANCH   2   3
ENDBRANCH   1   2
BRANCH   1  17
ATOM     17  C   UNL     1       5.460  29.882  26.330  1.00  0.00     0.000 C 
BRANCH  17  18
ATOM     18  C   UNL     1       4.055  29.257  26.437  1.00  0.00     0.000 C 
BRANCH  18  19
ATOM     19  C   UNL     1       3.998  27.731  26.222  1.00  0.00     0.000 C 
BRANCH  19  20
ATOM     20  C   UNL     1       3.787  26.894  27.498  1.00  0.00     0.000 C 
BRANCH  20  21
ATOM     21  C   UNL     1       4.971  25.958  27.801  1.00  0.00     0.000 C 
BRANCH  21  22
ATOM     22  C   UNL     1       5.543  26.158  29.216  1.00  0.00    -0.000 C 
BRANCH  22  23
ATOM     23  C   UNL     1       6.997  26.669  29.270  1.00  0.00    -0.000 C 
BRANCH  23  24
ATOM     24  C   UNL     1       7.549  27.218  27.939  1.00  0.00    -0.000 C 
BRANCH  24  25
ATOM     25  C   UNL     1       8.688  26.389  27.320  1.00  0.00    -0.000 C 
BRANCH  25  26
ATOM     26  C   UNL     1       8.761  26.531  25.792  1.00  0.00    -0.000 C 
BRANCH  26  27
ATOM     27  C   UNL     1       7.418  27.012  25.220  1.00  0.00    -0.000 C 
BRANCH  27  28
ATOM     28  C   UNL     1       6.974  26.205  23.990  1.00  0.00    -0.000 C 
BRANCH  28  29
ATOM     29  C   UNL     1       5.933  25.129  24.332  1.00  0.00    -0.003 C 
ATOM     30  C   UNL     1       6.578  23.942  25.042  1.00  0.00     0.004 C 
ENDBRANCH  28  29
ENDBRANCH  27  28
ENDBRANCH  26  27
ENDBRANCH  25  26
ENDBRANCH  24  25
ENDBRANCH  23  24
ENDBRANCH  22  23
ENDBRANCH  21  22
ENDBRANCH  20  21
ENDBRANCH  19  20
ENDBRANCH  18  19
ENDBRANCH  17  18
ENDBRANCH   1  17
TORSDOF 26
ENDMDL
MODEL 4
REMARK VINA RESULT:    -4.338      3.200      7.324
REMARK INTER + INTRA:         -16.307
REMARK INTER:                 -11.003
REMARK INTRA:                  -5.304
REMARK UNBOUND:                -5.375
REMARK SMILES CCCCCCCCCCCCCCCCCCCCCCCCCCCC(=O)[O-]
REMARK SMILES IDX 15 1 16 2 17 3 18 4 19 5 20 6 21 7 22 8 23 9 24 10 25 11
REMARK SMILES IDX 26 12 27 13 28 14 29 15 30 16 14 17 13 18 12 19 11 20 10 21
REMARK SMILES IDX 9 22 8 23 7 24 6 25 5 26 4 27 3 28 2 29 1 30
REMARK H PARENT
REMARK Flexibility Score: inf
ROOT
ATOM      1  C   UNL     1       7.475  25.369  27.316  1.00  0.00     0.000 C 
ENDROOT
BRANCH   1   2
ATOM      2  C   UNL     1       6.818  26.064  28.526  1.00  0.00     0.000 C 
BRANCH   2   3
ATOM      3  C   UNL     1       5.357  26.511  28.311  1.00  0.00     0.000 C 
BRANCH   3   4
ATOM      4  C   UNL     1       4.657  25.879  27.093  1.00  0.00     0.000 C 
BRANCH   4   5
ATOM      5  C   UNL     1       4.063  26.924  26.138  1.00  0.00     0.000 C 
BRANCH   5   6
ATOM      6  C   UNL     1       5.096  28.010  25.803  1.00  0.00     0.000 C 
BRANCH   6   7
ATOM      7  C   UNL     1       4.487  29.421  25.781  1.00  0.00     0.000 C 
BRANCH   7   8
ATOM      8  C   UNL     1       4.489  30.087  27.166  1.00  0.00     0.000 C 
BRANCH   8   9
ATOM      9  C   UNL     1       3.128  29.925  27.856  1.00  0.00     0.000 C 
BRANCH   9  10
ATOM     10  C   UNL     1       3.301  29.405  29.292  1.00  0.00     0.000 C 
BRANCH  10  11
ATOM     11  C   UNL     1       4.504  30.035  30.014  1.00  0.00     0.000 C 
BRANCH  11  12
ATOM     12  C   UNL     1       5.118  29.103  31.069  1.00  0.00     0.006 C 
BRANCH  12  13
ATOM     13  C   UNL     1       4.550  29.397  32.461  1.00  0.00     0.053 C 
BRANCH  13  14
ATOM     14  C   UNL     1       5.557  30.113  33.304  1.00  0.00     0.041 C 
ATOM     15  O   UNL     1       5.178  30.924  34.192  1.00  0.00    -0.550 OA
ATOM     16  O   UNL     1       6.917  29.902  33.099  1.00  0.00    -0.550 OA
ENDBRANCH  13  14
ENDBRANCH  12  13
ENDBRANCH  11  12
ENDBRANCH  10  11
ENDBRANCH   9  10
ENDBRANCH   8   9
ENDBRANCH   7   8
ENDBRANCH   6   7
ENDBRANCH   5   6
ENDBRANCH   4   5
ENDBRANCH   3   4
ENDBRANCH   2   3
ENDBRANCH   1   2
BRANCH   1  17
ATOM     17  C   UNL     1       8.675  26.123  26.708  1.00  0.00     0.000 C 
BRANCH  17  18
ATOM     18  C   UNL     1       9.029  27.451  27.407  1.00  0.00     0.000 C 
BRANCH  18  19
ATOM     19  C   UNL     1       8.828  28.717  26.549  1.00  0.00     0.000 C 
BRANCH  19  20
ATOM     20  C   UNL     1       7.993  29.832  27.207  1.00  0.00     0.000 C 
BRANCH  20  21
ATOM     21  C   UNL     1       7.983  29.742  28.744  1.00  0.00     0.000 C 
BRANCH  21  22
ATOM     22  C   UNL     1       8.403  31.059  29.421  1.00  0.00    -0.000 C 
BRANCH  22  23
ATOM     23  C   UNL     1       9.256  30.900  30.696  1.00  0.00    -0.000 C 
BRANCH  23  24
ATOM     24  C   UNL     1      10.446  31.873  30.814  1.00  0.00    -0.000 C 
BRANCH  24  25
ATOM     25  C   UNL     1      11.833  31.217  30.685  1.00  0.00    -0.000 C 
BRANCH  25  26
ATOM     26  C   UNL     1      12.459  31.423  29.297  1.00  0.00    -0.000 C 
BRANCH  26  27
ATOM     27  C   UNL     1      11.996  30.332  28.319  1.00  0.00    -0.000 C 
BRANCH  27  28
ATOM     28  C   UNL     1      11.602  30.897  26.945  1.00  0.00    -0.000 C 
BRANCH  28  29
ATOM     29  C   UNL     1      10.948  32.283  27.040  1.00  0.00    -0.003 C 
ATOM     30  C   UNL     1      10.067  32.561  25.826  1.00  0.00     0.004 C 
ENDBRANCH  28  29
ENDBRANCH  27  28
ENDBRANCH  26  27
ENDBRANCH  25  26
ENDBRANCH  24  25
ENDBRANCH  23  24
ENDBRANCH  22  23
ENDBRANCH  21  22
ENDBRANCH  20  21
ENDBRANCH  19  20
ENDBRANCH  18  19
ENDBRANCH  17  18
ENDBRANCH   1  17
TORSDOF 26
ENDMDL
MODEL 5
REMARK VINA RESULT:    -4.320      2.524      5.031
REMARK INTER + INTRA:         -16.260
REMARK INTER:                 -11.054
REMARK INTRA:                  -5.206
REMARK UNBOUND:                -5.375
REMARK SMILES CCCCCCCCCCCCCCCCCCCCCCCCCCCC(=O)[O-]
REMARK SMILES IDX 15 1 16 2 17 3 18 4 19 5 20 6 21 7 22 8 23 9 24 10 25 11
REMARK SMILES IDX 26 12 27 13 28 14 29 15 30 16 14 17 13 18 12 19 11 20 10 21
REMARK SMILES IDX 9 22 8 23 7 24 6 25 5 26 4 27 3 28 2 29 1 30
REMARK H PARENT
REMARK Flexibility Score: inf
ROOT
ATOM      1  C   UNL     1       6.710  25.271  25.777  1.00  0.00     0.000 C 
ENDROOT
BRANCH   1   2
ATOM      2  C   UNL     1       7.201  25.755  27.156  1.00  0.00     0.000 C 
BRANCH   2   3
ATOM      3  C   UNL     1       8.676  26.202  27.205  1.00  0.00     0.000 C 
BRANCH   3   4
ATOM      4  C   UNL     1       8.897  27.724  27.126  1.00  0.00     0.000 C 
BRANCH   4   5
ATOM      5  C   UNL     1       7.887  28.519  27.965  1.00  0.00     0.000 C 
BRANCH   5   6
ATOM      6  C   UNL     1       7.645  29.910  27.359  1.00  0.00     0.000 C 
BRANCH   6   7
ATOM      7  C   UNL     1       8.357  30.100  26.009  1.00  0.00     0.000 C 
BRANCH   7   8
ATOM      8  C   UNL     1       8.975  31.499  25.861  1.00  0.00     0.000 C 
BRANCH   8   9
ATOM      9  C   UNL     1      10.284  31.441  25.062  1.00  0.00     0.000 C 
BRANCH   9  10
ATOM     10  C   UNL     1      11.291  30.492  25.729  1.00  0.00     0.000 C 
BRANCH  10  11
ATOM     11  C   UNL     1      11.888  31.069  27.023  1.00  0.00     0.000 C 
BRANCH  11  12
ATOM     12  C   UNL     1      11.605  30.191  28.252  1.00  0.00     0.006 C 
BRANCH  12  13
ATOM     13  C   UNL     1      10.640  30.888  29.216  1.00  0.00     0.053 C 
BRANCH  13  14
ATOM     14  C   UNL     1      11.106  32.277  29.521  1.00  0.00     0.041 C 
ATOM     15  O   UNL     1      12.096  32.460  30.278  1.00  0.00    -0.550 OA
ATOM     16  O   UNL     1      10.435  33.371  28.985  1.00  0.00    -0.550 OA
ENDBRANCH  13  14
ENDBRANCH  12  13
ENDBRANCH  11  12
ENDBRANCH  10  11
ENDBRANCH   9  10
ENDBRANCH   8   9
ENDBRANCH   7   8
ENDBRANCH   6   7
ENDBRANCH   5   6
ENDBRANCH   4   5
ENDBRANCH   3   4
ENDBRANCH   2   3
ENDBRANCH   1   2
BRANCH   1  17
ATOM     17  C   UNL     1       5.541  26.083  25.183  1.00  0.00     0.000 C 
BRANCH  17  18
ATOM     18  C   UNL     1       5.754  27.610  25.166  1.00  0.00     0.000 C 
BRANCH  18  19
ATOM     19  C   UNL     1       6.017  28.221  23.774  1.00  0.00     0.000 C 
BRANCH  19  20
ATOM     20  C   UNL     1       6.976  27.418  22.875  1.00  0.00     0.000 C 
BRANCH  20  21
ATOM     21  C   UNL     1       8.456  27.632  23.240  1.00  0.00     0.000 C 
BRANCH  21  22
ATOM     22  C   UNL     1       9.184  26.317  23.571  1.00  0.00    -0.000 C 
BRANCH  22  23
ATOM     23  C   UNL     1       8.863  25.134  22.635  1.00  0.00    -0.000 C 
BRANCH  23  24
ATOM     24  C   UNL     1       9.900  24.877  21.524  1.00  0.00    -0.000 C 
BRANCH  24  25
ATOM     25  C   UNL     1       9.328  24.860  20.096  1.00  0.00    -0.000 C 
BRANCH  25  26
ATOM     26  C   UNL     1       7.854  25.291  20.043  1.00  0.00    -0.000 C 
BRANCH  26  27
ATOM     27  C   UNL     1       7.631  26.353  18.955  1.00  0.00    -0.000 C 
BRANCH  27  28
ATOM     28  C   UNL     1       8.756  27.398  18.908  1.00  0.00    -0.000 C 
BRANCH  28  29
ATOM     29  C   UNL     1       8.301  28.782  19.394  1.00  0.00    -0.003 C 
ATOM     30  C   UNL     1       6.783  28.844  19.538  1.00  0.00     0.004 C 
ENDBRANCH  28  29
ENDBRANCH  27  28
ENDBRANCH  26  27
ENDBRANCH  25  26
ENDBRANCH  24  25
ENDBRANCH  23  24
ENDBRANCH  22  23
ENDBRANCH  21  22
ENDBRANCH  20  21
ENDBRANCH  19  20
ENDBRANCH  18  19
ENDBRANCH  17  18
ENDBRANCH   1  17
TORSDOF 26
ENDMDL
MODEL 6
REMARK VINA RESULT:    -4.286      1.516      3.652
REMARK INTER + INTRA:         -16.177
REMARK INTER:                 -11.133
REMARK INTRA:                  -5.044
REMARK UNBOUND:                -5.375
REMARK SMILES CCCCCCCCCCCCCCCCCCCCCCCCCCCC(=O)[O-]
REMARK SMILES IDX 15 1 16 2 17 3 18 4 19 5 20 6 21 7 22 8 23 9 24 10 25 11
REMARK SMILES IDX 26 12 27 13 28 14 29 15 30 16 14 17 13 18 12 19 11 20 10 21
REMARK SMILES IDX 9 22 8 23 7 24 6 25 5 26 4 27 3 28 2 29 1 30
REMARK H PARENT
REMARK Flexibility Score: inf
ROOT
ATOM      1  C   UNL     1       4.822  28.488  29.012  1.00  0.00     0.000 C 
ENDROOT
BRANCH   1   2
ATOM      2  C   UNL     1       4.341  29.890  28.588  1.00  0.00     0.000 C 
BRANCH   2   3
ATOM      3  C   UNL     1       5.030  30.467  27.335  1.00  0.00     0.000 C 
BRANCH   3   4
ATOM      4  C   UNL     1       5.030  29.538  26.106  1.00  0.00     0.000 C 
BRANCH   4   5
ATOM      5  C   UNL     1       6.432  29.032  25.740  1.00  0.00     0.000 C 
BRANCH   5   6
ATOM      6  C   UNL     1       7.516  29.872  26.433  1.00  0.00     0.000 C 
BRANCH   6   7
ATOM      7  C   UNL     1       8.899  29.201  26.398  1.00  0.00     0.000 C 
BRANCH   7   8
ATOM      8  C   UNL     1       9.588  29.198  27.771  1.00  0.00     0.000 C 
BRANCH   8   9
ATOM      9  C   UNL     1       9.142  30.401  28.613  1.00  0.00     0.000 C 
BRANCH   9  10
ATOM     10  C   UNL     1      10.316  31.359  28.864  1.00  0.00     0.000 C 
BRANCH  10  11
ATOM     11  C   UNL     1      10.320  32.561  27.906  1.00  0.00     0.000 C 
BRANCH  11  12
ATOM     12  C   UNL     1      11.368  32.429  26.790  1.00  0.00     0.006 C 
BRANCH  12  13
ATOM     13  C   UNL     1      10.699  32.280  25.421  1.00  0.00     0.053 C 
BRANCH  13  14
ATOM     14  C   UNL     1      11.037  33.439  24.536  1.00  0.00     0.041 C 
ATOM     15  O   UNL     1      11.086  34.605  25.011  1.00  0.00    -0.550 OA
ATOM     16  O   UNL     1      11.279  33.235  23.182  1.00  0.00    -0.550 OA
ENDBRANCH  13  14
ENDBRANCH  12  13
ENDBRANCH  11  12
ENDBRANCH  10  11
ENDBRANCH   9  10
ENDBRANCH   8   9
ENDBRANCH   7   8
ENDBRANCH   6   7
ENDBRANCH   5   6
ENDBRANCH   4   5
ENDBRANCH   3   4
ENDBRANCH   2   3
ENDBRANCH   1   2
BRANCH   1  17
ATOM     17  C   UNL     1       6.215  28.452  29.673  1.00  0.00     0.000 C 
BRANCH  17  18
ATOM     18  C   UNL     1       6.923  27.083  29.624  1.00  0.00     0.000 C 
BRANCH  18  19
ATOM     19  C   UNL     1       6.484  26.160  28.469  1.00  0.00     0.000 C 
BRANCH  19  20
ATOM     20  C   UNL     1       7.570  25.859  27.420  1.00  0.00     0.000 C 
BRANCH  20  21
ATOM     21  C   UNL     1       7.184  24.708  26.473  1.00  0.00     0.000 C 
BRANCH  21  22
ATOM     22  C   UNL     1       6.671  25.205  25.109  1.00  0.00    -0.000 C 
BRANCH  22  23
ATOM     23  C   UNL     1       7.736  25.286  23.997  1.00  0.00    -0.000 C 
BRANCH  23  24
ATOM     24  C   UNL     1       8.621  26.548  24.027  1.00  0.00    -0.000 C 
BRANCH  24  25
ATOM     25  C   UNL     1       8.805  27.243  22.666  1.00  0.00    -0.000 C 
BRANCH  25  26
ATOM     26  C   UNL     1       7.694  28.260  22.365  1.00  0.00    -0.000 C 
BRANCH  26  27
ATOM     27  C   UNL     1       7.096  28.025  20.970  1.00  0.00    -0.000 C 
BRANCH  27  28
ATOM     28  C   UNL     1       5.600  27.680  21.016  1.00  0.00    -0.000 C 
BRANCH  28  29
ATOM     29  C   UNL     1       5.034  27.691  22.444  1.00  0.00    -0.003 C 
ATOM     30  C   UNL     1       4.084  28.866  22.652  1.00  0.00     0.004 C 
ENDBRANCH  28  29
ENDBRANCH  27  28
ENDBRANCH  26  27
ENDBRANCH  25  26
ENDBRANCH  24  25
ENDBRANCH  23  24
ENDBRANCH  22  23
ENDBRANCH  21  22
ENDBRANCH  20  21
ENDBRANCH  19  20
ENDBRANCH  18  19
ENDBRANCH  17  18
ENDBRANCH   1  17
TORSDOF 26
ENDMDL
MODEL 7
REMARK VINA RESULT:    -4.286      2.131      4.802
REMARK INTER + INTRA:         -16.175
REMARK INTER:                 -11.099
REMARK INTRA:                  -5.076
REMARK UNBOUND:                -5.375
REMARK SMILES CCCCCCCCCCCCCCCCCCCCCCCCCCCC(=O)[O-]
REMARK SMILES IDX 15 1 16 2 17 3 18 4 19 5 20 6 21 7 22 8 23 9 24 10 25 11
REMARK SMILES IDX 26 12 27 13 28 14 29 15 30 16 14 17 13 18 12 19 11 20 10 21
REMARK SMILES IDX 9 22 8 23 7 24 6 25 5 26 4 27 3 28 2 29 1 30
REMARK H PARENT
REMARK Flexibility Score: inf
ROOT
ATOM      1  C   UNL     1       4.683  28.754  24.279  1.00  0.00     0.000 C 
ENDROOT
BRANCH   1   2
ATOM      2  C   UNL     1       4.291  27.723  25.357  1.00  0.00     0.000 C 
BRANCH   2   3
ATOM      3  C   UNL     1       4.035  28.310  26.760  1.00  0.00     0.000 C 
BRANCH   3   4
ATOM      4  C   UNL     1       4.520  29.758  26.958  1.00  0.00     0.000 C 
BRANCH   4   5
ATOM      5  C   UNL     1       5.360  29.937  28.230  1.00  0.00     0.000 C 
BRANCH   5   6
ATOM      6  C   UNL     1       5.387  28.642  29.056  1.00  0.00     0.000 C 
BRANCH   6   7
ATOM      7  C   UNL     1       6.716  28.442  29.803  1.00  0.00     0.000 C 
BRANCH   7   8
ATOM      8  C   UNL     1       7.518  29.746  29.936  1.00  0.00     0.000 C 
BRANCH   8   9
ATOM      9  C   UNL     1       7.334  30.366  31.328  1.00  0.00     0.000 C 
BRANCH   9  10
ATOM     10  C   UNL     1       8.497  31.311  31.665  1.00  0.00     0.000 C 
BRANCH  10  11
ATOM     11  C   UNL     1       9.307  31.726  30.426  1.00  0.00     0.000 C 
BRANCH  11  12
ATOM     12  C   UNL     1      10.784  32.003  30.745  1.00  0.00     0.006 C 
BRANCH  12  13
ATOM     13  C   UNL     1      11.587  32.251  29.465  1.00  0.00     0.053 C 
BRANCH  13  14
ATOM     14  C   UNL     1      12.908  31.550  29.523  1.00  0.00     0.041 C 
ATOM     15  O   UNL     1      13.879  32.079  30.128  1.00  0.00    -0.550 OA
ATOM     16  O   UNL     1      13.075  30.321  28.894  1.00  0.00    -0.550 OA
ENDBRANCH  13  14
ENDBRANCH  12  13
ENDBRANCH  11  12
ENDBRANCH  10  11
ENDBRANCH   9  10
ENDBRANCH   8   9
ENDBRANCH   7   8
ENDBRANCH   6   7
ENDBRANCH   5   6
ENDBRANCH   4   5
ENDBRANCH   3   4
ENDBRANCH   2   3
ENDBRANCH   1   2
BRANCH   1  17
ATOM     17  C   UNL     1       5.016  28.153  22.898  1.00  0.00     0.000 C 
BRANCH  17  18
ATOM     18  C   UNL     1       5.281  26.634  22.897  1.00  0.00     0.000 C 
BRANCH  18  19
ATOM     19  C   UNL     1       6.759  26.227  22.726  1.00  0.00     0.000 C 
BRANCH  19  20
ATOM     20  C   UNL     1       7.178  24.945  23.471  1.00  0.00     0.000 C 
BRANCH  20  21
ATOM     21  C   UNL     1       6.309  24.663  24.709  1.00  0.00     0.000 C 
BRANCH  21  22
ATOM     22  C   UNL     1       7.141  24.464  25.989  1.00  0.00    -0.000 C 
BRANCH  22  23
ATOM     23  C   UNL     1       7.102  25.639  26.987  1.00  0.00    -0.000 C 
BRANCH  23  24
ATOM     24  C   UNL     1       8.477  26.227  27.360  1.00  0.00    -0.000 C 
BRANCH  24  25
ATOM     25  C   UNL     1       8.680  27.700  26.965  1.00  0.00    -0.000 C 
BRANCH  25  26
ATOM     26  C   UNL     1       8.024  28.048  25.620  1.00  0.00    -0.000 C 
BRANCH  26  27
ATOM     27  C   UNL     1       8.382  29.479  25.188  1.00  0.00    -0.000 C 
BRANCH  27  28
ATOM     28  C   UNL     1       8.280  30.489  26.341  1.00  0.00    -0.000 C 
BRANCH  28  29
ATOM     29  C   UNL     1       9.487  31.437  26.406  1.00  0.00    -0.003 C 
ATOM     30  C   UNL     1      10.789  30.692  26.129  1.00  0.00     0.004 C 
ENDBRANCH  28  29
ENDBRANCH  27  28
ENDBRANCH  26  27
ENDBRANCH  25  26
ENDBRANCH  24  25
ENDBRANCH  23  24
ENDBRANCH  22  23
ENDBRANCH  21  22
ENDBRANCH  20  21
ENDBRANCH  19  20
ENDBRANCH  18  19
ENDBRANCH  17  18
ENDBRANCH   1  17
TORSDOF 26
ENDMDL
MODEL 8
REMARK VINA RESULT:    -4.262      2.225      5.143
REMARK INTER + INTRA:         -16.115
REMARK INTER:                 -11.001
REMARK INTRA:                  -5.114
REMARK UNBOUND:                -5.375
REMARK SMILES CCCCCCCCCCCCCCCCCCCCCCCCCCCC(=O)[O-]
REMARK SMILES IDX 15 1 16 2 17 3 18 4 19 5 20 6 21 7 22 8 23 9 24 10 25 11
REMARK SMILES IDX 26 12 27 13 28 14 29 15 30 16 14 17 13 18 12 19 11 20 10 21
REMARK SMILES IDX 9 22 8 23 7 24 6 25 5 26 4 27 3 28 2 29 1 30
REMARK H PARENT
REMARK Flexibility Score: inf
ROOT
ATOM      1  C   UNL     1       6.738  25.903  26.606  1.00  0.00     0.000 C 
ENDROOT
BRANCH   1   2
ATOM      2  C   UNL     1       8.062  26.315  27.280  1.00  0.00     0.000 C 
BRANCH   2   3
ATOM      3  C   UNL     1       8.005  27.628  28.087  1.00  0.00     0.000 C 
BRANCH   3   4
ATOM      4  C   UNL     1       8.843  28.783  27.508  1.00  0.00     0.000 C 
BRANCH   4   5
ATOM      5  C   UNL     1       8.038  30.079  27.341  1.00  0.00     0.000 C 
BRANCH   5   6
ATOM      6  C   UNL     1       8.462  30.827  26.068  1.00  0.00     0.000 C 
BRANCH   6   7
ATOM      7  C   UNL     1       9.602  30.120  25.317  1.00  0.00     0.000 C 
BRANCH   7   8
ATOM      8  C   UNL     1      10.545  31.107  24.612  1.00  0.00     0.000 C 
BRANCH   8   9
ATOM      9  C   UNL     1      10.386  32.523  25.183  1.00  0.00     0.000 C 
BRANCH   9  10
ATOM     10  C   UNL     1      11.382  32.767  26.327  1.00  0.00     0.000 C 
BRANCH  10  11
ATOM     11  C   UNL     1      10.701  33.247  27.619  1.00  0.00     0.000 C 
BRANCH  11  12
ATOM     12  C   UNL     1      10.737  32.194  28.737  1.00  0.00     0.006 C 
BRANCH  12  13
ATOM     13  C   UNL     1      11.702  31.056  28.391  1.00  0.00     0.053 C 
BRANCH  13  14
ATOM     14  C   UNL     1      13.028  31.266  29.051  1.00  0.00     0.041 C 
ATOM     15  O   UNL     1      14.092  30.982  28.438  1.00  0.00    -0.550 OA
ATOM     16  O   UNL     1      13.092  31.756  30.351  1.00  0.00    -0.550 OA
ENDBRANCH  13  14
ENDBRANCH  12  13
ENDBRANCH  11  12
ENDBRANCH  10  11
ENDBRANCH   9  10
ENDBRANCH   8   9
ENDBRANCH   7   8
ENDBRANCH   6   7
ENDBRANCH   5   6
ENDBRANCH   4   5
ENDBRANCH   3   4
ENDBRANCH   2   3
ENDBRANCH   1   2
BRANCH   1  17
ATOM     17  C   UNL     1       6.825  25.689  25.081  1.00  0.00     0.000 C 
BRANCH  17  18
ATOM     18  C   UNL     1       7.573  26.796  24.311  1.00  0.00     0.000 C 
BRANCH  18  19
ATOM     19  C   UNL     1       6.809  28.129  24.173  1.00  0.00     0.000 C 
BRANCH  19  20
ATOM     20  C   UNL     1       5.369  28.009  23.641  1.00  0.00     0.000 C 
BRANCH  20  21
ATOM     21  C   UNL     1       4.320  28.549  24.629  1.00  0.00     0.000 C 
BRANCH  21  22
ATOM     22  C   UNL     1       4.951  29.259  25.840  1.00  0.00    -0.000 C 
BRANCH  22  23
ATOM     23  C   UNL     1       4.029  29.412  27.067  1.00  0.00    -0.000 C 
BRANCH  23  24
ATOM     24  C   UNL     1       4.641  28.958  28.407  1.00  0.00    -0.000 C 
BRANCH  24  25
ATOM     25  C   UNL     1       4.325  29.871  29.605  1.00  0.00    -0.000 C 
BRANCH  25  26
ATOM     26  C   UNL     1       5.579  30.547  30.181  1.00  0.00    -0.000 C 
BRANCH  26  27
ATOM     27  C   UNL     1       6.576  29.501  30.702  1.00  0.00    -0.000 C 
BRANCH  27  28
ATOM     28  C   UNL     1       6.311  29.104  32.162  1.00  0.00    -0.000 C 
BRANCH  28  29
ATOM     29  C   UNL     1       5.798  27.662  32.300  1.00  0.00    -0.003 C 
ATOM     30  C   UNL     1       6.311  26.783  31.163  1.00  0.00     0.004 C 
ENDBRANCH  28  29
ENDBRANCH  27  28
ENDBRANCH  26  27
ENDBRANCH  25  26
ENDBRANCH  24  25
ENDBRANCH  23  24
ENDBRANCH  22  23
ENDBRANCH  21  22
ENDBRANCH  20  21
ENDBRANCH  19  20
ENDBRANCH  18  19
ENDBRANCH  17  18
ENDBRANCH   1  17
TORSDOF 26
ENDMDL
MODEL 9
REMARK VINA RESULT:    -4.240      2.229      6.591
REMARK INTER + INTRA:         -16.061
REMARK INTER:                 -10.901
REMARK INTRA:                  -5.160
REMARK UNBOUND:                -5.375
REMARK SMILES CCCCCCCCCCCCCCCCCCCCCCCCCCCC(=O)[O-]
REMARK SMILES IDX 15 1 16 2 17 3 18 4 19 5 20 6 21 7 22 8 23 9 24 10 25 11
REMARK SMILES IDX 26 12 27 13 28 14 29 15 30 16 14 17 13 18 12 19 11 20 10 21
REMARK SMILES IDX 9 22 8 23 7 24 6 25 5 26 4 27 3 28 2 29 1 30
REMARK H PARENT
REMARK Flexibility Score: inf
ROOT
ATOM      1  C   UNL     1       8.877  26.357  26.999  1.00  0.00     0.000 C 
ENDROOT
BRANCH   1   2
ATOM      2  C   UNL     1       7.714  25.345  27.031  1.00  0.00     0.000 C 
BRANCH   2   3
ATOM      3  C   UNL     1       6.326  25.952  27.323  1.00  0.00     0.000 C 
BRANCH   3   4
ATOM      4  C   UNL     1       5.937  26.000  28.812  1.00  0.00     0.000 C 
BRANCH   4   5
ATOM      5  C   UNL     1       4.593  26.701  29.056  1.00  0.00     0.000 C 
BRANCH   5   6
ATOM      6  C   UNL     1       4.750  28.227  28.983  1.00  0.00     0.000 C 
BRANCH   6   7
ATOM      7  C   UNL     1       3.457  28.936  28.548  1.00  0.00     0.000 C 
BRANCH   7   8
ATOM      8  C   UNL     1       3.649  29.792  27.287  1.00  0.00     0.000 C 
BRANCH   8   9
ATOM      9  C   UNL     1       4.974  29.454  26.589  1.00  0.00     0.000 C 
BRANCH   9  10
ATOM     10  C   UNL     1       4.742  29.114  25.109  1.00  0.00     0.000 C 
BRANCH  10  11
ATOM     11  C   UNL     1       4.222  27.682  24.900  1.00  0.00     0.000 C 
BRANCH  11  12
ATOM     12  C   UNL     1       5.107  26.860  23.951  1.00  0.00     0.006 C 
BRANCH  12  13
ATOM     13  C   UNL     1       6.432  27.578  23.673  1.00  0.00     0.053 C 
BRANCH  13  14
ATOM     14  C   UNL     1       7.543  26.591  23.500  1.00  0.00     0.041 C 
ATOM     15  O   UNL     1       7.292  25.358  23.443  1.00  0.00    -0.550 OA
ATOM     16  O   UNL     1       8.861  27.031  23.420  1.00  0.00    -0.550 OA
ENDBRANCH  13  14
ENDBRANCH  12  13
ENDBRANCH  11  12
ENDBRANCH  10  11
ENDBRANCH   9  10
ENDBRANCH   8   9
ENDBRANCH   7   8
ENDBRANCH   6   7
ENDBRANCH   5   6
ENDBRANCH   4   5
ENDBRANCH   3   4
ENDBRANCH   2   3
ENDBRANCH   1   2
BRANCH   1  17
ATOM     17  C   UNL     1       8.450  27.833  26.859  1.00  0.00     0.000 C 
BRANCH  17  18
ATOM     18  C   UNL     1       9.079  28.791  27.890  1.00  0.00     0.000 C 
BRANCH  18  19
ATOM     19  C   UNL     1       8.377  30.158  28.027  1.00  0.00     0.000 C 
BRANCH  19  20
ATOM     20  C   UNL     1       7.574  30.358  29.326  1.00  0.00     0.000 C 
BRANCH  20  21
ATOM     21  C   UNL     1       8.469  30.645  30.544  1.00  0.00     0.000 C 
BRANCH  21  22
ATOM     22  C   UNL     1       9.424  31.831  30.315  1.00  0.00    -0.000 C 
BRANCH  22  23
ATOM     23  C   UNL     1      10.860  31.629  30.842  1.00  0.00    -0.000 C 
BRANCH  23  24
ATOM     24  C   UNL     1      11.976  31.833  29.798  1.00  0.00    -0.000 C 
BRANCH  24  25
ATOM     25  C   UNL     1      12.201  30.641  28.851  1.00  0.00    -0.000 C 
BRANCH  25  26
ATOM     26  C   UNL     1      12.130  31.041  27.369  1.00  0.00    -0.000 C 
BRANCH  26  27
ATOM     27  C   UNL     1      11.418  32.391  27.198  1.00  0.00    -0.000 C 
BRANCH  27  28
ATOM     28  C   UNL     1      10.427  32.394  26.024  1.00  0.00    -0.000 C 
BRANCH  28  29
ATOM     29  C   UNL     1      10.902  31.533  24.845  1.00  0.00    -0.003 C 
ATOM     30  C   UNL     1       9.956  30.361  24.601  1.00  0.00     0.004 C 
ENDBRANCH  28  29
ENDBRANCH  27  28
ENDBRANCH  26  27
ENDBRANCH  25  26
ENDBRANCH  24  25
ENDBRANCH  23  24
ENDBRANCH  22  23
ENDBRANCH  21  22
ENDBRANCH  20  21
ENDBRANCH  19  20
ENDBRANCH  18  19
ENDBRANCH  17  18
ENDBRANCH   1  17
TORSDOF 26
ENDMDL
