MODEL 1
REMARK VINA RESULT:    -3.868      0.000      0.000
REMARK INTER + INTRA:          -5.231
REMARK INTER:                  -5.112
REMARK INTRA:                  -0.119
REMARK UNBOUND:                -0.119
REMARK SMILES CCCCCCCO
REMARK SMILES IDX 5 1 4 2 3 3 2 4 1 5 6 6 7 7 8 8
REMARK H PARENT 8 9
REMARK Flexibility Score: inf
ROOT
ATOM      1  C   UNL     1      22.137  20.638  22.245  1.00  0.00     0.002 C 
ENDROOT
BRANCH   1   2
ATOM      2  C   UNL     1      20.923  19.808  21.803  1.00  0.00     0.000 C 
BRANCH   2   3
ATOM      3  C   UNL     1      20.319  18.983  22.950  1.00  0.00    -0.000 C 
BRANCH   3   4
ATOM      4  C   UNL     1      19.599  17.719  22.454  1.00  0.00    -0.003 C 
ATOM      5  C   UNL     1      19.226  17.843  20.979  1.00  0.00     0.004 C 
ENDBRANCH   3   4
ENDBRANCH   2   3
ENDBRANCH   1   2
BRANCH   1   6
ATOM      6  C   UNL     1      21.736  22.094  22.517  1.00  0.00     0.028 C 
BRANCH   6   7
ATOM      7  C   UNL     1      22.956  23.016  22.585  1.00  0.00     0.156 C 
BRANCH   7   8
ATOM      8  O   UNL     1      24.111  22.315  22.215  1.00  0.00    -0.396 OA
ATOM      9  H   UNL     1      24.547  22.037  23.061  1.00  0.00     0.210 HD
ENDBRANCH   7   8
ENDBRANCH   6   7
ENDBRANCH   1   6
TORSDOF 6
ENDMDL
MODEL 2
REMARK VINA RESULT:    -3.867      1.140      1.716
REMARK INTER + INTRA:          -5.229
REMARK INTER:                  -5.085
REMARK INTRA:                  -0.144
REMARK UNBOUND:                -0.119
REMARK SMILES CCCCCCCO
REMARK SMILES IDX 5 1 4 2 3 3 2 4 1 5 6 6 7 7 8 8
REMARK H PARENT 8 9
REMARK Flexibility Score: inf
ROOT
ATOM      1  C   UNL     1      21.189  20.041  22.699  1.00  0.00     0.002 C 
ENDROOT
BRANCH   1   2
ATOM      2  C   UNL     1      20.319  19.329  21.652  1.00  0.00     0.000 C 
BRANCH   2   3
ATOM      3  C   UNL     1      19.799  17.968  22.140  1.00  0.00    -0.000 C 
BRANCH   3   4
ATOM      4  C   UNL     1      19.640  17.909  23.667  1.00  0.00    -0.003 C 
ATOM      5  C   UNL     1      19.991  16.523  24.202  1.00  0.00     0.004 C 
ENDBRANCH   3   4
ENDBRANCH   2   3
ENDBRANCH   1   2
BRANCH   1   6
ATOM      6  C   UNL     1      21.766  21.347  22.136  1.00  0.00     0.028 C 
BRANCH   6   7
ATOM      7  C   UNL     1      23.179  21.150  21.582  1.00  0.00     0.156 C 
BRANCH   7   8
ATOM      8  O   UNL     1      24.040  22.126  22.099  1.00  0.00    -0.396 OA
ATOM      9  H   UNL     1      23.688  22.998  21.784  1.00  0.00     0.210 HD
ENDBRANCH   7   8
ENDBRANCH   6   7
ENDBRANCH   1   6
TORSDOF 6
ENDMDL
MODEL 3
REMARK VINA RESULT:    -3.815      2.570      4.791
REMARK INTER + INTRA:          -5.161
REMARK INTER:                  -4.986
REMARK INTRA:                  -0.175
REMARK UNBOUND:                -0.119
REMARK SMILES CCCCCCCO
REMARK SMILES IDX 5 1 4 2 3 3 2 4 1 5 6 6 7 7 8 8
REMARK H PARENT 8 9
REMARK Flexibility Score: inf
ROOT
ATOM      1  C   UNL     1      19.302  17.427  22.151  1.00  0.00     0.002 C 
ENDROOT
BRANCH   1   2
ATOM      2  C   UNL     1      19.924  18.652  21.463  1.00  0.00     0.000 C 
BRANCH   2   3
ATOM      3  C   UNL     1      20.698  19.551  22.439  1.00  0.00    -0.000 C 
BRANCH   3   4
ATOM      4  C   UNL     1      21.656  20.515  21.722  1.00  0.00    -0.003 C 
ATOM      5  C   UNL     1      21.770  21.838  22.474  1.00  0.00     0.004 C 
ENDBRANCH   3   4
ENDBRANCH   2   3
ENDBRANCH   1   2
BRANCH   1   6
ATOM      6  C   UNL     1      19.653  17.400  23.645  1.00  0.00     0.028 C 
BRANCH   6   7
ATOM      7  C   UNL     1      20.547  16.208  23.995  1.00  0.00     0.156 C 
BRANCH   7   8
ATOM      8  O   UNL     1      21.756  16.289  23.293  1.00  0.00    -0.396 OA
ATOM      9  H   UNL     1      22.122  17.193  23.478  1.00  0.00     0.210 HD
ENDBRANCH   7   8
ENDBRANCH   6   7
ENDBRANCH   1   6
TORSDOF 6
ENDMDL
MODEL 4
REMARK VINA RESULT:    -3.624     10.297     12.262
REMARK INTER + INTRA:          -4.908
REMARK INTER:                  -4.674
REMARK INTRA:                  -0.235
REMARK UNBOUND:                -0.119
REMARK SMILES CCCCCCCO
REMARK SMILES IDX 5 1 4 2 3 3 2 4 1 5 6 6 7 7 8 8
REMARK H PARENT 8 9
REMARK Flexibility Score: inf
ROOT
ATOM      1  C   UNL     1      30.498  25.268  21.989  1.00  0.00     0.002 C 
ENDROOT
BRANCH   1   2
ATOM      2  C   UNL     1      31.743  25.676  22.791  1.00  0.00     0.000 C 
BRANCH   2   3
ATOM      3  C   UNL     1      31.792  27.183  23.084  1.00  0.00    -0.000 C 
BRANCH   3   4
ATOM      4  C   UNL     1      33.041  27.859  22.497  1.00  0.00    -0.003 C 
ATOM      5  C   UNL     1      32.659  29.020  21.583  1.00  0.00     0.004 C 
ENDBRANCH   3   4
ENDBRANCH   2   3
ENDBRANCH   1   2
BRANCH   1   6
ATOM      6  C   UNL     1      29.649  26.495  21.632  1.00  0.00     0.028 C 
BRANCH   6   7
ATOM      7  C   UNL     1      29.105  26.413  20.204  1.00  0.00     0.156 C 
BRANCH   7   8
ATOM      8  O   UNL     1      27.706  26.343  20.225  1.00  0.00    -0.396 OA
ATOM      9  H   UNL     1      27.392  26.877  19.450  1.00  0.00     0.210 HD
ENDBRANCH   7   8
ENDBRANCH   6   7
ENDBRANCH   1   6
TORSDOF 6
ENDMDL
MODEL 5
REMARK VINA RESULT:    -3.613      2.599      5.011
REMARK INTER + INTRA:          -4.893
REMARK INTER:                  -4.778
REMARK INTRA:                  -0.115
REMARK UNBOUND:                -0.119
REMARK SMILES CCCCCCCO
REMARK SMILES IDX 5 1 4 2 3 3 2 4 1 5 6 6 7 7 8 8
REMARK H PARENT 8 9
REMARK Flexibility Score: inf
ROOT
ATOM      1  C   UNL     1      20.792  19.209  21.728  1.00  0.00     0.002 C 
ENDROOT
BRANCH   1   2
ATOM      2  C   UNL     1      21.314  20.400  22.546  1.00  0.00     0.000 C 
BRANCH   2   3
ATOM      3  C   UNL     1      22.397  21.199  21.805  1.00  0.00    -0.000 C 
BRANCH   3   4
ATOM      4  C   UNL     1      22.697  22.549  22.475  1.00  0.00    -0.003 C 
ATOM      5  C   UNL     1      21.496  23.045  23.276  1.00  0.00     0.004 C 
ENDBRANCH   3   4
ENDBRANCH   2   3
ENDBRANCH   1   2
BRANCH   1   6
ATOM      6  C   UNL     1      19.945  18.274  22.601  1.00  0.00     0.028 C 
BRANCH   6   7
ATOM      7  C   UNL     1      19.031  17.382  21.757  1.00  0.00     0.156 C 
BRANCH   7   8
ATOM      8  O   UNL     1      19.418  17.431  20.412  1.00  0.00    -0.396 OA
ATOM      9  H   UNL     1      18.626  17.146  19.887  1.00  0.00     0.210 HD
ENDBRANCH   7   8
ENDBRANCH   6   7
ENDBRANCH   1   6
TORSDOF 6
ENDMDL
MODEL 6
REMARK VINA RESULT:    -3.420      5.613      8.894
REMARK INTER + INTRA:          -4.638
REMARK INTER:                  -4.492
REMARK INTRA:                  -0.146
REMARK UNBOUND:                -0.119
REMARK SMILES CCCCCCCO
REMARK SMILES IDX 5 1 4 2 3 3 2 4 1 5 6 6 7 7 8 8
REMARK H PARENT 8 9
REMARK Flexibility Score: inf
ROOT
ATOM      1  C   UNL     1      25.996  26.190  22.759  1.00  0.00     0.002 C 
ENDROOT
BRANCH   1   2
ATOM      2  C   UNL     1      27.440  26.708  22.677  1.00  0.00     0.000 C 
BRANCH   2   3
ATOM      3  C   UNL     1      28.427  25.638  22.187  1.00  0.00    -0.000 C 
BRANCH   3   4
ATOM      4  C   UNL     1      29.658  26.243  21.493  1.00  0.00    -0.003 C 
ATOM      5  C   UNL     1      29.335  26.650  20.058  1.00  0.00     0.004 C 
ENDBRANCH   3   4
ENDBRANCH   2   3
ENDBRANCH   1   2
BRANCH   1   6
ATOM      6  C   UNL     1      25.964  24.725  23.213  1.00  0.00     0.028 C 
BRANCH   6   7
ATOM      7  C   UNL     1      24.564  24.120  23.083  1.00  0.00     0.156 C 
BRANCH   7   8
ATOM      8  O   UNL     1      24.623  22.918  22.367  1.00  0.00    -0.396 OA
ATOM      9  H   UNL     1      24.393  22.201  23.013  1.00  0.00     0.210 HD
ENDBRANCH   7   8
ENDBRANCH   6   7
ENDBRANCH   1   6
TORSDOF 6
ENDMDL
MODEL 7
REMARK VINA RESULT:    -3.395      8.290      9.242
REMARK INTER + INTRA:          -4.606
REMARK INTER:                  -4.457
REMARK INTRA:                  -0.149
REMARK UNBOUND:                -0.119
REMARK SMILES CCCCCCCO
REMARK SMILES IDX 5 1 4 2 3 3 2 4 1 5 6 6 7 7 8 8
REMARK H PARENT 8 9
REMARK Flexibility Score: inf
ROOT
ATOM      1  C   UNL     1      25.706  27.559  23.328  1.00  0.00     0.002 C 
ENDROOT
BRANCH   1   2
ATOM      2  C   UNL     1      26.062  26.099  23.649  1.00  0.00     0.000 C 
BRANCH   2   3
ATOM      3  C   UNL     1      27.167  25.544  22.737  1.00  0.00    -0.000 C 
BRANCH   3   4
ATOM      4  C   UNL     1      27.984  26.653  22.056  1.00  0.00    -0.003 C 
ATOM      5  C   UNL     1      28.549  26.177  20.720  1.00  0.00     0.004 C 
ENDBRANCH   3   4
ENDBRANCH   2   3
ENDBRANCH   1   2
BRANCH   1   6
ATOM      6  C   UNL     1      24.820  28.161  24.427  1.00  0.00     0.028 C 
BRANCH   6   7
ATOM      7  C   UNL     1      24.432  29.608  24.114  1.00  0.00     0.156 C 
BRANCH   7   8
ATOM      8  O   UNL     1      24.573  29.859  22.743  1.00  0.00    -0.396 OA
ATOM      9  H   UNL     1      24.231  30.778  22.595  1.00  0.00     0.210 HD
ENDBRANCH   7   8
ENDBRANCH   6   7
ENDBRANCH   1   6
TORSDOF 6
ENDMDL
MODEL 8
REMARK VINA RESULT:    -3.308      9.461     11.358
REMARK INTER + INTRA:          -4.490
REMARK INTER:                  -4.206
REMARK INTRA:                  -0.284
REMARK UNBOUND:                -0.119
REMARK SMILES CCCCCCCO
REMARK SMILES IDX 5 1 4 2 3 3 2 4 1 5 6 6 7 7 8 8
REMARK H PARENT 8 9
REMARK Flexibility Score: inf
ROOT
ATOM      1  C   UNL     1      30.379  25.196  21.828  1.00  0.00     0.002 C 
ENDROOT
BRANCH   1   2
ATOM      2  C   UNL     1      31.554  25.571  22.743  1.00  0.00     0.000 C 
BRANCH   2   3
ATOM      3  C   UNL     1      31.497  27.032  23.213  1.00  0.00    -0.000 C 
BRANCH   3   4
ATOM      4  C   UNL     1      31.086  27.163  24.688  1.00  0.00    -0.003 C 
ATOM      5  C   UNL     1      29.700  27.791  24.818  1.00  0.00     0.004 C 
ENDBRANCH   3   4
ENDBRANCH   2   3
ENDBRANCH   1   2
BRANCH   1   6
ATOM      6  C   UNL     1      29.684  26.452  21.285  1.00  0.00     0.028 C 
BRANCH   6   7
ATOM      7  C   UNL     1      28.160  26.317  21.317  1.00  0.00     0.156 C 
BRANCH   7   8
ATOM      8  O   UNL     1      27.649  26.318  20.012  1.00  0.00    -0.396 OA
ATOM      9  H   UNL     1      26.821  26.863  20.042  1.00  0.00     0.210 HD
ENDBRANCH   7   8
ENDBRANCH   6   7
ENDBRANCH   1   6
TORSDOF 6
ENDMDL
MODEL 9
REMARK VINA RESULT:    -3.288      8.682     10.816
REMARK INTER + INTRA:          -4.464
REMARK INTER:                  -4.360
REMARK INTRA:                  -0.104
REMARK UNBOUND:                -0.119
REMARK SMILES CCCCCCCO
REMARK SMILES IDX 5 1 4 2 3 3 2 4 1 5 6 6 7 7 8 8
REMARK H PARENT 8 9
REMARK Flexibility Score: inf
ROOT
ATOM      1  C   UNL     1      28.695  25.970  21.457  1.00  0.00     0.002 C 
ENDROOT
BRANCH   1   2
ATOM      2  C   UNL     1      30.057  25.344  21.790  1.00  0.00     0.000 C 
BRANCH   2   3
ATOM      3  C   UNL     1      30.920  26.243  22.689  1.00  0.00    -0.000 C 
BRANCH   3   4
ATOM      4  C   UNL     1      32.347  25.703  22.869  1.00  0.00    -0.003 C 
ATOM      5  C   UNL     1      32.579  25.227  24.301  1.00  0.00     0.004 C 
ENDBRANCH   3   4
ENDBRANCH   2   3
ENDBRANCH   1   2
BRANCH   1   6
ATOM      6  C   UNL     1      27.652  25.613  22.524  1.00  0.00     0.028 C 
BRANCH   6   7
ATOM      7  C   UNL     1      27.247  26.833  23.354  1.00  0.00     0.156 C 
BRANCH   7   8
ATOM      8  O   UNL     1      26.343  27.627  22.636  1.00  0.00    -0.396 OA
ATOM      9  H   UNL     1      25.494  27.608  23.147  1.00  0.00     0.210 HD
ENDBRANCH   7   8
ENDBRANCH   6   7
ENDBRANCH   1   6
TORSDOF 6
ENDMDL
