MODEL 1
REMARK VINA RESULT:    -2.021      0.000      0.000
REMARK INTER + INTRA:          -2.078
REMARK INTER:                  -2.494
REMARK INTRA:                   0.416
REMARK UNBOUND:                 0.416
REMARK SMILES O=c1c(O)c(-c2cc(O)c(O)c(O)c2)oc2cc(O)cc(O)c12
REMARK SMILES IDX 5 1 3 2 2 3 1 4 23 5 21 6 20 7 18 8 17 9 16 10 15 11 6 12
REMARK SMILES IDX 7 13 8 14 14 15 10 16 12 17 9 18 11 20 13 22 4 24 22 26
REMARK SMILES IDX 19 28
REMARK H PARENT 9 19 11 21 13 23 4 25 22 27 19 29
REMARK Flexibility Score: inf
ROOT
ATOM      1  C   UNL     1       6.509   4.534  13.349  1.00  0.00     0.180 A 
ATOM      2  C   UNL     1       6.921   5.458  12.373  1.00  0.00     0.208 A 
ATOM      3  C   UNL     1       7.060   6.808  12.731  1.00  0.00     0.238 A 
ATOM      4  O   UNL     1       7.357   7.641  11.835  1.00  0.00    -0.285 OA
ATOM      5  C   UNL     1       6.838   7.210  14.070  1.00  0.00     0.111 A 
ATOM      6  C   UNL     1       6.994   8.544  14.554  1.00  0.00     0.134 A 
ATOM      7  C   UNL     1       6.644   8.845  15.877  1.00  0.00     0.093 A 
ATOM      8  C   UNL     1       6.206   7.846  16.751  1.00  0.00     0.123 A 
ATOM      9  C   UNL     1       6.105   6.532  16.304  1.00  0.00     0.094 A 
ATOM     10  C   UNL     1       6.410   6.208  14.979  1.00  0.00     0.146 A 
ATOM     11  O   UNL     1       6.277   4.945  14.589  1.00  0.00    -0.452 OA
ENDROOT
BRANCH   1  12
ATOM     12  C   UNL     1       6.326   3.096  13.046  1.00  0.00     0.029 A 
ATOM     13  C   UNL     1       6.350   2.125  14.061  1.00  0.00     0.062 A 
ATOM     14  C   UNL     1       6.198   0.766  13.751  1.00  0.00     0.162 A 
ATOM     15  C   UNL     1       6.183   2.686  11.711  1.00  0.00     0.062 A 
ATOM     16  C   UNL     1       6.032   0.367  12.414  1.00  0.00     0.200 A 
ATOM     17  C   UNL     1       6.029   1.333  11.393  1.00  0.00     0.162 A 
BRANCH  14  18
ATOM     18  O   UNL     1       6.216  -0.188  14.767  1.00  0.00    -0.504 OA
ATOM     19  H   UNL     1       7.086  -0.549  15.142  1.00  0.00     0.293 HD
ENDBRANCH  14  18
BRANCH  16  20
ATOM     20  O   UNL     1       5.875  -0.981  12.088  1.00  0.00    -0.502 OA
ATOM     21  H   UNL     1       5.069  -1.324  11.579  1.00  0.00     0.293 HD
ENDBRANCH  16  20
BRANCH  17  22
ATOM     22  O   UNL     1       5.876   0.967  10.056  1.00  0.00    -0.504 OA
ATOM     23  H   UNL     1       6.371   0.183   9.651  1.00  0.00     0.293 HD
ENDBRANCH  17  22
ENDBRANCH   1  12
BRANCH   2  24
ATOM     24  O   UNL     1       7.208   5.028  11.075  1.00  0.00    -0.502 OA
ATOM     25  H   UNL     1       7.037   5.606  10.261  1.00  0.00     0.293 HD
ENDBRANCH   2  24
BRANCH   6  26
ATOM     26  O   UNL     1       7.505   9.599  13.793  1.00  0.00    -0.507 OA
ATOM     27  H   UNL     1       8.002  10.394  14.167  1.00  0.00     0.293 HD
ENDBRANCH   6  26
BRANCH   8  28
ATOM     28  O   UNL     1       5.877   8.150  18.070  1.00  0.00    -0.508 OA
ATOM     29  H   UNL     1       6.505   8.680  18.664  1.00  0.00     0.293 HD
ENDBRANCH   8  28
TORSDOF 7
ENDMDL
MODEL 2
REMARK VINA RESULT:    -1.265      2.898      8.901
REMARK INTER + INTRA:          -1.145
REMARK INTER:                  -1.439
REMARK INTRA:                   0.294
REMARK UNBOUND:                 0.416
REMARK SMILES O=c1c(O)c(-c2cc(O)c(O)c(O)c2)oc2cc(O)cc(O)c12
REMARK SMILES IDX 5 1 3 2 2 3 1 4 23 5 21 6 20 7 18 8 17 9 16 10 15 11 6 12
REMARK SMILES IDX 7 13 8 14 14 15 10 16 12 17 9 18 11 20 13 22 4 24 22 26
REMARK SMILES IDX 19 28
REMARK H PARENT 9 19 11 21 13 23 4 25 22 27 19 29
REMARK Flexibility Score: inf
ROOT
ATOM      1  C   UNL     1       6.476  -0.118  12.274  1.00  0.00     0.180 A 
ATOM      2  C   UNL     1       6.318  -1.244  13.100  1.00  0.00     0.208 A 
ATOM      3  C   UNL     1       6.148  -2.505  12.507  1.00  0.00     0.238 A 
ATOM      4  O   UNL     1       5.933  -3.497  13.251  1.00  0.00    -0.285 OA
ATOM      5  C   UNL     1       6.194  -2.633  11.097  1.00  0.00     0.111 A 
ATOM      6  C   UNL     1       6.079  -3.868  10.390  1.00  0.00     0.134 A 
ATOM      7  C   UNL     1       6.031  -3.861   8.990  1.00  0.00     0.093 A 
ATOM      8  C   UNL     1       6.159  -2.669   8.271  1.00  0.00     0.123 A 
ATOM      9  C   UNL     1       6.328  -1.466   8.950  1.00  0.00     0.094 A 
ATOM     10  C   UNL     1       6.341  -1.437  10.347  1.00  0.00     0.146 A 
ATOM     11  O   UNL     1       6.481  -0.264  10.955  1.00  0.00    -0.452 OA
ENDROOT
BRANCH   1  12
ATOM     12  C   UNL     1       6.645   1.247  12.825  1.00  0.00     0.029 A 
ATOM     13  C   UNL     1       6.183   1.580  14.109  1.00  0.00     0.062 A 
ATOM     14  C   UNL     1       6.331   2.883  14.604  1.00  0.00     0.162 A 
ATOM     15  C   UNL     1       7.226   2.245  12.028  1.00  0.00     0.062 A 
ATOM     16  C   UNL     1       6.936   3.870  13.807  1.00  0.00     0.200 A 
ATOM     17  C   UNL     1       7.379   3.547  12.514  1.00  0.00     0.162 A 
BRANCH  14  18
ATOM     18  O   UNL     1       5.875   3.200  15.882  1.00  0.00    -0.504 OA
ATOM     19  H   UNL     1       5.378   2.526  16.452  1.00  0.00     0.293 HD
ENDBRANCH  14  18
BRANCH  16  20
ATOM     20  O   UNL     1       7.096   5.172  14.286  1.00  0.00    -0.502 OA
ATOM     21  H   UNL     1       6.379   5.879  14.177  1.00  0.00     0.293 HD
ENDBRANCH  16  20
BRANCH  17  22
ATOM     22  O   UNL     1       7.975   4.507  11.696  1.00  0.00    -0.504 OA
ATOM     23  H   UNL     1       8.895   4.377  11.294  1.00  0.00     0.293 HD
ENDBRANCH  17  22
ENDBRANCH   1  12
BRANCH   2  24
ATOM     24  O   UNL     1       6.353  -1.106  14.490  1.00  0.00    -0.502 OA
ATOM     25  H   UNL     1       5.585  -0.706  15.016  1.00  0.00     0.293 HD
ENDBRANCH   2  24
BRANCH   6  26
ATOM     26  O   UNL     1       6.033  -5.122  11.006  1.00  0.00    -0.507 OA
ATOM     27  H   UNL     1       6.355  -5.319  11.941  1.00  0.00     0.293 HD
ENDBRANCH   6  26
BRANCH   8  28
ATOM     28  O   UNL     1       6.129  -2.673   6.878  1.00  0.00    -0.508 OA
ATOM     29  H   UNL     1       5.950  -3.522   6.354  1.00  0.00     0.293 HD
ENDBRANCH   8  28
TORSDOF 7
ENDMDL
