MODEL 1
REMARK VINA RESULT:    -4.098      0.000      0.000
REMARK INTER + INTRA:          -4.388
REMARK INTER:                  -5.057
REMARK INTRA:                   0.668
REMARK UNBOUND:                 0.668
REMARK SMILES C=C1[C@H]2CC[C@@H]3[C@H]2C(C)(C)CCC[C@]13C
REMARK SMILES IDX 14 1 6 2 7 3 3 4 2 5 1 6 4 7 5 8 15 9 8 10 9 11 10 12 11 13
REMARK SMILES IDX 13 15 12 16
REMARK H PARENT
REMARK Flexibility Score: 80.00
ROOT
ATOM      1  C   UNL     1     164.980 168.151 200.047  1.00  0.00    -0.008 C 
ATOM      2  C   UNL     1     164.295 167.759 198.686  1.00  0.00     0.003 C 
ATOM      3  C   UNL     1     163.187 166.787 199.120  1.00  0.00     0.006 C 
ATOM      4  C   UNL     1     162.558 167.785 200.095  1.00  0.00     0.019 C 
ATOM      5  C   UNL     1     163.748 168.193 200.920  1.00  0.00    -0.068 C 
ATOM      6  C   UNL     1     163.689 168.606 202.194  1.00  0.00     0.009 C 
ATOM      7  C   UNL     1     162.255 168.977 199.167  1.00  0.00     0.008 C 
ATOM      8  C   UNL     1     163.417 168.926 198.153  1.00  0.00     0.005 C 
ATOM      9  C   UNL     1     165.669 169.540 200.006  1.00  0.00     0.016 C 
ENDROOT
BRANCH   3  10
ATOM     10  C   UNL     1     163.594 165.347 199.663  1.00  0.00    -0.032 C 
ATOM     11  C   UNL     1     163.322 165.120 201.178  1.00  0.00     0.011 C 
ATOM     12  C   UNL     1     162.683 164.309 198.946  1.00  0.00     0.011 C 
BRANCH  10  13
ATOM     13  C   UNL     1     165.061 164.945 199.302  1.00  0.00     0.007 CG0
ATOM     14  G   UNL     1     166.253 165.858 199.686  1.00  0.00     0.000 G0
ENDBRANCH  10  13
ENDBRANCH   3  10
BRANCH   1  15
ATOM     15  C   UNL     1     165.997 167.080 200.574  1.00  0.00     0.011 C 
BRANCH  15  16
ATOM     16  C   UNL     1     166.256 165.864 199.674  1.00  0.00     0.001 CG0
ATOM     17  G   UNL     1     165.065 164.950 199.288  1.00  0.00     0.000 G0
ENDBRANCH  15  16
ENDBRANCH   1  15
TORSDOF 0
ENDMDL
MODEL 2
REMARK VINA RESULT:    -4.096      2.829      5.757
REMARK INTER + INTRA:          -4.386
REMARK INTER:                  -5.057
REMARK INTRA:                   0.671
REMARK UNBOUND:                 0.668
REMARK SMILES C=C1[C@H]2CC[C@@H]3[C@H]2C(C)(C)CCC[C@]13C
REMARK SMILES IDX 14 1 6 2 7 3 3 4 2 5 1 6 4 7 5 8 15 9 8 10 9 11 10 12 11 13
REMARK SMILES IDX 13 15 12 16
REMARK H PARENT
REMARK Flexibility Score: 80.00
ROOT
ATOM      1  C   UNL     1     167.075 164.060 200.141  1.00  0.00    -0.008 C 
ATOM      2  C   UNL     1     167.713 164.296 198.722  1.00  0.00     0.003 C 
ATOM      3  C   UNL     1     168.867 165.266 199.013  1.00  0.00     0.006 C 
ATOM      4  C   UNL     1     169.507 164.347 200.056  1.00  0.00     0.019 C 
ATOM      5  C   UNL     1     168.342 164.062 200.964  1.00  0.00    -0.068 C 
ATOM      6  C   UNL     1     168.444 163.772 202.269  1.00  0.00     0.009 C 
ATOM      7  C   UNL     1     169.734 163.061 199.238  1.00  0.00     0.008 C 
ATOM      8  C   UNL     1     168.531 163.054 198.271  1.00  0.00     0.005 C 
ATOM      9  C   UNL     1     166.344 162.698 200.264  1.00  0.00     0.016 C 
ENDROOT
BRANCH   3  10
ATOM     10  C   UNL     1     168.526 166.766 199.429  1.00  0.00    -0.032 C 
ATOM     11  C   UNL     1     168.871 167.129 200.902  1.00  0.00     0.011 C 
ATOM     12  C   UNL     1     169.436 167.698 198.578  1.00  0.00     0.011 C 
BRANCH  10  13
ATOM     13  C   UNL     1     167.059 167.181 199.090  1.00  0.00     0.007 CG0
ATOM     14  G   UNL     1     165.858 166.342 199.599  1.00  0.00     0.000 G0
ENDBRANCH  10  13
ENDBRANCH   3  10
BRANCH   1  15
ATOM     15  C   UNL     1     166.115 165.211 200.602  1.00  0.00     0.011 C 
BRANCH  15  16
ATOM     16  C   UNL     1     165.857 166.345 199.599  1.00  0.00     0.001 CG0
ATOM     17  G   UNL     1     167.057 167.182 199.088  1.00  0.00     0.000 G0
ENDBRANCH  15  16
ENDBRANCH   1  15
TORSDOF 0
ENDMDL
MODEL 3
REMARK VINA RESULT:    -3.999      2.765      4.954
REMARK INTER + INTRA:          -4.266
REMARK INTER:                  -4.927
REMARK INTRA:                   0.661
REMARK UNBOUND:                 0.668
REMARK SMILES C=C1[C@H]2CC[C@@H]3[C@H]2C(C)(C)CCC[C@]13C
REMARK SMILES IDX 14 1 6 2 7 3 3 4 2 5 1 6 4 7 5 8 15 9 8 10 9 11 10 12 11 13
REMARK SMILES IDX 13 15 12 16
REMARK H PARENT
REMARK Flexibility Score: 80.00
ROOT
ATOM      1  C   UNL     1     164.923 164.394 199.005  1.00  0.00    -0.008 C 
ATOM      2  C   UNL     1     165.686 163.820 197.755  1.00  0.00     0.003 C 
ATOM      3  C   UNL     1     166.782 162.947 198.386  1.00  0.00     0.006 C 
ATOM      4  C   UNL     1     165.787 162.110 199.193  1.00  0.00     0.019 C 
ATOM      5  C   UNL     1     164.994 163.177 199.897  1.00  0.00    -0.068 C 
ATOM      6  C   UNL     1     164.386 163.021 201.081  1.00  0.00     0.009 C 
ATOM      7  C   UNL     1     164.871 161.561 198.083  1.00  0.00     0.008 C 
ATOM      8  C   UNL     1     164.848 162.713 197.056  1.00  0.00     0.005 C 
ATOM      9  C   UNL     1     163.448 164.765 198.702  1.00  0.00     0.016 C 
ENDROOT
BRANCH   3  10
ATOM     10  C   UNL     1     167.983 163.655 199.157  1.00  0.00    -0.032 C 
ATOM     11  C   UNL     1     167.998 163.420 200.695  1.00  0.00     0.011 C 
ATOM     12  C   UNL     1     169.302 163.003 198.653  1.00  0.00     0.011 C 
BRANCH  10  13
ATOM     13  C   UNL     1     168.110 165.178 198.832  1.00  0.00     0.007 CG0
ATOM     14  G   UNL     1     166.900 166.131 199.002  1.00  0.00     0.000 G0
ENDBRANCH  10  13
ENDBRANCH   3  10
BRANCH   1  15
ATOM     15  C   UNL     1     165.640 165.616 199.677  1.00  0.00     0.011 C 
BRANCH  15  16
ATOM     16  C   UNL     1     166.915 166.134 198.998  1.00  0.00     0.001 CG0
ATOM     17  G   UNL     1     168.120 165.173 198.832  1.00  0.00     0.000 G0
ENDBRANCH  15  16
ENDBRANCH   1  15
TORSDOF 0
ENDMDL
MODEL 4
REMARK VINA RESULT:    -3.948      1.311      3.676
REMARK INTER + INTRA:          -4.203
REMARK INTER:                  -4.864
REMARK INTRA:                   0.661
REMARK UNBOUND:                 0.668
REMARK SMILES C=C1[C@H]2CC[C@@H]3[C@H]2C(C)(C)CCC[C@]13C
REMARK SMILES IDX 14 1 6 2 7 3 3 4 2 5 1 6 4 7 5 8 15 9 8 10 9 11 10 12 11 13
REMARK SMILES IDX 13 15 12 16
REMARK H PARENT
REMARK Flexibility Score: 80.00
ROOT
ATOM      1  C   UNL     1     163.821 166.915 199.961  1.00  0.00    -0.008 C 
ATOM      2  C   UNL     1     164.806 166.827 201.184  1.00  0.00     0.003 C 
ATOM      3  C   UNL     1     165.459 168.217 201.209  1.00  0.00     0.006 C 
ATOM      4  C   UNL     1     164.120 168.953 201.287  1.00  0.00     0.019 C 
ATOM      5  C   UNL     1     163.374 168.349 200.129  1.00  0.00    -0.068 C 
ATOM      6  C   UNL     1     162.411 168.968 199.433  1.00  0.00     0.009 C 
ATOM      7  C   UNL     1     163.503 168.340 202.559  1.00  0.00     0.008 C 
ATOM      8  C   UNL     1     164.025 166.888 202.527  1.00  0.00     0.005 C 
ATOM      9  C   UNL     1     162.615 165.948 200.076  1.00  0.00     0.016 C 
ENDROOT
BRANCH   3  10
ATOM     10  C   UNL     1     166.477 168.610 200.048  1.00  0.00    -0.032 C 
ATOM     11  C   UNL     1     165.969 169.720 199.083  1.00  0.00     0.011 C 
ATOM     12  C   UNL     1     167.731 169.232 200.726  1.00  0.00     0.011 C 
BRANCH  10  13
ATOM     13  C   UNL     1     166.998 167.377 199.242  1.00  0.00     0.007 CG0
ATOM     14  G   UNL     1     166.008 166.376 198.593  1.00  0.00     0.000 G0
ENDBRANCH  10  13
ENDBRANCH   3  10
BRANCH   1  15
ATOM     15  C   UNL     1     164.520 166.713 198.571  1.00  0.00     0.011 C 
BRANCH  15  16
ATOM     16  C   UNL     1     166.017 166.375 198.589  1.00  0.00     0.001 CG0
ATOM     17  G   UNL     1     167.003 167.369 199.254  1.00  0.00     0.000 G0
ENDBRANCH  15  16
ENDBRANCH   1  15
TORSDOF 0
ENDMDL
MODEL 5
REMARK VINA RESULT:    -3.939      3.588      5.882
REMARK INTER + INTRA:          -4.192
REMARK INTER:                  -4.854
REMARK INTRA:                   0.662
REMARK UNBOUND:                 0.668
REMARK SMILES C=C1[C@H]2CC[C@@H]3[C@H]2C(C)(C)CCC[C@]13C
REMARK SMILES IDX 14 1 6 2 7 3 3 4 2 5 1 6 4 7 5 8 15 9 8 10 9 11 10 12 11 13
REMARK SMILES IDX 13 15 12 16
REMARK H PARENT
REMARK Flexibility Score: 80.00
ROOT
ATOM      1  C   UNL     1     166.886 164.604 200.173  1.00  0.00    -0.008 C 
ATOM      2  C   UNL     1     168.238 165.132 200.779  1.00  0.00     0.003 C 
ATOM      3  C   UNL     1     168.682 163.984 201.696  1.00  0.00     0.006 C 
ATOM      4  C   UNL     1     168.639 162.942 200.577  1.00  0.00     0.019 C 
ATOM      5  C   UNL     1     167.254 163.146 200.025  1.00  0.00    -0.068 C 
ATOM      6  C   UNL     1     166.522 162.197 199.427  1.00  0.00     0.009 C 
ATOM      7  C   UNL     1     169.604 163.556 199.544  1.00  0.00     0.008 C 
ATOM      8  C   UNL     1     169.377 165.072 199.723  1.00  0.00     0.005 C 
ATOM      9  C   UNL     1     166.551 165.226 198.792  1.00  0.00     0.016 C 
ENDROOT
BRANCH   3  10
ATOM     10  C   UNL     1     167.859 163.700 203.031  1.00  0.00    -0.032 C 
ATOM     11  C   UNL     1     167.065 162.363 203.036  1.00  0.00     0.011 C 
ATOM     12  C   UNL     1     168.892 163.542 204.184  1.00  0.00     0.011 C 
BRANCH  10  13
ATOM     13  C   UNL     1     166.936 164.890 203.449  1.00  0.00     0.007 CG0
ATOM     14  G   UNL     1     165.902 165.480 202.456  1.00  0.00     0.000 G0
ENDBRANCH  10  13
ENDBRANCH   3  10
BRANCH   1  15
ATOM     15  C   UNL     1     165.655 164.770 201.131  1.00  0.00     0.011 C 
BRANCH  15  16
ATOM     16  C   UNL     1     165.905 165.488 202.464  1.00  0.00     0.001 CG0
ATOM     17  G   UNL     1     166.937 164.892 203.456  1.00  0.00     0.000 G0
ENDBRANCH  15  16
ENDBRANCH   1  15
TORSDOF 0
ENDMDL
MODEL 6
REMARK VINA RESULT:    -3.936      3.135      5.089
REMARK INTER + INTRA:          -4.188
REMARK INTER:                  -4.852
REMARK INTRA:                   0.664
REMARK UNBOUND:                 0.668
REMARK SMILES C=C1[C@H]2CC[C@@H]3[C@H]2C(C)(C)CCC[C@]13C
REMARK SMILES IDX 14 1 6 2 7 3 3 4 2 5 1 6 4 7 5 8 15 9 8 10 9 11 10 12 11 13
REMARK SMILES IDX 13 15 12 16
REMARK H PARENT
REMARK Flexibility Score: 80.00
ROOT
ATOM      1  C   UNL     1     168.212 165.189 199.809  1.00  0.00    -0.008 C 
ATOM      2  C   UNL     1     167.232 165.228 201.039  1.00  0.00     0.003 C 
ATOM      3  C   UNL     1     166.605 163.826 201.032  1.00  0.00     0.006 C 
ATOM      4  C   UNL     1     167.958 163.114 201.085  1.00  0.00     0.019 C 
ATOM      5  C   UNL     1     168.687 163.760 199.940  1.00  0.00    -0.068 C 
ATOM      6  C   UNL     1     169.658 163.176 199.225  1.00  0.00     0.009 C 
ATOM      7  C   UNL     1     168.570 163.706 202.370  1.00  0.00     0.008 C 
ATOM      8  C   UNL     1     168.021 165.149 202.376  1.00  0.00     0.005 C 
ATOM      9  C   UNL     1     169.402 166.175 199.944  1.00  0.00     0.016 C 
ENDROOT
BRANCH   3  10
ATOM     10  C   UNL     1     165.589 163.443 199.866  1.00  0.00    -0.032 C 
ATOM     11  C   UNL     1     166.114 162.370 198.870  1.00  0.00     0.011 C 
ATOM     12  C   UNL     1     164.351 162.778 200.534  1.00  0.00     0.011 C 
BRANCH  10  13
ATOM     13  C   UNL     1     165.039 164.686 199.095  1.00  0.00     0.007 CG0
ATOM     14  G   UNL     1     166.006 165.716 198.456  1.00  0.00     0.000 G0
ENDBRANCH  10  13
ENDBRANCH   3  10
BRANCH   1  15
ATOM     15  C   UNL     1     167.504 165.412 198.428  1.00  0.00     0.011 C 
BRANCH  15  16
ATOM     16  C   UNL     1     166.000 165.720 198.460  1.00  0.00     0.001 CG0
ATOM     17  G   UNL     1     165.036 164.686 199.096  1.00  0.00     0.000 G0
ENDBRANCH  15  16
ENDBRANCH   1  15
TORSDOF 0
ENDMDL
MODEL 7
REMARK VINA RESULT:    -3.930      1.989      3.416
REMARK INTER + INTRA:          -4.182
REMARK INTER:                  -4.846
REMARK INTRA:                   0.664
REMARK UNBOUND:                 0.668
REMARK SMILES C=C1[C@H]2CC[C@@H]3[C@H]2C(C)(C)CCC[C@]13C
REMARK SMILES IDX 14 1 6 2 7 3 3 4 2 5 1 6 4 7 5 8 15 9 8 10 9 11 10 12 11 13
REMARK SMILES IDX 13 15 12 16
REMARK H PARENT
REMARK Flexibility Score: 80.00
ROOT
ATOM      1  C   UNL     1     167.450 167.611 198.740  1.00  0.00    -0.008 C 
ATOM      2  C   UNL     1     166.599 168.224 197.568  1.00  0.00     0.003 C 
ATOM      3  C   UNL     1     165.480 168.977 198.304  1.00  0.00     0.006 C 
ATOM      4  C   UNL     1     166.456 169.815 199.133  1.00  0.00     0.019 C 
ATOM      5  C   UNL     1     167.343 168.753 199.723  1.00  0.00    -0.068 C 
ATOM      6  C   UNL     1     167.992 168.862 200.891  1.00  0.00     0.009 C 
ATOM      7  C   UNL     1     167.288 170.501 198.032  1.00  0.00     0.008 C 
ATOM      8  C   UNL     1     167.336 169.430 196.922  1.00  0.00     0.005 C 
ATOM      9  C   UNL     1     168.930 167.359 198.353  1.00  0.00     0.016 C 
ENDROOT
BRANCH   3  10
ATOM     10  C   UNL     1     164.360 168.139 199.067  1.00  0.00    -0.032 C 
ATOM     11  C   UNL     1     164.400 168.257 200.617  1.00  0.00     0.011 C 
ATOM     12  C   UNL     1     162.983 168.742 198.667  1.00  0.00     0.011 C 
BRANCH  10  13
ATOM     13  C   UNL     1     164.309 166.640 198.631  1.00  0.00     0.007 CG0
ATOM     14  G   UNL     1     165.582 165.755 198.675  1.00  0.00     0.000 G0
ENDBRANCH  10  13
ENDBRANCH   3  10
BRANCH   1  15
ATOM     15  C   UNL     1     166.839 166.300 199.346  1.00  0.00     0.011 C 
BRANCH  15  16
ATOM     16  C   UNL     1     165.572 165.749 198.678  1.00  0.00     0.001 CG0
ATOM     17  G   UNL     1     164.300 166.634 198.637  1.00  0.00     0.000 G0
ENDBRANCH  15  16
ENDBRANCH   1  15
TORSDOF 0
ENDMDL
MODEL 8
REMARK VINA RESULT:    -3.913      2.140      4.113
REMARK INTER + INTRA:          -4.160
REMARK INTER:                  -4.810
REMARK INTRA:                   0.650
REMARK UNBOUND:                 0.668
REMARK SMILES C=C1[C@H]2CC[C@@H]3[C@H]2C(C)(C)CCC[C@]13C
REMARK SMILES IDX 14 1 6 2 7 3 3 4 2 5 1 6 4 7 5 8 15 9 8 10 9 11 10 12 11 13
REMARK SMILES IDX 13 15 12 16
REMARK H PARENT
REMARK Flexibility Score: 80.00
ROOT
ATOM      1  C   UNL     1     163.435 166.614 200.677  1.00  0.00    -0.008 C 
ATOM      2  C   UNL     1     162.678 167.973 200.909  1.00  0.00     0.003 C 
ATOM      3  C   UNL     1     163.805 168.940 201.300  1.00  0.00     0.006 C 
ATOM      4  C   UNL     1     164.617 168.661 200.033  1.00  0.00     0.019 C 
ATOM      5  C   UNL     1     164.697 167.159 200.049  1.00  0.00    -0.068 C 
ATOM      6  C   UNL     1     165.691 166.441 199.509  1.00  0.00     0.009 C 
ATOM      7  C   UNL     1     163.604 169.023 198.930  1.00  0.00     0.008 C 
ATOM      8  C   UNL     1     162.255 168.608 199.555  1.00  0.00     0.005 C 
ATOM      9  C   UNL     1     162.701 165.665 199.695  1.00  0.00     0.016 C 
ENDROOT
BRANCH   3  10
ATOM     10  C   UNL     1     164.517 168.762 202.714  1.00  0.00    -0.032 C 
ATOM     11  C   UNL     1     165.999 168.294 202.644  1.00  0.00     0.011 C 
ATOM     12  C   UNL     1     164.586 170.168 203.376  1.00  0.00     0.011 C 
BRANCH  10  13
ATOM     13  C   UNL     1     163.705 167.867 203.704  1.00  0.00     0.007 CG0
ATOM     14  G   UNL     1     163.241 166.445 203.293  1.00  0.00     0.000 G0
ENDBRANCH  10  13
ENDBRANCH   3  10
BRANCH   1  15
ATOM     15  C   UNL     1     163.765 165.840 202.000  1.00  0.00     0.011 C 
BRANCH  15  16
ATOM     16  C   UNL     1     163.239 166.445 203.309  1.00  0.00     0.001 CG0
ATOM     17  G   UNL     1     163.695 167.870 203.714  1.00  0.00     0.000 G0
ENDBRANCH  15  16
ENDBRANCH   1  15
TORSDOF 0
ENDMDL
MODEL 9
REMARK VINA RESULT:    -3.790      1.425      3.694
REMARK INTER + INTRA:          -4.008
REMARK INTER:                  -4.679
REMARK INTRA:                   0.670
REMARK UNBOUND:                 0.668
REMARK SMILES C=C1[C@H]2CC[C@@H]3[C@H]2C(C)(C)CCC[C@]13C
REMARK SMILES IDX 14 1 6 2 7 3 3 4 2 5 1 6 4 7 5 8 15 9 8 10 9 11 10 12 11 13
REMARK SMILES IDX 13 15 12 16
REMARK H PARENT
REMARK Flexibility Score: 80.00
ROOT
ATOM      1  C   UNL     1     164.115 166.522 199.074  1.00  0.00    -0.008 C 
ATOM      2  C   UNL     1     164.257 167.756 200.039  1.00  0.00     0.003 C 
ATOM      3  C   UNL     1     164.876 168.835 199.138  1.00  0.00     0.006 C 
ATOM      4  C   UNL     1     163.765 168.738 198.091  1.00  0.00     0.019 C 
ATOM      5  C   UNL     1     163.740 167.261 197.810  1.00  0.00    -0.068 C 
ATOM      6  C   UNL     1     163.360 166.710 196.649  1.00  0.00     0.009 C 
ATOM      7  C   UNL     1     162.513 169.031 198.941  1.00  0.00     0.008 C 
ATOM      8  C   UNL     1     162.873 168.410 200.307  1.00  0.00     0.005 C 
ATOM      9  C   UNL     1     162.984 165.546 199.492  1.00  0.00     0.016 C 
ENDROOT
BRANCH   3  10
ATOM     10  C   UNL     1     166.387 168.666 198.661  1.00  0.00    -0.032 C 
ATOM     11  C   UNL     1     166.564 168.397 197.139  1.00  0.00     0.011 C 
ATOM     12  C   UNL     1     167.100 170.029 198.899  1.00  0.00     0.011 C 
BRANCH  10  13
ATOM     13  C   UNL     1     167.185 167.618 199.501  1.00  0.00     0.007 CG0
ATOM     14  G   UNL     1     166.651 166.174 199.683  1.00  0.00     0.000 G0
ENDBRANCH  10  13
ENDBRANCH   3  10
BRANCH   1  15
ATOM     15  C   UNL     1     165.447 165.720 198.872  1.00  0.00     0.011 C 
BRANCH  15  16
ATOM     16  C   UNL     1     166.666 166.180 199.684  1.00  0.00     0.001 CG0
ATOM     17  G   UNL     1     167.182 167.631 199.504  1.00  0.00     0.000 G0
ENDBRANCH  15  16
ENDBRANCH   1  15
TORSDOF 0
ENDMDL
