MODEL 1
REMARK VINA RESULT:    -4.129      0.000      0.000
REMARK INTER + INTRA:          -4.794
REMARK INTER:                  -4.733
REMARK INTRA:                  -0.061
REMARK UNBOUND:                -0.061
REMARK SMILES COc1cc(C=O)ccc1O
REMARK SMILES IDX 3 1 10 2 9 3 8 4 5 5 4 6 2 7 1 8 11 9 6 11 7 12
REMARK H PARENT 11 10
REMARK Flexibility Score: inf
ROOT
ATOM      1  C   UNL     1      -1.465   8.510   4.015  1.00  0.00     0.161 A 
ATOM      2  C   UNL     1      -0.533   8.587   5.060  1.00  0.00     0.157 A 
ATOM      3  C   UNL     1       0.378   7.543   5.268  1.00  0.00     0.051 A 
ATOM      4  C   UNL     1       0.365   6.420   4.438  1.00  0.00     0.015 A 
ATOM      5  C   UNL     1      -0.561   6.327   3.388  1.00  0.00     0.018 A 
ATOM      6  C   UNL     1      -1.474   7.374   3.181  1.00  0.00     0.062 A 
ENDROOT
BRANCH   1   7
ATOM      7  O   UNL     1      -2.361   9.575   3.839  1.00  0.00    -0.493 OA
ATOM      8  C   UNL     1      -3.744   9.424   3.532  1.00  0.00     0.278 C 
ENDBRANCH   1   7
BRANCH   2   9
ATOM      9  O   UNL     1      -0.519   9.706   5.890  1.00  0.00    -0.504 OA
ATOM     10  H   UNL     1      -1.301  10.348   5.930  1.00  0.00     0.293 HD
ENDBRANCH   2   9
BRANCH   5  11
ATOM     11  C   UNL     1      -0.590   5.150   2.501  1.00  0.00     0.260 C 
ATOM     12  O   UNL     1      -1.293   5.139   1.455  1.00  0.00    -0.298 OA
ENDBRANCH   5  11
TORSDOF 3
ENDMDL
MODEL 2
REMARK VINA RESULT:    -4.064      1.303      2.961
REMARK INTER + INTRA:          -4.720
REMARK INTER:                  -4.660
REMARK INTRA:                  -0.059
REMARK UNBOUND:                -0.061
REMARK SMILES COc1cc(C=O)ccc1O
REMARK SMILES IDX 3 1 10 2 9 3 8 4 5 5 4 6 2 7 1 8 11 9 6 11 7 12
REMARK H PARENT 11 10
REMARK Flexibility Score: inf
ROOT
ATOM      1  C   UNL     1       0.319   7.434   5.382  1.00  0.00     0.161 A 
ATOM      2  C   UNL     1      -0.223   8.650   4.944  1.00  0.00     0.157 A 
ATOM      3  C   UNL     1      -0.888   8.721   3.713  1.00  0.00     0.051 A 
ATOM      4  C   UNL     1      -1.014   7.583   2.913  1.00  0.00     0.015 A 
ATOM      5  C   UNL     1      -0.477   6.358   3.337  1.00  0.00     0.018 A 
ATOM      6  C   UNL     1       0.189   6.288   4.572  1.00  0.00     0.062 A 
ENDROOT
BRANCH   1   7
ATOM      7  O   UNL     1       0.978   7.404   6.620  1.00  0.00    -0.493 OA
ATOM      8  C   UNL     1       1.182   6.228   7.397  1.00  0.00     0.278 C 
ENDBRANCH   1   7
BRANCH   2   9
ATOM      9  O   UNL     1      -0.098   9.788   5.740  1.00  0.00    -0.504 OA
ATOM     10  H   UNL     1      -0.798  10.520   5.734  1.00  0.00     0.293 HD
ENDBRANCH   2   9
BRANCH   5  11
ATOM     11  C   UNL     1      -0.601   5.145   2.507  1.00  0.00     0.260 C 
ATOM     12  O   UNL     1      -1.312   5.138   1.467  1.00  0.00    -0.298 OA
ENDBRANCH   5  11
TORSDOF 3
ENDMDL
MODEL 3
REMARK VINA RESULT:    -3.904      1.584      1.846
REMARK INTER + INTRA:          -4.536
REMARK INTER:                  -4.489
REMARK INTRA:                  -0.047
REMARK UNBOUND:                -0.061
REMARK SMILES COc1cc(C=O)ccc1O
REMARK SMILES IDX 3 1 10 2 9 3 8 4 5 5 4 6 2 7 1 8 11 9 6 11 7 12
REMARK H PARENT 11 10
REMARK Flexibility Score: inf
ROOT
ATOM      1  C   UNL     1      -0.030   8.977   3.837  1.00  0.00     0.161 A 
ATOM      2  C   UNL     1       0.860   8.665   4.875  1.00  0.00     0.157 A 
ATOM      3  C   UNL     1       1.110   7.328   5.209  1.00  0.00     0.051 A 
ATOM      4  C   UNL     1       0.475   6.297   4.512  1.00  0.00     0.015 A 
ATOM      5  C   UNL     1      -0.418   6.592   3.471  1.00  0.00     0.018 A 
ATOM      6  C   UNL     1      -0.668   7.933   3.138  1.00  0.00     0.062 A 
ENDROOT
BRANCH   1   7
ATOM      7  O   UNL     1      -0.255  10.328   3.533  1.00  0.00    -0.493 OA
ATOM      8  C   UNL     1       0.502  11.079   2.589  1.00  0.00     0.278 C 
ENDBRANCH   1   7
BRANCH   2   9
ATOM      9  O   UNL     1       1.494   9.692   5.571  1.00  0.00    -0.504 OA
ATOM     10  H   UNL     1       1.345   9.832   6.563  1.00  0.00     0.293 HD
ENDBRANCH   2   9
BRANCH   5  11
ATOM     11  C   UNL     1      -1.098   5.517   2.724  1.00  0.00     0.260 C 
ATOM     12  O   UNL     1      -1.052   5.470   1.465  1.00  0.00    -0.298 OA
ENDBRANCH   5  11
TORSDOF 3
ENDMDL
MODEL 4
REMARK VINA RESULT:    -3.821     14.558     16.017
REMARK INTER + INTRA:          -4.441
REMARK INTER:                  -4.387
REMARK INTRA:                  -0.054
REMARK UNBOUND:                -0.061
REMARK SMILES COc1cc(C=O)ccc1O
REMARK SMILES IDX 3 1 10 2 9 3 8 4 5 5 4 6 2 7 1 8 11 9 6 11 7 12
REMARK H PARENT 11 10
REMARK Flexibility Score: inf
ROOT
ATOM      1  C   UNL     1       7.947  -5.256   0.026  1.00  0.00     0.161 A 
ATOM      2  C   UNL     1       6.943  -4.972   0.963  1.00  0.00     0.157 A 
ATOM      3  C   UNL     1       6.933  -3.743   1.633  1.00  0.00     0.051 A 
ATOM      4  C   UNL     1       7.923  -2.791   1.376  1.00  0.00     0.015 A 
ATOM      5  C   UNL     1       8.935  -3.059   0.441  1.00  0.00     0.018 A 
ATOM      6  C   UNL     1       8.943  -4.292  -0.231  1.00  0.00     0.062 A 
ENDROOT
BRANCH   1   7
ATOM      7  O   UNL     1       7.923  -6.498  -0.624  1.00  0.00    -0.493 OA
ATOM      8  C   UNL     1       8.598  -6.784  -1.845  1.00  0.00     0.278 C 
ENDBRANCH   1   7
BRANCH   2   9
ATOM      9  O   UNL     1       5.955  -5.920   1.222  1.00  0.00    -0.504 OA
ATOM     10  H   UNL     1       5.107  -5.681   1.721  1.00  0.00     0.293 HD
ENDBRANCH   2   9
BRANCH   5  11
ATOM     11  C   UNL     1       9.988  -2.066   0.155  1.00  0.00     0.260 C 
ATOM     12  O   UNL     1      10.290  -1.762  -1.030  1.00  0.00    -0.298 OA
ENDBRANCH   5  11
TORSDOF 3
ENDMDL
MODEL 5
REMARK VINA RESULT:    -3.777     15.517     16.775
REMARK INTER + INTRA:          -4.390
REMARK INTER:                  -4.321
REMARK INTRA:                  -0.069
REMARK UNBOUND:                -0.061
REMARK SMILES COc1cc(C=O)ccc1O
REMARK SMILES IDX 3 1 10 2 9 3 8 4 5 5 4 6 2 7 1 8 11 9 6 11 7 12
REMARK H PARENT 11 10
REMARK Flexibility Score: inf
ROOT
ATOM      1  C   UNL     1       7.187  -5.812   1.238  1.00  0.00     0.161 A 
ATOM      2  C   UNL     1       6.749  -7.079   0.829  1.00  0.00     0.157 A 
ATOM      3  C   UNL     1       7.128  -7.584  -0.421  1.00  0.00     0.051 A 
ATOM      4  C   UNL     1       7.942  -6.831  -1.269  1.00  0.00     0.015 A 
ATOM      5  C   UNL     1       8.390  -5.560  -0.875  1.00  0.00     0.018 A 
ATOM      6  C   UNL     1       8.009  -5.055   0.379  1.00  0.00     0.062 A 
ENDROOT
BRANCH   1   7
ATOM      7  O   UNL     1       6.786  -5.340   2.497  1.00  0.00    -0.493 OA
ATOM      8  C   UNL     1       7.676  -5.052   3.572  1.00  0.00     0.278 C 
ENDBRANCH   1   7
BRANCH   2   9
ATOM      9  O   UNL     1       5.936  -7.833   1.673  1.00  0.00    -0.504 OA
ATOM     10  H   UNL     1       4.937  -7.908   1.520  1.00  0.00     0.293 HD
ENDBRANCH   2   9
BRANCH   5  11
ATOM     11  C   UNL     1       9.252  -4.750  -1.755  1.00  0.00     0.260 C 
ATOM     12  O   UNL     1       8.758  -3.913  -2.558  1.00  0.00    -0.298 OA
ENDBRANCH   5  11
TORSDOF 3
ENDMDL
MODEL 6
REMARK VINA RESULT:    -3.775     13.539     16.304
REMARK INTER + INTRA:          -4.389
REMARK INTER:                  -4.391
REMARK INTRA:                   0.002
REMARK UNBOUND:                -0.061
REMARK SMILES COc1cc(C=O)ccc1O
REMARK SMILES IDX 3 1 10 2 9 3 8 4 5 5 4 6 2 7 1 8 11 9 6 11 7 12
REMARK H PARENT 11 10
REMARK Flexibility Score: inf
ROOT
ATOM      1  C   UNL     1       6.944  -6.154   0.830  1.00  0.00     0.161 A 
ATOM      2  C   UNL     1       7.706  -6.306  -0.338  1.00  0.00     0.157 A 
ATOM      3  C   UNL     1       8.447  -5.229  -0.839  1.00  0.00     0.051 A 
ATOM      4  C   UNL     1       8.433  -3.997  -0.182  1.00  0.00     0.015 A 
ATOM      5  C   UNL     1       7.677  -3.827   0.988  1.00  0.00     0.018 A 
ATOM      6  C   UNL     1       6.934  -4.909   1.490  1.00  0.00     0.062 A 
ENDROOT
BRANCH   1   7
ATOM      7  O   UNL     1       6.215  -7.256   1.301  1.00  0.00    -0.493 OA
ATOM      8  C   UNL     1       6.765  -8.314   2.081  1.00  0.00     0.278 C 
ENDBRANCH   1   7
BRANCH   2   9
ATOM      9  O   UNL     1       7.721  -7.535  -0.995  1.00  0.00    -0.504 OA
ATOM     10  H   UNL     1       7.229  -7.675  -1.870  1.00  0.00     0.293 HD
ENDBRANCH   2   9
BRANCH   5  11
ATOM     11  C   UNL     1       7.650  -2.534   1.697  1.00  0.00     0.260 C 
ATOM     12  O   UNL     1       6.638  -2.173   2.355  1.00  0.00    -0.298 OA
ENDBRANCH   5  11
TORSDOF 3
ENDMDL
MODEL 7
REMARK VINA RESULT:    -3.750     13.051     15.369
REMARK INTER + INTRA:          -4.360
REMARK INTER:                  -4.300
REMARK INTRA:                  -0.060
REMARK UNBOUND:                -0.061
REMARK SMILES COc1cc(C=O)ccc1O
REMARK SMILES IDX 3 1 10 2 9 3 8 4 5 5 4 6 2 7 1 8 11 9 6 11 7 12
REMARK H PARENT 11 10
REMARK Flexibility Score: inf
ROOT
ATOM      1  C   UNL     1       7.423  -3.519   0.980  1.00  0.00     0.161 A 
ATOM      2  C   UNL     1       8.395  -3.489  -0.031  1.00  0.00     0.157 A 
ATOM      3  C   UNL     1       8.709  -4.657  -0.738  1.00  0.00     0.051 A 
ATOM      4  C   UNL     1       8.059  -5.857  -0.442  1.00  0.00     0.015 A 
ATOM      5  C   UNL     1       7.084  -5.904   0.566  1.00  0.00     0.018 A 
ATOM      6  C   UNL     1       6.770  -4.732   1.275  1.00  0.00     0.062 A 
ENDROOT
BRANCH   1   7
ATOM      7  O   UNL     1       7.137  -2.328   1.665  1.00  0.00    -0.493 OA
ATOM      8  C   UNL     1       7.010  -2.223   3.080  1.00  0.00     0.278 C 
ENDBRANCH   1   7
BRANCH   2   9
ATOM      9  O   UNL     1       9.045  -2.293  -0.328  1.00  0.00    -0.504 OA
ATOM     10  H   UNL     1       8.681  -1.400  -0.019  1.00  0.00     0.293 HD
ENDBRANCH   2   9
BRANCH   5  11
ATOM     11  C   UNL     1       6.387  -7.161   0.893  1.00  0.00     0.260 C 
ATOM     12  O   UNL     1       6.527  -7.710   2.019  1.00  0.00    -0.298 OA
ENDBRANCH   5  11
TORSDOF 3
ENDMDL
MODEL 8
REMARK VINA RESULT:    -3.726      2.175      3.999
REMARK INTER + INTRA:          -4.332
REMARK INTER:                  -4.275
REMARK INTRA:                  -0.057
REMARK UNBOUND:                -0.061
REMARK SMILES COc1cc(C=O)ccc1O
REMARK SMILES IDX 3 1 10 2 9 3 8 4 5 5 4 6 2 7 1 8 11 9 6 11 7 12
REMARK H PARENT 11 10
REMARK Flexibility Score: inf
ROOT
ATOM      1  C   UNL     1      -0.848   6.499   4.612  1.00  0.00     0.161 A 
ATOM      2  C   UNL     1      -0.415   6.616   5.940  1.00  0.00     0.157 A 
ATOM      3  C   UNL     1      -1.129   7.413   6.845  1.00  0.00     0.051 A 
ATOM      4  C   UNL     1      -2.275   8.096   6.431  1.00  0.00     0.015 A 
ATOM      5  C   UNL     1      -2.722   7.989   5.105  1.00  0.00     0.018 A 
ATOM      6  C   UNL     1      -2.005   7.191   4.199  1.00  0.00     0.062 A 
ENDROOT
BRANCH   1   7
ATOM      7  O   UNL     1      -0.106   5.692   3.736  1.00  0.00    -0.493 OA
ATOM      8  C   UNL     1      -0.595   5.182   2.500  1.00  0.00     0.278 C 
ENDBRANCH   1   7
BRANCH   2   9
ATOM      9  O   UNL     1       0.728   5.935   6.355  1.00  0.00    -0.504 OA
ATOM     10  H   UNL     1       1.323   6.296   7.092  1.00  0.00     0.293 HD
ENDBRANCH   2   9
BRANCH   5  11
ATOM     11  C   UNL     1      -3.929   8.703   4.650  1.00  0.00     0.260 C 
ATOM     12  O   UNL     1      -4.921   8.857   5.412  1.00  0.00    -0.298 OA
ENDBRANCH   5  11
TORSDOF 3
ENDMDL
MODEL 9
REMARK VINA RESULT:    -3.671     13.789     15.247
REMARK INTER + INTRA:          -4.269
REMARK INTER:                  -4.197
REMARK INTRA:                  -0.072
REMARK UNBOUND:                -0.061
REMARK SMILES COc1cc(C=O)ccc1O
REMARK SMILES IDX 3 1 10 2 9 3 8 4 5 5 4 6 2 7 1 8 11 9 6 11 7 12
REMARK H PARENT 11 10
REMARK Flexibility Score: inf
ROOT
ATOM      1  C   UNL     1       7.476  -4.812   3.022  1.00  0.00     0.161 A 
ATOM      2  C   UNL     1       6.930  -4.585   1.751  1.00  0.00     0.157 A 
ATOM      3  C   UNL     1       7.236  -3.410   1.054  1.00  0.00     0.051 A 
ATOM      4  C   UNL     1       8.085  -2.456   1.619  1.00  0.00     0.015 A 
ATOM      5  C   UNL     1       8.640  -2.667   2.890  1.00  0.00     0.018 A 
ATOM      6  C   UNL     1       8.332  -3.847   3.588  1.00  0.00     0.062 A 
ENDROOT
BRANCH   1   7
ATOM      7  O   UNL     1       7.145  -6.002   3.689  1.00  0.00    -0.493 OA
ATOM      8  C   UNL     1       8.059  -7.064   3.944  1.00  0.00     0.278 C 
ENDBRANCH   1   7
BRANCH   2   9
ATOM      9  O   UNL     1       6.082  -5.536   1.185  1.00  0.00    -0.504 OA
ATOM     10  H   UNL     1       6.101  -6.506   1.477  1.00  0.00     0.293 HD
ENDBRANCH   2   9
BRANCH   5  11
ATOM     11  C   UNL     1       9.540  -1.672   3.503  1.00  0.00     0.260 C 
ATOM     12  O   UNL     1       9.090  -0.597   3.983  1.00  0.00    -0.298 OA
ENDBRANCH   5  11
TORSDOF 3
ENDMDL
