MODEL 1
REMARK VINA RESULT:    -4.399      0.000      0.000
REMARK INTER + INTRA:          -5.616
REMARK INTER:                  -5.300
REMARK INTRA:                  -0.316
REMARK UNBOUND:                -0.316
REMARK SMILES [NH3+][C@H](Cc1cnc[nH]1)C(=O)[O-]
REMARK SMILES IDX 3 1 2 2 1 3 9 7 10 8 11 9 4 10 5 11 8 12 6 13 7 14
REMARK H PARENT 1 4 1 5 1 6 8 15
REMARK Flexibility Score: inf
ROOT
ATOM      1  C   UNL     1     -18.319  -7.624  43.135  1.00  0.00     0.127 C 
ENDROOT
BRANCH   1   2
ATOM      2  C   UNL     1     -19.602  -7.851  43.960  1.00  0.00     0.233 C 
BRANCH   2   3
ATOM      3  N   UNL     1     -20.370  -6.607  44.109  1.00  0.00    -0.350 N 
ATOM      4  H   UNL     1     -21.220  -6.621  43.499  1.00  0.00     0.345 HD
ATOM      5  H   UNL     1     -20.667  -6.491  45.106  1.00  0.00     0.345 HD
ATOM      6  H   UNL     1     -19.776  -5.785  43.855  1.00  0.00     0.345 HD
ENDBRANCH   2   3
BRANCH   2   7
ATOM      7  C   UNL     1     -20.448  -8.906  43.299  1.00  0.00     0.099 C 
ATOM      8  O   UNL     1     -20.137 -10.121  43.402  1.00  0.00    -0.544 OA
ATOM      9  O   UNL     1     -21.566  -8.544  42.557  1.00  0.00    -0.544 OA
ENDBRANCH   2   7
ENDBRANCH   1   2
BRANCH   1  10
ATOM     10  C   UNL     1     -17.121  -8.245  43.791  1.00  0.00     0.041 A 
ATOM     11  C   UNL     1     -15.991  -7.590  44.223  1.00  0.00     0.134 A 
ATOM     12  N   UNL     1     -17.013  -9.545  44.107  1.00  0.00    -0.348 N 
ATOM     13  N   UNL     1     -15.161  -8.479  44.805  1.00  0.00    -0.245 NA
ATOM     14  C   UNL     1     -15.817  -9.657  44.715  1.00  0.00     0.196 A 
ATOM     15  H   UNL     1     -17.707 -10.304  43.930  1.00  0.00     0.167 HD
ENDBRANCH   1  10
TORSDOF 4
ENDMDL
MODEL 2
REMARK VINA RESULT:    -4.381      3.083      4.654
REMARK INTER + INTRA:          -5.593
REMARK INTER:                  -5.416
REMARK INTRA:                  -0.177
REMARK UNBOUND:                -0.316
REMARK SMILES [NH3+][C@H](Cc1cnc[nH]1)C(=O)[O-]
REMARK SMILES IDX 3 1 2 2 1 3 9 7 10 8 11 9 4 10 5 11 8 12 6 13 7 14
REMARK H PARENT 1 4 1 5 1 6 8 15
REMARK Flexibility Score: inf
ROOT
ATOM      1  C   UNL     1     -17.162  -7.906  42.870  1.00  0.00     0.127 C 
ENDROOT
BRANCH   1   2
ATOM      2  C   UNL     1     -16.654  -8.815  41.733  1.00  0.00     0.233 C 
BRANCH   2   3
ATOM      3  N   UNL     1     -16.241  -8.029  40.562  1.00  0.00    -0.350 N 
ATOM      4  H   UNL     1     -15.872  -8.653  39.807  1.00  0.00     0.345 HD
ATOM      5  H   UNL     1     -17.059  -7.490  40.191  1.00  0.00     0.345 HD
ATOM      6  H   UNL     1     -15.502  -7.341  40.833  1.00  0.00     0.345 HD
ENDBRANCH   2   3
BRANCH   2   7
ATOM      7  C   UNL     1     -15.502  -9.649  42.228  1.00  0.00     0.099 C 
ATOM      8  O   UNL     1     -14.347  -9.470  41.763  1.00  0.00    -0.544 OA
ATOM      9  O   UNL     1     -15.711 -10.632  43.188  1.00  0.00    -0.544 OA
ENDBRANCH   2   7
ENDBRANCH   1   2
BRANCH   1  10
ATOM     10  C   UNL     1     -18.617  -8.134  43.153  1.00  0.00     0.041 A 
ATOM     11  C   UNL     1     -19.314  -9.307  42.974  1.00  0.00     0.134 A 
ATOM     12  N   UNL     1     -19.442  -7.221  43.688  1.00  0.00    -0.348 N 
ATOM     13  N   UNL     1     -20.585  -9.132  43.388  1.00  0.00    -0.245 NA
ATOM     14  C   UNL     1     -20.625  -7.851  43.814  1.00  0.00     0.196 A 
ATOM     15  H   UNL     1     -19.217  -6.237  43.957  1.00  0.00     0.167 HD
ENDBRANCH   1  10
TORSDOF 4
ENDMDL
MODEL 3
REMARK VINA RESULT:    -4.359      2.403      4.647
REMARK INTER + INTRA:          -5.568
REMARK INTER:                  -5.427
REMARK INTRA:                  -0.140
REMARK UNBOUND:                -0.316
REMARK SMILES [NH3+][C@H](Cc1cnc[nH]1)C(=O)[O-]
REMARK SMILES IDX 3 1 2 2 1 3 9 7 10 8 11 9 4 10 5 11 8 12 6 13 7 14
REMARK H PARENT 1 4 1 5 1 6 8 15
REMARK Flexibility Score: inf
ROOT
ATOM      1  C   UNL     1     -18.691  -8.413  43.721  1.00  0.00     0.127 C 
ENDROOT
BRANCH   1   2
ATOM      2  C   UNL     1     -17.566  -7.641  43.003  1.00  0.00     0.233 C 
BRANCH   2   3
ATOM      3  N   UNL     1     -16.589  -7.104  43.962  1.00  0.00    -0.350 N 
ATOM      4  H   UNL     1     -16.195  -7.869  44.557  1.00  0.00     0.345 HD
ATOM      5  H   UNL     1     -15.809  -6.635  43.445  1.00  0.00     0.345 HD
ATOM      6  H   UNL     1     -17.043  -6.389  44.574  1.00  0.00     0.345 HD
ENDBRANCH   2   3
BRANCH   2   7
ATOM      7  C   UNL     1     -16.879  -8.548  42.017  1.00  0.00     0.099 C 
ATOM      8  O   UNL     1     -16.873  -9.793  42.203  1.00  0.00    -0.544 OA
ATOM      9  O   UNL     1     -16.234  -8.016  40.908  1.00  0.00    -0.544 OA
ENDBRANCH   2   7
ENDBRANCH   1   2
BRANCH   1  10
ATOM     10  C   UNL     1     -20.042  -7.842  43.408  1.00  0.00     0.041 A 
ATOM     11  C   UNL     1     -21.098  -8.505  42.824  1.00  0.00     0.134 A 
ATOM     12  N   UNL     1     -20.434  -6.597  43.717  1.00  0.00    -0.348 N 
ATOM     13  N   UNL     1     -22.156  -7.673  42.755  1.00  0.00    -0.245 NA
ATOM     14  C   UNL     1     -21.714  -6.522  43.307  1.00  0.00     0.196 A 
ATOM     15  H   UNL     1     -19.874  -5.849  44.183  1.00  0.00     0.167 HD
ENDBRANCH   1  10
TORSDOF 4
ENDMDL
MODEL 4
REMARK VINA RESULT:    -4.289     12.081     13.179
REMARK INTER + INTRA:          -5.483
REMARK INTER:                  -5.334
REMARK INTRA:                  -0.149
REMARK UNBOUND:                -0.316
REMARK SMILES [NH3+][C@H](Cc1cnc[nH]1)C(=O)[O-]
REMARK SMILES IDX 3 1 2 2 1 3 9 7 10 8 11 9 4 10 5 11 8 12 6 13 7 14
REMARK H PARENT 1 4 1 5 1 6 8 15
REMARK Flexibility Score: inf
ROOT
ATOM      1  C   UNL     1     -21.920 -16.061  33.986  1.00  0.00     0.127 C 
ENDROOT
BRANCH   1   2
ATOM      2  C   UNL     1     -22.805 -17.319  34.106  1.00  0.00     0.233 C 
BRANCH   2   3
ATOM      3  N   UNL     1     -24.056 -17.167  33.349  1.00  0.00    -0.350 N 
ATOM      4  H   UNL     1     -24.153 -17.928  32.638  1.00  0.00     0.345 HD
ATOM      5  H   UNL     1     -24.872 -17.205  34.004  1.00  0.00     0.345 HD
ATOM      6  H   UNL     1     -24.075 -16.240  32.868  1.00  0.00     0.345 HD
ENDBRANCH   2   3
BRANCH   2   7
ATOM      7  C   UNL     1     -22.044 -18.520  33.612  1.00  0.00     0.099 C 
ATOM      8  O   UNL     1     -22.536 -19.673  33.732  1.00  0.00    -0.544 OA
ATOM      9  O   UNL     1     -20.788 -18.367  33.038  1.00  0.00    -0.544 OA
ENDBRANCH   2   7
ENDBRANCH   1   2
BRANCH   1  10
ATOM     10  C   UNL     1     -22.311 -15.012  34.985  1.00  0.00     0.041 A 
ATOM     11  C   UNL     1     -22.313 -13.651  34.785  1.00  0.00     0.134 A 
ATOM     12  N   UNL     1     -22.781 -15.267  36.215  1.00  0.00    -0.348 N 
ATOM     13  N   UNL     1     -22.775 -13.043  35.896  1.00  0.00    -0.245 NA
ATOM     14  C   UNL     1     -23.049 -14.059  36.744  1.00  0.00     0.196 A 
ATOM     15  H   UNL     1     -22.919 -16.200  36.665  1.00  0.00     0.167 HD
ENDBRANCH   1  10
TORSDOF 4
ENDMDL
MODEL 5
REMARK VINA RESULT:    -4.260      3.202      4.574
REMARK INTER + INTRA:          -5.449
REMARK INTER:                  -5.270
REMARK INTRA:                  -0.179
REMARK UNBOUND:                -0.316
REMARK SMILES [NH3+][C@H](Cc1cnc[nH]1)C(=O)[O-]
REMARK SMILES IDX 3 1 2 2 1 3 9 7 10 8 11 9 4 10 5 11 8 12 6 13 7 14
REMARK H PARENT 1 4 1 5 1 6 8 15
REMARK Flexibility Score: inf
ROOT
ATOM      1  C   UNL     1     -16.019 -10.364  43.407  1.00  0.00     0.127 C 
ENDROOT
BRANCH   1   2
ATOM      2  C   UNL     1     -16.231  -9.382  44.577  1.00  0.00     0.233 C 
BRANCH   2   3
ATOM      3  N   UNL     1     -15.181  -9.527  45.595  1.00  0.00    -0.350 N 
ATOM      4  H   UNL     1     -15.555 -10.003  46.449  1.00  0.00     0.345 HD
ATOM      5  H   UNL     1     -14.389 -10.091  45.208  1.00  0.00     0.345 HD
ATOM      6  H   UNL     1     -14.805  -8.588  45.860  1.00  0.00     0.345 HD
ENDBRANCH   2   3
BRANCH   2   7
ATOM      7  C   UNL     1     -16.253  -7.970  44.054  1.00  0.00     0.099 C 
ATOM      8  O   UNL     1     -15.440  -7.118  44.500  1.00  0.00    -0.544 OA
ATOM      9  O   UNL     1     -17.180  -7.595  43.089  1.00  0.00    -0.544 OA
ENDBRANCH   2   7
ENDBRANCH   1   2
BRANCH   1  10
ATOM     10  C   UNL     1     -17.133 -11.364  43.315  1.00  0.00     0.041 A 
ATOM     11  C   UNL     1     -18.445 -11.166  43.680  1.00  0.00     0.134 A 
ATOM     12  N   UNL     1     -17.012 -12.596  42.798  1.00  0.00    -0.348 N 
ATOM     13  N   UNL     1     -19.153 -12.279  43.401  1.00  0.00    -0.245 NA
ATOM     14  C   UNL     1     -18.247 -13.126  42.866  1.00  0.00     0.196 A 
ATOM     15  H   UNL     1     -16.150 -13.045  42.415  1.00  0.00     0.167 HD
ENDBRANCH   1  10
TORSDOF 4
ENDMDL
MODEL 6
REMARK VINA RESULT:    -4.211      3.818      4.481
REMARK INTER + INTRA:          -5.389
REMARK INTER:                  -5.214
REMARK INTRA:                  -0.174
REMARK UNBOUND:                -0.316
REMARK SMILES [NH3+][C@H](Cc1cnc[nH]1)C(=O)[O-]
REMARK SMILES IDX 3 1 2 2 1 3 9 7 10 8 11 9 4 10 5 11 8 12 6 13 7 14
REMARK H PARENT 1 4 1 5 1 6 8 15
REMARK Flexibility Score: inf
ROOT
ATOM      1  C   UNL     1     -15.695  -9.506  42.156  1.00  0.00     0.127 C 
ENDROOT
BRANCH   1   2
ATOM      2  C   UNL     1     -15.624  -8.069  41.602  1.00  0.00     0.233 C 
BRANCH   2   3
ATOM      3  N   UNL     1     -16.322  -7.957  40.313  1.00  0.00    -0.350 N 
ATOM      4  H   UNL     1     -17.229  -7.448  40.426  1.00  0.00     0.345 HD
ATOM      5  H   UNL     1     -15.722  -7.439  39.630  1.00  0.00     0.345 HD
ATOM      6  H   UNL     1     -16.507  -8.908  39.920  1.00  0.00     0.345 HD
ENDBRANCH   2   3
BRANCH   2   7
ATOM      7  C   UNL     1     -16.222  -7.113  42.599  1.00  0.00     0.099 C 
ATOM      8  O   UNL     1     -16.385  -5.903  42.295  1.00  0.00    -0.544 OA
ATOM      9  O   UNL     1     -16.582  -7.557  43.866  1.00  0.00    -0.544 OA
ENDBRANCH   2   7
ENDBRANCH   1   2
BRANCH   1  10
ATOM     10  C   UNL     1     -14.349  -9.997  42.598  1.00  0.00     0.041 A 
ATOM     11  C   UNL     1     -13.972 -10.309  43.885  1.00  0.00     0.134 A 
ATOM     12  N   UNL     1     -13.324 -10.261  41.774  1.00  0.00    -0.348 N 
ATOM     13  N   UNL     1     -12.702 -10.762  43.874  1.00  0.00    -0.245 NA
ATOM     14  C   UNL     1     -12.342 -10.718  42.573  1.00  0.00     0.196 A 
ATOM     15  H   UNL     1     -13.294 -10.147  40.736  1.00  0.00     0.167 HD
ENDBRANCH   1  10
TORSDOF 4
ENDMDL
MODEL 7
REMARK VINA RESULT:    -4.185      4.046      4.792
REMARK INTER + INTRA:          -5.358
REMARK INTER:                  -5.109
REMARK INTRA:                  -0.249
REMARK UNBOUND:                -0.316
REMARK SMILES [NH3+][C@H](Cc1cnc[nH]1)C(=O)[O-]
REMARK SMILES IDX 3 1 2 2 1 3 9 7 10 8 11 9 4 10 5 11 8 12 6 13 7 14
REMARK H PARENT 1 4 1 5 1 6 8 15
REMARK Flexibility Score: inf
ROOT
ATOM      1  C   UNL     1     -16.989  -8.769  42.586  1.00  0.00     0.127 C 
ENDROOT
BRANCH   1   2
ATOM      2  C   UNL     1     -16.015  -8.745  41.391  1.00  0.00     0.233 C 
BRANCH   2   3
ATOM      3  N   UNL     1     -16.225  -7.556  40.553  1.00  0.00    -0.350 N 
ATOM      4  H   UNL     1     -16.479  -7.831  39.576  1.00  0.00     0.345 HD
ATOM      5  H   UNL     1     -16.994  -6.971  40.956  1.00  0.00     0.345 HD
ATOM      6  H   UNL     1     -15.357  -6.973  40.532  1.00  0.00     0.345 HD
ENDBRANCH   2   3
BRANCH   2   7
ATOM      7  C   UNL     1     -14.596  -8.779  41.894  1.00  0.00     0.099 C 
ATOM      8  O   UNL     1     -13.981  -9.874  41.975  1.00  0.00    -0.544 OA
ATOM      9  O   UNL     1     -13.965  -7.606  42.289  1.00  0.00    -0.544 OA
ENDBRANCH   2   7
ENDBRANCH   1   2
BRANCH   1  10
ATOM     10  C   UNL     1     -17.410 -10.168  42.928  1.00  0.00     0.041 A 
ATOM     11  C   UNL     1     -18.605 -10.548  43.495  1.00  0.00     0.134 A 
ATOM     12  N   UNL     1     -16.689 -11.268  42.667  1.00  0.00    -0.348 N 
ATOM     13  N   UNL     1     -18.635 -11.892  43.601  1.00  0.00    -0.245 NA
ATOM     14  C   UNL     1     -17.452 -12.294  43.087  1.00  0.00     0.196 A 
ATOM     15  H   UNL     1     -15.744 -11.322  42.224  1.00  0.00     0.167 HD
ENDBRANCH   1  10
TORSDOF 4
ENDMDL
MODEL 8
REMARK VINA RESULT:    -4.159      2.814      5.368
REMARK INTER + INTRA:          -5.326
REMARK INTER:                  -5.183
REMARK INTRA:                  -0.143
REMARK UNBOUND:                -0.316
REMARK SMILES [NH3+][C@H](Cc1cnc[nH]1)C(=O)[O-]
REMARK SMILES IDX 3 1 2 2 1 3 9 7 10 8 11 9 4 10 5 11 8 12 6 13 7 14
REMARK H PARENT 1 4 1 5 1 6 8 15
REMARK Flexibility Score: inf
ROOT
ATOM      1  C   UNL     1     -20.762  -9.149  43.545  1.00  0.00     0.127 C 
ENDROOT
BRANCH   1   2
ATOM      2  C   UNL     1     -19.926  -7.862  43.393  1.00  0.00     0.233 C 
BRANCH   2   3
ATOM      3  N   UNL     1     -20.238  -6.892  44.452  1.00  0.00    -0.350 N 
ATOM      4  H   UNL     1     -19.835  -5.953  44.225  1.00  0.00     0.345 HD
ATOM      5  H   UNL     1     -21.276  -6.803  44.556  1.00  0.00     0.345 HD
ATOM      6  H   UNL     1     -19.852  -7.221  45.366  1.00  0.00     0.345 HD
ENDBRANCH   2   3
BRANCH   2   7
ATOM      7  C   UNL     1     -18.460  -8.206  43.422  1.00  0.00     0.099 C 
ATOM      8  O   UNL     1     -17.607  -7.371  43.025  1.00  0.00    -0.544 OA
ATOM      9  O   UNL     1     -18.043  -9.453  43.872  1.00  0.00    -0.544 OA
ENDBRANCH   2   7
ENDBRANCH   1   2
BRANCH   1  10
ATOM     10  C   UNL     1     -22.230  -8.849  43.624  1.00  0.00     0.041 A 
ATOM     11  C   UNL     1     -23.035  -8.416  42.595  1.00  0.00     0.134 A 
ATOM     12  N   UNL     1     -22.987  -9.023  44.718  1.00  0.00    -0.348 N 
ATOM     13  N   UNL     1     -24.302  -8.307  43.043  1.00  0.00    -0.245 NA
ATOM     14  C   UNL     1     -24.233  -8.684  44.338  1.00  0.00     0.196 A 
ATOM     15  H   UNL     1     -22.681  -9.357  45.659  1.00  0.00     0.167 HD
ENDBRANCH   1  10
TORSDOF 4
ENDMDL
MODEL 9
REMARK VINA RESULT:    -4.101      3.384      4.669
REMARK INTER + INTRA:          -5.257
REMARK INTER:                  -5.083
REMARK INTRA:                  -0.174
REMARK UNBOUND:                -0.316
REMARK SMILES [NH3+][C@H](Cc1cnc[nH]1)C(=O)[O-]
REMARK SMILES IDX 3 1 2 2 1 3 9 7 10 8 11 9 4 10 5 11 8 12 6 13 7 14
REMARK H PARENT 1 4 1 5 1 6 8 15
REMARK Flexibility Score: inf
ROOT
ATOM      1  C   UNL     1     -16.294  -7.874  44.189  1.00  0.00     0.127 C 
ENDROOT
BRANCH   1   2
ATOM      2  C   UNL     1     -15.138  -8.884  44.335  1.00  0.00     0.233 C 
BRANCH   2   3
ATOM      3  N   UNL     1     -15.163  -9.541  45.650  1.00  0.00    -0.350 N 
ATOM      4  H   UNL     1     -14.638  -8.975  46.357  1.00  0.00     0.345 HD
ATOM      5  H   UNL     1     -16.153  -9.656  45.969  1.00  0.00     0.345 HD
ATOM      6  H   UNL     1     -14.736 -10.493  45.584  1.00  0.00     0.345 HD
ENDBRANCH   2   3
BRANCH   2   7
ATOM      7  C   UNL     1     -15.225  -9.914  43.240  1.00  0.00     0.099 C 
ATOM      8  O   UNL     1     -16.003 -10.897  43.358  1.00  0.00    -0.544 OA
ATOM      9  O   UNL     1     -14.436  -9.796  42.103  1.00  0.00    -0.544 OA
ENDBRANCH   2   7
ENDBRANCH   1   2
BRANCH   1  10
ATOM     10  C   UNL     1     -15.840  -6.604  43.532  1.00  0.00     0.041 A 
ATOM     11  C   UNL     1     -15.847  -6.331  42.183  1.00  0.00     0.134 A 
ATOM     12  N   UNL     1     -15.413  -5.516  44.190  1.00  0.00    -0.348 N 
ATOM     13  N   UNL     1     -15.414  -5.069  41.988  1.00  0.00    -0.245 NA
ATOM     14  C   UNL     1     -15.159  -4.606  43.231  1.00  0.00     0.196 A 
ATOM     15  H   UNL     1     -15.308  -5.394  45.222  1.00  0.00     0.167 HD
ENDBRANCH   1  10
TORSDOF 4
ENDMDL
