MODEL 1
REMARK VINA RESULT:    -4.877      0.000      0.000
REMARK INTER + INTRA:          -5.549
REMARK INTER:                  -5.305
REMARK INTRA:                  -0.244
REMARK UNBOUND:                -0.244
REMARK SMILES O=C([O-])c1ccccc1O
REMARK SMILES IDX 4 1 9 2 5 3 8 4 6 5 7 6 2 7 1 8 3 9 10 10
REMARK H PARENT 10 11
REMARK Flexibility Score: inf
ROOT
ATOM      1  C   UNL     1      61.037  39.570  37.471  1.00  0.00     0.039 A 
ATOM      2  C   UNL     1      60.015  40.099  36.647  1.00  0.00     0.124 A 
ATOM      3  C   UNL     1      60.695  38.611  38.445  1.00  0.00     0.014 A 
ATOM      4  C   UNL     1      58.690  39.665  36.811  1.00  0.00     0.047 A 
ATOM      5  C   UNL     1      59.372  38.188  38.596  1.00  0.00     0.001 A 
ATOM      6  C   UNL     1      58.372  38.715  37.781  1.00  0.00     0.004 A 
ENDROOT
BRANCH   1   7
ATOM      7  C   UNL     1      62.453  40.001  37.333  1.00  0.00     0.075 C 
ATOM      8  O   UNL     1      63.077  40.458  38.328  1.00  0.00    -0.545 OA
ATOM      9  O   UNL     1      63.116  39.910  36.115  1.00  0.00    -0.545 OA
ENDBRANCH   1   7
BRANCH   2  10
ATOM     10  O   UNL     1      60.306  41.051  35.670  1.00  0.00    -0.507 OA
ATOM     11  H   UNL     1      61.207  41.083  35.208  1.00  0.00     0.293 HD
ENDBRANCH   2  10
TORSDOF 2
ENDMDL
MODEL 2
REMARK VINA RESULT:    -4.808      3.331      4.563
REMARK INTER + INTRA:          -5.473
REMARK INTER:                  -5.242
REMARK INTRA:                  -0.231
REMARK UNBOUND:                -0.244
REMARK SMILES O=C([O-])c1ccccc1O
REMARK SMILES IDX 4 1 9 2 5 3 8 4 6 5 7 6 2 7 1 8 3 9 10 10
REMARK H PARENT 10 11
REMARK Flexibility Score: inf
ROOT
ATOM      1  C   UNL     1      58.305  37.951  36.132  1.00  0.00     0.039 A 
ATOM      2  C   UNL     1      59.420  37.163  35.758  1.00  0.00     0.124 A 
ATOM      3  C   UNL     1      58.308  38.576  37.394  1.00  0.00     0.014 A 
ATOM      4  C   UNL     1      60.501  37.019  36.642  1.00  0.00     0.047 A 
ATOM      5  C   UNL     1      59.391  38.424  38.263  1.00  0.00     0.001 A 
ATOM      6  C   UNL     1      60.485  37.647  37.887  1.00  0.00     0.004 A 
ENDROOT
BRANCH   1   7
ATOM      7  C   UNL     1      57.138  38.130  35.228  1.00  0.00     0.075 C 
ATOM      8  O   UNL     1      55.988  37.770  35.597  1.00  0.00    -0.545 OA
ATOM      9  O   UNL     1      57.286  38.695  33.967  1.00  0.00    -0.545 OA
ENDBRANCH   1   7
BRANCH   2  10
ATOM     10  O   UNL     1      59.461  36.525  34.519  1.00  0.00    -0.507 OA
ATOM     11  H   UNL     1      59.823  35.584  34.416  1.00  0.00     0.293 HD
ENDBRANCH   2  10
TORSDOF 2
ENDMDL
MODEL 3
REMARK VINA RESULT:    -4.768     19.715     20.780
REMARK INTER + INTRA:          -5.430
REMARK INTER:                  -5.179
REMARK INTRA:                  -0.251
REMARK UNBOUND:                -0.244
REMARK SMILES O=C([O-])c1ccccc1O
REMARK SMILES IDX 4 1 9 2 5 3 8 4 6 5 7 6 2 7 1 8 3 9 10 10
REMARK H PARENT 10 11
REMARK Flexibility Score: inf
ROOT
ATOM      1  C   UNL     1      47.103  36.151  52.137  1.00  0.00     0.039 A 
ATOM      2  C   UNL     1      45.899  36.694  52.644  1.00  0.00     0.124 A 
ATOM      3  C   UNL     1      47.214  35.919  50.752  1.00  0.00     0.014 A 
ATOM      4  C   UNL     1      44.843  36.992  51.768  1.00  0.00     0.047 A 
ATOM      5  C   UNL     1      46.156  36.221  49.892  1.00  0.00     0.001 A 
ATOM      6  C   UNL     1      44.973  36.756  50.399  1.00  0.00     0.004 A 
ENDROOT
BRANCH   1   7
ATOM      7  C   UNL     1      48.246  35.820  53.029  1.00  0.00     0.075 C 
ATOM      8  O   UNL     1      48.917  34.770  52.838  1.00  0.00    -0.545 OA
ATOM      9  O   UNL     1      48.599  36.653  54.083  1.00  0.00    -0.545 OA
ENDBRANCH   1   7
BRANCH   2  10
ATOM     10  O   UNL     1      45.744  36.940  54.008  1.00  0.00    -0.507 OA
ATOM     11  H   UNL     1      45.170  36.346  54.595  1.00  0.00     0.293 HD
ENDBRANCH   2  10
TORSDOF 2
ENDMDL
MODEL 4
REMARK VINA RESULT:    -4.736      2.580      3.559
REMARK INTER + INTRA:          -5.395
REMARK INTER:                  -5.142
REMARK INTRA:                  -0.253
REMARK UNBOUND:                -0.244
REMARK SMILES O=C([O-])c1ccccc1O
REMARK SMILES IDX 4 1 9 2 5 3 8 4 6 5 7 6 2 7 1 8 3 9 10 10
REMARK H PARENT 10 11
REMARK Flexibility Score: inf
ROOT
ATOM      1  C   UNL     1      58.285  38.625  37.073  1.00  0.00     0.039 A 
ATOM      2  C   UNL     1      58.742  39.657  36.220  1.00  0.00     0.124 A 
ATOM      3  C   UNL     1      57.289  37.746  36.604  1.00  0.00     0.014 A 
ATOM      4  C   UNL     1      58.200  39.789  34.931  1.00  0.00     0.047 A 
ATOM      5  C   UNL     1      56.760  37.889  35.319  1.00  0.00     0.001 A 
ATOM      6  C   UNL     1      57.214  38.909  34.485  1.00  0.00     0.004 A 
ENDROOT
BRANCH   1   7
ATOM      7  C   UNL     1      58.830  38.448  38.445  1.00  0.00     0.075 C 
ATOM      8  O   UNL     1      58.050  38.329  39.428  1.00  0.00    -0.545 OA
ATOM      9  O   UNL     1      60.200  38.410  38.675  1.00  0.00    -0.545 OA
ENDBRANCH   1   7
BRANCH   2  10
ATOM     10  O   UNL     1      59.726  40.550  36.641  1.00  0.00    -0.507 OA
ATOM     11  H   UNL     1      59.737  40.928  37.581  1.00  0.00     0.293 HD
ENDBRANCH   2  10
TORSDOF 2
ENDMDL
MODEL 5
REMARK VINA RESULT:    -4.716     19.702     20.956
REMARK INTER + INTRA:          -5.373
REMARK INTER:                  -5.122
REMARK INTRA:                  -0.251
REMARK UNBOUND:                -0.244
REMARK SMILES O=C([O-])c1ccccc1O
REMARK SMILES IDX 4 1 9 2 5 3 8 4 6 5 7 6 2 7 1 8 3 9 10 10
REMARK H PARENT 10 11
REMARK Flexibility Score: inf
ROOT
ATOM      1  C   UNL     1      45.694  36.562  51.012  1.00  0.00     0.039 A 
ATOM      2  C   UNL     1      46.013  36.349  52.374  1.00  0.00     0.124 A 
ATOM      3  C   UNL     1      46.659  36.256  50.033  1.00  0.00     0.014 A 
ATOM      4  C   UNL     1      47.273  35.840  52.726  1.00  0.00     0.047 A 
ATOM      5  C   UNL     1      47.909  35.750  50.397  1.00  0.00     0.001 A 
ATOM      6  C   UNL     1      48.216  35.543  51.741  1.00  0.00     0.004 A 
ENDROOT
BRANCH   1   7
ATOM      7  C   UNL     1      44.372  37.100  50.595  1.00  0.00     0.075 C 
ATOM      8  O   UNL     1      43.908  38.138  51.138  1.00  0.00    -0.545 OA
ATOM      9  O   UNL     1      43.624  36.476  49.603  1.00  0.00    -0.545 OA
ENDBRANCH   1   7
BRANCH   2  10
ATOM     10  O   UNL     1      45.089  36.637  53.379  1.00  0.00    -0.507 OA
ATOM     11  H   UNL     1      45.335  37.201  54.183  1.00  0.00     0.293 HD
ENDBRANCH   2  10
TORSDOF 2
ENDMDL
MODEL 6
REMARK VINA RESULT:    -4.685      1.551      3.471
REMARK INTER + INTRA:          -5.339
REMARK INTER:                  -5.122
REMARK INTRA:                  -0.218
REMARK UNBOUND:                -0.244
REMARK SMILES O=C([O-])c1ccccc1O
REMARK SMILES IDX 4 1 9 2 5 3 8 4 6 5 7 6 2 7 1 8 3 9 10 10
REMARK H PARENT 10 11
REMARK Flexibility Score: inf
ROOT
ATOM      1  C   UNL     1      59.235  39.651  36.188  1.00  0.00     0.039 A 
ATOM      2  C   UNL     1      60.609  39.988  36.224  1.00  0.00     0.124 A 
ATOM      3  C   UNL     1      58.699  38.871  37.232  1.00  0.00     0.014 A 
ATOM      4  C   UNL     1      61.409  39.546  37.290  1.00  0.00     0.047 A 
ATOM      5  C   UNL     1      59.507  38.439  38.286  1.00  0.00     0.001 A 
ATOM      6  C   UNL     1      60.859  38.776  38.315  1.00  0.00     0.004 A 
ENDROOT
BRANCH   1   7
ATOM      7  C   UNL     1      58.352  40.096  35.078  1.00  0.00     0.075 C 
ATOM      8  O   UNL     1      58.588  41.175  34.472  1.00  0.00    -0.545 OA
ATOM      9  O   UNL     1      57.253  39.340  34.687  1.00  0.00    -0.545 OA
ENDBRANCH   1   7
BRANCH   2  10
ATOM     10  O   UNL     1      61.184  40.757  35.213  1.00  0.00    -0.507 OA
ATOM     11  H   UNL     1      62.136  40.604  34.903  1.00  0.00     0.293 HD
ENDBRANCH   2  10
TORSDOF 2
ENDMDL
MODEL 7
REMARK VINA RESULT:    -4.630      1.997      2.803
REMARK INTER + INTRA:          -5.279
REMARK INTER:                  -5.029
REMARK INTRA:                  -0.251
REMARK UNBOUND:                -0.244
REMARK SMILES O=C([O-])c1ccccc1O
REMARK SMILES IDX 4 1 9 2 5 3 8 4 6 5 7 6 2 7 1 8 3 9 10 10
REMARK H PARENT 10 11
REMARK Flexibility Score: inf
ROOT
ATOM      1  C   UNL     1      59.951  38.016  36.721  1.00  0.00     0.039 A 
ATOM      2  C   UNL     1      59.929  38.331  38.100  1.00  0.00     0.124 A 
ATOM      3  C   UNL     1      58.735  37.724  36.071  1.00  0.00     0.014 A 
ATOM      4  C   UNL     1      58.709  38.349  38.794  1.00  0.00     0.047 A 
ATOM      5  C   UNL     1      57.528  37.746  36.774  1.00  0.00     0.001 A 
ATOM      6  C   UNL     1      57.515  38.058  38.133  1.00  0.00     0.004 A 
ENDROOT
BRANCH   1   7
ATOM      7  C   UNL     1      61.220  37.984  35.947  1.00  0.00     0.075 C 
ATOM      8  O   UNL     1      62.014  38.961  35.990  1.00  0.00    -0.545 OA
ATOM      9  O   UNL     1      61.557  36.886  35.166  1.00  0.00    -0.545 OA
ENDBRANCH   1   7
BRANCH   2  10
ATOM     10  O   UNL     1      61.107  38.626  38.785  1.00  0.00    -0.507 OA
ATOM     11  H   UNL     1      61.567  37.943  39.375  1.00  0.00     0.293 HD
ENDBRANCH   2  10
TORSDOF 2
ENDMDL
MODEL 8
REMARK VINA RESULT:    -4.627      2.668      3.541
REMARK INTER + INTRA:          -5.276
REMARK INTER:                  -5.058
REMARK INTRA:                  -0.218
REMARK UNBOUND:                -0.244
REMARK SMILES O=C([O-])c1ccccc1O
REMARK SMILES IDX 4 1 9 2 5 3 8 4 6 5 7 6 2 7 1 8 3 9 10 10
REMARK H PARENT 10 11
REMARK Flexibility Score: inf
ROOT
ATOM      1  C   UNL     1      60.304  38.531  36.732  1.00  0.00     0.039 A 
ATOM      2  C   UNL     1      60.953  39.653  36.166  1.00  0.00     0.124 A 
ATOM      3  C   UNL     1      60.500  37.264  36.146  1.00  0.00     0.014 A 
ATOM      4  C   UNL     1      61.776  39.490  35.039  1.00  0.00     0.047 A 
ATOM      5  C   UNL     1      61.322  37.117  35.026  1.00  0.00     0.001 A 
ATOM      6  C   UNL     1      61.958  38.228  34.474  1.00  0.00     0.004 A 
ENDROOT
BRANCH   1   7
ATOM      7  C   UNL     1      59.424  38.657  37.924  1.00  0.00     0.075 C 
ATOM      8  O   UNL     1      58.341  39.297  37.848  1.00  0.00    -0.545 OA
ATOM      9  O   UNL     1      59.771  38.077  39.138  1.00  0.00    -0.545 OA
ENDBRANCH   1   7
BRANCH   2  10
ATOM     10  O   UNL     1      60.788  40.926  36.711  1.00  0.00    -0.507 OA
ATOM     11  H   UNL     1      59.889  41.392  36.713  1.00  0.00     0.293 HD
ENDBRANCH   2  10
TORSDOF 2
ENDMDL
MODEL 9
REMARK VINA RESULT:    -4.471      1.753      2.042
REMARK INTER + INTRA:          -5.107
REMARK INTER:                  -4.883
REMARK INTRA:                  -0.224
REMARK UNBOUND:                -0.244
REMARK SMILES O=C([O-])c1ccccc1O
REMARK SMILES IDX 4 1 9 2 5 3 8 4 6 5 7 6 2 7 1 8 3 9 10 10
REMARK H PARENT 10 11
REMARK Flexibility Score: inf
ROOT
ATOM      1  C   UNL     1      60.740  38.839  36.792  1.00  0.00     0.039 A 
ATOM      2  C   UNL     1      60.589  37.660  36.023  1.00  0.00     0.124 A 
ATOM      3  C   UNL     1      59.660  39.275  37.585  1.00  0.00     0.014 A 
ATOM      4  C   UNL     1      59.379  36.950  36.062  1.00  0.00     0.047 A 
ATOM      5  C   UNL     1      58.462  38.558  37.614  1.00  0.00     0.001 A 
ATOM      6  C   UNL     1      58.322  37.398  36.854  1.00  0.00     0.004 A 
ENDROOT
BRANCH   1   7
ATOM      7  C   UNL     1      62.003  39.622  36.780  1.00  0.00     0.075 C 
ATOM      8  O   UNL     1      62.325  40.323  37.777  1.00  0.00    -0.545 OA
ATOM      9  O   UNL     1      62.852  39.601  35.679  1.00  0.00    -0.545 OA
ENDBRANCH   1   7
BRANCH   2  10
ATOM     10  O   UNL     1      61.631  37.190  35.223  1.00  0.00    -0.507 OA
ATOM     11  H   UNL     1      61.741  37.490  34.262  1.00  0.00     0.293 HD
ENDBRANCH   2  10
TORSDOF 2
ENDMDL
