MODEL 1
REMARK VINA RESULT:    -3.246      0.000      0.000
REMARK INTER + INTRA:          -8.477
REMARK INTER:                  -6.093
REMARK INTRA:                  -2.384
REMARK UNBOUND:                -2.384
REMARK SMILES O=C([O-])CCCCCCCCCCCCCCC(=O)[O-]
REMARK SMILES IDX 10 1 9 2 8 3 7 4 6 5 5 6 4 7 2 8 1 9 3 10 11 11 12 12 13 13
REMARK SMILES IDX 14 14 15 15 16 16 17 17 18 18 19 19 20 20
REMARK H PARENT
REMARK Flexibility Score: inf
ROOT
ATOM      1  C   UNL     1     -98.438 -42.980 -10.206  1.00  0.00     0.000 C 
ENDROOT
BRANCH   1   2
ATOM      2  C   UNL     1     -97.152 -43.261 -10.991  1.00  0.00     0.000 C 
BRANCH   2   3
ATOM      3  C   UNL     1     -97.358 -44.399 -11.998  1.00  0.00     0.000 C 
BRANCH   3   4
ATOM      4  C   UNL     1     -98.852 -44.645 -12.253  1.00  0.00     0.000 C 
BRANCH   4   5
ATOM      5  C   UNL     1     -99.251 -46.118 -12.071  1.00  0.00     0.000 C 
BRANCH   5   6
ATOM      6  C   UNL     1     -98.046 -47.070 -12.150  1.00  0.00     0.006 C 
BRANCH   6   7
ATOM      7  C   UNL     1     -98.322 -48.279 -13.055  1.00  0.00     0.053 C 
BRANCH   7   8
ATOM      8  C   UNL     1     -99.748 -48.730 -12.964  1.00  0.00     0.041 C 
ATOM      9  O   UNL     1    -100.527 -48.565 -13.939  1.00  0.00    -0.550 OA
ATOM     10  O   UNL     1    -100.223 -49.305 -11.792  1.00  0.00    -0.550 OA
ENDBRANCH   7   8
ENDBRANCH   6   7
ENDBRANCH   5   6
ENDBRANCH   4   5
ENDBRANCH   3   4
ENDBRANCH   2   3
ENDBRANCH   1   2
BRANCH   1  11
ATOM     11  C   UNL     1     -98.266 -43.335  -8.722  1.00  0.00     0.000 C 
BRANCH  11  12
ATOM     12  C   UNL     1     -98.816 -44.729  -8.382  1.00  0.00     0.000 C 
BRANCH  12  13
ATOM     13  C   UNL     1     -97.725 -45.815  -8.397  1.00  0.00     0.000 C 
BRANCH  13  14
ATOM     14  C   UNL     1     -96.357 -45.297  -7.921  1.00  0.00     0.000 C 
BRANCH  14  15
ATOM     15  C   UNL     1     -95.214 -45.461  -8.938  1.00  0.00     0.000 C 
BRANCH  15  16
ATOM     16  C   UNL     1     -95.363 -46.721  -9.810  1.00  0.00     0.006 C 
BRANCH  16  17
ATOM     17  C   UNL     1     -94.078 -47.044 -10.585  1.00  0.00     0.053 C 
BRANCH  17  18
ATOM     18  C   UNL     1     -94.321 -47.088 -12.063  1.00  0.00     0.041 C 
ATOM     19  O   UNL     1     -94.203 -46.044 -12.756  1.00  0.00    -0.550 OA
ATOM     20  O   UNL     1     -94.711 -48.276 -12.669  1.00  0.00    -0.550 OA
ENDBRANCH  17  18
ENDBRANCH  16  17
ENDBRANCH  15  16
ENDBRANCH  14  15
ENDBRANCH  13  14
ENDBRANCH  12  13
ENDBRANCH  11  12
ENDBRANCH   1  11
TORSDOF 15
ENDMDL
MODEL 2
REMARK VINA RESULT:    -3.243      1.023      5.013
REMARK INTER + INTRA:          -8.471
REMARK INTER:                  -6.125
REMARK INTRA:                  -2.346
REMARK UNBOUND:                -2.384
REMARK SMILES O=C([O-])CCCCCCCCCCCCCCC(=O)[O-]
REMARK SMILES IDX 10 1 9 2 8 3 7 4 6 5 5 6 4 7 2 8 1 9 3 10 11 11 12 12 13 13
REMARK SMILES IDX 14 14 15 15 16 16 17 17 18 18 19 19 20 20
REMARK H PARENT
REMARK Flexibility Score: inf
ROOT
ATOM      1  C   UNL     1     -98.081 -43.206  -9.330  1.00  0.00     0.000 C 
ENDROOT
BRANCH   1   2
ATOM      2  C   UNL     1     -97.809 -44.293  -8.283  1.00  0.00     0.000 C 
BRANCH   2   3
ATOM      3  C   UNL     1     -96.466 -44.986  -8.544  1.00  0.00     0.000 C 
BRANCH   3   4
ATOM      4  C   UNL     1     -96.635 -46.512  -8.597  1.00  0.00     0.000 C 
BRANCH   4   5
ATOM      5  C   UNL     1     -95.636 -47.187  -9.549  1.00  0.00     0.000 C 
BRANCH   5   6
ATOM      6  C   UNL     1     -94.808 -46.171 -10.354  1.00  0.00     0.006 C 
BRANCH   6   7
ATOM      7  C   UNL     1     -94.925 -46.399 -11.867  1.00  0.00     0.053 C 
BRANCH   7   8
ATOM      8  C   UNL     1     -94.245 -47.663 -12.296  1.00  0.00     0.041 C 
ATOM      9  O   UNL     1     -92.996 -47.779 -12.185  1.00  0.00    -0.550 OA
ATOM     10  O   UNL     1     -94.987 -48.700 -12.846  1.00  0.00    -0.550 OA
ENDBRANCH   7   8
ENDBRANCH   6   7
ENDBRANCH   5   6
ENDBRANCH   4   5
ENDBRANCH   3   4
ENDBRANCH   2   3
ENDBRANCH   1   2
BRANCH   1  11
ATOM     11  C   UNL     1     -96.981 -43.190 -10.403  1.00  0.00     0.000 C 
BRANCH  11  12
ATOM     12  C   UNL     1     -97.471 -43.728 -11.756  1.00  0.00     0.000 C 
BRANCH  12  13
ATOM     13  C   UNL     1     -98.984 -44.012 -11.768  1.00  0.00     0.000 C 
BRANCH  13  14
ATOM     14  C   UNL     1     -99.332 -45.379 -12.382  1.00  0.00     0.000 C 
BRANCH  14  15
ATOM     15  C   UNL     1     -98.573 -46.573 -11.774  1.00  0.00     0.000 C 
BRANCH  15  16
ATOM     16  C   UNL     1     -98.452 -47.762 -12.742  1.00  0.00     0.006 C 
BRANCH  16  17
ATOM     17  C   UNL     1     -99.767 -48.044 -13.481  1.00  0.00     0.053 C 
BRANCH  17  18
ATOM     18  C   UNL     1    -100.388 -49.333 -13.035  1.00  0.00     0.041 C 
ATOM     19  O   UNL     1    -100.015 -49.877 -11.963  1.00  0.00    -0.550 OA
ATOM     20  O   UNL     1    -101.352 -49.950 -13.822  1.00  0.00    -0.550 OA
ENDBRANCH  17  18
ENDBRANCH  16  17
ENDBRANCH  15  16
ENDBRANCH  14  15
ENDBRANCH  13  14
ENDBRANCH  12  13
ENDBRANCH  11  12
ENDBRANCH   1  11
TORSDOF 15
ENDMDL
MODEL 3
REMARK VINA RESULT:    -3.211      0.986      5.334
REMARK INTER + INTRA:          -8.411
REMARK INTER:                  -6.189
REMARK INTRA:                  -2.222
REMARK UNBOUND:                -2.384
REMARK SMILES O=C([O-])CCCCCCCCCCCCCCC(=O)[O-]
REMARK SMILES IDX 10 1 9 2 8 3 7 4 6 5 5 6 4 7 2 8 1 9 3 10 11 11 12 12 13 13
REMARK SMILES IDX 14 14 15 15 16 16 17 17 18 18 19 19 20 20
REMARK H PARENT
REMARK Flexibility Score: inf
ROOT
ATOM      1  C   UNL     1     -97.654 -43.127 -10.172  1.00  0.00     0.000 C 
ENDROOT
BRANCH   1   2
ATOM      2  C   UNL     1     -96.814 -43.781  -9.069  1.00  0.00     0.000 C 
BRANCH   2   3
ATOM      3  C   UNL     1     -97.678 -44.686  -8.181  1.00  0.00     0.000 C 
BRANCH   3   4
ATOM      4  C   UNL     1     -97.340 -46.167  -8.412  1.00  0.00     0.000 C 
BRANCH   4   5
ATOM      5  C   UNL     1     -95.831 -46.416  -8.552  1.00  0.00     0.000 C 
BRANCH   5   6
ATOM      6  C   UNL     1     -95.466 -47.108  -9.876  1.00  0.00     0.006 C 
BRANCH   6   7
ATOM      7  C   UNL     1     -94.316 -46.396 -10.602  1.00  0.00     0.053 C 
BRANCH   7   8
ATOM      8  C   UNL     1     -94.264 -46.759 -12.056  1.00  0.00     0.041 C 
ATOM      9  O   UNL     1     -94.785 -47.831 -12.460  1.00  0.00    -0.550 OA
ATOM     10  O   UNL     1     -93.614 -45.926 -12.957  1.00  0.00    -0.550 OA
ENDBRANCH   7   8
ENDBRANCH   6   7
ENDBRANCH   5   6
ENDBRANCH   4   5
ENDBRANCH   3   4
ENDBRANCH   2   3
ENDBRANCH   1   2
BRANCH   1  11
ATOM     11  C   UNL     1     -97.049 -43.397 -11.557  1.00  0.00     0.000 C 
BRANCH  11  12
ATOM     12  C   UNL     1     -97.365 -44.810 -12.073  1.00  0.00     0.000 C 
BRANCH  12  13
ATOM     13  C   UNL     1     -98.874 -45.049 -12.257  1.00  0.00     0.000 C 
BRANCH  13  14
ATOM     14  C   UNL     1     -99.318 -46.452 -11.807  1.00  0.00     0.000 C 
BRANCH  14  15
ATOM     15  C   UNL     1     -98.331 -47.583 -12.150  1.00  0.00     0.000 C 
BRANCH  15  16
ATOM     16  C   UNL     1     -98.784 -48.428 -13.354  1.00  0.00     0.006 C 
BRANCH  16  17
ATOM     17  C   UNL     1    -100.287 -48.286 -13.629  1.00  0.00     0.053 C 
BRANCH  17  18
ATOM     18  C   UNL     1    -101.007 -49.588 -13.457  1.00  0.00     0.041 C 
ATOM     19  O   UNL     1    -100.497 -50.508 -12.765  1.00  0.00    -0.550 OA
ATOM     20  O   UNL     1    -102.226 -49.799 -14.091  1.00  0.00    -0.550 OA
ENDBRANCH  17  18
ENDBRANCH  16  17
ENDBRANCH  15  16
ENDBRANCH  14  15
ENDBRANCH  13  14
ENDBRANCH  12  13
ENDBRANCH  11  12
ENDBRANCH   1  11
TORSDOF 15
ENDMDL
MODEL 4
REMARK VINA RESULT:    -3.146      1.148      4.716
REMARK INTER + INTRA:          -8.288
REMARK INTER:                  -5.835
REMARK INTRA:                  -2.453
REMARK UNBOUND:                -2.384
REMARK SMILES O=C([O-])CCCCCCCCCCCCCCC(=O)[O-]
REMARK SMILES IDX 10 1 9 2 8 3 7 4 6 5 5 6 4 7 2 8 1 9 3 10 11 11 12 12 13 13
REMARK SMILES IDX 14 14 15 15 16 16 17 17 18 18 19 19 20 20
REMARK H PARENT
REMARK Flexibility Score: inf
ROOT
ATOM      1  C   UNL     1     -98.145 -43.635  -8.992  1.00  0.00     0.000 C 
ENDROOT
BRANCH   1   2
ATOM      2  C   UNL     1     -97.464 -44.580  -7.996  1.00  0.00     0.000 C 
BRANCH   2   3
ATOM      3  C   UNL     1     -97.744 -46.047  -8.348  1.00  0.00     0.000 C 
BRANCH   3   4
ATOM      4  C   UNL     1     -96.435 -46.833  -8.512  1.00  0.00     0.000 C 
BRANCH   4   5
ATOM      5  C   UNL     1     -95.203 -45.920  -8.610  1.00  0.00     0.000 C 
BRANCH   5   6
ATOM      6  C   UNL     1     -94.368 -46.186  -9.874  1.00  0.00     0.006 C 
BRANCH   6   7
ATOM      7  C   UNL     1     -94.766 -47.498 -10.564  1.00  0.00     0.053 C 
BRANCH   7   8
ATOM      8  C   UNL     1     -94.514 -47.452 -12.040  1.00  0.00     0.041 C 
ATOM      9  O   UNL     1     -94.822 -48.433 -12.766  1.00  0.00    -0.550 OA
ATOM     10  O   UNL     1     -93.910 -46.337 -12.608  1.00  0.00    -0.550 OA
ENDBRANCH   7   8
ENDBRANCH   6   7
ENDBRANCH   5   6
ENDBRANCH   4   5
ENDBRANCH   3   4
ENDBRANCH   2   3
ENDBRANCH   1   2
BRANCH   1  11
ATOM     11  C   UNL     1     -97.113 -42.977  -9.920  1.00  0.00     0.000 C 
BRANCH  11  12
ATOM     12  C   UNL     1     -97.183 -43.517 -11.356  1.00  0.00     0.000 C 
BRANCH  12  13
ATOM     13  C   UNL     1     -98.626 -43.622 -11.879  1.00  0.00     0.000 C 
BRANCH  13  14
ATOM     14  C   UNL     1     -98.999 -45.046 -12.328  1.00  0.00     0.000 C 
BRANCH  14  15
ATOM     15  C   UNL     1     -97.910 -46.106 -12.083  1.00  0.00     0.000 C 
BRANCH  15  16
ATOM     16  C   UNL     1     -98.330 -47.514 -12.543  1.00  0.00     0.006 C 
BRANCH  16  17
ATOM     17  C   UNL     1     -98.231 -48.546 -11.411  1.00  0.00     0.053 C 
BRANCH  17  18
ATOM     18  C   UNL     1     -98.792 -49.873 -11.822  1.00  0.00     0.041 C 
ATOM     19  O   UNL     1     -99.850 -49.931 -12.502  1.00  0.00    -0.550 OA
ATOM     20  O   UNL     1     -98.164 -51.047 -11.424  1.00  0.00    -0.550 OA
ENDBRANCH  17  18
ENDBRANCH  16  17
ENDBRANCH  15  16
ENDBRANCH  14  15
ENDBRANCH  13  14
ENDBRANCH  12  13
ENDBRANCH  11  12
ENDBRANCH   1  11
TORSDOF 15
ENDMDL
MODEL 5
REMARK VINA RESULT:    -3.128      1.285      1.850
REMARK INTER + INTRA:          -8.254
REMARK INTER:                  -6.155
REMARK INTRA:                  -2.099
REMARK UNBOUND:                -2.384
REMARK SMILES O=C([O-])CCCCCCCCCCCCCCC(=O)[O-]
REMARK SMILES IDX 10 1 9 2 8 3 7 4 6 5 5 6 4 7 2 8 1 9 3 10 11 11 12 12 13 13
REMARK SMILES IDX 14 14 15 15 16 16 17 17 18 18 19 19 20 20
REMARK H PARENT
REMARK Flexibility Score: inf
ROOT
ATOM      1  C   UNL     1     -97.840 -43.260 -10.148  1.00  0.00     0.000 C 
ENDROOT
BRANCH   1   2
ATOM      2  C   UNL     1     -97.671 -43.443 -11.661  1.00  0.00     0.000 C 
BRANCH   2   3
ATOM      3  C   UNL     1     -97.037 -44.802 -11.984  1.00  0.00     0.000 C 
BRANCH   3   4
ATOM      4  C   UNL     1     -98.115 -45.866 -12.238  1.00  0.00     0.000 C 
BRANCH   4   5
ATOM      5  C   UNL     1     -98.162 -46.938 -11.137  1.00  0.00     0.000 C 
BRANCH   5   6
ATOM      6  C   UNL     1     -98.644 -48.302 -11.660  1.00  0.00     0.006 C 
BRANCH   6   7
ATOM      7  C   UNL     1     -98.902 -48.283 -13.172  1.00  0.00     0.053 C 
BRANCH   7   8
ATOM      8  C   UNL     1    -100.341 -48.542 -13.497  1.00  0.00     0.041 C 
ATOM      9  O   UNL     1    -100.815 -49.704 -13.393  1.00  0.00    -0.550 OA
ATOM     10  O   UNL     1    -101.151 -47.506 -13.944  1.00  0.00    -0.550 OA
ENDBRANCH   7   8
ENDBRANCH   6   7
ENDBRANCH   5   6
ENDBRANCH   4   5
ENDBRANCH   3   4
ENDBRANCH   2   3
ENDBRANCH   1   2
BRANCH   1  11
ATOM     11  C   UNL     1     -96.601 -43.762  -9.392  1.00  0.00     0.000 C 
BRANCH  11  12
ATOM     12  C   UNL     1     -96.958 -44.721  -8.246  1.00  0.00     0.000 C 
BRANCH  12  13
ATOM     13  C   UNL     1     -95.987 -45.911  -8.146  1.00  0.00     0.000 C 
BRANCH  13  14
ATOM     14  C   UNL     1     -94.810 -45.808  -9.133  1.00  0.00     0.000 C 
BRANCH  14  15
ATOM     15  C   UNL     1     -94.605 -47.045 -10.025  1.00  0.00     0.000 C 
BRANCH  15  16
ATOM     16  C   UNL     1     -94.167 -46.686 -11.457  1.00  0.00     0.006 C 
BRANCH  16  17
ATOM     17  C   UNL     1     -93.372 -47.819 -12.121  1.00  0.00     0.053 C 
BRANCH  17  18
ATOM     18  C   UNL     1     -94.206 -49.051 -12.296  1.00  0.00     0.041 C 
ATOM     19  O   UNL     1     -93.800 -50.159 -11.857  1.00  0.00    -0.550 OA
ATOM     20  O   UNL     1     -95.416 -48.982 -12.975  1.00  0.00    -0.550 OA
ENDBRANCH  17  18
ENDBRANCH  16  17
ENDBRANCH  15  16
ENDBRANCH  14  15
ENDBRANCH  13  14
ENDBRANCH  12  13
ENDBRANCH  11  12
ENDBRANCH   1  11
TORSDOF 15
ENDMDL
MODEL 6
REMARK VINA RESULT:    -3.114      1.484      2.375
REMARK INTER + INTRA:          -8.229
REMARK INTER:                  -6.454
REMARK INTRA:                  -1.775
REMARK UNBOUND:                -2.384
REMARK SMILES O=C([O-])CCCCCCCCCCCCCCC(=O)[O-]
REMARK SMILES IDX 10 1 9 2 8 3 7 4 6 5 5 6 4 7 2 8 1 9 3 10 11 11 12 12 13 13
REMARK SMILES IDX 14 14 15 15 16 16 17 17 18 18 19 19 20 20
REMARK H PARENT
REMARK Flexibility Score: inf
ROOT
ATOM      1  C   UNL     1     -98.613 -43.386 -11.983  1.00  0.00     0.000 C 
ENDROOT
BRANCH   1   2
ATOM      2  C   UNL     1     -99.280 -44.708 -12.379  1.00  0.00     0.000 C 
BRANCH   2   3
ATOM      3  C   UNL     1     -98.312 -45.886 -12.213  1.00  0.00     0.000 C 
BRANCH   3   4
ATOM      4  C   UNL     1     -99.076 -47.198 -11.982  1.00  0.00     0.000 C 
BRANCH   4   5
ATOM      5  C   UNL     1     -98.920 -48.189 -13.147  1.00  0.00     0.000 C 
BRANCH   5   6
ATOM      6  C   UNL     1    -100.272 -48.620 -13.740  1.00  0.00     0.006 C 
BRANCH   6   7
ATOM      7  C   UNL     1    -101.395 -47.631 -13.400  1.00  0.00     0.053 C 
BRANCH   7   8
ATOM      8  C   UNL     1    -102.696 -48.024 -14.032  1.00  0.00     0.041 C 
ATOM      9  O   UNL     1    -102.963 -49.239 -14.227  1.00  0.00    -0.550 OA
ATOM     10  O   UNL     1    -103.597 -47.047 -14.434  1.00  0.00    -0.550 OA
ENDBRANCH   7   8
ENDBRANCH   6   7
ENDBRANCH   5   6
ENDBRANCH   4   5
ENDBRANCH   3   4
ENDBRANCH   2   3
ENDBRANCH   1   2
BRANCH   1  11
ATOM     11  C   UNL     1     -97.200 -43.628 -11.430  1.00  0.00     0.000 C 
BRANCH  11  12
ATOM     12  C   UNL     1     -97.020 -43.071 -10.009  1.00  0.00     0.000 C 
BRANCH  12  13
ATOM     13  C   UNL     1     -97.567 -44.019  -8.928  1.00  0.00     0.000 C 
BRANCH  13  14
ATOM     14  C   UNL     1     -96.873 -45.393  -8.929  1.00  0.00     0.000 C 
BRANCH  14  15
ATOM     15  C   UNL     1     -95.368 -45.356  -8.609  1.00  0.00     0.000 C 
BRANCH  15  16
ATOM     16  C   UNL     1     -94.514 -46.096  -9.655  1.00  0.00     0.006 C 
BRANCH  16  17
ATOM     17  C   UNL     1     -95.369 -46.956 -10.596  1.00  0.00     0.053 C 
BRANCH  17  18
ATOM     18  C   UNL     1     -94.774 -47.032 -11.969  1.00  0.00     0.041 C 
ATOM     19  O   UNL     1     -94.551 -45.979 -12.622  1.00  0.00    -0.550 OA
ATOM     20  O   UNL     1     -94.500 -48.268 -12.541  1.00  0.00    -0.550 OA
ENDBRANCH  17  18
ENDBRANCH  16  17
ENDBRANCH  15  16
ENDBRANCH  14  15
ENDBRANCH  13  14
ENDBRANCH  12  13
ENDBRANCH  11  12
ENDBRANCH   1  11
TORSDOF 15
ENDMDL
MODEL 7
REMARK VINA RESULT:    -3.058      1.481      2.066
REMARK INTER + INTRA:          -8.123
REMARK INTER:                  -5.962
REMARK INTRA:                  -2.162
REMARK UNBOUND:                -2.384
REMARK SMILES O=C([O-])CCCCCCCCCCCCCCC(=O)[O-]
REMARK SMILES IDX 10 1 9 2 8 3 7 4 6 5 5 6 4 7 2 8 1 9 3 10 11 11 12 12 13 13
REMARK SMILES IDX 14 14 15 15 16 16 17 17 18 18 19 19 20 20
REMARK H PARENT
REMARK Flexibility Score: inf
ROOT
ATOM      1  C   UNL     1     -97.380 -43.224 -10.978  1.00  0.00     0.000 C 
ENDROOT
BRANCH   1   2
ATOM      2  C   UNL     1     -98.798 -43.773 -11.176  1.00  0.00     0.000 C 
BRANCH   2   3
ATOM      3  C   UNL     1     -98.854 -44.739 -12.366  1.00  0.00     0.000 C 
BRANCH   3   4
ATOM      4  C   UNL     1     -99.056 -46.186 -11.891  1.00  0.00     0.000 C 
BRANCH   4   5
ATOM      5  C   UNL     1    -100.033 -46.971 -12.780  1.00  0.00     0.000 C 
BRANCH   5   6
ATOM      6  C   UNL     1     -99.465 -48.328 -13.229  1.00  0.00     0.006 C 
BRANCH   6   7
ATOM      7  C   UNL     1     -98.050 -48.571 -12.685  1.00  0.00     0.053 C 
BRANCH   7   8
ATOM      8  C   UNL     1     -98.032 -49.638 -11.633  1.00  0.00     0.041 C 
ATOM      9  O   UNL     1     -97.133 -50.521 -11.642  1.00  0.00    -0.550 OA
ATOM     10  O   UNL     1     -99.024 -49.676 -10.662  1.00  0.00    -0.550 OA
ENDBRANCH   7   8
ENDBRANCH   6   7
ENDBRANCH   5   6
ENDBRANCH   4   5
ENDBRANCH   3   4
ENDBRANCH   2   3
ENDBRANCH   1   2
BRANCH   1  11
ATOM     11  C   UNL     1     -96.984 -43.244  -9.494  1.00  0.00     0.000 C 
BRANCH  11  12
ATOM     12  C   UNL     1     -97.230 -44.612  -8.837  1.00  0.00     0.000 C 
BRANCH  12  13
ATOM     13  C   UNL     1     -95.939 -45.243  -8.287  1.00  0.00     0.000 C 
BRANCH  13  14
ATOM     14  C   UNL     1     -95.005 -45.761  -9.395  1.00  0.00     0.000 C 
BRANCH  14  15
ATOM     15  C   UNL     1     -95.694 -46.622 -10.470  1.00  0.00     0.000 C 
BRANCH  15  16
ATOM     16  C   UNL     1     -95.371 -46.163 -11.903  1.00  0.00     0.006 C 
BRANCH  16  17
ATOM     17  C   UNL     1     -93.975 -46.613 -12.355  1.00  0.00     0.053 C 
BRANCH  17  18
ATOM     18  C   UNL     1     -93.789 -48.090 -12.189  1.00  0.00     0.041 C 
ATOM     19  O   UNL     1     -94.482 -48.895 -12.864  1.00  0.00    -0.550 OA
ATOM     20  O   UNL     1     -92.875 -48.577 -11.262  1.00  0.00    -0.550 OA
ENDBRANCH  17  18
ENDBRANCH  16  17
ENDBRANCH  15  16
ENDBRANCH  14  15
ENDBRANCH  13  14
ENDBRANCH  12  13
ENDBRANCH  11  12
ENDBRANCH   1  11
TORSDOF 15
ENDMDL
MODEL 8
REMARK VINA RESULT:    -3.007      2.039      4.653
REMARK INTER + INTRA:          -8.028
REMARK INTER:                  -5.781
REMARK INTRA:                  -2.246
REMARK UNBOUND:                -2.384
REMARK SMILES O=C([O-])CCCCCCCCCCCCCCC(=O)[O-]
REMARK SMILES IDX 10 1 9 2 8 3 7 4 6 5 5 6 4 7 2 8 1 9 3 10 11 11 12 12 13 13
REMARK SMILES IDX 14 14 15 15 16 16 17 17 18 18 19 19 20 20
REMARK H PARENT
REMARK Flexibility Score: inf
ROOT
ATOM      1  C   UNL     1     -97.637 -45.096 -12.016  1.00  0.00     0.000 C 
ENDROOT
BRANCH   1   2
ATOM      2  C   UNL     1     -97.290 -43.627 -11.747  1.00  0.00     0.000 C 
BRANCH   2   3
ATOM      3  C   UNL     1     -97.974 -43.124 -10.470  1.00  0.00     0.000 C 
BRANCH   3   4
ATOM      4  C   UNL     1     -96.997 -43.131  -9.284  1.00  0.00     0.000 C 
BRANCH   4   5
ATOM      5  C   UNL     1     -97.132 -44.389  -8.412  1.00  0.00     0.000 C 
BRANCH   5   6
ATOM      6  C   UNL     1     -95.834 -45.212  -8.358  1.00  0.00     0.006 C 
BRANCH   6   7
ATOM      7  C   UNL     1     -95.957 -46.537  -9.123  1.00  0.00     0.053 C 
BRANCH   7   8
ATOM      8  C   UNL     1     -94.710 -46.858  -9.888  1.00  0.00     0.041 C 
ATOM      9  O   UNL     1     -94.452 -46.252 -10.962  1.00  0.00    -0.550 OA
ATOM     10  O   UNL     1     -93.848 -47.847  -9.431  1.00  0.00    -0.550 OA
ENDBRANCH   7   8
ENDBRANCH   6   7
ENDBRANCH   5   6
ENDBRANCH   4   5
ENDBRANCH   3   4
ENDBRANCH   2   3
ENDBRANCH   1   2
BRANCH   1  11
ATOM     11  C   UNL     1     -99.054 -45.425 -11.522  1.00  0.00     0.000 C 
BRANCH  11  12
ATOM     12  C   UNL     1    -100.017 -45.758 -12.672  1.00  0.00     0.000 C 
BRANCH  12  13
ATOM     13  C   UNL     1    -100.528 -47.208 -12.614  1.00  0.00     0.000 C 
BRANCH  13  14
ATOM     14  C   UNL     1     -99.547 -48.215 -13.240  1.00  0.00     0.000 C 
BRANCH  14  15
ATOM     15  C   UNL     1     -98.979 -49.258 -12.260  1.00  0.00     0.000 C 
BRANCH  15  16
ATOM     16  C   UNL     1     -97.667 -48.804 -11.596  1.00  0.00     0.006 C 
BRANCH  16  17
ATOM     17  C   UNL     1     -96.540 -48.603 -12.618  1.00  0.00     0.053 C 
BRANCH  17  18
ATOM     18  C   UNL     1     -95.431 -49.591 -12.421  1.00  0.00     0.041 C 
ATOM     19  O   UNL     1     -94.233 -49.237 -12.575  1.00  0.00    -0.550 OA
ATOM     20  O   UNL     1     -95.724 -50.911 -12.103  1.00  0.00    -0.550 OA
ENDBRANCH  17  18
ENDBRANCH  16  17
ENDBRANCH  15  16
ENDBRANCH  14  15
ENDBRANCH  13  14
ENDBRANCH  12  13
ENDBRANCH  11  12
ENDBRANCH   1  11
TORSDOF 15
ENDMDL
MODEL 9
REMARK VINA RESULT:    -2.982      1.720      4.606
REMARK INTER + INTRA:          -7.981
REMARK INTER:                  -5.396
REMARK INTRA:                  -2.585
REMARK UNBOUND:                -2.384
REMARK SMILES O=C([O-])CCCCCCCCCCCCCCC(=O)[O-]
REMARK SMILES IDX 10 1 9 2 8 3 7 4 6 5 5 6 4 7 2 8 1 9 3 10 11 11 12 12 13 13
REMARK SMILES IDX 14 14 15 15 16 16 17 17 18 18 19 19 20 20
REMARK H PARENT
REMARK Flexibility Score: inf
ROOT
ATOM      1  C   UNL     1     -98.168 -42.949 -10.500  1.00  0.00     0.000 C 
ENDROOT
BRANCH   1   2
ATOM      2  C   UNL     1     -97.697 -43.181  -9.060  1.00  0.00     0.000 C 
BRANCH   2   3
ATOM      3  C   UNL     1     -98.621 -44.163  -8.329  1.00  0.00     0.000 C 
BRANCH   3   4
ATOM      4  C   UNL     1     -98.128 -45.609  -8.494  1.00  0.00     0.000 C 
BRANCH   4   5
ATOM      5  C   UNL     1     -96.628 -45.761  -8.202  1.00  0.00     0.000 C 
BRANCH   5   6
ATOM      6  C   UNL     1     -95.915 -46.662  -9.224  1.00  0.00     0.006 C 
BRANCH   6   7
ATOM      7  C   UNL     1     -94.765 -45.935  -9.934  1.00  0.00     0.053 C 
BRANCH   7   8
ATOM      8  C   UNL     1     -94.064 -46.823 -10.916  1.00  0.00     0.041 C 
ATOM      9  O   UNL     1     -93.563 -47.915 -10.537  1.00  0.00    -0.550 OA
ATOM     10  O   UNL     1     -93.937 -46.431 -12.243  1.00  0.00    -0.550 OA
ENDBRANCH   7   8
ENDBRANCH   6   7
ENDBRANCH   5   6
ENDBRANCH   4   5
ENDBRANCH   3   4
ENDBRANCH   2   3
ENDBRANCH   1   2
BRANCH   1  11
ATOM     11  C   UNL     1     -97.146 -43.498 -11.507  1.00  0.00     0.000 C 
BRANCH  11  12
ATOM     12  C   UNL     1     -97.565 -44.856 -12.092  1.00  0.00     0.000 C 
BRANCH  12  13
ATOM     13  C   UNL     1     -99.079 -44.946 -12.353  1.00  0.00     0.000 C 
BRANCH  13  14
ATOM     14  C   UNL     1     -99.581 -46.395 -12.474  1.00  0.00     0.000 C 
BRANCH  14  15
ATOM     15  C   UNL     1     -98.768 -47.429 -11.674  1.00  0.00     0.000 C 
BRANCH  15  16
ATOM     16  C   UNL     1     -98.261 -48.594 -12.543  1.00  0.00     0.006 C 
BRANCH  16  17
ATOM     17  C   UNL     1     -96.728 -48.675 -12.565  1.00  0.00     0.053 C 
BRANCH  17  18
ATOM     18  C   UNL     1     -96.220 -49.790 -11.703  1.00  0.00     0.041 C 
ATOM     19  O   UNL     1     -95.426 -50.645 -12.175  1.00  0.00    -0.550 OA
ATOM     20  O   UNL     1     -96.653 -49.904 -10.387  1.00  0.00    -0.550 OA
ENDBRANCH  17  18
ENDBRANCH  16  17
ENDBRANCH  15  16
ENDBRANCH  14  15
ENDBRANCH  13  14
ENDBRANCH  12  13
ENDBRANCH  11  12
ENDBRANCH   1  11
TORSDOF 15
ENDMDL
