MODEL 1
REMARK VINA RESULT:    -3.295      0.000      0.000
REMARK INTER + INTRA:          -5.037
REMARK INTER:                  -4.451
REMARK INTRA:                  -0.586
REMARK UNBOUND:                -0.586
REMARK SMILES CCCCCCC=CC(=O)[O-]
REMARK SMILES IDX 5 1 6 2 7 3 8 4 9 5 10 6 11 7 4 8 3 9 2 10 1 11
REMARK H PARENT
REMARK Flexibility Score: inf
ROOT
ATOM      1  C   UNL     1      42.085  57.662  30.764  1.00  0.00     0.004 C 
ENDROOT
BRANCH   1   2
ATOM      2  C   UNL     1      43.082  58.737  31.230  1.00  0.00     0.027 C 
BRANCH   2   3
ATOM      3  C   UNL     1      44.344  58.748  30.412  1.00  0.00    -0.025 C 
ATOM      4  C   UNL     1      44.892  57.618  29.955  1.00  0.00     0.020 C 
BRANCH   4   5
ATOM      5  C   UNL     1      46.130  57.616  29.162  1.00  0.00     0.064 C 
ATOM      6  O   UNL     1      46.263  56.792  28.220  1.00  0.00    -0.545 OA
ATOM      7  O   UNL     1      47.156  58.513  29.434  1.00  0.00    -0.545 OA
ENDBRANCH   4   5
ENDBRANCH   2   3
ENDBRANCH   1   2
BRANCH   1   8
ATOM      8  C   UNL     1      41.746  56.610  31.836  1.00  0.00     0.000 C 
BRANCH   8   9
ATOM      9  C   UNL     1      42.529  55.289  31.676  1.00  0.00    -0.000 C 
BRANCH   9  10
ATOM     10  C   UNL     1      42.125  54.523  30.408  1.00  0.00    -0.003 C 
ATOM     11  C   UNL     1      43.317  54.338  29.473  1.00  0.00     0.004 C 
ENDBRANCH   9  10
ENDBRANCH   8   9
ENDBRANCH   1   8
TORSDOF 6
ENDMDL
MODEL 2
REMARK VINA RESULT:    -3.279      1.699      2.753
REMARK INTER + INTRA:          -5.015
REMARK INTER:                  -4.402
REMARK INTRA:                  -0.613
REMARK UNBOUND:                -0.586
REMARK SMILES CCCCCCC=CC(=O)[O-]
REMARK SMILES IDX 5 1 6 2 7 3 8 4 9 5 10 6 11 7 4 8 3 9 2 10 1 11
REMARK H PARENT
REMARK Flexibility Score: inf
ROOT
ATOM      1  C   UNL     1      42.149  55.174  32.286  1.00  0.00     0.004 C 
ENDROOT
BRANCH   1   2
ATOM      2  C   UNL     1      41.361  56.186  31.437  1.00  0.00     0.027 C 
BRANCH   2   3
ATOM      3  C   UNL     1      42.082  57.496  31.284  1.00  0.00    -0.025 C 
ATOM      4  C   UNL     1      43.179  57.608  30.527  1.00  0.00     0.020 C 
BRANCH   4   5
ATOM      5  C   UNL     1      43.897  58.881  30.376  1.00  0.00     0.064 C 
ATOM      6  O   UNL     1      45.154  58.895  30.424  1.00  0.00    -0.545 OA
ATOM      7  O   UNL     1      43.208  60.073  30.176  1.00  0.00    -0.545 OA
ENDBRANCH   4   5
ENDBRANCH   2   3
ENDBRANCH   1   2
BRANCH   1   8
ATOM      8  C   UNL     1      42.747  54.005  31.481  1.00  0.00     0.000 C 
BRANCH   8   9
ATOM      9  C   UNL     1      41.815  53.482  30.366  1.00  0.00    -0.000 C 
BRANCH   9  10
ATOM     10  C   UNL     1      42.550  53.301  29.031  1.00  0.00    -0.003 C 
ATOM     11  C   UNL     1      43.759  54.228  28.936  1.00  0.00     0.004 C 
ENDBRANCH   9  10
ENDBRANCH   8   9
ENDBRANCH   1   8
TORSDOF 6
ENDMDL
MODEL 3
REMARK VINA RESULT:    -3.183      1.052      2.882
REMARK INTER + INTRA:          -4.885
REMARK INTER:                  -4.363
REMARK INTRA:                  -0.522
REMARK UNBOUND:                -0.586
REMARK SMILES CCCCCCC=CC(=O)[O-]
REMARK SMILES IDX 5 1 6 2 7 3 8 4 9 5 10 6 11 7 4 8 3 9 2 10 1 11
REMARK H PARENT
REMARK Flexibility Score: inf
ROOT
ATOM      1  C   UNL     1      43.724  55.129  30.704  1.00  0.00     0.004 C 
ENDROOT
BRANCH   1   2
ATOM      2  C   UNL     1      44.100  54.848  29.240  1.00  0.00     0.027 C 
BRANCH   2   3
ATOM      3  C   UNL     1      45.279  55.660  28.780  1.00  0.00    -0.025 C 
ATOM      4  C   UNL     1      45.511  56.889  29.254  1.00  0.00     0.020 C 
BRANCH   4   5
ATOM      5  C   UNL     1      46.656  57.694  28.806  1.00  0.00     0.064 C 
ATOM      6  O   UNL     1      47.311  58.364  29.646  1.00  0.00    -0.545 OA
ATOM      7  O   UNL     1      47.029  57.726  27.467  1.00  0.00    -0.545 OA
ENDBRANCH   4   5
ENDBRANCH   2   3
ENDBRANCH   1   2
BRANCH   1   8
ATOM      8  C   UNL     1      42.208  55.247  30.955  1.00  0.00     0.000 C 
BRANCH   8   9
ATOM      9  C   UNL     1      41.802  56.541  31.693  1.00  0.00    -0.000 C 
BRANCH   9  10
ATOM     10  C   UNL     1      41.802  57.764  30.765  1.00  0.00    -0.003 C 
ATOM     11  C   UNL     1      42.987  58.680  31.059  1.00  0.00     0.004 C 
ENDBRANCH   9  10
ENDBRANCH   8   9
ENDBRANCH   1   8
TORSDOF 6
ENDMDL
MODEL 4
REMARK VINA RESULT:    -3.084      2.852      4.828
REMARK INTER + INTRA:          -4.751
REMARK INTER:                  -4.426
REMARK INTRA:                  -0.326
REMARK UNBOUND:                -0.586
REMARK SMILES CCCCCCC=CC(=O)[O-]
REMARK SMILES IDX 5 1 6 2 7 3 8 4 9 5 10 6 11 7 4 8 3 9 2 10 1 11
REMARK H PARENT
REMARK Flexibility Score: inf
ROOT
ATOM      1  C   UNL     1      43.914  58.794  30.458  1.00  0.00     0.004 C 
ENDROOT
BRANCH   1   2
ATOM      2  C   UNL     1      42.598  58.177  30.959  1.00  0.00     0.027 C 
BRANCH   2   3
ATOM      3  C   UNL     1      42.537  56.690  30.742  1.00  0.00    -0.025 C 
ATOM      4  C   UNL     1      41.745  55.906  31.480  1.00  0.00     0.020 C 
BRANCH   4   5
ATOM      5  C   UNL     1      41.684  54.451  31.283  1.00  0.00     0.064 C 
ATOM      6  O   UNL     1      41.344  53.707  32.240  1.00  0.00    -0.545 OA
ATOM      7  O   UNL     1      41.994  53.881  30.053  1.00  0.00    -0.545 OA
ENDBRANCH   4   5
ENDBRANCH   2   3
ENDBRANCH   1   2
BRANCH   1   8
ATOM      8  C   UNL     1      44.988  57.760  30.071  1.00  0.00     0.000 C 
BRANCH   8   9
ATOM      9  C   UNL     1      46.349  58.391  29.704  1.00  0.00    -0.000 C 
BRANCH   9  10
ATOM     10  C   UNL     1      46.985  57.728  28.474  1.00  0.00    -0.003 C 
ATOM     11  C   UNL     1      46.202  56.488  28.049  1.00  0.00     0.004 C 
ENDBRANCH   9  10
ENDBRANCH   8   9
ENDBRANCH   1   8
TORSDOF 6
ENDMDL
MODEL 5
REMARK VINA RESULT:    -3.060     12.388     13.933
REMARK INTER + INTRA:          -4.719
REMARK INTER:                  -4.066
REMARK INTRA:                  -0.653
REMARK UNBOUND:                -0.586
REMARK SMILES CCCCCCC=CC(=O)[O-]
REMARK SMILES IDX 5 1 6 2 7 3 8 4 9 5 10 6 11 7 4 8 3 9 2 10 1 11
REMARK H PARENT
REMARK Flexibility Score: inf
ROOT
ATOM      1  C   UNL     1      45.872  69.398  30.742  1.00  0.00     0.004 C 
ENDROOT
BRANCH   1   2
ATOM      2  C   UNL     1      46.888  69.065  31.847  1.00  0.00     0.027 C 
BRANCH   2   3
ATOM      3  C   UNL     1      46.269  69.051  33.216  1.00  0.00    -0.025 C 
ATOM      4  C   UNL     1      45.100  68.444  33.451  1.00  0.00     0.020 C 
BRANCH   4   5
ATOM      5  C   UNL     1      44.481  68.432  34.784  1.00  0.00     0.064 C 
ATOM      6  O   UNL     1      43.338  68.933  34.943  1.00  0.00    -0.545 OA
ATOM      7  O   UNL     1      45.138  67.871  35.874  1.00  0.00    -0.545 OA
ENDBRANCH   4   5
ENDBRANCH   2   3
ENDBRANCH   1   2
BRANCH   1   8
ATOM      8  C   UNL     1      45.847  70.884  30.335  1.00  0.00     0.000 C 
BRANCH   8   9
ATOM      9  C   UNL     1      44.428  71.491  30.297  1.00  0.00    -0.000 C 
BRANCH   9  10
ATOM     10  C   UNL     1      44.171  72.444  31.473  1.00  0.00    -0.003 C 
ATOM     11  C   UNL     1      43.546  71.706  32.654  1.00  0.00     0.004 C 
ENDBRANCH   9  10
ENDBRANCH   8   9
ENDBRANCH   1   8
TORSDOF 6
ENDMDL
MODEL 6
REMARK VINA RESULT:    -2.981     12.398     14.371
REMARK INTER + INTRA:          -4.612
REMARK INTER:                  -4.135
REMARK INTRA:                  -0.477
REMARK UNBOUND:                -0.586
REMARK SMILES CCCCCCC=CC(=O)[O-]
REMARK SMILES IDX 5 1 6 2 7 3 8 4 9 5 10 6 11 7 4 8 3 9 2 10 1 11
REMARK H PARENT
REMARK Flexibility Score: inf
ROOT
ATOM      1  C   UNL     1      44.082  71.637  30.562  1.00  0.00     0.004 C 
ENDROOT
BRANCH   1   2
ATOM      2  C   UNL     1      45.455  71.233  30.000  1.00  0.00     0.027 C 
BRANCH   2   3
ATOM      3  C   UNL     1      46.012  70.004  30.663  1.00  0.00    -0.025 C 
ATOM      4  C   UNL     1      45.974  69.846  31.991  1.00  0.00     0.020 C 
BRANCH   4   5
ATOM      5  C   UNL     1      46.522  68.653  32.651  1.00  0.00     0.064 C 
ATOM      6  O   UNL     1      47.597  68.149  32.231  1.00  0.00    -0.545 OA
ATOM      7  O   UNL     1      45.874  68.072  33.735  1.00  0.00    -0.545 OA
ENDBRANCH   4   5
ENDBRANCH   2   3
ENDBRANCH   1   2
BRANCH   1   8
ATOM      8  C   UNL     1      44.032  73.066  31.136  1.00  0.00     0.000 C 
BRANCH   8   9
ATOM      9  C   UNL     1      43.588  73.124  32.614  1.00  0.00    -0.000 C 
BRANCH   9  10
ATOM     10  C   UNL     1      43.168  71.748  33.149  1.00  0.00    -0.003 C 
ATOM     11  C   UNL     1      41.977  71.864  34.096  1.00  0.00     0.004 C 
ENDBRANCH   9  10
ENDBRANCH   8   9
ENDBRANCH   1   8
TORSDOF 6
ENDMDL
MODEL 7
REMARK VINA RESULT:    -2.949     12.867     14.433
REMARK INTER + INTRA:          -4.569
REMARK INTER:                  -3.824
REMARK INTRA:                  -0.745
REMARK UNBOUND:                -0.586
REMARK SMILES CCCCCCC=CC(=O)[O-]
REMARK SMILES IDX 5 1 6 2 7 3 8 4 9 5 10 6 11 7 4 8 3 9 2 10 1 11
REMARK H PARENT
REMARK Flexibility Score: inf
ROOT
ATOM      1  C   UNL     1      44.101  72.959  31.322  1.00  0.00     0.004 C 
ENDROOT
BRANCH   1   2
ATOM      2  C   UNL     1      43.958  72.704  32.832  1.00  0.00     0.027 C 
BRANCH   2   3
ATOM      3  C   UNL     1      43.693  71.260  33.152  1.00  0.00    -0.025 C 
ATOM      4  C   UNL     1      44.488  70.568  33.975  1.00  0.00     0.020 C 
BRANCH   4   5
ATOM      5  C   UNL     1      44.244  69.152  34.289  1.00  0.00     0.064 C 
ATOM      6  O   UNL     1      43.453  68.850  35.220  1.00  0.00    -0.545 OA
ATOM      7  O   UNL     1      44.871  68.141  33.570  1.00  0.00    -0.545 OA
ENDBRANCH   4   5
ENDBRANCH   2   3
ENDBRANCH   1   2
BRANCH   1   8
ATOM      8  C   UNL     1      44.108  71.679  30.465  1.00  0.00     0.000 C 
BRANCH   8   9
ATOM      9  C   UNL     1      45.512  71.280  29.960  1.00  0.00    -0.000 C 
BRANCH   9  10
ATOM     10  C   UNL     1      45.999  69.962  30.578  1.00  0.00    -0.003 C 
ATOM     11  C   UNL     1      47.215  70.187  31.472  1.00  0.00     0.004 C 
ENDBRANCH   9  10
ENDBRANCH   8   9
ENDBRANCH   1   8
TORSDOF 6
ENDMDL
MODEL 8
REMARK VINA RESULT:    -2.897     13.215     15.014
REMARK INTER + INTRA:          -4.499
REMARK INTER:                  -3.881
REMARK INTRA:                  -0.618
REMARK UNBOUND:                -0.586
REMARK SMILES CCCCCCC=CC(=O)[O-]
REMARK SMILES IDX 5 1 6 2 7 3 8 4 9 5 10 6 11 7 4 8 3 9 2 10 1 11
REMARK H PARENT
REMARK Flexibility Score: inf
ROOT
ATOM      1  C   UNL     1      44.320  71.611  30.319  1.00  0.00     0.004 C 
ENDROOT
BRANCH   1   2
ATOM      2  C   UNL     1      44.319  72.975  31.028  1.00  0.00     0.027 C 
BRANCH   2   3
ATOM      3  C   UNL     1      43.637  72.930  32.367  1.00  0.00    -0.025 C 
ATOM      4  C   UNL     1      43.219  71.777  32.902  1.00  0.00     0.020 C 
BRANCH   4   5
ATOM      5  C   UNL     1      42.544  71.721  34.206  1.00  0.00     0.064 C 
ATOM      6  O   UNL     1      41.333  71.383  34.265  1.00  0.00    -0.545 OA
ATOM      7  O   UNL     1      43.223  72.033  35.379  1.00  0.00    -0.545 OA
ENDBRANCH   4   5
ENDBRANCH   2   3
ENDBRANCH   1   2
BRANCH   1   8
ATOM      8  C   UNL     1      45.713  70.963  30.200  1.00  0.00     0.000 C 
BRANCH   8   9
ATOM      9  C   UNL     1      45.805  69.572  30.863  1.00  0.00    -0.000 C 
BRANCH   9  10
ATOM     10  C   UNL     1      46.169  69.659  32.352  1.00  0.00    -0.003 C 
ATOM     11  C   UNL     1      45.305  68.719  33.188  1.00  0.00     0.004 C 
ENDBRANCH   9  10
ENDBRANCH   8   9
ENDBRANCH   1   8
TORSDOF 6
ENDMDL
MODEL 9
REMARK VINA RESULT:    -2.884      2.880      5.176
REMARK INTER + INTRA:          -4.482
REMARK INTER:                  -3.936
REMARK INTRA:                  -0.545
REMARK UNBOUND:                -0.586
REMARK SMILES CCCCCCC=CC(=O)[O-]
REMARK SMILES IDX 5 1 6 2 7 3 8 4 9 5 10 6 11 7 4 8 3 9 2 10 1 11
REMARK H PARENT
REMARK Flexibility Score: inf
ROOT
ATOM      1  C   UNL     1      45.276  55.024  28.853  1.00  0.00     0.004 C 
ENDROOT
BRANCH   1   2
ATOM      2  C   UNL     1      44.962  54.328  30.188  1.00  0.00     0.027 C 
BRANCH   2   3
ATOM      3  C   UNL     1      43.733  54.880  30.853  1.00  0.00    -0.025 C 
ATOM      4  C   UNL     1      43.143  55.999  30.417  1.00  0.00     0.020 C 
BRANCH   4   5
ATOM      5  C   UNL     1      41.946  56.553  31.065  1.00  0.00     0.064 C 
ATOM      6  O   UNL     1      41.575  57.724  30.788  1.00  0.00    -0.545 OA
ATOM      7  O   UNL     1      41.212  55.803  31.977  1.00  0.00    -0.545 OA
ENDBRANCH   4   5
ENDBRANCH   2   3
ENDBRANCH   1   2
BRANCH   1   8
ATOM      8  C   UNL     1      46.656  55.707  28.808  1.00  0.00     0.000 C 
BRANCH   8   9
ATOM      9  C   UNL     1      46.618  57.142  28.240  1.00  0.00    -0.000 C 
BRANCH   9  10
ATOM     10  C   UNL     1      46.930  58.199  29.308  1.00  0.00    -0.003 C 
ATOM     11  C   UNL     1      45.687  58.542  30.125  1.00  0.00     0.004 C 
ENDBRANCH   9  10
ENDBRANCH   8   9
ENDBRANCH   1   8
TORSDOF 6
ENDMDL
