MODEL 1
REMARK VINA RESULT:    -4.581      0.000      0.000
REMARK INTER + INTRA:         -10.177
REMARK INTER:                  -8.598
REMARK INTRA:                  -1.579
REMARK UNBOUND:                -1.579
REMARK SMILES O=C([O-])CCCCCCCCCCCCCCC(=O)[O-]
REMARK SMILES IDX 10 1 9 2 8 3 7 4 6 5 5 6 4 7 2 8 1 9 3 10 11 11 12 12 13 13
REMARK SMILES IDX 14 14 15 15 16 16 17 17 18 18 19 19 20 20
REMARK H PARENT
REMARK Flexibility Score: inf
ROOT
ATOM      1  C   UNL     1       5.933  -4.052 -35.232  1.00  0.00     0.000 C 
ENDROOT
BRANCH   1   2
ATOM      2  C   UNL     1       6.119  -3.290 -36.561  1.00  0.00     0.000 C 
BRANCH   2   3
ATOM      3  C   UNL     1       7.445  -3.612 -37.271  1.00  0.00     0.000 C 
BRANCH   3   4
ATOM      4  C   UNL     1       8.240  -2.352 -37.652  1.00  0.00     0.000 C 
BRANCH   4   5
ATOM      5  C   UNL     1       9.293  -1.977 -36.598  1.00  0.00     0.000 C 
BRANCH   5   6
ATOM      6  C   UNL     1      10.647  -1.600 -37.223  1.00  0.00     0.006 C 
BRANCH   6   7
ATOM      7  C   UNL     1      11.442  -0.628 -36.342  1.00  0.00     0.053 C 
BRANCH   7   8
ATOM      8  C   UNL     1      12.442  -1.345 -35.487  1.00  0.00     0.041 C 
ATOM      9  O   UNL     1      13.601  -1.572 -35.922  1.00  0.00    -0.550 OA
ATOM     10  O   UNL     1      12.080  -1.798 -34.224  1.00  0.00    -0.550 OA
ENDBRANCH   7   8
ENDBRANCH   6   7
ENDBRANCH   5   6
ENDBRANCH   4   5
ENDBRANCH   3   4
ENDBRANCH   2   3
ENDBRANCH   1   2
BRANCH   1  11
ATOM     11  C   UNL     1       6.120  -3.139 -34.007  1.00  0.00     0.000 C 
BRANCH  11  12
ATOM     12  C   UNL     1       7.360  -3.502 -33.172  1.00  0.00     0.000 C 
BRANCH  12  13
ATOM     13  C   UNL     1       8.239  -4.617 -33.769  1.00  0.00     0.000 C 
BRANCH  13  14
ATOM     14  C   UNL     1       8.157  -5.930 -32.979  1.00  0.00     0.000 C 
BRANCH  14  15
ATOM     15  C   UNL     1       7.363  -5.737 -31.678  1.00  0.00     0.000 C 
BRANCH  15  16
ATOM     16  C   UNL     1       6.155  -6.681 -31.575  1.00  0.00     0.006 C 
BRANCH  16  17
ATOM     17  C   UNL     1       5.482  -6.928 -32.931  1.00  0.00     0.053 C 
BRANCH  17  18
ATOM     18  C   UNL     1       5.376  -8.396 -33.202  1.00  0.00     0.041 C 
ATOM     19  O   UNL     1       5.437  -9.222 -32.253  1.00  0.00    -0.550 OA
ATOM     20  O   UNL     1       5.167  -8.851 -34.498  1.00  0.00    -0.550 OA
ENDBRANCH  17  18
ENDBRANCH  16  17
ENDBRANCH  15  16
ENDBRANCH  14  15
ENDBRANCH  13  14
ENDBRANCH  12  13
ENDBRANCH  11  12
ENDBRANCH   1  11
TORSDOF 15
ENDMDL
MODEL 2
REMARK VINA RESULT:    -4.541      3.009      5.447
REMARK INTER + INTRA:         -10.103
REMARK INTER:                  -8.049
REMARK INTRA:                  -2.054
REMARK UNBOUND:                -1.579
REMARK SMILES O=C([O-])CCCCCCCCCCCCCCC(=O)[O-]
REMARK SMILES IDX 10 1 9 2 8 3 7 4 6 5 5 6 4 7 2 8 1 9 3 10 11 11 12 12 13 13
REMARK SMILES IDX 14 14 15 15 16 16 17 17 18 18 19 19 20 20
REMARK H PARENT
REMARK Flexibility Score: inf
ROOT
ATOM      1  C   UNL     1       5.658  -8.019 -34.677  1.00  0.00     0.000 C 
ENDROOT
BRANCH   1   2
ATOM      2  C   UNL     1       5.066  -7.299 -33.446  1.00  0.00     0.000 C 
BRANCH   2   3
ATOM      3  C   UNL     1       5.730  -7.707 -32.120  1.00  0.00     0.000 C 
BRANCH   3   4
ATOM      4  C   UNL     1       6.329  -6.511 -31.361  1.00  0.00     0.000 C 
BRANCH   4   5
ATOM      5  C   UNL     1       7.590  -5.953 -32.038  1.00  0.00     0.000 C 
BRANCH   5   6
ATOM      6  C   UNL     1       7.387  -4.528 -32.581  1.00  0.00     0.006 C 
BRANCH   6   7
ATOM      7  C   UNL     1       8.148  -4.293 -33.892  1.00  0.00     0.053 C 
BRANCH   7   8
ATOM      8  C   UNL     1       8.023  -2.876 -34.361  1.00  0.00     0.041 C 
ATOM      9  O   UNL     1       6.928  -2.453 -34.817  1.00  0.00    -0.550 OA
ATOM     10  O   UNL     1       9.127  -2.033 -34.330  1.00  0.00    -0.550 OA
ENDBRANCH   7   8
ENDBRANCH   6   7
ENDBRANCH   5   6
ENDBRANCH   4   5
ENDBRANCH   3   4
ENDBRANCH   2   3
ENDBRANCH   1   2
BRANCH   1  11
ATOM     11  C   UNL     1       6.092  -7.033 -35.775  1.00  0.00     0.000 C 
BRANCH  11  12
ATOM     12  C   UNL     1       5.325  -5.701 -35.723  1.00  0.00     0.000 C 
BRANCH  12  13
ATOM     13  C   UNL     1       4.581  -5.331 -37.019  1.00  0.00     0.000 C 
BRANCH  13  14
ATOM     14  C   UNL     1       3.054  -5.373 -36.865  1.00  0.00     0.000 C 
BRANCH  14  15
ATOM     15  C   UNL     1       2.549  -6.824 -36.817  1.00  0.00     0.000 C 
BRANCH  15  16
ATOM     16  C   UNL     1       1.672  -7.105 -35.587  1.00  0.00     0.006 C 
BRANCH  16  17
ATOM     17  C   UNL     1       1.643  -8.592 -35.209  1.00  0.00     0.053 C 
BRANCH  17  18
ATOM     18  C   UNL     1       1.699  -8.756 -33.723  1.00  0.00     0.041 C 
ATOM     19  O   UNL     1       2.410  -9.661 -33.212  1.00  0.00    -0.550 OA
ATOM     20  O   UNL     1       1.002  -7.880 -32.900  1.00  0.00    -0.550 OA
ENDBRANCH  17  18
ENDBRANCH  16  17
ENDBRANCH  15  16
ENDBRANCH  14  15
ENDBRANCH  13  14
ENDBRANCH  12  13
ENDBRANCH  11  12
ENDBRANCH   1  11
TORSDOF 15
ENDMDL
MODEL 3
REMARK VINA RESULT:    -4.525      2.953      5.275
REMARK INTER + INTRA:         -10.072
REMARK INTER:                  -7.563
REMARK INTRA:                  -2.509
REMARK UNBOUND:                -1.579
REMARK SMILES O=C([O-])CCCCCCCCCCCCCCC(=O)[O-]
REMARK SMILES IDX 10 1 9 2 8 3 7 4 6 5 5 6 4 7 2 8 1 9 3 10 11 11 12 12 13 13
REMARK SMILES IDX 14 14 15 15 16 16 17 17 18 18 19 19 20 20
REMARK H PARENT
REMARK Flexibility Score: inf
ROOT
ATOM      1  C   UNL     1       7.541  -7.184 -36.257  1.00  0.00     0.000 C 
ENDROOT
BRANCH   1   2
ATOM      2  C   UNL     1       6.258  -8.004 -36.003  1.00  0.00     0.000 C 
BRANCH   2   3
ATOM      3  C   UNL     1       5.732  -7.889 -34.563  1.00  0.00     0.000 C 
BRANCH   3   4
ATOM      4  C   UNL     1       5.831  -6.460 -34.004  1.00  0.00     0.000 C 
BRANCH   4   5
ATOM      5  C   UNL     1       6.173  -6.433 -32.507  1.00  0.00     0.000 C 
BRANCH   5   6
ATOM      6  C   UNL     1       7.237  -5.376 -32.162  1.00  0.00     0.006 C 
BRANCH   6   7
ATOM      7  C   UNL     1       8.038  -4.937 -33.395  1.00  0.00     0.053 C 
BRANCH   7   8
ATOM      8  C   UNL     1       7.866  -3.475 -33.677  1.00  0.00     0.041 C 
ATOM      9  O   UNL     1       8.814  -2.808 -34.168  1.00  0.00    -0.550 OA
ATOM     10  O   UNL     1       6.670  -2.842 -33.360  1.00  0.00    -0.550 OA
ENDBRANCH   7   8
ENDBRANCH   6   7
ENDBRANCH   5   6
ENDBRANCH   4   5
ENDBRANCH   3   4
ENDBRANCH   2   3
ENDBRANCH   1   2
BRANCH   1  11
ATOM     11  C   UNL     1       7.401  -6.244 -37.467  1.00  0.00     0.000 C 
BRANCH  11  12
ATOM     12  C   UNL     1       7.408  -4.757 -37.075  1.00  0.00     0.000 C 
BRANCH  12  13
ATOM     13  C   UNL     1       6.014  -4.133 -36.877  1.00  0.00     0.000 C 
BRANCH  13  14
ATOM     14  C   UNL     1       4.925  -4.828 -37.708  1.00  0.00     0.000 C 
BRANCH  14  15
ATOM     15  C   UNL     1       3.671  -5.086 -36.858  1.00  0.00     0.000 C 
BRANCH  15  16
ATOM     16  C   UNL     1       3.087  -6.490 -37.075  1.00  0.00     0.006 C 
BRANCH  16  17
ATOM     17  C   UNL     1       1.940  -6.809 -36.107  1.00  0.00     0.053 C 
BRANCH  17  18
ATOM     18  C   UNL     1       2.222  -8.075 -35.360  1.00  0.00     0.041 C 
ATOM     19  O   UNL     1       1.976  -8.152 -34.127  1.00  0.00    -0.550 OA
ATOM     20  O   UNL     1       2.717  -9.184 -36.034  1.00  0.00    -0.550 OA
ENDBRANCH  17  18
ENDBRANCH  16  17
ENDBRANCH  15  16
ENDBRANCH  14  15
ENDBRANCH  13  14
ENDBRANCH  12  13
ENDBRANCH  11  12
ENDBRANCH   1  11
TORSDOF 15
ENDMDL
MODEL 4
REMARK VINA RESULT:    -4.497     13.693     16.176
REMARK INTER + INTRA:         -10.020
REMARK INTER:                  -8.745
REMARK INTRA:                  -1.274
REMARK UNBOUND:                -1.579
REMARK SMILES O=C([O-])CCCCCCCCCCCCCCC(=O)[O-]
REMARK SMILES IDX 10 1 9 2 8 3 7 4 6 5 5 6 4 7 2 8 1 9 3 10 11 11 12 12 13 13
REMARK SMILES IDX 14 14 15 15 16 16 17 17 18 18 19 19 20 20
REMARK H PARENT
REMARK Flexibility Score: inf
ROOT
ATOM      1  C   UNL     1      13.448  -5.163 -22.046  1.00  0.00     0.000 C 
ENDROOT
BRANCH   1   2
ATOM      2  C   UNL     1      14.038  -4.855 -20.653  1.00  0.00     0.000 C 
BRANCH   2   3
ATOM      3  C   UNL     1      15.078  -3.722 -20.665  1.00  0.00     0.000 C 
BRANCH   3   4
ATOM      4  C   UNL     1      14.438  -2.324 -20.663  1.00  0.00     0.000 C 
BRANCH   4   5
ATOM      5  C   UNL     1      13.173  -2.254 -19.795  1.00  0.00     0.000 C 
BRANCH   5   6
ATOM      6  C   UNL     1      11.906  -1.963 -20.619  1.00  0.00     0.006 C 
BRANCH   6   7
ATOM      7  C   UNL     1      10.728  -1.533 -19.737  1.00  0.00     0.053 C 
BRANCH   7   8
ATOM      8  C   UNL     1       9.447  -2.182 -20.166  1.00  0.00     0.041 C 
ATOM      9  O   UNL     1       8.979  -1.965 -21.314  1.00  0.00    -0.550 OA
ATOM     10  O   UNL     1       8.751  -2.998 -19.282  1.00  0.00    -0.550 OA
ENDBRANCH   7   8
ENDBRANCH   6   7
ENDBRANCH   5   6
ENDBRANCH   4   5
ENDBRANCH   3   4
ENDBRANCH   2   3
ENDBRANCH   1   2
BRANCH   1  11
ATOM     11  C   UNL     1      14.445  -4.863 -23.179  1.00  0.00     0.000 C 
BRANCH  11  12
ATOM     12  C   UNL     1      14.735  -6.088 -24.063  1.00  0.00     0.000 C 
BRANCH  12  13
ATOM     13  C   UNL     1      15.873  -6.995 -23.559  1.00  0.00     0.000 C 
BRANCH  13  14
ATOM     14  C   UNL     1      16.807  -6.286 -22.568  1.00  0.00     0.000 C 
BRANCH  14  15
ATOM     15  C   UNL     1      16.909  -7.075 -21.253  1.00  0.00     0.000 C 
BRANCH  15  16
ATOM     16  C   UNL     1      18.355  -7.199 -20.747  1.00  0.00     0.006 C 
BRANCH  16  17
ATOM     17  C   UNL     1      19.330  -7.636 -21.848  1.00  0.00     0.053 C 
BRANCH  17  18
ATOM     18  C   UNL     1      19.414  -9.128 -21.911  1.00  0.00     0.041 C 
ATOM     19  O   UNL     1      18.917  -9.830 -20.992  1.00  0.00    -0.550 OA
ATOM     20  O   UNL     1      20.004  -9.746 -23.007  1.00  0.00    -0.550 OA
ENDBRANCH  17  18
ENDBRANCH  16  17
ENDBRANCH  15  16
ENDBRANCH  14  15
ENDBRANCH  13  14
ENDBRANCH  12  13
ENDBRANCH  11  12
ENDBRANCH   1  11
TORSDOF 15
ENDMDL
MODEL 5
REMARK VINA RESULT:    -4.496      3.599      7.966
REMARK INTER + INTRA:         -10.018
REMARK INTER:                  -8.009
REMARK INTRA:                  -2.008
REMARK UNBOUND:                -1.579
REMARK SMILES O=C([O-])CCCCCCCCCCCCCCC(=O)[O-]
REMARK SMILES IDX 10 1 9 2 8 3 7 4 6 5 5 6 4 7 2 8 1 9 3 10 11 11 12 12 13 13
REMARK SMILES IDX 14 14 15 15 16 16 17 17 18 18 19 19 20 20
REMARK H PARENT
REMARK Flexibility Score: inf
ROOT
ATOM      1  C   UNL     1       5.897  -8.330 -34.846  1.00  0.00     0.000 C 
ENDROOT
BRANCH   1   2
ATOM      2  C   UNL     1       5.000  -8.296 -36.102  1.00  0.00     0.000 C 
BRANCH   2   3
ATOM      3  C   UNL     1       4.587  -6.876 -36.523  1.00  0.00     0.000 C 
BRANCH   3   4
ATOM      4  C   UNL     1       3.075  -6.630 -36.391  1.00  0.00     0.000 C 
BRANCH   4   5
ATOM      5  C   UNL     1       2.242  -7.872 -36.744  1.00  0.00     0.000 C 
BRANCH   5   6
ATOM      6  C   UNL     1       1.220  -8.229 -35.650  1.00  0.00     0.006 C 
BRANCH   6   7
ATOM      7  C   UNL     1       1.660  -9.441 -34.820  1.00  0.00     0.053 C 
BRANCH   7   8
ATOM      8  C   UNL     1       1.495  -9.198 -33.351  1.00  0.00     0.041 C 
ATOM      9  O   UNL     1       1.365  -8.025 -32.913  1.00  0.00    -0.550 OA
ATOM     10  O   UNL     1       1.525 -10.265 -32.462  1.00  0.00    -0.550 OA
ENDBRANCH   7   8
ENDBRANCH   6   7
ENDBRANCH   5   6
ENDBRANCH   4   5
ENDBRANCH   3   4
ENDBRANCH   2   3
ENDBRANCH   1   2
BRANCH   1  11
ATOM     11  C   UNL     1       5.089  -8.151 -33.549  1.00  0.00     0.000 C 
BRANCH  11  12
ATOM     12  C   UNL     1       5.328  -6.788 -32.876  1.00  0.00     0.000 C 
BRANCH  12  13
ATOM     13  C   UNL     1       6.192  -6.838 -31.602  1.00  0.00     0.000 C 
BRANCH  13  14
ATOM     14  C   UNL     1       7.359  -5.842 -31.632  1.00  0.00     0.000 C 
BRANCH  14  15
ATOM     15  C   UNL     1       8.137  -5.949 -32.953  1.00  0.00     0.000 C 
BRANCH  15  16
ATOM     16  C   UNL     1       8.246  -4.604 -33.688  1.00  0.00     0.006 C 
BRANCH  16  17
ATOM     17  C   UNL     1       7.244  -4.478 -34.843  1.00  0.00     0.053 C 
BRANCH  17  18
ATOM     18  C   UNL     1       6.215  -3.438 -34.532  1.00  0.00     0.041 C 
ATOM     19  O   UNL     1       6.363  -2.677 -33.539  1.00  0.00    -0.550 OA
ATOM     20  O   UNL     1       5.113  -3.279 -35.363  1.00  0.00    -0.550 OA
ENDBRANCH  17  18
ENDBRANCH  16  17
ENDBRANCH  15  16
ENDBRANCH  14  15
ENDBRANCH  13  14
ENDBRANCH  12  13
ENDBRANCH  11  12
ENDBRANCH   1  11
TORSDOF 15
ENDMDL
MODEL 6
REMARK VINA RESULT:    -4.452      4.551      6.534
REMARK INTER + INTRA:          -9.936
REMARK INTER:                  -7.842
REMARK INTRA:                  -2.093
REMARK UNBOUND:                -1.579
REMARK SMILES O=C([O-])CCCCCCCCCCCCCCC(=O)[O-]
REMARK SMILES IDX 10 1 9 2 8 3 7 4 6 5 5 6 4 7 2 8 1 9 3 10 11 11 12 12 13 13
REMARK SMILES IDX 14 14 15 15 16 16 17 17 18 18 19 19 20 20
REMARK H PARENT
REMARK Flexibility Score: inf
ROOT
ATOM      1  C   UNL     1       3.931  -9.463 -36.545  1.00  0.00     0.000 C 
ENDROOT
BRANCH   1   2
ATOM      2  C   UNL     1       5.055  -8.589 -37.142  1.00  0.00     0.000 C 
BRANCH   2   3
ATOM      3  C   UNL     1       6.061  -8.085 -36.093  1.00  0.00     0.000 C 
BRANCH   3   4
ATOM      4  C   UNL     1       5.519  -8.170 -34.657  1.00  0.00     0.000 C 
BRANCH   4   5
ATOM      5  C   UNL     1       5.465  -6.800 -33.964  1.00  0.00     0.000 C 
BRANCH   5   6
ATOM      6  C   UNL     1       5.400  -6.915 -32.431  1.00  0.00     0.006 C 
BRANCH   6   7
ATOM      7  C   UNL     1       6.759  -6.651 -31.771  1.00  0.00     0.053 C 
BRANCH   7   8
ATOM      8  C   UNL     1       7.559  -5.639 -32.533  1.00  0.00     0.041 C 
ATOM      9  O   UNL     1       8.539  -6.003 -33.235  1.00  0.00    -0.550 OA
ATOM     10  O   UNL     1       7.245  -4.289 -32.436  1.00  0.00    -0.550 OA
ENDBRANCH   7   8
ENDBRANCH   6   7
ENDBRANCH   5   6
ENDBRANCH   4   5
ENDBRANCH   3   4
ENDBRANCH   2   3
ENDBRANCH   1   2
BRANCH   1  11
ATOM     11  C   UNL     1       2.548  -9.100 -37.113  1.00  0.00     0.000 C 
BRANCH  11  12
ATOM     12  C   UNL     1       2.323  -7.582 -37.218  1.00  0.00     0.000 C 
BRANCH  12  13
ATOM     13  C   UNL     1       2.001  -6.881 -35.885  1.00  0.00     0.000 C 
BRANCH  13  14
ATOM     14  C   UNL     1       1.100  -7.722 -34.970  1.00  0.00     0.000 C 
BRANCH  14  15
ATOM     15  C   UNL     1       1.862  -8.170 -33.714  1.00  0.00     0.000 C 
BRANCH  15  16
ATOM     16  C   UNL     1       1.603  -9.643 -33.357  1.00  0.00     0.006 C 
BRANCH  16  17
ATOM     17  C   UNL     1       2.895 -10.411 -33.048  1.00  0.00     0.053 C 
BRANCH  17  18
ATOM     18  C   UNL     1       2.668 -11.393 -31.942  1.00  0.00     0.041 C 
ATOM     19  O   UNL     1       1.600 -12.059 -31.896  1.00  0.00    -0.550 OA
ATOM     20  O   UNL     1       3.653 -11.604 -30.986  1.00  0.00    -0.550 OA
ENDBRANCH  17  18
ENDBRANCH  16  17
ENDBRANCH  15  16
ENDBRANCH  14  15
ENDBRANCH  13  14
ENDBRANCH  12  13
ENDBRANCH  11  12
ENDBRANCH   1  11
TORSDOF 15
ENDMDL
MODEL 7
REMARK VINA RESULT:    -4.421      3.593      8.263
REMARK INTER + INTRA:          -9.877
REMARK INTER:                  -7.997
REMARK INTRA:                  -1.880
REMARK UNBOUND:                -1.579
REMARK SMILES O=C([O-])CCCCCCCCCCCCCCC(=O)[O-]
REMARK SMILES IDX 10 1 9 2 8 3 7 4 6 5 5 6 4 7 2 8 1 9 3 10 11 11 12 12 13 13
REMARK SMILES IDX 14 14 15 15 16 16 17 17 18 18 19 19 20 20
REMARK H PARENT
REMARK Flexibility Score: inf
ROOT
ATOM      1  C   UNL     1       4.424  -6.983 -36.850  1.00  0.00     0.000 C 
ENDROOT
BRANCH   1   2
ATOM      2  C   UNL     1       3.349  -5.876 -36.911  1.00  0.00     0.000 C 
BRANCH   2   3
ATOM      3  C   UNL     1       2.031  -6.264 -36.221  1.00  0.00     0.000 C 
BRANCH   3   4
ATOM      4  C   UNL     1       2.051  -7.694 -35.656  1.00  0.00     0.000 C 
BRANCH   4   5
ATOM      5  C   UNL     1       0.969  -7.923 -34.589  1.00  0.00     0.000 C 
BRANCH   5   6
ATOM      6  C   UNL     1       1.490  -8.719 -33.380  1.00  0.00     0.006 C 
BRANCH   6   7
ATOM      7  C   UNL     1       1.965 -10.124 -33.772  1.00  0.00     0.053 C 
BRANCH   7   8
ATOM      8  C   UNL     1       2.400 -10.916 -32.577  1.00  0.00     0.041 C 
ATOM      9  O   UNL     1       1.577 -11.646 -31.966  1.00  0.00    -0.550 OA
ATOM     10  O   UNL     1       3.707 -10.816 -32.116  1.00  0.00    -0.550 OA
ENDBRANCH   7   8
ENDBRANCH   6   7
ENDBRANCH   5   6
ENDBRANCH   4   5
ENDBRANCH   3   4
ENDBRANCH   2   3
ENDBRANCH   1   2
BRANCH   1  11
ATOM     11  C   UNL     1       5.588  -6.612 -35.915  1.00  0.00     0.000 C 
BRANCH  11  12
ATOM     12  C   UNL     1       6.002  -7.767 -34.986  1.00  0.00     0.000 C 
BRANCH  12  13
ATOM     13  C   UNL     1       5.081  -7.980 -33.770  1.00  0.00     0.000 C 
BRANCH  13  14
ATOM     14  C   UNL     1       5.163  -6.835 -32.750  1.00  0.00     0.000 C 
BRANCH  14  15
ATOM     15  C   UNL     1       6.179  -7.160 -31.644  1.00  0.00     0.000 C 
BRANCH  15  16
ATOM     16  C   UNL     1       7.308  -6.122 -31.553  1.00  0.00     0.006 C 
BRANCH  16  17
ATOM     17  C   UNL     1       7.104  -4.942 -32.513  1.00  0.00     0.053 C 
BRANCH  17  18
ATOM     18  C   UNL     1       8.185  -4.917 -33.548  1.00  0.00     0.041 C 
ATOM     19  O   UNL     1       8.489  -3.836 -34.119  1.00  0.00    -0.550 OA
ATOM     20  O   UNL     1       8.886  -6.077 -33.850  1.00  0.00    -0.550 OA
ENDBRANCH  17  18
ENDBRANCH  16  17
ENDBRANCH  15  16
ENDBRANCH  14  15
ENDBRANCH  13  14
ENDBRANCH  12  13
ENDBRANCH  11  12
ENDBRANCH   1  11
TORSDOF 15
ENDMDL
MODEL 8
REMARK VINA RESULT:    -4.399     15.348     17.588
REMARK INTER + INTRA:          -9.836
REMARK INTER:                  -8.655
REMARK INTRA:                  -1.181
REMARK UNBOUND:                -1.579
REMARK SMILES O=C([O-])CCCCCCCCCCCCCCC(=O)[O-]
REMARK SMILES IDX 10 1 9 2 8 3 7 4 6 5 5 6 4 7 2 8 1 9 3 10 11 11 12 12 13 13
REMARK SMILES IDX 14 14 15 15 16 16 17 17 18 18 19 19 20 20
REMARK H PARENT
REMARK Flexibility Score: inf
ROOT
ATOM      1  C   UNL     1      17.693  -4.210 -18.163  1.00  0.00     0.000 C 
ENDROOT
BRANCH   1   2
ATOM      2  C   UNL     1      18.750  -5.333 -18.234  1.00  0.00     0.000 C 
BRANCH   2   3
ATOM      3  C   UNL     1      20.012  -4.937 -19.019  1.00  0.00     0.000 C 
BRANCH   3   4
ATOM      4  C   UNL     1      20.750  -6.148 -19.613  1.00  0.00     0.000 C 
BRANCH   4   5
ATOM      5  C   UNL     1      21.125  -5.946 -21.089  1.00  0.00     0.000 C 
BRANCH   5   6
ATOM      6  C   UNL     1      20.352  -6.886 -22.029  1.00  0.00     0.006 C 
BRANCH   6   7
ATOM      7  C   UNL     1      19.323  -7.740 -21.278  1.00  0.00     0.053 C 
BRANCH   7   8
ATOM      8  C   UNL     1      17.932  -7.506 -21.783  1.00  0.00     0.041 C 
ATOM      9  O   UNL     1      17.342  -6.421 -21.537  1.00  0.00    -0.550 OA
ATOM     10  O   UNL     1      17.273  -8.502 -22.493  1.00  0.00    -0.550 OA
ENDBRANCH   7   8
ENDBRANCH   6   7
ENDBRANCH   5   6
ENDBRANCH   4   5
ENDBRANCH   3   4
ENDBRANCH   2   3
ENDBRANCH   1   2
BRANCH   1  11
ATOM     11  C   UNL     1      18.331  -2.820 -18.001  1.00  0.00     0.000 C 
BRANCH  11  12
ATOM     12  C   UNL     1      17.509  -1.701 -18.663  1.00  0.00     0.000 C 
BRANCH  12  13
ATOM     13  C   UNL     1      15.982  -1.877 -18.568  1.00  0.00     0.000 C 
BRANCH  13  14
ATOM     14  C   UNL     1      15.351  -2.345 -19.887  1.00  0.00     0.000 C 
BRANCH  14  15
ATOM     15  C   UNL     1      13.819  -2.365 -19.783  1.00  0.00     0.000 C 
BRANCH  15  16
ATOM     16  C   UNL     1      13.139  -2.722 -21.115  1.00  0.00     0.006 C 
BRANCH  16  17
ATOM     17  C   UNL     1      14.148  -3.060 -22.220  1.00  0.00     0.053 C 
BRANCH  17  18
ATOM     18  C   UNL     1      14.164  -4.534 -22.480  1.00  0.00     0.041 C 
ATOM     19  O   UNL     1      14.302  -4.969 -23.654  1.00  0.00    -0.550 OA
ATOM     20  O   UNL     1      14.071  -5.428 -21.420  1.00  0.00    -0.550 OA
ENDBRANCH  17  18
ENDBRANCH  16  17
ENDBRANCH  15  16
ENDBRANCH  14  15
ENDBRANCH  13  14
ENDBRANCH  12  13
ENDBRANCH  11  12
ENDBRANCH   1  11
TORSDOF 15
ENDMDL
MODEL 9
REMARK VINA RESULT:    -4.392      2.314      3.394
REMARK INTER + INTRA:          -9.823
REMARK INTER:                  -8.297
REMARK INTRA:                  -1.525
REMARK UNBOUND:                -1.579
REMARK SMILES O=C([O-])CCCCCCCCCCCCCCC(=O)[O-]
REMARK SMILES IDX 10 1 9 2 8 3 7 4 6 5 5 6 4 7 2 8 1 9 3 10 11 11 12 12 13 13
REMARK SMILES IDX 14 14 15 15 16 16 17 17 18 18 19 19 20 20
REMARK H PARENT
REMARK Flexibility Score: inf
ROOT
ATOM      1  C   UNL     1       7.517  -6.233 -36.541  1.00  0.00     0.000 C 
ENDROOT
BRANCH   1   2
ATOM      2  C   UNL     1       7.501  -5.523 -37.912  1.00  0.00     0.000 C 
BRANCH   2   3
ATOM      3  C   UNL     1       7.654  -3.996 -37.812  1.00  0.00     0.000 C 
BRANCH   3   4
ATOM      4  C   UNL     1       6.545  -3.339 -36.974  1.00  0.00     0.000 C 
BRANCH   4   5
ATOM      5  C   UNL     1       7.100  -2.404 -35.889  1.00  0.00     0.000 C 
BRANCH   5   6
ATOM      6  C   UNL     1       8.637  -2.346 -35.888  1.00  0.00     0.006 C 
BRANCH   6   7
ATOM      7  C   UNL     1       9.207  -2.092 -34.487  1.00  0.00     0.053 C 
BRANCH   7   8
ATOM      8  C   UNL     1      10.619  -1.594 -34.544  1.00  0.00     0.041 C 
ATOM      9  O   UNL     1      10.916  -0.471 -34.059  1.00  0.00    -0.550 OA
ATOM     10  O   UNL     1      11.600  -2.355 -35.169  1.00  0.00    -0.550 OA
ENDBRANCH   7   8
ENDBRANCH   6   7
ENDBRANCH   5   6
ENDBRANCH   4   5
ENDBRANCH   3   4
ENDBRANCH   2   3
ENDBRANCH   1   2
BRANCH   1  11
ATOM     11  C   UNL     1       7.002  -7.680 -36.629  1.00  0.00     0.000 C 
BRANCH  11  12
ATOM     12  C   UNL     1       6.151  -8.089 -35.414  1.00  0.00     0.000 C 
BRANCH  12  13
ATOM     13  C   UNL     1       5.099  -7.052 -34.982  1.00  0.00     0.000 C 
BRANCH  13  14
ATOM     14  C   UNL     1       4.636  -7.239 -33.530  1.00  0.00     0.000 C 
BRANCH  14  15
ATOM     15  C   UNL     1       5.818  -7.620 -32.625  1.00  0.00     0.000 C 
BRANCH  15  16
ATOM     16  C   UNL     1       5.999  -6.649 -31.448  1.00  0.00     0.006 C 
BRANCH  16  17
ATOM     17  C   UNL     1       7.398  -6.019 -31.412  1.00  0.00     0.053 C 
BRANCH  17  18
ATOM     18  C   UNL     1       7.665  -5.266 -32.677  1.00  0.00     0.041 C 
ATOM     19  O   UNL     1       6.941  -4.286 -32.996  1.00  0.00    -0.550 OA
ATOM     20  O   UNL     1       8.740  -5.619 -33.484  1.00  0.00    -0.550 OA
ENDBRANCH  17  18
ENDBRANCH  16  17
ENDBRANCH  15  16
ENDBRANCH  14  15
ENDBRANCH  13  14
ENDBRANCH  12  13
ENDBRANCH  11  12
ENDBRANCH   1  11
TORSDOF 15
ENDMDL
