MODEL 1
REMARK VINA RESULT:    -4.311      0.000      0.000
REMARK INTER + INTRA:          -7.090
REMARK INTER:                  -6.328
REMARK INTRA:                  -0.762
REMARK UNBOUND:                -0.762
REMARK SMILES O=C([O-])CCCCCCCC(=O)[O-]
REMARK SMILES IDX 7 1 6 2 5 3 4 4 2 5 1 6 3 7 8 8 9 9 10 10 11 11 12 12 13 13
REMARK H PARENT
REMARK Flexibility Score: inf
ROOT
ATOM      1  C   UNL     1      69.219   6.954  32.966  1.00  0.00     0.000 C 
ENDROOT
BRANCH   1   2
ATOM      2  C   UNL     1      70.047   6.182  34.000  1.00  0.00     0.000 C 
BRANCH   2   3
ATOM      3  C   UNL     1      71.532   6.568  33.915  1.00  0.00     0.006 C 
BRANCH   3   4
ATOM      4  C   UNL     1      71.886   7.224  32.575  1.00  0.00     0.053 C 
BRANCH   4   5
ATOM      5  C   UNL     1      72.702   8.466  32.761  1.00  0.00     0.041 C 
ATOM      6  O   UNL     1      73.346   8.951  31.794  1.00  0.00    -0.550 OA
ATOM      7  O   UNL     1      72.726   9.106  33.994  1.00  0.00    -0.550 OA
ENDBRANCH   4   5
ENDBRANCH   3   4
ENDBRANCH   2   3
ENDBRANCH   1   2
BRANCH   1   8
ATOM      8  C   UNL     1      68.201   7.873  33.650  1.00  0.00     0.000 C 
BRANCH   8   9
ATOM      9  C   UNL     1      68.185   9.262  32.994  1.00  0.00     0.006 C 
BRANCH   9  10
ATOM     10  C   UNL     1      69.425  10.089  33.359  1.00  0.00     0.053 C 
BRANCH  10  11
ATOM     11  C   UNL     1      69.815  11.024  32.255  1.00  0.00     0.041 C 
ATOM     12  O   UNL     1      71.005  11.428  32.158  1.00  0.00    -0.550 OA
ATOM     13  O   UNL     1      68.860  11.474  31.353  1.00  0.00    -0.550 OA
ENDBRANCH  10  11
ENDBRANCH   9  10
ENDBRANCH   8   9
ENDBRANCH   1   8
TORSDOF 8
ENDMDL
MODEL 2
REMARK VINA RESULT:    -4.287      0.791      3.979
REMARK INTER + INTRA:          -7.054
REMARK INTER:                  -6.544
REMARK INTRA:                  -0.510
REMARK UNBOUND:                -0.762
REMARK SMILES O=C([O-])CCCCCCCC(=O)[O-]
REMARK SMILES IDX 7 1 6 2 5 3 4 4 2 5 1 6 3 7 8 8 9 9 10 10 11 11 12 12 13 13
REMARK H PARENT
REMARK Flexibility Score: inf
ROOT
ATOM      1  C   UNL     1      68.669   6.910  32.892  1.00  0.00     0.000 C 
ENDROOT
BRANCH   1   2
ATOM      2  C   UNL     1      68.000   8.197  33.389  1.00  0.00     0.000 C 
BRANCH   2   3
ATOM      3  C   UNL     1      68.959   9.392  33.287  1.00  0.00     0.006 C 
BRANCH   3   4
ATOM      4  C   UNL     1      68.355  10.556  32.491  1.00  0.00     0.053 C 
BRANCH   4   5
ATOM      5  C   UNL     1      69.411  11.373  31.813  1.00  0.00     0.041 C 
ATOM      6  O   UNL     1      69.086  12.325  31.056  1.00  0.00    -0.550 OA
ATOM      7  O   UNL     1      70.756  11.104  32.042  1.00  0.00    -0.550 OA
ENDBRANCH   4   5
ENDBRANCH   3   4
ENDBRANCH   2   3
ENDBRANCH   1   2
BRANCH   1   8
ATOM      8  C   UNL     1      69.952   6.618  33.677  1.00  0.00     0.000 C 
BRANCH   8   9
ATOM      9  C   UNL     1      71.166   6.540  32.739  1.00  0.00     0.006 C 
BRANCH   9  10
ATOM     10  C   UNL     1      72.474   6.911  33.450  1.00  0.00     0.053 C 
BRANCH  10  11
ATOM     11  C   UNL     1      72.780   8.373  33.326  1.00  0.00     0.041 C 
ATOM     12  O   UNL     1      73.418   8.804  32.329  1.00  0.00    -0.550 OA
ATOM     13  O   UNL     1      72.390   9.253  34.327  1.00  0.00    -0.550 OA
ENDBRANCH  10  11
ENDBRANCH   9  10
ENDBRANCH   8   9
ENDBRANCH   1   8
TORSDOF 8
ENDMDL
MODEL 3
REMARK VINA RESULT:    -4.286     10.323     11.901
REMARK INTER + INTRA:          -7.053
REMARK INTER:                  -6.188
REMARK INTRA:                  -0.865
REMARK UNBOUND:                -0.762
REMARK SMILES O=C([O-])CCCCCCCC(=O)[O-]
REMARK SMILES IDX 7 1 6 2 5 3 4 4 2 5 1 6 3 7 8 8 9 9 10 10 11 11 12 12 13 13
REMARK H PARENT
REMARK Flexibility Score: inf
ROOT
ATOM      1  C   UNL     1      63.876  18.061  39.850  1.00  0.00     0.000 C 
ENDROOT
BRANCH   1   2
ATOM      2  C   UNL     1      63.184  17.023  40.742  1.00  0.00     0.000 C 
BRANCH   2   3
ATOM      3  C   UNL     1      62.403  16.005  39.899  1.00  0.00     0.006 C 
BRANCH   3   4
ATOM      4  C   UNL     1      63.218  14.737  39.616  1.00  0.00     0.053 C 
BRANCH   4   5
ATOM      5  C   UNL     1      63.614  14.640  38.176  1.00  0.00     0.041 C 
ATOM      6  O   UNL     1      62.797  14.956  37.272  1.00  0.00    -0.550 OA
ATOM      7  O   UNL     1      64.897  14.232  37.831  1.00  0.00    -0.550 OA
ENDBRANCH   4   5
ENDBRANCH   3   4
ENDBRANCH   2   3
ENDBRANCH   1   2
BRANCH   1   8
ATOM      8  C   UNL     1      62.917  18.593  38.779  1.00  0.00     0.000 C 
BRANCH   8   9
ATOM      9  C   UNL     1      63.565  18.540  37.386  1.00  0.00     0.006 C 
BRANCH   9  10
ATOM     10  C   UNL     1      64.924  17.829  37.405  1.00  0.00     0.053 C 
BRANCH  10  11
ATOM     11  C   UNL     1      65.433  17.565  36.021  1.00  0.00     0.041 C 
ATOM     12  O   UNL     1      64.862  16.716  35.287  1.00  0.00    -0.550 OA
ATOM     13  O   UNL     1      66.558  18.232  35.554  1.00  0.00    -0.550 OA
ENDBRANCH  10  11
ENDBRANCH   9  10
ENDBRANCH   8   9
ENDBRANCH   1   8
TORSDOF 8
ENDMDL
MODEL 4
REMARK VINA RESULT:    -4.241     10.420     12.091
REMARK INTER + INTRA:          -6.986
REMARK INTER:                  -6.198
REMARK INTRA:                  -0.788
REMARK UNBOUND:                -0.762
REMARK SMILES O=C([O-])CCCCCCCC(=O)[O-]
REMARK SMILES IDX 7 1 6 2 5 3 4 4 2 5 1 6 3 7 8 8 9 9 10 10 11 11 12 12 13 13
REMARK H PARENT
REMARK Flexibility Score: inf
ROOT
ATOM      1  C   UNL     1      63.890  18.086  39.954  1.00  0.00     0.000 C 
ENDROOT
BRANCH   1   2
ATOM      2  C   UNL     1      62.956  18.661  38.883  1.00  0.00     0.000 C 
BRANCH   2   3
ATOM      3  C   UNL     1      63.611  18.609  37.495  1.00  0.00     0.006 C 
BRANCH   3   4
ATOM      4  C   UNL     1      64.890  17.761  37.488  1.00  0.00     0.053 C 
BRANCH   4   5
ATOM      5  C   UNL     1      65.416  17.560  36.101  1.00  0.00     0.041 C 
ATOM      6  O   UNL     1      64.828  16.779  35.307  1.00  0.00    -0.550 OA
ATOM      7  O   UNL     1      66.538  18.260  35.672  1.00  0.00    -0.550 OA
ENDBRANCH   4   5
ENDBRANCH   3   4
ENDBRANCH   2   3
ENDBRANCH   1   2
BRANCH   1   8
ATOM      8  C   UNL     1      63.176  17.019  40.792  1.00  0.00     0.000 C 
BRANCH   8   9
ATOM      9  C   UNL     1      62.326  16.098  39.903  1.00  0.00     0.006 C 
BRANCH   9  10
ATOM     10  C   UNL     1      62.986  14.731  39.685  1.00  0.00     0.053 C 
BRANCH  10  11
ATOM     11  C   UNL     1      63.528  14.589  38.296  1.00  0.00     0.041 C 
ATOM     12  O   UNL     1      64.729  14.255  38.115  1.00  0.00    -0.550 OA
ATOM     13  O   UNL     1      62.717  14.859  37.201  1.00  0.00    -0.550 OA
ENDBRANCH  10  11
ENDBRANCH   9  10
ENDBRANCH   8   9
ENDBRANCH   1   8
TORSDOF 8
ENDMDL
MODEL 5
REMARK VINA RESULT:    -4.216     13.122     15.146
REMARK INTER + INTRA:          -6.949
REMARK INTER:                  -6.788
REMARK INTRA:                  -0.161
REMARK UNBOUND:                -0.762
REMARK SMILES O=C([O-])CCCCCCCC(=O)[O-]
REMARK SMILES IDX 7 1 6 2 5 3 4 4 2 5 1 6 3 7 8 8 9 9 10 10 11 11 12 12 13 13
REMARK H PARENT
REMARK Flexibility Score: inf
ROOT
ATOM      1  C   UNL     1      78.052  20.789  29.549  1.00  0.00     0.000 C 
ENDROOT
BRANCH   1   2
ATOM      2  C   UNL     1      77.998  21.114  31.047  1.00  0.00     0.000 C 
BRANCH   2   3
ATOM      3  C   UNL     1      76.674  20.641  31.665  1.00  0.00     0.006 C 
BRANCH   3   4
ATOM      4  C   UNL     1      76.687  20.720  33.197  1.00  0.00     0.053 C 
BRANCH   4   5
ATOM      5  C   UNL     1      75.484  20.063  33.799  1.00  0.00     0.041 C 
ATOM      6  O   UNL     1      75.140  20.333  34.980  1.00  0.00    -0.550 OA
ATOM      7  O   UNL     1      74.724  19.177  33.046  1.00  0.00    -0.550 OA
ENDBRANCH   4   5
ENDBRANCH   3   4
ENDBRANCH   2   3
ENDBRANCH   1   2
BRANCH   1   8
ATOM      8  C   UNL     1      77.745  22.031  28.704  1.00  0.00     0.000 C 
BRANCH   8   9
ATOM      9  C   UNL     1      77.994  21.758  27.213  1.00  0.00     0.006 C 
BRANCH   9  10
ATOM     10  C   UNL     1      77.697  22.986  26.341  1.00  0.00     0.053 C 
BRANCH  10  11
ATOM     11  C   UNL     1      77.121  22.599  25.014  1.00  0.00     0.041 C 
ATOM     12  O   UNL     1      76.752  21.413  24.805  1.00  0.00    -0.550 OA
ATOM     13  O   UNL     1      77.021  23.540  23.997  1.00  0.00    -0.550 OA
ENDBRANCH  10  11
ENDBRANCH   9  10
ENDBRANCH   8   9
ENDBRANCH   1   8
TORSDOF 8
ENDMDL
MODEL 6
REMARK VINA RESULT:    -4.200     10.951     13.105
REMARK INTER + INTRA:          -6.927
REMARK INTER:                  -6.214
REMARK INTRA:                  -0.712
REMARK UNBOUND:                -0.762
REMARK SMILES O=C([O-])CCCCCCCC(=O)[O-]
REMARK SMILES IDX 7 1 6 2 5 3 4 4 2 5 1 6 3 7 8 8 9 9 10 10 11 11 12 12 13 13
REMARK H PARENT
REMARK Flexibility Score: inf
ROOT
ATOM      1  C   UNL     1      62.414  16.447  40.323  1.00  0.00     0.000 C 
ENDROOT
BRANCH   1   2
ATOM      2  C   UNL     1      63.407  17.581  40.604  1.00  0.00     0.000 C 
BRANCH   2   3
ATOM      3  C   UNL     1      63.066  18.829  39.776  1.00  0.00     0.006 C 
BRANCH   3   4
ATOM      4  C   UNL     1      61.573  18.910  39.435  1.00  0.00     0.053 C 
BRANCH   4   5
ATOM      5  C   UNL     1      61.330  18.768  37.965  1.00  0.00     0.041 C 
ATOM      6  O   UNL     1      62.300  18.720  37.164  1.00  0.00    -0.550 OA
ATOM      7  O   UNL     1      60.032  18.656  37.480  1.00  0.00    -0.550 OA
ENDBRANCH   4   5
ENDBRANCH   3   4
ENDBRANCH   2   3
ENDBRANCH   1   2
BRANCH   1   8
ATOM      8  C   UNL     1      63.118  15.243  39.686  1.00  0.00     0.000 C 
BRANCH   8   9
ATOM      9  C   UNL     1      63.131  15.360  38.154  1.00  0.00     0.006 C 
BRANCH   9  10
ATOM     10  C   UNL     1      64.547  15.239  37.575  1.00  0.00     0.053 C 
BRANCH  10  11
ATOM     11  C   UNL     1      64.976  16.498  36.886  1.00  0.00     0.041 C 
ATOM     12  O   UNL     1      65.668  17.352  37.501  1.00  0.00    -0.550 OA
ATOM     13  O   UNL     1      64.583  16.744  35.577  1.00  0.00    -0.550 OA
ENDBRANCH  10  11
ENDBRANCH   9  10
ENDBRANCH   8   9
ENDBRANCH   1   8
TORSDOF 8
ENDMDL
MODEL 7
REMARK VINA RESULT:    -4.159     10.112     12.157
REMARK INTER + INTRA:          -6.866
REMARK INTER:                  -6.049
REMARK INTRA:                  -0.817
REMARK UNBOUND:                -0.762
REMARK SMILES O=C([O-])CCCCCCCC(=O)[O-]
REMARK SMILES IDX 7 1 6 2 5 3 4 4 2 5 1 6 3 7 8 8 9 9 10 10 11 11 12 12 13 13
REMARK H PARENT
REMARK Flexibility Score: inf
ROOT
ATOM      1  C   UNL     1      61.805  15.215  39.336  1.00  0.00     0.000 C 
ENDROOT
BRANCH   1   2
ATOM      2  C   UNL     1      61.515  16.539  40.053  1.00  0.00     0.000 C 
BRANCH   2   3
ATOM      3  C   UNL     1      62.809  17.172  40.584  1.00  0.00     0.006 C 
BRANCH   3   4
ATOM      4  C   UNL     1      63.136  18.499  39.886  1.00  0.00     0.053 C 
BRANCH   4   5
ATOM      5  C   UNL     1      63.701  18.283  38.517  1.00  0.00     0.041 C 
ATOM      6  O   UNL     1      64.873  17.844  38.378  1.00  0.00    -0.550 OA
ATOM      7  O   UNL     1      62.923  18.535  37.393  1.00  0.00    -0.550 OA
ENDBRANCH   4   5
ENDBRANCH   3   4
ENDBRANCH   2   3
ENDBRANCH   1   2
BRANCH   1   8
ATOM      8  C   UNL     1      63.224  14.721  39.643  1.00  0.00     0.000 C 
BRANCH   8   9
ATOM      9  C   UNL     1      63.749  13.820  38.515  1.00  0.00     0.006 C 
BRANCH   9  10
ATOM     10  C   UNL     1      64.714  14.562  37.581  1.00  0.00     0.053 C 
BRANCH  10  11
ATOM     11  C   UNL     1      64.033  15.021  36.328  1.00  0.00     0.041 C 
ATOM     12  O   UNL     1      62.990  14.441  35.925  1.00  0.00    -0.550 OA
ATOM     13  O   UNL     1      64.568  16.067  35.588  1.00  0.00    -0.550 OA
ENDBRANCH  10  11
ENDBRANCH   9  10
ENDBRANCH   8   9
ENDBRANCH   1   8
TORSDOF 8
ENDMDL
MODEL 8
REMARK VINA RESULT:    -4.134     10.285     12.243
REMARK INTER + INTRA:          -6.829
REMARK INTER:                  -6.168
REMARK INTRA:                  -0.661
REMARK UNBOUND:                -0.762
REMARK SMILES O=C([O-])CCCCCCCC(=O)[O-]
REMARK SMILES IDX 7 1 6 2 5 3 4 4 2 5 1 6 3 7 8 8 9 9 10 10 11 11 12 12 13 13
REMARK H PARENT
REMARK Flexibility Score: inf
ROOT
ATOM      1  C   UNL     1      63.551  18.568  38.016  1.00  0.00     0.000 C 
ENDROOT
BRANCH   1   2
ATOM      2  C   UNL     1      64.778  17.661  38.162  1.00  0.00     0.000 C 
BRANCH   2   3
ATOM      3  C   UNL     1      65.325  17.250  36.787  1.00  0.00     0.006 C 
BRANCH   3   4
ATOM      4  C   UNL     1      64.253  16.593  35.907  1.00  0.00     0.053 C 
BRANCH   4   5
ATOM      5  C   UNL     1      64.058  15.149  36.253  1.00  0.00     0.041 C 
ATOM      6  O   UNL     1      63.057  14.523  35.816  1.00  0.00    -0.550 OA
ATOM      7  O   UNL     1      64.999  14.485  37.032  1.00  0.00    -0.550 OA
ENDBRANCH   4   5
ENDBRANCH   3   4
ENDBRANCH   2   3
ENDBRANCH   1   2
BRANCH   1   8
ATOM      8  C   UNL     1      62.943  18.897  39.385  1.00  0.00     0.000 C 
BRANCH   8   9
ATOM      9  C   UNL     1      63.117  17.722  40.360  1.00  0.00     0.006 C 
BRANCH   9  10
ATOM     10  C   UNL     1      61.915  16.769  40.340  1.00  0.00     0.053 C 
BRANCH  10  11
ATOM     11  C   UNL     1      62.240  15.479  39.650  1.00  0.00     0.041 C 
ATOM     12  O   UNL     1      61.462  15.016  38.774  1.00  0.00    -0.550 OA
ATOM     13  O   UNL     1      63.384  14.772  39.998  1.00  0.00    -0.550 OA
ENDBRANCH  10  11
ENDBRANCH   9  10
ENDBRANCH   8   9
ENDBRANCH   1   8
TORSDOF 8
ENDMDL
MODEL 9
REMARK VINA RESULT:    -4.079     10.597     12.598
REMARK INTER + INTRA:          -6.748
REMARK INTER:                  -6.023
REMARK INTRA:                  -0.725
REMARK UNBOUND:                -0.762
REMARK SMILES O=C([O-])CCCCCCCC(=O)[O-]
REMARK SMILES IDX 7 1 6 2 5 3 4 4 2 5 1 6 3 7 8 8 9 9 10 10 11 11 12 12 13 13
REMARK H PARENT
REMARK Flexibility Score: inf
ROOT
ATOM      1  C   UNL     1      62.184  15.351  37.881  1.00  0.00     0.000 C 
ENDROOT
BRANCH   1   2
ATOM      2  C   UNL     1      63.074  15.107  39.105  1.00  0.00     0.000 C 
BRANCH   2   3
ATOM      3  C   UNL     1      63.200  16.379  39.957  1.00  0.00     0.006 C 
BRANCH   3   4
ATOM      4  C   UNL     1      61.868  17.130  40.079  1.00  0.00     0.053 C 
BRANCH   4   5
ATOM      5  C   UNL     1      61.983  18.546  39.605  1.00  0.00     0.041 C 
ATOM      6  O   UNL     1      62.864  19.305  40.087  1.00  0.00    -0.550 OA
ATOM      7  O   UNL     1      61.139  19.018  38.607  1.00  0.00    -0.550 OA
ENDBRANCH   4   5
ENDBRANCH   3   4
ENDBRANCH   2   3
ENDBRANCH   1   2
BRANCH   1   8
ATOM      8  C   UNL     1      62.789  14.716  36.624  1.00  0.00     0.000 C 
BRANCH   8   9
ATOM      9  C   UNL     1      64.236  15.186  36.411  1.00  0.00     0.006 C 
BRANCH   9  10
ATOM     10  C   UNL     1      64.306  16.622  35.876  1.00  0.00     0.053 C 
BRANCH  10  11
ATOM     11  C   UNL     1      64.934  17.556  36.865  1.00  0.00     0.041 C 
ATOM     12  O   UNL     1      65.937  17.189  37.534  1.00  0.00    -0.550 OA
ATOM     13  O   UNL     1      64.392  18.817  37.074  1.00  0.00    -0.550 OA
ENDBRANCH  10  11
ENDBRANCH   9  10
ENDBRANCH   8   9
ENDBRANCH   1   8
TORSDOF 8
ENDMDL
