MODEL 1
REMARK VINA RESULT:    -6.244      0.000      0.000
REMARK INTER + INTRA:         -11.665
REMARK INTER:                 -10.990
REMARK INTRA:                  -0.676
REMARK UNBOUND:                -0.676
REMARK SMILES CCCCCCCCCCCCCCC(=O)[O-]
REMARK SMILES IDX 9 1 10 2 11 3 12 4 13 5 14 6 15 7 16 8 17 9 8 10 7 11 6 12
REMARK SMILES IDX 5 13 4 14 3 15 2 16 1 17
REMARK H PARENT
REMARK Flexibility Score: inf
ROOT
ATOM      1  C   UNL     1      -4.317   8.979 -39.241  1.00  0.00     0.000 C 
ENDROOT
BRANCH   1   2
ATOM      2  C   UNL     1      -5.424   9.712 -40.018  1.00  0.00     0.000 C 
BRANCH   2   3
ATOM      3  C   UNL     1      -6.829   9.401 -39.479  1.00  0.00     0.000 C 
BRANCH   3   4
ATOM      4  C   UNL     1      -7.013   7.916 -39.128  1.00  0.00     0.000 C 
BRANCH   4   5
ATOM      5  C   UNL     1      -7.374   7.099 -40.375  1.00  0.00     0.006 C 
BRANCH   5   6
ATOM      6  C   UNL     1      -7.756   5.664 -40.002  1.00  0.00     0.053 C 
BRANCH   6   7
ATOM      7  C   UNL     1      -8.170   4.899 -41.219  1.00  0.00     0.041 C 
ATOM      8  O   UNL     1      -8.868   3.858 -41.106  1.00  0.00    -0.550 OA
ATOM      9  O   UNL     1      -7.742   5.307 -42.475  1.00  0.00    -0.550 OA
ENDBRANCH   6   7
ENDBRANCH   5   6
ENDBRANCH   4   5
ENDBRANCH   3   4
ENDBRANCH   2   3
ENDBRANCH   1   2
BRANCH   1  10
ATOM     10  C   UNL     1      -2.907   9.261 -39.793  1.00  0.00     0.000 C 
BRANCH  10  11
ATOM     11  C   UNL     1      -1.823   8.250 -39.375  1.00  0.00    -0.000 C 
BRANCH  11  12
ATOM     12  C   UNL     1      -0.820   8.831 -38.362  1.00  0.00    -0.000 C 
BRANCH  12  13
ATOM     13  C   UNL     1      -0.878  10.365 -38.288  1.00  0.00    -0.000 C 
BRANCH  13  14
ATOM     14  C   UNL     1       0.516  11.011 -38.261  1.00  0.00    -0.000 C 
BRANCH  14  15
ATOM     15  C   UNL     1       0.467  12.390 -37.586  1.00  0.00    -0.000 C 
BRANCH  15  16
ATOM     16  C   UNL     1      -0.956  12.966 -37.519  1.00  0.00    -0.003 C 
ATOM     17  C   UNL     1      -1.428  13.211 -36.086  1.00  0.00     0.004 C 
ENDBRANCH  15  16
ENDBRANCH  14  15
ENDBRANCH  13  14
ENDBRANCH  12  13
ENDBRANCH  11  12
ENDBRANCH  10  11
ENDBRANCH   1  10
TORSDOF 13
ENDMDL
MODEL 2
REMARK VINA RESULT:    -5.911      2.731      4.490
REMARK INTER + INTRA:         -11.080
REMARK INTER:                 -10.548
REMARK INTRA:                  -0.532
REMARK UNBOUND:                -0.676
REMARK SMILES CCCCCCCCCCCCCCC(=O)[O-]
REMARK SMILES IDX 9 1 10 2 11 3 12 4 13 5 14 6 15 7 16 8 17 9 8 10 7 11 6 12
REMARK SMILES IDX 5 13 4 14 3 15 2 16 1 17
REMARK H PARENT
REMARK Flexibility Score: inf
ROOT
ATOM      1  C   UNL     1      -3.448   9.063 -39.543  1.00  0.00     0.000 C 
ENDROOT
BRANCH   1   2
ATOM      2  C   UNL     1      -4.750   9.087 -38.724  1.00  0.00     0.000 C 
BRANCH   2   3
ATOM      3  C   UNL     1      -6.005   9.114 -39.612  1.00  0.00     0.000 C 
BRANCH   3   4
ATOM      4  C   UNL     1      -7.015   8.016 -39.245  1.00  0.00     0.000 C 
BRANCH   4   5
ATOM      5  C   UNL     1      -7.354   7.153 -40.467  1.00  0.00     0.006 C 
BRANCH   5   6
ATOM      6  C   UNL     1      -7.875   5.777 -40.041  1.00  0.00     0.053 C 
BRANCH   6   7
ATOM      7  C   UNL     1      -8.123   4.917 -41.241  1.00  0.00     0.041 C 
ATOM      8  O   UNL     1      -7.738   5.291 -42.379  1.00  0.00    -0.550 OA
ATOM      9  O   UNL     1      -8.824   3.726 -41.109  1.00  0.00    -0.550 OA
ENDBRANCH   6   7
ENDBRANCH   5   6
ENDBRANCH   4   5
ENDBRANCH   3   4
ENDBRANCH   2   3
ENDBRANCH   1   2
BRANCH   1  10
ATOM     10  C   UNL     1      -2.197   9.349 -38.691  1.00  0.00     0.000 C 
BRANCH  10  11
ATOM     11  C   UNL     1      -0.952   8.518 -39.052  1.00  0.00    -0.000 C 
BRANCH  11  12
ATOM     12  C   UNL     1      -1.177   7.595 -40.263  1.00  0.00    -0.000 C 
BRANCH  12  13
ATOM     13  C   UNL     1       0.105   6.861 -40.691  1.00  0.00    -0.000 C 
BRANCH  13  14
ATOM     14  C   UNL     1       0.467   7.108 -42.164  1.00  0.00    -0.000 C 
BRANCH  14  15
ATOM     15  C   UNL     1       1.542   6.119 -42.637  1.00  0.00    -0.000 C 
BRANCH  15  16
ATOM     16  C   UNL     1       2.165   5.324 -41.479  1.00  0.00    -0.003 C 
ATOM     17  C   UNL     1       3.682   5.192 -41.600  1.00  0.00     0.004 C 
ENDBRANCH  15  16
ENDBRANCH  14  15
ENDBRANCH  13  14
ENDBRANCH  12  13
ENDBRANCH  11  12
ENDBRANCH  10  11
ENDBRANCH   1  10
TORSDOF 13
ENDMDL
MODEL 3
REMARK VINA RESULT:    -5.568      4.262      8.668
REMARK INTER + INTRA:         -10.476
REMARK INTER:                  -9.779
REMARK INTRA:                  -0.697
REMARK UNBOUND:                -0.676
REMARK SMILES CCCCCCCCCCCCCCC(=O)[O-]
REMARK SMILES IDX 9 1 10 2 11 3 12 4 13 5 14 6 15 7 16 8 17 9 8 10 7 11 6 12
REMARK SMILES IDX 5 13 4 14 3 15 2 16 1 17
REMARK H PARENT
REMARK Flexibility Score: inf
ROOT
ATOM      1  C   UNL     1      -2.073   8.382 -39.468  1.00  0.00     0.000 C 
ENDROOT
BRANCH   1   2
ATOM      2  C   UNL     1      -0.928   8.715 -38.496  1.00  0.00     0.000 C 
BRANCH   2   3
ATOM      3  C   UNL     1      -0.903  10.200 -38.100  1.00  0.00     0.000 C 
BRANCH   3   4
ATOM      4  C   UNL     1       0.396  10.903 -38.521  1.00  0.00     0.000 C 
BRANCH   4   5
ATOM      5  C   UNL     1       0.476  12.312 -37.920  1.00  0.00     0.006 C 
BRANCH   5   6
ATOM      6  C   UNL     1      -0.446  12.446 -36.704  1.00  0.00     0.053 C 
BRANCH   6   7
ATOM      7  C   UNL     1      -1.476  13.505 -36.942  1.00  0.00     0.041 C 
ATOM      8  O   UNL     1      -2.373  13.720 -36.086  1.00  0.00    -0.550 OA
ATOM      9  O   UNL     1      -1.476  14.219 -38.132  1.00  0.00    -0.550 OA
ENDBRANCH   6   7
ENDBRANCH   5   6
ENDBRANCH   4   5
ENDBRANCH   3   4
ENDBRANCH   2   3
ENDBRANCH   1   2
BRANCH   1  10
ATOM     10  C   UNL     1      -3.131   9.498 -39.556  1.00  0.00     0.000 C 
BRANCH  10  11
ATOM     11  C   UNL     1      -4.551   9.031 -39.924  1.00  0.00    -0.000 C 
BRANCH  11  12
ATOM     12  C   UNL     1      -5.464   8.862 -38.697  1.00  0.00    -0.000 C 
BRANCH  12  13
ATOM     13  C   UNL     1      -6.940   8.664 -39.082  1.00  0.00    -0.000 C 
BRANCH  13  14
ATOM     14  C   UNL     1      -7.126   7.632 -40.205  1.00  0.00    -0.000 C 
BRANCH  14  15
ATOM     15  C   UNL     1      -7.768   6.345 -39.665  1.00  0.00    -0.000 C 
BRANCH  15  16
ATOM     16  C   UNL     1      -8.049   5.316 -40.770  1.00  0.00    -0.003 C 
ATOM     17  C   UNL     1      -7.584   5.786 -42.148  1.00  0.00     0.004 C 
ENDBRANCH  15  16
ENDBRANCH  14  15
ENDBRANCH  13  14
ENDBRANCH  12  13
ENDBRANCH  11  12
ENDBRANCH  10  11
ENDBRANCH   1  10
TORSDOF 13
ENDMDL
MODEL 4
REMARK VINA RESULT:    -5.220      4.340      8.813
REMARK INTER + INTRA:          -9.863
REMARK INTER:                  -9.274
REMARK INTRA:                  -0.590
REMARK UNBOUND:                -0.676
REMARK SMILES CCCCCCCCCCCCCCC(=O)[O-]
REMARK SMILES IDX 9 1 10 2 11 3 12 4 13 5 14 6 15 7 16 8 17 9 8 10 7 11 6 12
REMARK SMILES IDX 5 13 4 14 3 15 2 16 1 17
REMARK H PARENT
REMARK Flexibility Score: inf
ROOT
ATOM      1  C   UNL     1      -3.363   9.496 -40.101  1.00  0.00     0.000 C 
ENDROOT
BRANCH   1   2
ATOM      2  C   UNL     1      -2.741   8.905 -38.824  1.00  0.00     0.000 C 
BRANCH   2   3
ATOM      3  C   UNL     1      -1.254   8.554 -39.000  1.00  0.00     0.000 C 
BRANCH   3   4
ATOM      4  C   UNL     1      -0.322   9.708 -38.599  1.00  0.00     0.000 C 
BRANCH   4   5
ATOM      5  C   UNL     1      -1.111  10.847 -37.943  1.00  0.00     0.006 C 
BRANCH   5   6
ATOM      6  C   UNL     1      -0.219  12.069 -37.703  1.00  0.00     0.053 C 
BRANCH   6   7
ATOM      7  C   UNL     1      -1.035  13.226 -37.219  1.00  0.00     0.041 C 
ATOM      8  O   UNL     1      -1.387  13.292 -36.012  1.00  0.00    -0.550 OA
ATOM      9  O   UNL     1      -1.449  14.206 -38.111  1.00  0.00    -0.550 OA
ENDBRANCH   6   7
ENDBRANCH   5   6
ENDBRANCH   4   5
ENDBRANCH   3   4
ENDBRANCH   2   3
ENDBRANCH   1   2
BRANCH   1  10
ATOM     10  C   UNL     1      -4.902   9.453 -40.096  1.00  0.00     0.000 C 
BRANCH  10  11
ATOM     11  C   UNL     1      -5.535   8.728 -38.894  1.00  0.00    -0.000 C 
BRANCH  11  12
ATOM     12  C   UNL     1      -7.069   8.639 -38.987  1.00  0.00    -0.000 C 
BRANCH  12  13
ATOM     13  C   UNL     1      -7.551   7.266 -39.483  1.00  0.00    -0.000 C 
BRANCH  13  14
ATOM     14  C   UNL     1      -7.430   7.109 -41.006  1.00  0.00    -0.000 C 
BRANCH  14  15
ATOM     15  C   UNL     1      -7.721   5.662 -41.433  1.00  0.00    -0.000 C 
BRANCH  15  16
ATOM     16  C   UNL     1      -8.119   4.766 -40.249  1.00  0.00    -0.003 C 
ATOM     17  C   UNL     1      -9.344   3.902 -40.547  1.00  0.00     0.004 C 
ENDBRANCH  15  16
ENDBRANCH  14  15
ENDBRANCH  13  14
ENDBRANCH  12  13
ENDBRANCH  11  12
ENDBRANCH  10  11
ENDBRANCH   1  10
TORSDOF 13
ENDMDL
MODEL 5
REMARK VINA RESULT:    -5.019      5.101      8.576
REMARK INTER + INTRA:          -9.509
REMARK INTER:                  -8.905
REMARK INTRA:                  -0.603
REMARK UNBOUND:                -0.676
REMARK SMILES CCCCCCCCCCCCCCC(=O)[O-]
REMARK SMILES IDX 9 1 10 2 11 3 12 4 13 5 14 6 15 7 16 8 17 9 8 10 7 11 6 12
REMARK SMILES IDX 5 13 4 14 3 15 2 16 1 17
REMARK H PARENT
REMARK Flexibility Score: inf
ROOT
ATOM      1  C   UNL     1      -1.014   8.622 -38.992  1.00  0.00     0.000 C 
ENDROOT
BRANCH   1   2
ATOM      2  C   UNL     1      -0.990   7.548 -40.093  1.00  0.00     0.000 C 
BRANCH   2   3
ATOM      3  C   UNL     1       0.009   7.875 -41.215  1.00  0.00     0.000 C 
BRANCH   3   4
ATOM      4  C   UNL     1       0.435   6.631 -42.009  1.00  0.00     0.000 C 
BRANCH   4   5
ATOM      5  C   UNL     1       1.611   5.921 -41.327  1.00  0.00     0.006 C 
BRANCH   5   6
ATOM      6  C   UNL     1       2.681   5.521 -42.347  1.00  0.00     0.053 C 
BRANCH   6   7
ATOM      7  C   UNL     1       3.971   5.207 -41.657  1.00  0.00     0.041 C 
ATOM      8  O   UNL     1       3.967   4.696 -40.507  1.00  0.00    -0.550 OA
ATOM      9  O   UNL     1       5.179   5.526 -42.264  1.00  0.00    -0.550 OA
ENDBRANCH   6   7
ENDBRANCH   5   6
ENDBRANCH   4   5
ENDBRANCH   3   4
ENDBRANCH   2   3
ENDBRANCH   1   2
BRANCH   1  10
ATOM     10  C   UNL     1      -2.377   9.328 -38.870  1.00  0.00     0.000 C 
BRANCH  10  11
ATOM     11  C   UNL     1      -3.299   9.193 -40.096  1.00  0.00    -0.000 C 
BRANCH  11  12
ATOM     12  C   UNL     1      -4.761   9.566 -39.791  1.00  0.00    -0.000 C 
BRANCH  12  13
ATOM     13  C   UNL     1      -5.394   8.652 -38.728  1.00  0.00    -0.000 C 
BRANCH  13  14
ATOM     14  C   UNL     1      -6.895   8.425 -38.959  1.00  0.00    -0.000 C 
BRANCH  14  15
ATOM     15  C   UNL     1      -7.147   7.785 -40.333  1.00  0.00    -0.000 C 
BRANCH  15  16
ATOM     16  C   UNL     1      -7.645   6.335 -40.227  1.00  0.00    -0.003 C 
ATOM     17  C   UNL     1      -7.838   5.675 -41.592  1.00  0.00     0.004 C 
ENDBRANCH  15  16
ENDBRANCH  14  15
ENDBRANCH  13  14
ENDBRANCH  12  13
ENDBRANCH  11  12
ENDBRANCH  10  11
ENDBRANCH   1  10
TORSDOF 13
ENDMDL
MODEL 6
REMARK VINA RESULT:    -4.772      1.134      1.784
REMARK INTER + INTRA:          -9.075
REMARK INTER:                  -8.339
REMARK INTRA:                  -0.737
REMARK UNBOUND:                -0.676
REMARK SMILES CCCCCCCCCCCCCCC(=O)[O-]
REMARK SMILES IDX 9 1 10 2 11 3 12 4 13 5 14 6 15 7 16 8 17 9 8 10 7 11 6 12
REMARK SMILES IDX 5 13 4 14 3 15 2 16 1 17
REMARK H PARENT
REMARK Flexibility Score: inf
ROOT
ATOM      1  C   UNL     1      -5.508   8.416 -38.407  1.00  0.00     0.000 C 
ENDROOT
BRANCH   1   2
ATOM      2  C   UNL     1      -6.529   9.190 -39.258  1.00  0.00     0.000 C 
BRANCH   2   3
ATOM      3  C   UNL     1      -7.657   8.289 -39.789  1.00  0.00     0.000 C 
BRANCH   3   4
ATOM      4  C   UNL     1      -7.131   6.997 -40.431  1.00  0.00     0.000 C 
BRANCH   4   5
ATOM      5  C   UNL     1      -7.949   5.784 -39.971  1.00  0.00     0.006 C 
BRANCH   5   6
ATOM      6  C   UNL     1      -8.266   4.856 -41.147  1.00  0.00     0.053 C 
BRANCH   6   7
ATOM      7  C   UNL     1      -9.242   3.800 -40.732  1.00  0.00     0.041 C 
ATOM      8  O   UNL     1      -9.345   2.736 -41.397  1.00  0.00    -0.550 OA
ATOM      9  O   UNL     1     -10.074   4.013 -39.641  1.00  0.00    -0.550 OA
ENDBRANCH   6   7
ENDBRANCH   5   6
ENDBRANCH   4   5
ENDBRANCH   3   4
ENDBRANCH   2   3
ENDBRANCH   1   2
BRANCH   1  10
ATOM     10  C   UNL     1      -4.105   9.052 -38.427  1.00  0.00     0.000 C 
BRANCH  10  11
ATOM     11  C   UNL     1      -3.519   9.307 -39.828  1.00  0.00    -0.000 C 
BRANCH  11  12
ATOM     12  C   UNL     1      -2.023   8.956 -39.925  1.00  0.00    -0.000 C 
BRANCH  12  13
ATOM     13  C   UNL     1      -1.366   8.786 -38.546  1.00  0.00    -0.000 C 
BRANCH  13  14
ATOM     14  C   UNL     1      -0.337   9.884 -38.239  1.00  0.00    -0.000 C 
BRANCH  14  15
ATOM     15  C   UNL     1      -0.998  11.271 -38.244  1.00  0.00    -0.000 C 
BRANCH  15  16
ATOM     16  C   UNL     1      -0.244  12.288 -37.373  1.00  0.00    -0.003 C 
ATOM     17  C   UNL     1      -1.161  13.026 -36.398  1.00  0.00     0.004 C 
ENDBRANCH  15  16
ENDBRANCH  14  15
ENDBRANCH  13  14
ENDBRANCH  12  13
ENDBRANCH  11  12
ENDBRANCH  10  11
ENDBRANCH   1  10
TORSDOF 13
ENDMDL
MODEL 7
REMARK VINA RESULT:    -4.528      3.542      8.185
REMARK INTER + INTRA:          -8.646
REMARK INTER:                  -7.892
REMARK INTRA:                  -0.753
REMARK UNBOUND:                -0.676
REMARK SMILES CCCCCCCCCCCCCCC(=O)[O-]
REMARK SMILES IDX 9 1 10 2 11 3 12 4 13 5 14 6 15 7 16 8 17 9 8 10 7 11 6 12
REMARK SMILES IDX 5 13 4 14 3 15 2 16 1 17
REMARK H PARENT
REMARK Flexibility Score: inf
ROOT
ATOM      1  C   UNL     1      -4.594   8.610 -39.088  1.00  0.00     0.000 C 
ENDROOT
BRANCH   1   2
ATOM      2  C   UNL     1      -3.321   9.080 -39.813  1.00  0.00     0.000 C 
BRANCH   2   3
ATOM      3  C   UNL     1      -2.223   9.537 -38.839  1.00  0.00     0.000 C 
BRANCH   3   4
ATOM      4  C   UNL     1      -1.007   8.598 -38.835  1.00  0.00     0.000 C 
BRANCH   4   5
ATOM      5  C   UNL     1      -1.131   7.536 -39.936  1.00  0.00     0.006 C 
BRANCH   5   6
ATOM      6  C   UNL     1       0.028   7.638 -40.931  1.00  0.00     0.053 C 
BRANCH   6   7
ATOM      7  C   UNL     1       0.293   6.308 -41.564  1.00  0.00     0.041 C 
ATOM      8  O   UNL     1      -0.002   5.247 -40.955  1.00  0.00    -0.550 OA
ATOM      9  O   UNL     1       0.913   6.240 -42.805  1.00  0.00    -0.550 OA
ENDBRANCH   6   7
ENDBRANCH   5   6
ENDBRANCH   4   5
ENDBRANCH   3   4
ENDBRANCH   2   3
ENDBRANCH   1   2
BRANCH   1  10
ATOM     10  C   UNL     1      -5.792   9.552 -39.306  1.00  0.00     0.000 C 
BRANCH  10  11
ATOM     11  C   UNL     1      -7.151   8.855 -39.503  1.00  0.00    -0.000 C 
BRANCH  11  12
ATOM     12  C   UNL     1      -7.019   7.337 -39.726  1.00  0.00    -0.000 C 
BRANCH  12  13
ATOM     13  C   UNL     1      -7.315   6.927 -41.178  1.00  0.00    -0.000 C 
BRANCH  13  14
ATOM     14  C   UNL     1      -7.903   5.512 -41.286  1.00  0.00    -0.000 C 
BRANCH  14  15
ATOM     15  C   UNL     1      -8.298   4.975 -39.902  1.00  0.00    -0.000 C 
BRANCH  15  16
ATOM     16  C   UNL     1      -9.471   3.985 -39.965  1.00  0.00    -0.003 C 
ATOM     17  C   UNL     1      -9.559   3.257 -41.306  1.00  0.00     0.004 C 
ENDBRANCH  15  16
ENDBRANCH  14  15
ENDBRANCH  13  14
ENDBRANCH  12  13
ENDBRANCH  11  12
ENDBRANCH  10  11
ENDBRANCH   1  10
TORSDOF 13
ENDMDL
MODEL 8
REMARK VINA RESULT:    -4.470      5.537      7.208
REMARK INTER + INTRA:          -8.542
REMARK INTER:                  -7.607
REMARK INTRA:                  -0.935
REMARK UNBOUND:                -0.676
REMARK SMILES CCCCCCCCCCCCCCC(=O)[O-]
REMARK SMILES IDX 9 1 10 2 11 3 12 4 13 5 14 6 15 7 16 8 17 9 8 10 7 11 6 12
REMARK SMILES IDX 5 13 4 14 3 15 2 16 1 17
REMARK H PARENT
REMARK Flexibility Score: inf
ROOT
ATOM      1  C   UNL     1      -1.744   8.260 -39.715  1.00  0.00     0.000 C 
ENDROOT
BRANCH   1   2
ATOM      2  C   UNL     1      -0.939   7.123 -40.368  1.00  0.00     0.000 C 
BRANCH   2   3
ATOM      3  C   UNL     1       0.042   7.633 -41.437  1.00  0.00     0.000 C 
BRANCH   3   4
ATOM      4  C   UNL     1       0.582   6.507 -42.331  1.00  0.00     0.000 C 
BRANCH   4   5
ATOM      5  C   UNL     1       1.686   5.720 -41.613  1.00  0.00     0.006 C 
BRANCH   5   6
ATOM      6  C   UNL     1       2.941   5.612 -42.485  1.00  0.00     0.053 C 
BRANCH   6   7
ATOM      7  C   UNL     1       4.116   5.191 -41.661  1.00  0.00     0.041 C 
ATOM      8  O   UNL     1       3.952   4.803 -40.475  1.00  0.00    -0.550 OA
ATOM      9  O   UNL     1       5.399   5.274 -42.186  1.00  0.00    -0.550 OA
ENDBRANCH   6   7
ENDBRANCH   5   6
ENDBRANCH   4   5
ENDBRANCH   3   4
ENDBRANCH   2   3
ENDBRANCH   1   2
BRANCH   1  10
ATOM     10  C   UNL     1      -1.430   8.435 -38.217  1.00  0.00     0.000 C 
BRANCH  10  11
ATOM     11  C   UNL     1      -0.249   9.370 -37.897  1.00  0.00    -0.000 C 
BRANCH  11  12
ATOM     12  C   UNL     1      -0.234  10.638 -38.770  1.00  0.00    -0.000 C 
BRANCH  12  13
ATOM     13  C   UNL     1       1.004  11.513 -38.516  1.00  0.00    -0.000 C 
BRANCH  13  14
ATOM     14  C   UNL     1       0.697  12.736 -37.638  1.00  0.00    -0.000 C 
BRANCH  14  15
ATOM     15  C   UNL     1      -0.806  13.055 -37.650  1.00  0.00    -0.000 C 
BRANCH  15  16
ATOM     16  C   UNL     1      -1.360  13.346 -36.246  1.00  0.00    -0.003 C 
ATOM     17  C   UNL     1      -2.304  12.254 -35.746  1.00  0.00     0.004 C 
ENDBRANCH  15  16
ENDBRANCH  14  15
ENDBRANCH  13  14
ENDBRANCH  12  13
ENDBRANCH  11  12
ENDBRANCH  10  11
ENDBRANCH   1  10
TORSDOF 13
ENDMDL
MODEL 9
REMARK VINA RESULT:    -4.373      5.672      8.769
REMARK INTER + INTRA:          -8.373
REMARK INTER:                  -7.648
REMARK INTRA:                  -0.725
REMARK UNBOUND:                -0.676
REMARK SMILES CCCCCCCCCCCCCCC(=O)[O-]
REMARK SMILES IDX 9 1 10 2 11 3 12 4 13 5 14 6 15 7 16 8 17 9 8 10 7 11 6 12
REMARK SMILES IDX 5 13 4 14 3 15 2 16 1 17
REMARK H PARENT
REMARK Flexibility Score: inf
ROOT
ATOM      1  C   UNL     1      -1.403  10.042 -37.678  1.00  0.00     0.000 C 
ENDROOT
BRANCH   1   2
ATOM      2  C   UNL     1      -1.358  11.549 -37.984  1.00  0.00     0.000 C 
BRANCH   2   3
ATOM      3  C   UNL     1      -0.131  12.240 -37.366  1.00  0.00     0.000 C 
BRANCH   3   4
ATOM      4  C   UNL     1       0.705  13.002 -38.406  1.00  0.00     0.000 C 
BRANCH   4   5
ATOM      5  C   UNL     1       1.682  12.059 -39.120  1.00  0.00     0.006 C 
BRANCH   5   6
ATOM      6  C   UNL     1       2.065  12.605 -40.499  1.00  0.00     0.053 C 
BRANCH   6   7
ATOM      7  C   UNL     1       2.866  11.594 -41.258  1.00  0.00     0.041 C 
ATOM      8  O   UNL     1       4.026  11.288 -40.876  1.00  0.00    -0.550 OA
ATOM      9  O   UNL     1       2.352  11.027 -42.416  1.00  0.00    -0.550 OA
ENDBRANCH   6   7
ENDBRANCH   5   6
ENDBRANCH   4   5
ENDBRANCH   3   4
ENDBRANCH   2   3
ENDBRANCH   1   2
BRANCH   1  10
ATOM     10  C   UNL     1      -0.684   9.191 -38.741  1.00  0.00     0.000 C 
BRANCH  10  11
ATOM     11  C   UNL     1      -1.598   8.285 -39.587  1.00  0.00    -0.000 C 
BRANCH  11  12
ATOM     12  C   UNL     1      -0.876   7.036 -40.122  1.00  0.00    -0.000 C 
BRANCH  12  13
ATOM     13  C   UNL     1       0.093   7.362 -41.270  1.00  0.00    -0.000 C 
BRANCH  13  14
ATOM     14  C   UNL     1       0.546   6.111 -42.038  1.00  0.00    -0.000 C 
BRANCH  14  15
ATOM     15  C   UNL     1       2.060   6.144 -42.295  1.00  0.00    -0.000 C 
BRANCH  15  16
ATOM     16  C   UNL     1       2.821   5.089 -41.478  1.00  0.00    -0.003 C 
ATOM     17  C   UNL     1       4.338   5.257 -41.561  1.00  0.00     0.004 C 
ENDBRANCH  15  16
ENDBRANCH  14  15
ENDBRANCH  13  14
ENDBRANCH  12  13
ENDBRANCH  11  12
ENDBRANCH  10  11
ENDBRANCH   1  10
TORSDOF 13
ENDMDL
