MODEL 1
REMARK VINA RESULT:    -2.912      0.000      0.000
REMARK INTER + INTRA:          -3.794
REMARK INTER:                  -3.593
REMARK INTRA:                  -0.201
REMARK UNBOUND:                -0.201
REMARK SMILES CCCCCC(=O)[O-]
REMARK SMILES IDX 4 1 5 2 6 3 7 4 8 5 3 6 2 7 1 8
REMARK H PARENT
REMARK Flexibility Score: inf
ROOT
ATOM      1  C   UNL     1     127.923 145.998 119.833  1.00  0.00     0.006 C 
ENDROOT
BRANCH   1   2
ATOM      2  C   UNL     1     126.940 146.244 120.984  1.00  0.00     0.053 C 
BRANCH   2   3
ATOM      3  C   UNL     1     127.621 146.051 122.302  1.00  0.00     0.041 C 
ATOM      4  O   UNL     1     127.164 145.227 123.137  1.00  0.00    -0.550 OA
ATOM      5  O   UNL     1     128.790 146.745 122.588  1.00  0.00    -0.550 OA
ENDBRANCH   2   3
ENDBRANCH   1   2
BRANCH   1   6
ATOM      6  C   UNL     1     127.605 144.719 119.036  1.00  0.00     0.000 C 
BRANCH   6   7
ATOM      7  C   UNL     1     128.224 143.431 119.608  1.00  0.00    -0.003 C 
ATOM      8  C   UNL     1     127.231 142.600 120.420  1.00  0.00     0.004 C 
ENDBRANCH   6   7
ENDBRANCH   1   6
TORSDOF 4
ENDMDL
MODEL 2
REMARK VINA RESULT:    -2.899     14.122     15.919
REMARK INTER + INTRA:          -3.778
REMARK INTER:                  -3.642
REMARK INTRA:                  -0.136
REMARK UNBOUND:                -0.201
REMARK SMILES CCCCCC(=O)[O-]
REMARK SMILES IDX 4 1 5 2 6 3 7 4 8 5 3 6 2 7 1 8
REMARK H PARENT
REMARK Flexibility Score: inf
ROOT
ATOM      1  C   UNL     1     128.123 129.711 120.750  1.00  0.00     0.006 C 
ENDROOT
BRANCH   1   2
ATOM      2  C   UNL     1     129.634 129.678 120.492  1.00  0.00     0.053 C 
BRANCH   2   3
ATOM      3  C   UNL     1     130.141 128.271 120.541  1.00  0.00     0.041 C 
ATOM      4  O   UNL     1     129.508 127.349 119.964  1.00  0.00    -0.550 OA
ATOM      5  O   UNL     1     131.341 127.987 121.182  1.00  0.00    -0.550 OA
ENDBRANCH   2   3
ENDBRANCH   1   2
BRANCH   1   6
ATOM      6  C   UNL     1     127.309 130.092 119.500  1.00  0.00     0.000 C 
BRANCH   6   7
ATOM      7  C   UNL     1     127.651 131.467 118.900  1.00  0.00    -0.003 C 
ATOM      8  C   UNL     1     127.234 132.631 119.798  1.00  0.00     0.004 C 
ENDBRANCH   6   7
ENDBRANCH   1   6
TORSDOF 4
ENDMDL
MODEL 3
REMARK VINA RESULT:    -2.887     16.964     17.677
REMARK INTER + INTRA:          -3.763
REMARK INTER:                  -3.578
REMARK INTRA:                  -0.185
REMARK UNBOUND:                -0.201
REMARK SMILES CCCCCC(=O)[O-]
REMARK SMILES IDX 4 1 5 2 6 3 7 4 8 5 3 6 2 7 1 8
REMARK H PARENT
REMARK Flexibility Score: inf
ROOT
ATOM      1  C   UNL     1     144.407 142.876 119.846  1.00  0.00     0.006 C 
ENDROOT
BRANCH   1   2
ATOM      2  C   UNL     1     144.848 144.344 119.791  1.00  0.00     0.053 C 
BRANCH   2   3
ATOM      3  C   UNL     1     145.011 144.893 121.173  1.00  0.00     0.041 C 
ATOM      4  O   UNL     1     144.344 145.896 121.539  1.00  0.00    -0.550 OA
ATOM      5  O   UNL     1     145.864 144.266 122.073  1.00  0.00    -0.550 OA
ENDBRANCH   2   3
ENDBRANCH   1   2
BRANCH   1   6
ATOM      6  C   UNL     1     145.292 141.951 118.991  1.00  0.00     0.000 C 
BRANCH   6   7
ATOM      7  C   UNL     1     146.090 140.904 119.787  1.00  0.00    -0.003 C 
ATOM      8  C   UNL     1     145.714 140.865 121.268  1.00  0.00     0.004 C 
ENDBRANCH   6   7
ENDBRANCH   1   6
TORSDOF 4
ENDMDL
MODEL 4
REMARK VINA RESULT:    -2.883      2.357      3.360
REMARK INTER + INTRA:          -3.759
REMARK INTER:                  -3.568
REMARK INTRA:                  -0.191
REMARK UNBOUND:                -0.201
REMARK SMILES CCCCCC(=O)[O-]
REMARK SMILES IDX 4 1 5 2 6 3 7 4 8 5 3 6 2 7 1 8
REMARK H PARENT
REMARK Flexibility Score: inf
ROOT
ATOM      1  C   UNL     1     129.710 145.055 119.736  1.00  0.00     0.006 C 
ENDROOT
BRANCH   1   2
ATOM      2  C   UNL     1     130.480 146.380 119.662  1.00  0.00     0.053 C 
BRANCH   2   3
ATOM      3  C   UNL     1     131.220 146.626 120.939  1.00  0.00     0.041 C 
ATOM      4  O   UNL     1     132.469 146.782 120.928  1.00  0.00    -0.550 OA
ATOM      5  O   UNL     1     130.523 146.732 122.136  1.00  0.00    -0.550 OA
ENDBRANCH   2   3
ENDBRANCH   1   2
BRANCH   1   6
ATOM      6  C   UNL     1     128.325 145.129 119.069  1.00  0.00     0.000 C 
BRANCH   6   7
ATOM      7  C   UNL     1     127.289 145.982 119.823  1.00  0.00    -0.003 C 
ATOM      8  C   UNL     1     127.195 145.633 121.308  1.00  0.00     0.004 C 
ENDBRANCH   6   7
ENDBRANCH   1   6
TORSDOF 4
ENDMDL
MODEL 5
REMARK VINA RESULT:    -2.865      2.755      3.338
REMARK INTER + INTRA:          -3.736
REMARK INTER:                  -3.654
REMARK INTRA:                  -0.082
REMARK UNBOUND:                -0.201
REMARK SMILES CCCCCC(=O)[O-]
REMARK SMILES IDX 4 1 5 2 6 3 7 4 8 5 3 6 2 7 1 8
REMARK H PARENT
REMARK Flexibility Score: inf
ROOT
ATOM      1  C   UNL     1     130.228 145.454 119.760  1.00  0.00     0.006 C 
ENDROOT
BRANCH   1   2
ATOM      2  C   UNL     1     131.097 146.718 119.783  1.00  0.00     0.053 C 
BRANCH   2   3
ATOM      3  C   UNL     1     131.748 146.879 121.120  1.00  0.00     0.041 C 
ATOM      4  O   UNL     1     131.065 146.787 122.173  1.00  0.00    -0.550 OA
ATOM      5  O   UNL     1     133.120 147.083 121.204  1.00  0.00    -0.550 OA
ENDBRANCH   2   3
ENDBRANCH   1   2
BRANCH   1   6
ATOM      6  C   UNL     1     128.725 145.762 119.630  1.00  0.00     0.000 C 
BRANCH   6   7
ATOM      7  C   UNL     1     127.903 144.677 118.912  1.00  0.00    -0.003 C 
ATOM      8  C   UNL     1     127.582 143.480 119.807  1.00  0.00     0.004 C 
ENDBRANCH   6   7
ENDBRANCH   1   6
TORSDOF 4
ENDMDL
MODEL 6
REMARK VINA RESULT:    -2.856      1.511      1.938
REMARK INTER + INTRA:          -3.725
REMARK INTER:                  -3.541
REMARK INTRA:                  -0.185
REMARK UNBOUND:                -0.201
REMARK SMILES CCCCCC(=O)[O-]
REMARK SMILES IDX 4 1 5 2 6 3 7 4 8 5 3 6 2 7 1 8
REMARK H PARENT
REMARK Flexibility Score: inf
ROOT
ATOM      1  C   UNL     1     127.257 145.339 121.181  1.00  0.00     0.006 C 
ENDROOT
BRANCH   1   2
ATOM      2  C   UNL     1     127.587 146.441 122.195  1.00  0.00     0.053 C 
BRANCH   2   3
ATOM      3  C   UNL     1     129.043 146.417 122.537  1.00  0.00     0.041 C 
ATOM      4  O   UNL     1     129.884 145.998 121.699  1.00  0.00    -0.550 OA
ATOM      5  O   UNL     1     129.476 146.905 123.764  1.00  0.00    -0.550 OA
ENDBRANCH   2   3
ENDBRANCH   1   2
BRANCH   1   6
ATOM      6  C   UNL     1     126.992 145.885 119.766  1.00  0.00     0.000 C 
BRANCH   6   7
ATOM      7  C   UNL     1     127.659 145.088 118.630  1.00  0.00    -0.003 C 
ATOM      8  C   UNL     1     128.500 143.916 119.136  1.00  0.00     0.004 C 
ENDBRANCH   6   7
ENDBRANCH   1   6
TORSDOF 4
ENDMDL
MODEL 7
REMARK VINA RESULT:    -2.838     16.708     17.475
REMARK INTER + INTRA:          -3.703
REMARK INTER:                  -3.640
REMARK INTRA:                  -0.063
REMARK UNBOUND:                -0.201
REMARK SMILES CCCCCC(=O)[O-]
REMARK SMILES IDX 4 1 5 2 6 3 7 4 8 5 3 6 2 7 1 8
REMARK H PARENT
REMARK Flexibility Score: inf
ROOT
ATOM      1  C   UNL     1     145.218 142.088 120.809  1.00  0.00     0.006 C 
ENDROOT
BRANCH   1   2
ATOM      2  C   UNL     1     144.580 143.439 120.461  1.00  0.00     0.053 C 
BRANCH   2   3
ATOM      3  C   UNL     1     145.076 144.504 121.388  1.00  0.00     0.041 C 
ATOM      4  O   UNL     1     144.611 145.672 121.317  1.00  0.00    -0.550 OA
ATOM      5  O   UNL     1     146.014 144.193 122.364  1.00  0.00    -0.550 OA
ENDBRANCH   2   3
ENDBRANCH   1   2
BRANCH   1   6
ATOM      6  C   UNL     1     145.554 141.245 119.565  1.00  0.00     0.000 C 
BRANCH   6   7
ATOM      7  C   UNL     1     144.874 141.711 118.266  1.00  0.00    -0.003 C 
ATOM      8  C   UNL     1     143.503 141.073 118.046  1.00  0.00     0.004 C 
ENDBRANCH   6   7
ENDBRANCH   1   6
TORSDOF 4
ENDMDL
MODEL 8
REMARK VINA RESULT:    -2.797      1.780      3.241
REMARK INTER + INTRA:          -3.652
REMARK INTER:                  -3.483
REMARK INTRA:                  -0.169
REMARK UNBOUND:                -0.201
REMARK SMILES CCCCCC(=O)[O-]
REMARK SMILES IDX 4 1 5 2 6 3 7 4 8 5 3 6 2 7 1 8
REMARK H PARENT
REMARK Flexibility Score: inf
ROOT
ATOM      1  C   UNL     1     128.455 143.536 119.603  1.00  0.00     0.006 C 
ENDROOT
BRANCH   1   2
ATOM      2  C   UNL     1     127.311 142.720 120.218  1.00  0.00     0.053 C 
BRANCH   2   3
ATOM      3  C   UNL     1     127.602 142.412 121.653  1.00  0.00     0.041 C 
ATOM      4  O   UNL     1     127.875 141.234 122.005  1.00  0.00    -0.550 OA
ATOM      5  O   UNL     1     127.620 143.434 122.593  1.00  0.00    -0.550 OA
ENDBRANCH   2   3
ENDBRANCH   1   2
BRANCH   1   6
ATOM      6  C   UNL     1     127.961 144.635 118.645  1.00  0.00     0.000 C 
BRANCH   6   7
ATOM      7  C   UNL     1     126.931 145.605 119.251  1.00  0.00    -0.003 C 
ATOM      8  C   UNL     1     127.449 146.329 120.494  1.00  0.00     0.004 C 
ENDBRANCH   6   7
ENDBRANCH   1   6
TORSDOF 4
ENDMDL
MODEL 9
REMARK VINA RESULT:    -2.788     16.384     17.060
REMARK INTER + INTRA:          -3.641
REMARK INTER:                  -3.403
REMARK INTRA:                  -0.238
REMARK UNBOUND:                -0.201
REMARK SMILES CCCCCC(=O)[O-]
REMARK SMILES IDX 4 1 5 2 6 3 7 4 8 5 3 6 2 7 1 8
REMARK H PARENT
REMARK Flexibility Score: inf
ROOT
ATOM      1  C   UNL     1     144.850 145.216 119.704  1.00  0.00     0.006 C 
ENDROOT
BRANCH   1   2
ATOM      2  C   UNL     1     144.403 143.855 120.254  1.00  0.00     0.053 C 
BRANCH   2   3
ATOM      3  C   UNL     1     145.277 143.440 121.394  1.00  0.00     0.041 C 
ATOM      4  O   UNL     1     145.552 142.224 121.572  1.00  0.00    -0.550 OA
ATOM      5  O   UNL     1     145.830 144.401 122.232  1.00  0.00    -0.550 OA
ENDBRANCH   2   3
ENDBRANCH   1   2
BRANCH   1   6
ATOM      6  C   UNL     1     143.725 146.267 119.718  1.00  0.00     0.000 C 
BRANCH   6   7
ATOM      7  C   UNL     1     142.789 146.196 120.938  1.00  0.00    -0.003 C 
ATOM      8  C   UNL     1     143.321 146.969 122.145  1.00  0.00     0.004 C 
ENDBRANCH   6   7
ENDBRANCH   1   6
TORSDOF 4
ENDMDL
