MODEL 1
REMARK VINA RESULT:    -5.860      0.000      0.000
REMARK INTER + INTRA:          -6.545
REMARK INTER:                  -6.374
REMARK INTRA:                  -0.171
REMARK UNBOUND:                -0.171
REMARK SMILES Cc1ccc(C(C)C)c(O)c1
REMARK SMILES IDX 1 1 2 2 11 3 9 4 5 5 4 6 3 7 10 8 6 10 7 11 8 12
REMARK H PARENT 10 9
REMARK Flexibility Score: inf
ROOT
ATOM      1  C   UNL     1       9.826  21.523  19.910  1.00  0.00     0.044 C 
ATOM      2  C   UNL     1      10.652  21.189  18.704  1.00  0.00    -0.047 A 
ATOM      3  C   UNL     1      11.995  21.578  18.638  1.00  0.00     0.049 A 
ATOM      4  C   UNL     1      12.793  21.232  17.540  1.00  0.00     0.119 A 
ATOM      5  C   UNL     1      12.228  20.513  16.453  1.00  0.00    -0.004 A 
ATOM      6  C   UNL     1      10.892  20.070  16.567  1.00  0.00     0.008 A 
ATOM      7  C   UNL     1      10.116  20.408  17.675  1.00  0.00     0.004 A 
ENDROOT
BRANCH   4   8
ATOM      8  O   UNL     1      14.139  21.604  17.585  1.00  0.00    -0.508 OA
ATOM      9  H   UNL     1      14.899  21.023  17.259  1.00  0.00     0.293 HD
ENDBRANCH   4   8
BRANCH   5  10
ATOM     10  C   UNL     1      13.053  20.152  15.220  1.00  0.00     0.017 C 
ATOM     11  C   UNL     1      13.861  18.877  15.478  1.00  0.00     0.012 C 
ATOM     12  C   UNL     1      12.209  20.011  13.943  1.00  0.00     0.012 C 
ENDBRANCH   5  10
TORSDOF 2
ENDMDL
MODEL 2
REMARK VINA RESULT:    -5.748      8.018      9.979
REMARK INTER + INTRA:          -6.423
REMARK INTER:                  -6.311
REMARK INTRA:                  -0.112
REMARK UNBOUND:                -0.171
REMARK SMILES Cc1ccc(C(C)C)c(O)c1
REMARK SMILES IDX 1 1 2 2 11 3 9 4 5 5 4 6 3 7 10 8 6 10 7 11 8 12
REMARK H PARENT 10 9
REMARK Flexibility Score: inf
ROOT
ATOM      1  C   UNL     1       6.796  25.625   7.869  1.00  0.00     0.044 C 
ATOM      2  C   UNL     1       7.691  24.431   8.013  1.00  0.00    -0.047 A 
ATOM      3  C   UNL     1       7.168  23.204   8.435  1.00  0.00     0.049 A 
ATOM      4  C   UNL     1       7.982  22.067   8.528  1.00  0.00     0.119 A 
ATOM      5  C   UNL     1       9.369  22.163   8.235  1.00  0.00    -0.004 A 
ATOM      6  C   UNL     1       9.865  23.392   7.746  1.00  0.00     0.008 A 
ATOM      7  C   UNL     1       9.037  24.510   7.641  1.00  0.00     0.004 A 
ENDROOT
BRANCH   4   8
ATOM      8  O   UNL     1       7.367  20.867   8.894  1.00  0.00    -0.508 OA
ATOM      9  H   UNL     1       7.504  20.407   9.783  1.00  0.00     0.293 HD
ENDBRANCH   4   8
BRANCH   5  10
ATOM     10  C   UNL     1      10.297  20.959   8.364  1.00  0.00     0.017 C 
ATOM     11  C   UNL     1      11.633  21.244   7.671  1.00  0.00     0.012 C 
ATOM     12  C   UNL     1      10.524  20.518   9.820  1.00  0.00     0.012 C 
ENDBRANCH   5  10
TORSDOF 2
ENDMDL
MODEL 3
REMARK VINA RESULT:    -5.687      1.787      2.276
REMARK INTER + INTRA:          -6.357
REMARK INTER:                  -6.165
REMARK INTRA:                  -0.192
REMARK UNBOUND:                -0.171
REMARK SMILES Cc1ccc(C(C)C)c(O)c1
REMARK SMILES IDX 1 1 2 2 11 3 9 4 5 5 4 6 3 7 10 8 6 10 7 11 8 12
REMARK H PARENT 10 9
REMARK Flexibility Score: inf
ROOT
ATOM      1  C   UNL     1       9.706  21.882  19.435  1.00  0.00     0.044 C 
ATOM      2  C   UNL     1      10.963  21.213  18.965  1.00  0.00    -0.047 A 
ATOM      3  C   UNL     1      11.799  21.851  18.042  1.00  0.00     0.049 A 
ATOM      4  C   UNL     1      13.001  21.262  17.630  1.00  0.00     0.119 A 
ATOM      5  C   UNL     1      13.363  19.977  18.117  1.00  0.00    -0.004 A 
ATOM      6  C   UNL     1      12.542  19.378  19.097  1.00  0.00     0.008 A 
ATOM      7  C   UNL     1      11.357  19.987  19.511  1.00  0.00     0.004 A 
ENDROOT
BRANCH   4   8
ATOM      8  O   UNL     1      13.809  21.995  16.757  1.00  0.00    -0.508 OA
ATOM      9  H   UNL     1      13.463  22.501  15.954  1.00  0.00     0.293 HD
ENDBRANCH   4   8
BRANCH   5  10
ATOM     10  C   UNL     1      14.643  19.281  17.661  1.00  0.00     0.017 C 
ATOM     11  C   UNL     1      15.227  18.446  18.804  1.00  0.00     0.012 C 
ATOM     12  C   UNL     1      14.452  18.420  16.401  1.00  0.00     0.012 C 
ENDBRANCH   5  10
TORSDOF 2
ENDMDL
MODEL 4
REMARK VINA RESULT:    -5.628      2.139      2.876
REMARK INTER + INTRA:          -6.293
REMARK INTER:                  -6.100
REMARK INTRA:                  -0.192
REMARK UNBOUND:                -0.171
REMARK SMILES Cc1ccc(C(C)C)c(O)c1
REMARK SMILES IDX 1 1 2 2 11 3 9 4 5 5 4 6 3 7 10 8 6 10 7 11 8 12
REMARK H PARENT 10 9
REMARK Flexibility Score: inf
ROOT
ATOM      1  C   UNL     1      10.375  22.597  18.383  1.00  0.00     0.044 C 
ATOM      2  C   UNL     1      11.437  21.553  18.212  1.00  0.00    -0.047 A 
ATOM      3  C   UNL     1      11.588  20.538  19.164  1.00  0.00     0.049 A 
ATOM      4  C   UNL     1      12.543  19.527  18.995  1.00  0.00     0.119 A 
ATOM      5  C   UNL     1      13.405  19.549  17.866  1.00  0.00    -0.004 A 
ATOM      6  C   UNL     1      13.194  20.542  16.883  1.00  0.00     0.008 A 
ATOM      7  C   UNL     1      12.226  21.531  17.058  1.00  0.00     0.004 A 
ENDROOT
BRANCH   4   8
ATOM      8  O   UNL     1      12.583  18.515  19.958  1.00  0.00    -0.508 OA
ATOM      9  H   UNL     1      12.005  17.687  19.935  1.00  0.00     0.293 HD
ENDBRANCH   4   8
BRANCH   5  10
ATOM     10  C   UNL     1      14.487  18.491  17.666  1.00  0.00     0.017 C 
ATOM     11  C   UNL     1      14.676  18.202  16.173  1.00  0.00     0.012 C 
ATOM     12  C   UNL     1      15.828  18.859  18.322  1.00  0.00     0.012 C 
ENDBRANCH   5  10
TORSDOF 2
ENDMDL
MODEL 5
REMARK VINA RESULT:    -5.497      1.999      4.112
REMARK INTER + INTRA:          -6.150
REMARK INTER:                  -5.962
REMARK INTRA:                  -0.189
REMARK UNBOUND:                -0.171
REMARK SMILES Cc1ccc(C(C)C)c(O)c1
REMARK SMILES IDX 1 1 2 2 11 3 9 4 5 5 4 6 3 7 10 8 6 10 7 11 8 12
REMARK H PARENT 10 9
REMARK Flexibility Score: inf
ROOT
ATOM      1  C   UNL     1      15.536  18.613  18.352  1.00  0.00     0.044 C 
ATOM      2  C   UNL     1      14.166  19.223  18.318  1.00  0.00    -0.047 A 
ATOM      3  C   UNL     1      13.808  20.097  17.285  1.00  0.00     0.049 A 
ATOM      4  C   UNL     1      12.517  20.636  17.212  1.00  0.00     0.119 A 
ATOM      5  C   UNL     1      11.564  20.331  18.222  1.00  0.00    -0.004 A 
ATOM      6  C   UNL     1      11.921  19.395  19.217  1.00  0.00     0.008 A 
ATOM      7  C   UNL     1      13.206  18.853  19.265  1.00  0.00     0.004 A 
ENDROOT
BRANCH   4   8
ATOM      8  O   UNL     1      12.223  21.448  16.114  1.00  0.00    -0.508 OA
ATOM      9  H   UNL     1      12.873  21.650  15.368  1.00  0.00     0.293 HD
ENDBRANCH   4   8
BRANCH   5  10
ATOM     10  C   UNL     1      10.161  20.931  18.202  1.00  0.00     0.017 C 
ATOM     11  C   UNL     1       9.161  19.921  17.631  1.00  0.00     0.012 C 
ATOM     12  C   UNL     1       9.696  21.438  19.577  1.00  0.00     0.012 C 
ENDBRANCH   5  10
TORSDOF 2
ENDMDL
MODEL 6
REMARK VINA RESULT:    -5.497      9.167     10.392
REMARK INTER + INTRA:          -6.150
REMARK INTER:                  -6.004
REMARK INTRA:                  -0.146
REMARK UNBOUND:                -0.171
REMARK SMILES Cc1ccc(C(C)C)c(O)c1
REMARK SMILES IDX 1 1 2 2 11 3 9 4 5 5 4 6 3 7 10 8 6 10 7 11 8 12
REMARK H PARENT 10 9
REMARK Flexibility Score: inf
ROOT
ATOM      1  C   UNL     1      12.170  21.329   7.488  1.00  0.00     0.044 C 
ATOM      2  C   UNL     1      10.803  21.819   7.860  1.00  0.00    -0.047 A 
ATOM      3  C   UNL     1      10.404  23.118   7.526  1.00  0.00     0.049 A 
ATOM      4  C   UNL     1       9.113  23.575   7.823  1.00  0.00     0.119 A 
ATOM      5  C   UNL     1       8.204  22.728   8.513  1.00  0.00    -0.004 A 
ATOM      6  C   UNL     1       8.600  21.400   8.781  1.00  0.00     0.008 A 
ATOM      7  C   UNL     1       9.883  20.954   8.462  1.00  0.00     0.004 A 
ENDROOT
BRANCH   4   8
ATOM      8  O   UNL     1       8.775  24.862   7.398  1.00  0.00    -0.508 OA
ATOM      9  H   UNL     1       8.937  25.699   7.938  1.00  0.00     0.293 HD
ENDBRANCH   4   8
BRANCH   5  10
ATOM     10  C   UNL     1       6.803  23.202   8.893  1.00  0.00     0.017 C 
ATOM     11  C   UNL     1       5.875  23.139   7.676  1.00  0.00     0.012 C 
ATOM     12  C   UNL     1       6.199  22.429  10.078  1.00  0.00     0.012 C 
ENDBRANCH   5  10
TORSDOF 2
ENDMDL
MODEL 7
REMARK VINA RESULT:    -5.496      8.305     10.492
REMARK INTER + INTRA:          -6.149
REMARK INTER:                  -5.992
REMARK INTRA:                  -0.157
REMARK UNBOUND:                -0.171
REMARK SMILES Cc1ccc(C(C)C)c(O)c1
REMARK SMILES IDX 1 1 2 2 11 3 9 4 5 5 4 6 3 7 10 8 6 10 7 11 8 12
REMARK H PARENT 10 9
REMARK Flexibility Score: inf
ROOT
ATOM      1  C   UNL     1      10.362  20.595   9.969  1.00  0.00     0.044 C 
ATOM      2  C   UNL     1       9.591  21.629   9.204  1.00  0.00    -0.047 A 
ATOM      3  C   UNL     1       8.194  21.666   9.279  1.00  0.00     0.049 A 
ATOM      4  C   UNL     1       7.462  22.655   8.611  1.00  0.00     0.119 A 
ATOM      5  C   UNL     1       8.137  23.613   7.806  1.00  0.00    -0.004 A 
ATOM      6  C   UNL     1       9.549  23.602   7.797  1.00  0.00     0.008 A 
ATOM      7  C   UNL     1      10.264  22.621   8.484  1.00  0.00     0.004 A 
ENDROOT
BRANCH   4   8
ATOM      8  O   UNL     1       6.077  22.660   8.791  1.00  0.00    -0.508 OA
ATOM      9  H   UNL     1       5.460  23.375   8.433  1.00  0.00     0.293 HD
ENDBRANCH   4   8
BRANCH   5  10
ATOM     10  C   UNL     1       7.374  24.681   7.028  1.00  0.00     0.017 C 
ATOM     11  C   UNL     1       6.992  25.840   7.954  1.00  0.00     0.012 C 
ATOM     12  C   UNL     1       8.136  25.199   5.797  1.00  0.00     0.012 C 
ENDBRANCH   5  10
TORSDOF 2
ENDMDL
MODEL 8
REMARK VINA RESULT:    -5.472      1.925      2.728
REMARK INTER + INTRA:          -6.123
REMARK INTER:                  -5.937
REMARK INTRA:                  -0.185
REMARK UNBOUND:                -0.171
REMARK SMILES Cc1ccc(C(C)C)c(O)c1
REMARK SMILES IDX 1 1 2 2 11 3 9 4 5 5 4 6 3 7 10 8 6 10 7 11 8 12
REMARK H PARENT 10 9
REMARK Flexibility Score: inf
ROOT
ATOM      1  C   UNL     1       8.493  21.620  20.264  1.00  0.00     0.044 C 
ATOM      2  C   UNL     1       9.528  21.180  19.272  1.00  0.00    -0.047 A 
ATOM      3  C   UNL     1       9.164  20.385  18.179  1.00  0.00     0.049 A 
ATOM      4  C   UNL     1      10.109  20.006  17.217  1.00  0.00     0.119 A 
ATOM      5  C   UNL     1      11.468  20.394  17.368  1.00  0.00    -0.004 A 
ATOM      6  C   UNL     1      11.803  21.252  18.438  1.00  0.00     0.008 A 
ATOM      7  C   UNL     1      10.845  21.636  19.378  1.00  0.00     0.004 A 
ENDROOT
BRANCH   4   8
ATOM      8  O   UNL     1       9.650  19.266  16.124  1.00  0.00    -0.508 OA
ATOM      9  H   UNL     1       9.972  18.337  15.893  1.00  0.00     0.293 HD
ENDBRANCH   4   8
BRANCH   5  10
ATOM     10  C   UNL     1      12.536  19.967  16.365  1.00  0.00     0.017 C 
ATOM     11  C   UNL     1      12.945  21.155  15.489  1.00  0.00     0.012 C 
ATOM     12  C   UNL     1      13.770  19.328  17.024  1.00  0.00     0.012 C 
ENDBRANCH   5  10
TORSDOF 2
ENDMDL
MODEL 9
REMARK VINA RESULT:    -5.202      1.906      4.537
REMARK INTER + INTRA:          -5.829
REMARK INTER:                  -5.673
REMARK INTRA:                  -0.157
REMARK UNBOUND:                -0.171
REMARK SMILES Cc1ccc(C(C)C)c(O)c1
REMARK SMILES IDX 1 1 2 2 11 3 9 4 5 5 4 6 3 7 10 8 6 10 7 11 8 12
REMARK H PARENT 10 9
REMARK Flexibility Score: inf
ROOT
ATOM      1  C   UNL     1      13.578  20.747  14.503  1.00  0.00     0.044 C 
ATOM      2  C   UNL     1      12.717  20.764  15.731  1.00  0.00    -0.047 A 
ATOM      3  C   UNL     1      11.500  20.074  15.750  1.00  0.00     0.049 A 
ATOM      4  C   UNL     1      10.707  20.040  16.904  1.00  0.00     0.119 A 
ATOM      5  C   UNL     1      11.116  20.750  18.065  1.00  0.00    -0.004 A 
ATOM      6  C   UNL     1      12.378  21.384  18.050  1.00  0.00     0.008 A 
ATOM      7  C   UNL     1      13.164  21.393  16.897  1.00  0.00     0.004 A 
ENDROOT
BRANCH   4   8
ATOM      8  O   UNL     1       9.540  19.274  16.858  1.00  0.00    -0.508 OA
ATOM      9  H   UNL     1       9.512  18.273  16.993  1.00  0.00     0.293 HD
ENDBRANCH   4   8
BRANCH   5  10
ATOM     10  C   UNL     1      10.262  20.773  19.329  1.00  0.00     0.017 C 
ATOM     11  C   UNL     1      11.115  21.171  20.538  1.00  0.00     0.012 C 
ATOM     12  C   UNL     1       9.027  21.683  19.214  1.00  0.00     0.012 C 
ENDBRANCH   5  10
TORSDOF 2
ENDMDL
