MODEL 1
REMARK VINA RESULT:    -5.975      0.000      0.000
REMARK INTER + INTRA:          -7.225
REMARK INTER:                  -7.023
REMARK INTRA:                  -0.202
REMARK UNBOUND:                -0.202
REMARK SMILES O=c1c(O)c(-c2ccc(O)cc2)oc2cc(O)cc(O)c12
REMARK SMILES IDX 5 1 3 2 2 3 1 4 21 5 19 6 18 7 16 8 15 9 14 10 13 11 6 12
REMARK SMILES IDX 7 13 8 14 9 15 12 16 11 17 10 18 4 20 20 22 17 24
REMARK H PARENT 10 19 4 21 20 23 17 25
REMARK Flexibility Score: inf
ROOT
ATOM      1  C   UNL     1      41.891  20.322   5.656  1.00  0.00     0.180 A 
ATOM      2  C   UNL     1      42.211  21.680   5.830  1.00  0.00     0.208 A 
ATOM      3  C   UNL     1      42.365  22.494   4.696  1.00  0.00     0.238 A 
ATOM      4  O   UNL     1      42.577  23.724   4.862  1.00  0.00    -0.285 OA
ATOM      5  C   UNL     1      42.252  21.930   3.402  1.00  0.00     0.111 A 
ATOM      6  C   UNL     1      42.432  22.652   2.183  1.00  0.00     0.134 A 
ATOM      7  C   UNL     1      42.191  22.013   0.961  1.00  0.00     0.093 A 
ATOM      8  C   UNL     1      41.840  20.664   0.909  1.00  0.00     0.123 A 
ATOM      9  C   UNL     1      41.714  19.936   2.092  1.00  0.00     0.094 A 
ATOM     10  C   UNL     1      41.911  20.554   3.329  1.00  0.00     0.146 A 
ATOM     11  O   UNL     1      41.759  19.829   4.430  1.00  0.00    -0.452 OA
ENDROOT
BRANCH   1  12
ATOM     12  C   UNL     1      41.699  19.405   6.801  1.00  0.00     0.021 A 
ATOM     13  C   UNL     1      40.551  19.532   7.602  1.00  0.00     0.016 A 
ATOM     14  C   UNL     1      40.358  18.691   8.702  1.00  0.00     0.047 A 
ATOM     15  C   UNL     1      41.315  17.724   9.025  1.00  0.00     0.115 A 
ATOM     16  C   UNL     1      42.667  18.443   7.144  1.00  0.00     0.016 A 
ATOM     17  C   UNL     1      42.472  17.604   8.245  1.00  0.00     0.047 A 
BRANCH  15  18
ATOM     18  O   UNL     1      41.109  16.893  10.124  1.00  0.00    -0.508 OA
ATOM     19  H   UNL     1      41.882  16.443  10.599  1.00  0.00     0.293 HD
ENDBRANCH  15  18
ENDBRANCH   1  12
BRANCH   2  20
ATOM     20  O   UNL     1      42.394  22.200   7.114  1.00  0.00    -0.502 OA
ATOM     21  H   UNL     1      42.100  23.136   7.368  1.00  0.00     0.293 HD
ENDBRANCH   2  20
BRANCH   6  22
ATOM     22  O   UNL     1      42.868  23.979   2.116  1.00  0.00    -0.507 OA
ATOM     23  H   UNL     1      43.791  24.297   2.366  1.00  0.00     0.293 HD
ENDBRANCH   6  22
BRANCH   8  24
ATOM     24  O   UNL     1      41.625  20.057  -0.327  1.00  0.00    -0.508 OA
ATOM     25  H   UNL     1      41.160  20.546  -1.083  1.00  0.00     0.293 HD
ENDBRANCH   8  24
TORSDOF 5
ENDMDL
MODEL 2
REMARK VINA RESULT:    -5.956      7.345     12.625
REMARK INTER + INTRA:          -7.203
REMARK INTER:                  -6.946
REMARK INTRA:                  -0.257
REMARK UNBOUND:                -0.202
REMARK SMILES O=c1c(O)c(-c2ccc(O)cc2)oc2cc(O)cc(O)c12
REMARK SMILES IDX 5 1 3 2 2 3 1 4 21 5 19 6 18 7 16 8 15 9 14 10 13 11 6 12
REMARK SMILES IDX 7 13 8 14 9 15 12 16 11 17 10 18 4 20 20 22 17 24
REMARK H PARENT 10 19 4 21 20 23 17 25
REMARK Flexibility Score: inf
ROOT
ATOM      1  C   UNL     1      39.558  20.642  -6.112  1.00  0.00     0.180 A 
ATOM      2  C   UNL     1      40.247  19.434  -6.307  1.00  0.00     0.208 A 
ATOM      3  C   UNL     1      41.053  18.935  -5.271  1.00  0.00     0.238 A 
ATOM      4  O   UNL     1      41.607  17.815  -5.424  1.00  0.00    -0.285 OA
ATOM      5  C   UNL     1      41.203  19.678  -4.075  1.00  0.00     0.111 A 
ATOM      6  C   UNL     1      42.030  19.291  -2.976  1.00  0.00     0.134 A 
ATOM      7  C   UNL     1      42.018  20.052  -1.801  1.00  0.00     0.093 A 
ATOM      8  C   UNL     1      41.262  21.220  -1.706  1.00  0.00     0.123 A 
ATOM      9  C   UNL     1      40.493  21.637  -2.793  1.00  0.00     0.094 A 
ATOM     10  C   UNL     1      40.454  20.878  -3.966  1.00  0.00     0.146 A 
ATOM     11  O   UNL     1      39.692  21.300  -4.968  1.00  0.00    -0.452 OA
ENDROOT
BRANCH   1  12
ATOM     12  C   UNL     1      38.678  21.224  -7.152  1.00  0.00     0.021 A 
ATOM     13  C   UNL     1      39.248  21.949  -8.212  1.00  0.00     0.016 A 
ATOM     14  C   UNL     1      38.435  22.526  -9.193  1.00  0.00     0.047 A 
ATOM     15  C   UNL     1      37.045  22.399  -9.118  1.00  0.00     0.115 A 
ATOM     16  C   UNL     1      37.277  21.117  -7.072  1.00  0.00     0.016 A 
ATOM     17  C   UNL     1      36.467  21.696  -8.054  1.00  0.00     0.047 A 
BRANCH  15  18
ATOM     18  O   UNL     1      36.248  22.978 -10.103  1.00  0.00    -0.508 OA
ATOM     19  H   UNL     1      35.559  22.437 -10.613  1.00  0.00     0.293 HD
ENDBRANCH  15  18
ENDBRANCH   1  12
BRANCH   2  20
ATOM     20  O   UNL     1      40.146  18.754  -7.524  1.00  0.00    -0.502 OA
ATOM     21  H   UNL     1      40.061  17.745  -7.578  1.00  0.00     0.293 HD
ENDBRANCH   2  20
BRANCH   6  22
ATOM     22  O   UNL     1      42.893  18.190  -2.995  1.00  0.00    -0.507 OA
ATOM     23  H   UNL     1      43.231  17.736  -3.829  1.00  0.00     0.293 HD
ENDBRANCH   6  22
BRANCH   8  24
ATOM     24  O   UNL     1      41.289  21.962  -0.528  1.00  0.00    -0.508 OA
ATOM     25  H   UNL     1      42.115  22.476  -0.244  1.00  0.00     0.293 HD
ENDBRANCH   8  24
TORSDOF 5
ENDMDL
MODEL 3
REMARK VINA RESULT:    -5.837      8.828     11.924
REMARK INTER + INTRA:          -7.063
REMARK INTER:                  -6.768
REMARK INTRA:                  -0.295
REMARK UNBOUND:                -0.202
REMARK SMILES O=c1c(O)c(-c2ccc(O)cc2)oc2cc(O)cc(O)c12
REMARK SMILES IDX 5 1 3 2 2 3 1 4 21 5 19 6 18 7 16 8 15 9 14 10 13 11 6 12
REMARK SMILES IDX 7 13 8 14 9 15 12 16 11 17 10 18 4 20 20 22 17 24
REMARK H PARENT 10 19 4 21 20 23 17 25
REMARK Flexibility Score: inf
ROOT
ATOM      1  C   UNL     1      41.312  18.135  -5.702  1.00  0.00     0.180 A 
ATOM      2  C   UNL     1      41.976  18.338  -4.481  1.00  0.00     0.208 A 
ATOM      3  C   UNL     1      41.495  19.319  -3.598  1.00  0.00     0.238 A 
ATOM      4  O   UNL     1      42.049  19.443  -2.475  1.00  0.00    -0.285 OA
ATOM      5  C   UNL     1      40.390  20.122  -3.972  1.00  0.00     0.111 A 
ATOM      6  C   UNL     1      39.845  21.176  -3.176  1.00  0.00     0.134 A 
ATOM      7  C   UNL     1      38.685  21.833  -3.601  1.00  0.00     0.093 A 
ATOM      8  C   UNL     1      38.085  21.521  -4.821  1.00  0.00     0.123 A 
ATOM      9  C   UNL     1      38.640  20.531  -5.632  1.00  0.00     0.094 A 
ATOM     10  C   UNL     1      39.776  19.831  -5.218  1.00  0.00     0.146 A 
ATOM     11  O   UNL     1      40.258  18.882  -6.011  1.00  0.00    -0.452 OA
ENDROOT
BRANCH   1  12
ATOM     12  C   UNL     1      41.750  17.111  -6.677  1.00  0.00     0.021 A 
ATOM     13  C   UNL     1      42.569  17.489  -7.754  1.00  0.00     0.016 A 
ATOM     14  C   UNL     1      42.977  16.542  -8.700  1.00  0.00     0.047 A 
ATOM     15  C   UNL     1      42.560  15.213  -8.590  1.00  0.00     0.115 A 
ATOM     16  C   UNL     1      41.317  15.775  -6.584  1.00  0.00     0.016 A 
ATOM     17  C   UNL     1      41.726  14.831  -7.531  1.00  0.00     0.047 A 
BRANCH  15  18
ATOM     18  O   UNL     1      42.975  14.281  -9.539  1.00  0.00    -0.508 OA
ATOM     19  H   UNL     1      43.635  14.526 -10.267  1.00  0.00     0.293 HD
ENDBRANCH  15  18
ENDBRANCH   1  12
BRANCH   2  20
ATOM     20  O   UNL     1      43.111  17.587  -4.164  1.00  0.00    -0.502 OA
ATOM     21  H   UNL     1      43.718  17.193  -4.874  1.00  0.00     0.293 HD
ENDBRANCH   2  20
BRANCH   6  22
ATOM     22  O   UNL     1      40.415  21.630  -1.982  1.00  0.00    -0.507 OA
ATOM     23  H   UNL     1      40.668  21.043  -1.203  1.00  0.00     0.293 HD
ENDBRANCH   6  22
BRANCH   8  24
ATOM     24  O   UNL     1      36.941  22.209  -5.220  1.00  0.00    -0.508 OA
ATOM     25  H   UNL     1      36.157  22.342  -4.591  1.00  0.00     0.293 HD
ENDBRANCH   8  24
TORSDOF 5
ENDMDL
MODEL 4
REMARK VINA RESULT:    -5.593      4.270      7.920
REMARK INTER + INTRA:          -6.776
REMARK INTER:                  -7.152
REMARK INTRA:                   0.376
REMARK UNBOUND:                -0.202
REMARK SMILES O=c1c(O)c(-c2ccc(O)cc2)oc2cc(O)cc(O)c12
REMARK SMILES IDX 5 1 3 2 2 3 1 4 21 5 19 6 18 7 16 8 15 9 14 10 13 11 6 12
REMARK SMILES IDX 7 13 8 14 9 15 12 16 11 17 10 18 4 20 20 22 17 24
REMARK H PARENT 10 19 4 21 20 23 17 25
REMARK Flexibility Score: inf
ROOT
ATOM      1  C   UNL     1      41.400  20.611  -1.383  1.00  0.00     0.180 A 
ATOM      2  C   UNL     1      42.039  19.608  -2.131  1.00  0.00     0.208 A 
ATOM      3  C   UNL     1      41.557  19.303  -3.414  1.00  0.00     0.238 A 
ATOM      4  O   UNL     1      42.180  18.456  -4.107  1.00  0.00    -0.285 OA
ATOM      5  C   UNL     1      40.409  19.966  -3.911  1.00  0.00     0.111 A 
ATOM      6  C   UNL     1      39.806  19.705  -5.180  1.00  0.00     0.134 A 
ATOM      7  C   UNL     1      38.735  20.496  -5.611  1.00  0.00     0.093 A 
ATOM      8  C   UNL     1      38.203  21.496  -4.796  1.00  0.00     0.123 A 
ATOM      9  C   UNL     1      38.749  21.722  -3.532  1.00  0.00     0.094 A 
ATOM     10  C   UNL     1      39.843  20.974  -3.089  1.00  0.00     0.146 A 
ATOM     11  O   UNL     1      40.346  21.238  -1.889  1.00  0.00    -0.452 OA
ENDROOT
BRANCH   1  12
ATOM     12  C   UNL     1      41.860  20.999  -0.031  1.00  0.00     0.021 A 
ATOM     13  C   UNL     1      42.493  20.045   0.784  1.00  0.00     0.016 A 
ATOM     14  C   UNL     1      42.916  20.382   2.073  1.00  0.00     0.047 A 
ATOM     15  C   UNL     1      42.697  21.670   2.571  1.00  0.00     0.115 A 
ATOM     16  C   UNL     1      41.625  22.288   0.484  1.00  0.00     0.016 A 
ATOM     17  C   UNL     1      42.048  22.622   1.774  1.00  0.00     0.047 A 
BRANCH  15  18
ATOM     18  O   UNL     1      43.124  21.992   3.857  1.00  0.00    -0.508 OA
ATOM     19  H   UNL     1      42.475  22.322   4.563  1.00  0.00     0.293 HD
ENDBRANCH  15  18
ENDBRANCH   1  12
BRANCH   2  20
ATOM     20  O   UNL     1      43.125  18.912  -1.592  1.00  0.00    -0.502 OA
ATOM     21  H   UNL     1      43.576  19.192  -0.728  1.00  0.00     0.293 HD
ENDBRANCH   2  20
BRANCH   6  22
ATOM     22  O   UNL     1      40.200  18.672  -6.037  1.00  0.00    -0.507 OA
ATOM     23  H   UNL     1      41.095  18.613  -6.496  1.00  0.00     0.293 HD
ENDBRANCH   6  22
BRANCH   8  24
ATOM     24  O   UNL     1      37.125  22.252  -5.251  1.00  0.00    -0.508 OA
ATOM     25  H   UNL     1      37.078  22.585  -6.207  1.00  0.00     0.293 HD
ENDBRANCH   8  24
TORSDOF 5
ENDMDL
MODEL 5
REMARK VINA RESULT:    -5.462      1.826      6.778
REMARK INTER + INTRA:          -6.622
REMARK INTER:                  -6.827
REMARK INTRA:                   0.205
REMARK UNBOUND:                -0.202
REMARK SMILES O=c1c(O)c(-c2ccc(O)cc2)oc2cc(O)cc(O)c12
REMARK SMILES IDX 5 1 3 2 2 3 1 4 21 5 19 6 18 7 16 8 15 9 14 10 13 11 6 12
REMARK SMILES IDX 7 13 8 14 9 15 12 16 11 17 10 18 4 20 20 22 17 24
REMARK H PARENT 10 19 4 21 20 23 17 25
REMARK Flexibility Score: inf
ROOT
ATOM      1  C   UNL     1      42.353  21.049   1.879  1.00  0.00     0.180 A 
ATOM      2  C   UNL     1      42.381  22.363   2.376  1.00  0.00     0.208 A 
ATOM      3  C   UNL     1      42.358  22.567   3.765  1.00  0.00     0.238 A 
ATOM      4  O   UNL     1      42.459  23.742   4.204  1.00  0.00    -0.285 OA
ATOM      5  C   UNL     1      42.250  21.457   4.638  1.00  0.00     0.111 A 
ATOM      6  C   UNL     1      42.173  21.547   6.062  1.00  0.00     0.134 A 
ATOM      7  C   UNL     1      42.176  20.376   6.829  1.00  0.00     0.093 A 
ATOM      8  C   UNL     1      42.188  19.119   6.226  1.00  0.00     0.123 A 
ATOM      9  C   UNL     1      42.208  19.019   4.834  1.00  0.00     0.094 A 
ATOM     10  C   UNL     1      42.244  20.169   4.042  1.00  0.00     0.146 A 
ATOM     11  O   UNL     1      42.285  20.027   2.723  1.00  0.00    -0.452 OA
ENDROOT
BRANCH   1  12
ATOM     12  C   UNL     1      42.390  20.755   0.428  1.00  0.00     0.021 A 
ATOM     13  C   UNL     1      41.629  21.539  -0.455  1.00  0.00     0.016 A 
ATOM     14  C   UNL     1      41.632  21.266  -1.827  1.00  0.00     0.047 A 
ATOM     15  C   UNL     1      42.380  20.197  -2.330  1.00  0.00     0.115 A 
ATOM     16  C   UNL     1      43.125  19.669  -0.082  1.00  0.00     0.016 A 
ATOM     17  C   UNL     1      43.125  19.397  -1.454  1.00  0.00     0.047 A 
BRANCH  15  18
ATOM     18  O   UNL     1      42.373  19.937  -3.698  1.00  0.00    -0.508 OA
ATOM     19  H   UNL     1      43.126  20.250  -4.300  1.00  0.00     0.293 HD
ENDBRANCH  15  18
ENDBRANCH   1  12
BRANCH   2  20
ATOM     20  O   UNL     1      42.410  23.448   1.496  1.00  0.00    -0.502 OA
ATOM     21  H   UNL     1      42.648  23.347   0.515  1.00  0.00     0.293 HD
ENDBRANCH   2  20
BRANCH   6  22
ATOM     22  O   UNL     1      42.067  22.751   6.765  1.00  0.00    -0.507 OA
ATOM     23  H   UNL     1      41.270  23.368   6.737  1.00  0.00     0.293 HD
ENDBRANCH   6  22
BRANCH   8  24
ATOM     24  O   UNL     1      42.172  17.975   7.021  1.00  0.00    -0.508 OA
ATOM     25  H   UNL     1      41.383  17.339   7.018  1.00  0.00     0.293 HD
ENDBRANCH   8  24
TORSDOF 5
ENDMDL
MODEL 6
REMARK VINA RESULT:    -5.294      9.889     13.084
REMARK INTER + INTRA:          -6.424
REMARK INTER:                  -6.234
REMARK INTRA:                  -0.190
REMARK UNBOUND:                -0.202
REMARK SMILES O=c1c(O)c(-c2ccc(O)cc2)oc2cc(O)cc(O)c12
REMARK SMILES IDX 5 1 3 2 2 3 1 4 21 5 19 6 18 7 16 8 15 9 14 10 13 11 6 12
REMARK SMILES IDX 7 13 8 14 9 15 12 16 11 17 10 18 4 20 20 22 17 24
REMARK H PARENT 10 19 4 21 20 23 17 25
REMARK Flexibility Score: inf
ROOT
ATOM      1  C   UNL     1      39.291  20.415  -6.598  1.00  0.00     0.180 A 
ATOM      2  C   UNL     1      39.604  20.796  -5.282  1.00  0.00     0.208 A 
ATOM      3  C   UNL     1      40.553  20.051  -4.564  1.00  0.00     0.238 A 
ATOM      4  O   UNL     1      40.883  20.442  -3.414  1.00  0.00    -0.285 OA
ATOM      5  C   UNL     1      41.136  18.901  -5.150  1.00  0.00     0.111 A 
ATOM      6  C   UNL     1      42.076  18.045  -4.499  1.00  0.00     0.134 A 
ATOM      7  C   UNL     1      42.666  16.996  -5.214  1.00  0.00     0.093 A 
ATOM      8  C   UNL     1      42.306  16.732  -6.535  1.00  0.00     0.123 A 
ATOM      9  C   UNL     1      41.348  17.529  -7.164  1.00  0.00     0.094 A 
ATOM     10  C   UNL     1      40.769  18.606  -6.489  1.00  0.00     0.146 A 
ATOM     11  O   UNL     1      39.879  19.351  -7.132  1.00  0.00    -0.452 OA
ENDROOT
BRANCH   1  12
ATOM     12  C   UNL     1      38.313  21.159  -7.423  1.00  0.00     0.021 A 
ATOM     13  C   UNL     1      38.772  21.964  -8.479  1.00  0.00     0.016 A 
ATOM     14  C   UNL     1      37.869  22.694  -9.258  1.00  0.00     0.047 A 
ATOM     15  C   UNL     1      36.499  22.641  -8.982  1.00  0.00     0.115 A 
ATOM     16  C   UNL     1      36.935  21.127  -7.138  1.00  0.00     0.016 A 
ATOM     17  C   UNL     1      36.035  21.858  -7.918  1.00  0.00     0.047 A 
BRANCH  15  18
ATOM     18  O   UNL     1      35.611  23.373  -9.767  1.00  0.00    -0.508 OA
ATOM     19  H   UNL     1      34.711  22.995 -10.039  1.00  0.00     0.293 HD
ENDBRANCH  15  18
ENDBRANCH   1  12
BRANCH   2  20
ATOM     20  O   UNL     1      38.961  21.889  -4.694  1.00  0.00    -0.502 OA
ATOM     21  H   UNL     1      39.127  22.843  -4.992  1.00  0.00     0.293 HD
ENDBRANCH   2  20
BRANCH   6  22
ATOM     22  O   UNL     1      42.442  18.164  -3.154  1.00  0.00    -0.507 OA
ATOM     23  H   UNL     1      41.944  17.751  -2.381  1.00  0.00     0.293 HD
ENDBRANCH   6  22
BRANCH   8  24
ATOM     24  O   UNL     1      42.901  15.669  -7.210  1.00  0.00    -0.508 OA
ATOM     25  H   UNL     1      42.703  14.706  -6.962  1.00  0.00     0.293 HD
ENDBRANCH   8  24
TORSDOF 5
ENDMDL
MODEL 7
REMARK VINA RESULT:    -5.248      3.466      6.591
REMARK INTER + INTRA:          -6.370
REMARK INTER:                  -6.704
REMARK INTRA:                   0.334
REMARK UNBOUND:                -0.202
REMARK SMILES O=c1c(O)c(-c2ccc(O)cc2)oc2cc(O)cc(O)c12
REMARK SMILES IDX 5 1 3 2 2 3 1 4 21 5 19 6 18 7 16 8 15 9 14 10 13 11 6 12
REMARK SMILES IDX 7 13 8 14 9 15 12 16 11 17 10 18 4 20 20 22 17 24
REMARK H PARENT 10 19 4 21 20 23 17 25
REMARK Flexibility Score: inf
ROOT
ATOM      1  C   UNL     1      41.768  21.538  -0.324  1.00  0.00     0.180 A 
ATOM      2  C   UNL     1      41.207  22.599  -1.054  1.00  0.00     0.208 A 
ATOM      3  C   UNL     1      40.980  22.435  -2.430  1.00  0.00     0.238 A 
ATOM      4  O   UNL     1      40.408  23.362  -3.061  1.00  0.00    -0.285 OA
ATOM      5  C   UNL     1      41.368  21.232  -3.070  1.00  0.00     0.111 A 
ATOM      6  C   UNL     1      41.227  20.974  -4.467  1.00  0.00     0.134 A 
ATOM      7  C   UNL     1      41.548  19.708  -4.971  1.00  0.00     0.093 A 
ATOM      8  C   UNL     1      42.065  18.712  -4.142  1.00  0.00     0.123 A 
ATOM      9  C   UNL     1      42.259  18.972  -2.785  1.00  0.00     0.094 A 
ATOM     10  C   UNL     1      41.912  20.213  -2.246  1.00  0.00     0.146 A 
ATOM     11  O   UNL     1      42.092  20.410  -0.945  1.00  0.00    -0.452 OA
ENDROOT
BRANCH   1  12
ATOM     12  C   UNL     1      42.023  21.630   1.131  1.00  0.00     0.021 A 
ATOM     13  C   UNL     1      41.960  20.467   1.918  1.00  0.00     0.016 A 
ATOM     14  C   UNL     1      42.175  20.533   3.298  1.00  0.00     0.047 A 
ATOM     15  C   UNL     1      42.440  21.761   3.911  1.00  0.00     0.115 A 
ATOM     16  C   UNL     1      42.271  22.865   1.757  1.00  0.00     0.016 A 
ATOM     17  C   UNL     1      42.485  22.928   3.138  1.00  0.00     0.047 A 
BRANCH  15  18
ATOM     18  O   UNL     1      42.653  21.811   5.287  1.00  0.00    -0.508 OA
ATOM     19  H   UNL     1      43.497  22.215   5.677  1.00  0.00     0.293 HD
ENDBRANCH  15  18
ENDBRANCH   1  12
BRANCH   2  20
ATOM     20  O   UNL     1      40.902  23.806  -0.419  1.00  0.00    -0.502 OA
ATOM     21  H   UNL     1      40.421  24.563  -0.891  1.00  0.00     0.293 HD
ENDBRANCH   2  20
BRANCH   6  22
ATOM     22  O   UNL     1      40.803  21.925  -5.401  1.00  0.00    -0.507 OA
ATOM     23  H   UNL     1      40.221  22.720  -5.192  1.00  0.00     0.293 HD
ENDBRANCH   6  22
BRANCH   8  24
ATOM     24  O   UNL     1      42.391  17.470  -4.682  1.00  0.00    -0.508 OA
ATOM     25  H   UNL     1      43.081  17.376  -5.419  1.00  0.00     0.293 HD
ENDBRANCH   8  24
TORSDOF 5
ENDMDL
MODEL 8
REMARK VINA RESULT:    -5.200      7.129     11.585
REMARK INTER + INTRA:          -6.314
REMARK INTER:                  -6.034
REMARK INTRA:                  -0.280
REMARK UNBOUND:                -0.202
REMARK SMILES O=c1c(O)c(-c2ccc(O)cc2)oc2cc(O)cc(O)c12
REMARK SMILES IDX 5 1 3 2 2 3 1 4 21 5 19 6 18 7 16 8 15 9 14 10 13 11 6 12
REMARK SMILES IDX 7 13 8 14 9 15 12 16 11 17 10 18 4 20 20 22 17 24
REMARK H PARENT 10 19 4 21 20 23 17 25
REMARK Flexibility Score: inf
ROOT
ATOM      1  C   UNL     1      41.349  18.574  -5.502  1.00  0.00     0.180 A 
ATOM      2  C   UNL     1      40.267  19.419  -5.804  1.00  0.00     0.208 A 
ATOM      3  C   UNL     1      39.940  20.453  -4.913  1.00  0.00     0.238 A 
ATOM      4  O   UNL     1      39.019  21.251  -5.227  1.00  0.00    -0.285 OA
ATOM      5  C   UNL     1      40.663  20.596  -3.704  1.00  0.00     0.111 A 
ATOM      6  C   UNL     1      40.390  21.581  -2.705  1.00  0.00     0.134 A 
ATOM      7  C   UNL     1      41.239  21.695  -1.598  1.00  0.00     0.093 A 
ATOM      8  C   UNL     1      42.312  20.822  -1.418  1.00  0.00     0.123 A 
ATOM      9  C   UNL     1      42.555  19.821  -2.360  1.00  0.00     0.094 A 
ATOM     10  C   UNL     1      41.749  19.706  -3.495  1.00  0.00     0.146 A 
ATOM     11  O   UNL     1      42.029  18.754  -4.376  1.00  0.00    -0.452 OA
ENDROOT
BRANCH   1  12
ATOM     12  C   UNL     1      41.764  17.472  -6.399  1.00  0.00     0.021 A 
ATOM     13  C   UNL     1      42.610  17.749  -7.486  1.00  0.00     0.016 A 
ATOM     14  C   UNL     1      42.997  16.728  -8.360  1.00  0.00     0.047 A 
ATOM     15  C   UNL     1      42.532  15.424  -8.168  1.00  0.00     0.115 A 
ATOM     16  C   UNL     1      41.284  16.161  -6.223  1.00  0.00     0.016 A 
ATOM     17  C   UNL     1      41.672  15.143  -7.099  1.00  0.00     0.047 A 
BRANCH  15  18
ATOM     18  O   UNL     1      42.927  14.417  -9.046  1.00  0.00    -0.508 OA
ATOM     19  H   UNL     1      43.581  14.598  -9.799  1.00  0.00     0.293 HD
ENDBRANCH  15  18
ENDBRANCH   1  12
BRANCH   2  20
ATOM     20  O   UNL     1      39.518  19.213  -6.966  1.00  0.00    -0.502 OA
ATOM     21  H   UNL     1      39.856  19.475  -7.885  1.00  0.00     0.293 HD
ENDBRANCH   2  20
BRANCH   6  22
ATOM     22  O   UNL     1      39.293  22.447  -2.740  1.00  0.00    -0.507 OA
ATOM     23  H   UNL     1      38.897  22.911  -1.937  1.00  0.00     0.293 HD
ENDBRANCH   6  22
BRANCH   8  24
ATOM     24  O   UNL     1      43.125  20.955  -0.295  1.00  0.00    -0.508 OA
ATOM     25  H   UNL     1      43.242  20.195   0.366  1.00  0.00     0.293 HD
ENDBRANCH   8  24
TORSDOF 5
ENDMDL
MODEL 9
REMARK VINA RESULT:    -5.165      7.358     11.545
REMARK INTER + INTRA:          -6.273
REMARK INTER:                  -6.260
REMARK INTRA:                  -0.013
REMARK UNBOUND:                -0.202
REMARK SMILES O=c1c(O)c(-c2ccc(O)cc2)oc2cc(O)cc(O)c12
REMARK SMILES IDX 5 1 3 2 2 3 1 4 21 5 19 6 18 7 16 8 15 9 14 10 13 11 6 12
REMARK SMILES IDX 7 13 8 14 9 15 12 16 11 17 10 18 4 20 20 22 17 24
REMARK H PARENT 10 19 4 21 20 23 17 25
REMARK Flexibility Score: inf
ROOT
ATOM      1  C   UNL     1      40.974  19.633  -5.287  1.00  0.00     0.180 A 
ATOM      2  C   UNL     1      40.692  20.305  -6.488  1.00  0.00     0.208 A 
ATOM      3  C   UNL     1      40.602  19.566  -7.678  1.00  0.00     0.238 A 
ATOM      4  O   UNL     1      40.275  20.164  -8.736  1.00  0.00    -0.285 OA
ATOM      5  C   UNL     1      40.849  18.171  -7.661  1.00  0.00     0.111 A 
ATOM      6  C   UNL     1      40.830  17.329  -8.815  1.00  0.00     0.134 A 
ATOM      7  C   UNL     1      40.985  15.947  -8.663  1.00  0.00     0.093 A 
ATOM      8  C   UNL     1      41.223  15.381  -7.410  1.00  0.00     0.123 A 
ATOM      9  C   UNL     1      41.299  16.201  -6.284  1.00  0.00     0.094 A 
ATOM     10  C   UNL     1      41.110  17.580  -6.398  1.00  0.00     0.146 A 
ATOM     11  O   UNL     1      41.169  18.320  -5.298  1.00  0.00    -0.452 OA
ENDROOT
BRANCH   1  12
ATOM     12  C   UNL     1      41.069  20.342  -3.990  1.00  0.00     0.021 A 
ATOM     13  C   UNL     1      42.181  20.116  -3.161  1.00  0.00     0.016 A 
ATOM     14  C   UNL     1      42.282  20.757  -1.922  1.00  0.00     0.047 A 
ATOM     15  C   UNL     1      41.269  21.618  -1.491  1.00  0.00     0.115 A 
ATOM     16  C   UNL     1      40.043  21.193  -3.541  1.00  0.00     0.016 A 
ATOM     17  C   UNL     1      40.147  21.832  -2.302  1.00  0.00     0.047 A 
BRANCH  15  18
ATOM     18  O   UNL     1      41.383  22.250  -0.255  1.00  0.00    -0.508 OA
ATOM     19  H   UNL     1      40.633  22.818   0.121  1.00  0.00     0.293 HD
ENDBRANCH  15  18
ENDBRANCH   1  12
BRANCH   2  20
ATOM     20  O   UNL     1      40.526  21.693  -6.495  1.00  0.00    -0.502 OA
ATOM     21  H   UNL     1      39.640  22.135  -6.713  1.00  0.00     0.293 HD
ENDBRANCH   2  20
BRANCH   6  22
ATOM     22  O   UNL     1      40.687  17.799 -10.125  1.00  0.00    -0.507 OA
ATOM     23  H   UNL     1      39.818  17.839 -10.633  1.00  0.00     0.293 HD
ENDBRANCH   6  22
BRANCH   8  24
ATOM     24  O   UNL     1      41.391  14.002  -7.300  1.00  0.00    -0.508 OA
ATOM     25  H   UNL     1      42.272  13.598  -7.003  1.00  0.00     0.293 HD
ENDBRANCH   8  24
TORSDOF 5
ENDMDL
