MODEL 1
REMARK VINA RESULT:    -3.915      0.000      0.000
REMARK INTER + INTRA:          -9.168
REMARK INTER:                  -7.347
REMARK INTRA:                  -1.821
REMARK UNBOUND:                -1.821
REMARK SMILES O=C([O-])CCCCCCCCCCCCCCC(=O)[O-]
REMARK SMILES IDX 10 1 9 2 8 3 7 4 6 5 5 6 4 7 2 8 1 9 3 10 11 11 12 12 13 13
REMARK SMILES IDX 14 14 15 15 16 16 17 17 18 18 19 19 20 20
REMARK H PARENT
REMARK Flexibility Score: inf
ROOT
ATOM      1  C   UNL     1      17.822  14.605  30.589  1.00  0.00     0.000 C 
ENDROOT
BRANCH   1   2
ATOM      2  C   UNL     1      16.927  15.840  30.381  1.00  0.00     0.000 C 
BRANCH   2   3
ATOM      3  C   UNL     1      15.940  15.750  29.200  1.00  0.00     0.000 C 
BRANCH   3   4
ATOM      4  C   UNL     1      16.171  14.571  28.238  1.00  0.00     0.000 C 
BRANCH   4   5
ATOM      5  C   UNL     1      16.800  15.005  26.902  1.00  0.00     0.000 C 
BRANCH   5   6
ATOM      6  C   UNL     1      16.030  16.153  26.232  1.00  0.00     0.006 C 
BRANCH   6   7
ATOM      7  C   UNL     1      16.329  16.272  24.731  1.00  0.00     0.053 C 
BRANCH   7   8
ATOM      8  C   UNL     1      15.875  15.042  24.011  1.00  0.00     0.041 C 
ATOM      9  O   UNL     1      16.678  14.397  23.287  1.00  0.00    -0.550 OA
ATOM     10  O   UNL     1      14.576  14.577  24.179  1.00  0.00    -0.550 OA
ENDBRANCH   7   8
ENDBRANCH   6   7
ENDBRANCH   5   6
ENDBRANCH   4   5
ENDBRANCH   3   4
ENDBRANCH   2   3
ENDBRANCH   1   2
BRANCH   1  11
ATOM     11  C   UNL     1      17.908  14.171  32.061  1.00  0.00     0.000 C 
BRANCH  11  12
ATOM     12  C   UNL     1      17.291  12.783  32.313  1.00  0.00     0.000 C 
BRANCH  12  13
ATOM     13  C   UNL     1      16.383  12.249  31.185  1.00  0.00     0.000 C 
BRANCH  13  14
ATOM     14  C   UNL     1      14.890  12.134  31.541  1.00  0.00     0.000 C 
BRANCH  14  15
ATOM     15  C   UNL     1      14.094  13.405  31.197  1.00  0.00     0.000 C 
BRANCH  15  16
ATOM     16  C   UNL     1      12.866  13.118  30.313  1.00  0.00     0.006 C 
BRANCH  16  17
ATOM     17  C   UNL     1      12.512  14.245  29.329  1.00  0.00     0.053 C 
BRANCH  17  18
ATOM     18  C   UNL     1      11.255  14.959  29.722  1.00  0.00     0.041 C 
ATOM     19  O   UNL     1      11.037  15.240  30.929  1.00  0.00    -0.550 OA
ATOM     20  O   UNL     1      10.342  15.346  28.750  1.00  0.00    -0.550 OA
ENDBRANCH  17  18
ENDBRANCH  16  17
ENDBRANCH  15  16
ENDBRANCH  14  15
ENDBRANCH  13  14
ENDBRANCH  12  13
ENDBRANCH  11  12
ENDBRANCH   1  11
TORSDOF 15
ENDMDL
MODEL 2
REMARK VINA RESULT:    -3.741      2.911      4.295
REMARK INTER + INTRA:          -8.842
REMARK INTER:                  -6.381
REMARK INTRA:                  -2.461
REMARK UNBOUND:                -1.821
REMARK SMILES O=C([O-])CCCCCCCCCCCCCCC(=O)[O-]
REMARK SMILES IDX 10 1 9 2 8 3 7 4 6 5 5 6 4 7 2 8 1 9 3 10 11 11 12 12 13 13
REMARK SMILES IDX 14 14 15 15 16 16 17 17 18 18 19 19 20 20
REMARK H PARENT
REMARK Flexibility Score: inf
ROOT
ATOM      1  C   UNL     1      16.696  13.175  31.643  1.00  0.00     0.000 C 
ENDROOT
BRANCH   1   2
ATOM      2  C   UNL     1      16.663  14.574  31.004  1.00  0.00     0.000 C 
BRANCH   2   3
ATOM      3  C   UNL     1      15.636  14.758  29.868  1.00  0.00     0.000 C 
BRANCH   3   4
ATOM      4  C   UNL     1      16.066  15.717  28.743  1.00  0.00     0.000 C 
BRANCH   4   5
ATOM      5  C   UNL     1      15.730  15.180  27.341  1.00  0.00     0.000 C 
BRANCH   5   6
ATOM      6  C   UNL     1      16.167  16.137  26.222  1.00  0.00     0.006 C 
BRANCH   6   7
ATOM      7  C   UNL     1      17.630  15.931  25.804  1.00  0.00     0.053 C 
BRANCH   7   8
ATOM      8  C   UNL     1      17.719  14.925  24.701  1.00  0.00     0.041 C 
ATOM      9  O   UNL     1      18.728  14.177  24.605  1.00  0.00    -0.550 OA
ATOM     10  O   UNL     1      16.665  14.773  23.809  1.00  0.00    -0.550 OA
ENDBRANCH   7   8
ENDBRANCH   6   7
ENDBRANCH   5   6
ENDBRANCH   4   5
ENDBRANCH   3   4
ENDBRANCH   2   3
ENDBRANCH   1   2
BRANCH   1  11
ATOM     11  C   UNL     1      17.925  12.958  32.542  1.00  0.00     0.000 C 
BRANCH  11  12
ATOM     12  C   UNL     1      18.889  14.158  32.536  1.00  0.00     0.000 C 
BRANCH  12  13
ATOM     13  C   UNL     1      20.309  13.863  32.010  1.00  0.00     0.000 C 
BRANCH  13  14
ATOM     14  C   UNL     1      20.378  13.302  30.579  1.00  0.00     0.000 C 
BRANCH  14  15
ATOM     15  C   UNL     1      19.902  14.310  29.519  1.00  0.00     0.000 C 
BRANCH  15  16
ATOM     16  C   UNL     1      19.094  13.648  28.388  1.00  0.00     0.006 C 
BRANCH  16  17
ATOM     17  C   UNL     1      18.633  12.213  28.690  1.00  0.00     0.053 C 
BRANCH  17  18
ATOM     18  C   UNL     1      17.357  11.872  27.984  1.00  0.00     0.041 C 
ATOM     19  O   UNL     1      16.352  11.493  28.640  1.00  0.00    -0.550 OA
ATOM     20  O   UNL     1      17.268  12.004  26.604  1.00  0.00    -0.550 OA
ENDBRANCH  17  18
ENDBRANCH  16  17
ENDBRANCH  15  16
ENDBRANCH  14  15
ENDBRANCH  13  14
ENDBRANCH  12  13
ENDBRANCH  11  12
ENDBRANCH   1  11
TORSDOF 15
ENDMDL
MODEL 3
REMARK VINA RESULT:    -3.734      1.359      5.562
REMARK INTER + INTRA:          -8.829
REMARK INTER:                  -6.752
REMARK INTRA:                  -2.077
REMARK UNBOUND:                -1.821
REMARK SMILES O=C([O-])CCCCCCCCCCCCCCC(=O)[O-]
REMARK SMILES IDX 10 1 9 2 8 3 7 4 6 5 5 6 4 7 2 8 1 9 3 10 11 11 12 12 13 13
REMARK SMILES IDX 14 14 15 15 16 16 17 17 18 18 19 19 20 20
REMARK H PARENT
REMARK Flexibility Score: inf
ROOT
ATOM      1  C   UNL     1      18.378  13.721  30.626  1.00  0.00     0.000 C 
ENDROOT
BRANCH   1   2
ATOM      2  C   UNL     1      17.350  14.682  31.250  1.00  0.00     0.000 C 
BRANCH   2   3
ATOM      3  C   UNL     1      16.979  15.905  30.387  1.00  0.00     0.000 C 
BRANCH   3   4
ATOM      4  C   UNL     1      15.877  15.662  29.340  1.00  0.00     0.000 C 
BRANCH   4   5
ATOM      5  C   UNL     1      14.932  14.510  29.725  1.00  0.00     0.000 C 
BRANCH   5   6
ATOM      6  C   UNL     1      13.833  14.273  28.679  1.00  0.00     0.006 C 
BRANCH   6   7
ATOM      7  C   UNL     1      12.590  13.593  29.269  1.00  0.00     0.053 C 
BRANCH   7   8
ATOM      8  C   UNL     1      11.595  14.619  29.710  1.00  0.00     0.041 C 
ATOM      9  O   UNL     1      11.554  14.987  30.914  1.00  0.00    -0.550 OA
ATOM     10  O   UNL     1      10.745  15.209  28.783  1.00  0.00    -0.550 OA
ENDBRANCH   7   8
ENDBRANCH   6   7
ENDBRANCH   5   6
ENDBRANCH   4   5
ENDBRANCH   3   4
ENDBRANCH   2   3
ENDBRANCH   1   2
BRANCH   1  11
ATOM     11  C   UNL     1      19.583  14.454  30.013  1.00  0.00     0.000 C 
BRANCH  11  12
ATOM     12  C   UNL     1      19.634  14.339  28.479  1.00  0.00     0.000 C 
BRANCH  12  13
ATOM     13  C   UNL     1      18.687  13.288  27.862  1.00  0.00     0.000 C 
BRANCH  13  14
ATOM     14  C   UNL     1      17.789  13.799  26.722  1.00  0.00     0.000 C 
BRANCH  14  15
ATOM     15  C   UNL     1      18.045  15.276  26.377  1.00  0.00     0.000 C 
BRANCH  15  16
ATOM     16  C   UNL     1      16.870  15.924  25.621  1.00  0.00     0.006 C 
BRANCH  16  17
ATOM     17  C   UNL     1      15.620  15.037  25.506  1.00  0.00     0.053 C 
BRANCH  17  18
ATOM     18  C   UNL     1      15.265  14.748  24.080  1.00  0.00     0.041 C 
ATOM     19  O   UNL     1      14.106  14.357  23.783  1.00  0.00    -0.550 OA
ATOM     20  O   UNL     1      16.204  14.942  23.076  1.00  0.00    -0.550 OA
ENDBRANCH  17  18
ENDBRANCH  16  17
ENDBRANCH  15  16
ENDBRANCH  14  15
ENDBRANCH  13  14
ENDBRANCH  12  13
ENDBRANCH  11  12
ENDBRANCH   1  11
TORSDOF 15
ENDMDL
MODEL 4
REMARK VINA RESULT:    -3.734      3.351      6.631
REMARK INTER + INTRA:          -8.828
REMARK INTER:                  -7.543
REMARK INTRA:                  -1.285
REMARK UNBOUND:                -1.821
REMARK SMILES O=C([O-])CCCCCCCCCCCCCCC(=O)[O-]
REMARK SMILES IDX 10 1 9 2 8 3 7 4 6 5 5 6 4 7 2 8 1 9 3 10 11 11 12 12 13 13
REMARK SMILES IDX 14 14 15 15 16 16 17 17 18 18 19 19 20 20
REMARK H PARENT
REMARK Flexibility Score: inf
ROOT
ATOM      1  C   UNL     1      12.159  13.971  31.000  1.00  0.00     0.000 C 
ENDROOT
BRANCH   1   2
ATOM      2  C   UNL     1      10.967  14.909  30.744  1.00  0.00     0.000 C 
BRANCH   2   3
ATOM      3  C   UNL     1       9.609  14.210  30.528  1.00  0.00     0.000 C 
BRANCH   3   4
ATOM      4  C   UNL     1       9.033  14.318  29.105  1.00  0.00     0.000 C 
BRANCH   4   5
ATOM      5  C   UNL     1       9.712  15.416  28.268  1.00  0.00     0.000 C 
BRANCH   5   6
ATOM      6  C   UNL     1       8.941  15.737  26.979  1.00  0.00     0.006 C 
BRANCH   6   7
ATOM      7  C   UNL     1       7.884  16.833  27.178  1.00  0.00     0.053 C 
BRANCH   7   8
ATOM      8  C   UNL     1       8.311  18.096  26.500  1.00  0.00     0.041 C 
ATOM      9  O   UNL     1       8.246  19.196  27.110  1.00  0.00    -0.550 OA
ATOM     10  O   UNL     1       8.829  18.054  25.211  1.00  0.00    -0.550 OA
ENDBRANCH   7   8
ENDBRANCH   6   7
ENDBRANCH   5   6
ENDBRANCH   4   5
ENDBRANCH   3   4
ENDBRANCH   2   3
ENDBRANCH   1   2
BRANCH   1  11
ATOM     11  C   UNL     1      13.422  14.385  30.226  1.00  0.00     0.000 C 
BRANCH  11  12
ATOM     12  C   UNL     1      13.305  14.131  28.712  1.00  0.00     0.000 C 
BRANCH  12  13
ATOM     13  C   UNL     1      14.552  13.508  28.048  1.00  0.00     0.000 C 
BRANCH  13  14
ATOM     14  C   UNL     1      15.406  14.478  27.212  1.00  0.00     0.000 C 
BRANCH  14  15
ATOM     15  C   UNL     1      15.936  15.666  28.033  1.00  0.00     0.000 C 
BRANCH  15  16
ATOM     16  C   UNL     1      17.137  15.288  28.920  1.00  0.00     0.006 C 
BRANCH  16  17
ATOM     17  C   UNL     1      16.923  15.537  30.422  1.00  0.00     0.053 C 
BRANCH  17  18
ATOM     18  C   UNL     1      17.184  14.308  31.238  1.00  0.00     0.041 C 
ATOM     19  O   UNL     1      16.577  13.236  30.980  1.00  0.00    -0.550 OA
ATOM     20  O   UNL     1      18.122  14.339  32.261  1.00  0.00    -0.550 OA
ENDBRANCH  17  18
ENDBRANCH  16  17
ENDBRANCH  15  16
ENDBRANCH  14  15
ENDBRANCH  13  14
ENDBRANCH  12  13
ENDBRANCH  11  12
ENDBRANCH   1  11
TORSDOF 15
ENDMDL
MODEL 5
REMARK VINA RESULT:    -3.660      1.885      2.589
REMARK INTER + INTRA:          -8.691
REMARK INTER:                  -6.301
REMARK INTRA:                  -2.390
REMARK UNBOUND:                -1.821
REMARK SMILES O=C([O-])CCCCCCCCCCCCCCC(=O)[O-]
REMARK SMILES IDX 10 1 9 2 8 3 7 4 6 5 5 6 4 7 2 8 1 9 3 10 11 11 12 12 13 13
REMARK SMILES IDX 14 14 15 15 16 16 17 17 18 18 19 19 20 20
REMARK H PARENT
REMARK Flexibility Score: inf
ROOT
ATOM      1  C   UNL     1      17.827  13.207  30.899  1.00  0.00     0.000 C 
ENDROOT
BRANCH   1   2
ATOM      2  C   UNL     1      17.378  14.614  31.332  1.00  0.00     0.000 C 
BRANCH   2   3
ATOM      3  C   UNL     1      17.222  15.639  30.190  1.00  0.00     0.000 C 
BRANCH   3   4
ATOM      4  C   UNL     1      15.838  15.667  29.518  1.00  0.00     0.000 C 
BRANCH   4   5
ATOM      5  C   UNL     1      15.921  15.707  27.982  1.00  0.00     0.000 C 
BRANCH   5   6
ATOM      6  C   UNL     1      15.832  14.310  27.349  1.00  0.00     0.006 C 
BRANCH   6   7
ATOM      7  C   UNL     1      17.205  13.640  27.196  1.00  0.00     0.053 C 
BRANCH   7   8
ATOM      8  C   UNL     1      18.154  14.553  26.487  1.00  0.00     0.041 C 
ATOM      9  O   UNL     1      17.959  14.858  25.281  1.00  0.00    -0.550 OA
ATOM     10  O   UNL     1      19.227  15.110  27.172  1.00  0.00    -0.550 OA
ENDBRANCH   7   8
ENDBRANCH   6   7
ENDBRANCH   5   6
ENDBRANCH   4   5
ENDBRANCH   3   4
ENDBRANCH   2   3
ENDBRANCH   1   2
BRANCH   1  11
ATOM     11  C   UNL     1      16.645  12.258  30.639  1.00  0.00     0.000 C 
BRANCH  11  12
ATOM     12  C   UNL     1      15.568  12.331  31.736  1.00  0.00     0.000 C 
BRANCH  12  13
ATOM     13  C   UNL     1      14.193  12.860  31.278  1.00  0.00     0.000 C 
BRANCH  13  14
ATOM     14  C   UNL     1      13.752  12.418  29.872  1.00  0.00     0.000 C 
BRANCH  14  15
ATOM     15  C   UNL     1      12.718  13.369  29.244  1.00  0.00     0.000 C 
BRANCH  15  16
ATOM     16  C   UNL     1      12.468  14.625  30.100  1.00  0.00     0.006 C 
BRANCH  16  17
ATOM     17  C   UNL     1      10.989  14.894  30.421  1.00  0.00     0.053 C 
BRANCH  17  18
ATOM     18  C   UNL     1      10.574  14.273  31.719  1.00  0.00     0.041 C 
ATOM     19  O   UNL     1      11.319  14.360  32.730  1.00  0.00    -0.550 OA
ATOM     20  O   UNL     1       9.349  13.627  31.821  1.00  0.00    -0.550 OA
ENDBRANCH  17  18
ENDBRANCH  16  17
ENDBRANCH  15  16
ENDBRANCH  14  15
ENDBRANCH  13  14
ENDBRANCH  12  13
ENDBRANCH  11  12
ENDBRANCH   1  11
TORSDOF 15
ENDMDL
MODEL 6
REMARK VINA RESULT:    -3.647      1.857      2.967
REMARK INTER + INTRA:          -8.666
REMARK INTER:                  -6.354
REMARK INTRA:                  -2.312
REMARK UNBOUND:                -1.821
REMARK SMILES O=C([O-])CCCCCCCCCCCCCCC(=O)[O-]
REMARK SMILES IDX 10 1 9 2 8 3 7 4 6 5 5 6 4 7 2 8 1 9 3 10 11 11 12 12 13 13
REMARK SMILES IDX 14 14 15 15 16 16 17 17 18 18 19 19 20 20
REMARK H PARENT
REMARK Flexibility Score: inf
ROOT
ATOM      1  C   UNL     1      18.810  13.137  28.672  1.00  0.00     0.000 C 
ENDROOT
BRANCH   1   2
ATOM      2  C   UNL     1      18.468  13.665  27.268  1.00  0.00     0.000 C 
BRANCH   2   3
ATOM      3  C   UNL     1      18.696  15.176  27.057  1.00  0.00     0.000 C 
BRANCH   3   4
ATOM      4  C   UNL     1      18.092  15.757  25.766  1.00  0.00     0.000 C 
BRANCH   4   5
ATOM      5  C   UNL     1      16.580  16.019  25.879  1.00  0.00     0.000 C 
BRANCH   5   6
ATOM      6  C   UNL     1      15.890  16.098  24.510  1.00  0.00     0.006 C 
BRANCH   6   7
ATOM      7  C   UNL     1      16.205  14.891  23.616  1.00  0.00     0.053 C 
BRANCH   7   8
ATOM      8  C   UNL     1      15.135  13.854  23.746  1.00  0.00     0.041 C 
ATOM      9  O   UNL     1      14.008  14.161  24.214  1.00  0.00    -0.550 OA
ATOM     10  O   UNL     1      15.364  12.558  23.301  1.00  0.00    -0.550 OA
ENDBRANCH   7   8
ENDBRANCH   6   7
ENDBRANCH   5   6
ENDBRANCH   4   5
ENDBRANCH   3   4
ENDBRANCH   2   3
ENDBRANCH   1   2
BRANCH   1  11
ATOM     11  C   UNL     1      19.366  14.228  29.602  1.00  0.00     0.000 C 
BRANCH  11  12
ATOM     12  C   UNL     1      18.809  14.134  31.034  1.00  0.00     0.000 C 
BRANCH  12  13
ATOM     13  C   UNL     1      17.363  14.642  31.216  1.00  0.00     0.000 C 
BRANCH  13  14
ATOM     14  C   UNL     1      17.020  15.937  30.458  1.00  0.00     0.000 C 
BRANCH  14  15
ATOM     15  C   UNL     1      15.897  15.744  29.425  1.00  0.00     0.000 C 
BRANCH  15  16
ATOM     16  C   UNL     1      15.201  14.375  29.550  1.00  0.00     0.006 C 
BRANCH  16  17
ATOM     17  C   UNL     1      14.828  13.725  28.209  1.00  0.00     0.053 C 
BRANCH  17  18
ATOM     18  C   UNL     1      13.346  13.678  28.000  1.00  0.00     0.041 C 
ATOM     19  O   UNL     1      12.856  12.956  27.093  1.00  0.00    -0.550 OA
ATOM     20  O   UNL     1      12.502  14.407  28.829  1.00  0.00    -0.550 OA
ENDBRANCH  17  18
ENDBRANCH  16  17
ENDBRANCH  15  16
ENDBRANCH  14  15
ENDBRANCH  13  14
ENDBRANCH  12  13
ENDBRANCH  11  12
ENDBRANCH   1  11
TORSDOF 15
ENDMDL
MODEL 7
REMARK VINA RESULT:    -3.634      1.960      6.333
REMARK INTER + INTRA:          -8.642
REMARK INTER:                  -6.191
REMARK INTRA:                  -2.451
REMARK UNBOUND:                -1.821
REMARK SMILES O=C([O-])CCCCCCCCCCCCCCC(=O)[O-]
REMARK SMILES IDX 10 1 9 2 8 3 7 4 6 5 5 6 4 7 2 8 1 9 3 10 11 11 12 12 13 13
REMARK SMILES IDX 14 14 15 15 16 16 17 17 18 18 19 19 20 20
REMARK H PARENT
REMARK Flexibility Score: inf
ROOT
ATOM      1  C   UNL     1      15.416  11.597  29.280  1.00  0.00     0.000 C 
ENDROOT
BRANCH   1   2
ATOM      2  C   UNL     1      15.243  12.033  27.815  1.00  0.00     0.000 C 
BRANCH   2   3
ATOM      3  C   UNL     1      13.890  12.692  27.477  1.00  0.00     0.000 C 
BRANCH   3   4
ATOM      4  C   UNL     1      12.854  12.688  28.615  1.00  0.00     0.000 C 
BRANCH   4   5
ATOM      5  C   UNL     1      12.316  14.094  28.936  1.00  0.00     0.000 C 
BRANCH   5   6
ATOM      6  C   UNL     1      12.559  14.499  30.398  1.00  0.00     0.006 C 
BRANCH   6   7
ATOM      7  C   UNL     1      12.729  13.291  31.329  1.00  0.00     0.053 C 
BRANCH   7   8
ATOM      8  C   UNL     1      11.718  13.336  32.430  1.00  0.00     0.041 C 
ATOM      9  O   UNL     1      11.348  14.442  32.906  1.00  0.00    -0.550 OA
ATOM     10  O   UNL     1      11.143  12.161  32.897  1.00  0.00    -0.550 OA
ENDBRANCH   7   8
ENDBRANCH   6   7
ENDBRANCH   5   6
ENDBRANCH   4   5
ENDBRANCH   3   4
ENDBRANCH   2   3
ENDBRANCH   1   2
BRANCH   1  11
ATOM     11  C   UNL     1      16.642  12.238  29.953  1.00  0.00     0.000 C 
BRANCH  11  12
ATOM     12  C   UNL     1      16.267  13.371  30.923  1.00  0.00     0.000 C 
BRANCH  12  13
ATOM     13  C   UNL     1      17.317  14.493  31.068  1.00  0.00     0.000 C 
BRANCH  13  14
ATOM     14  C   UNL     1      17.092  15.724  30.172  1.00  0.00     0.000 C 
BRANCH  14  15
ATOM     15  C   UNL     1      15.775  15.653  29.379  1.00  0.00     0.000 C 
BRANCH  15  16
ATOM     16  C   UNL     1      15.994  15.703  27.855  1.00  0.00     0.006 C 
BRANCH  16  17
ATOM     17  C   UNL     1      17.336  15.119  27.385  1.00  0.00     0.053 C 
BRANCH  17  18
ATOM     18  C   UNL     1      17.752  15.667  26.054  1.00  0.00     0.041 C 
ATOM     19  O   UNL     1      18.871  15.362  25.565  1.00  0.00    -0.550 OA
ATOM     20  O   UNL     1      16.889  16.487  25.339  1.00  0.00    -0.550 OA
ENDBRANCH  17  18
ENDBRANCH  16  17
ENDBRANCH  15  16
ENDBRANCH  14  15
ENDBRANCH  13  14
ENDBRANCH  12  13
ENDBRANCH  11  12
ENDBRANCH   1  11
TORSDOF 15
ENDMDL
MODEL 8
REMARK VINA RESULT:    -3.634      2.362      7.322
REMARK INTER + INTRA:          -8.641
REMARK INTER:                  -6.911
REMARK INTRA:                  -1.730
REMARK UNBOUND:                -1.821
REMARK SMILES O=C([O-])CCCCCCCCCCCCCCC(=O)[O-]
REMARK SMILES IDX 10 1 9 2 8 3 7 4 6 5 5 6 4 7 2 8 1 9 3 10 11 11 12 12 13 13
REMARK SMILES IDX 14 14 15 15 16 16 17 17 18 18 19 19 20 20
REMARK H PARENT
REMARK Flexibility Score: inf
ROOT
ATOM      1  C   UNL     1      14.441  12.433  29.979  1.00  0.00     0.000 C 
ENDROOT
BRANCH   1   2
ATOM      2  C   UNL     1      13.326  13.270  29.326  1.00  0.00     0.000 C 
BRANCH   2   3
ATOM      3  C   UNL     1      12.886  14.518  30.118  1.00  0.00     0.000 C 
BRANCH   3   4
ATOM      4  C   UNL     1      11.369  14.776  30.148  1.00  0.00     0.000 C 
BRANCH   4   5
ATOM      5  C   UNL     1      10.793  14.784  31.575  1.00  0.00     0.000 C 
BRANCH   5   6
ATOM      6  C   UNL     1      11.674  14.016  32.572  1.00  0.00     0.006 C 
BRANCH   6   7
ATOM      7  C   UNL     1      10.941  12.835  33.223  1.00  0.00     0.053 C 
BRANCH   7   8
ATOM      8  C   UNL     1      10.718  13.100  34.678  1.00  0.00     0.041 C 
ATOM      9  O   UNL     1       9.671  12.688  35.245  1.00  0.00    -0.550 OA
ATOM     10  O   UNL     1      11.689  13.758  35.423  1.00  0.00    -0.550 OA
ENDBRANCH   7   8
ENDBRANCH   6   7
ENDBRANCH   5   6
ENDBRANCH   4   5
ENDBRANCH   3   4
ENDBRANCH   2   3
ENDBRANCH   1   2
BRANCH   1  11
ATOM     11  C   UNL     1      15.090  13.138  31.181  1.00  0.00     0.000 C 
BRANCH  11  12
ATOM     12  C   UNL     1      16.589  13.418  30.972  1.00  0.00     0.000 C 
BRANCH  12  13
ATOM     13  C   UNL     1      16.982  14.909  30.913  1.00  0.00     0.000 C 
BRANCH  13  14
ATOM     14  C   UNL     1      16.375  15.703  29.742  1.00  0.00     0.000 C 
BRANCH  14  15
ATOM     15  C   UNL     1      16.649  15.054  28.375  1.00  0.00     0.000 C 
BRANCH  15  16
ATOM     16  C   UNL     1      15.626  15.471  27.302  1.00  0.00     0.006 C 
BRANCH  16  17
ATOM     17  C   UNL     1      16.215  16.297  26.147  1.00  0.00     0.053 C 
BRANCH  17  18
ATOM     18  C   UNL     1      16.261  15.520  24.867  1.00  0.00     0.041 C 
ATOM     19  O   UNL     1      15.220  15.383  24.172  1.00  0.00    -0.550 OA
ATOM     20  O   UNL     1      17.460  14.977  24.425  1.00  0.00    -0.550 OA
ENDBRANCH  17  18
ENDBRANCH  16  17
ENDBRANCH  15  16
ENDBRANCH  14  15
ENDBRANCH  13  14
ENDBRANCH  12  13
ENDBRANCH  11  12
ENDBRANCH   1  11
TORSDOF 15
ENDMDL
MODEL 9
REMARK VINA RESULT:    -3.623      3.341      4.949
REMARK INTER + INTRA:          -8.622
REMARK INTER:                  -6.502
REMARK INTRA:                  -2.119
REMARK UNBOUND:                -1.821
REMARK SMILES O=C([O-])CCCCCCCCCCCCCCC(=O)[O-]
REMARK SMILES IDX 10 1 9 2 8 3 7 4 6 5 5 6 4 7 2 8 1 9 3 10 11 11 12 12 13 13
REMARK SMILES IDX 14 14 15 15 16 16 17 17 18 18 19 19 20 20
REMARK H PARENT
REMARK Flexibility Score: inf
ROOT
ATOM      1  C   UNL     1      16.733  13.782  31.251  1.00  0.00     0.000 C 
ENDROOT
BRANCH   1   2
ATOM      2  C   UNL     1      17.286  15.186  30.947  1.00  0.00     0.000 C 
BRANCH   2   3
ATOM      3  C   UNL     1      16.416  16.051  30.013  1.00  0.00     0.000 C 
BRANCH   3   4
ATOM      4  C   UNL     1      15.567  15.270  28.995  1.00  0.00     0.000 C 
BRANCH   4   5
ATOM      5  C   UNL     1      15.816  15.716  27.543  1.00  0.00     0.000 C 
BRANCH   5   6
ATOM      6  C   UNL     1      15.710  14.555  26.542  1.00  0.00     0.006 C 
BRANCH   6   7
ATOM      7  C   UNL     1      15.898  15.007  25.088  1.00  0.00     0.053 C 
BRANCH   7   8
ATOM      8  C   UNL     1      16.767  14.039  24.350  1.00  0.00     0.041 C 
ATOM      9  O   UNL     1      17.371  14.398  23.305  1.00  0.00    -0.550 OA
ATOM     10  O   UNL     1      16.954  12.754  24.845  1.00  0.00    -0.550 OA
ENDBRANCH   7   8
ENDBRANCH   6   7
ENDBRANCH   5   6
ENDBRANCH   4   5
ENDBRANCH   3   4
ENDBRANCH   2   3
ENDBRANCH   1   2
BRANCH   1  11
ATOM     11  C   UNL     1      17.577  13.019  32.286  1.00  0.00     0.000 C 
BRANCH  11  12
ATOM     12  C   UNL     1      18.857  13.774  32.686  1.00  0.00     0.000 C 
BRANCH  12  13
ATOM     13  C   UNL     1      20.179  13.031  32.398  1.00  0.00     0.000 C 
BRANCH  13  14
ATOM     14  C   UNL     1      20.296  12.415  30.993  1.00  0.00     0.000 C 
BRANCH  14  15
ATOM     15  C   UNL     1      20.664  13.450  29.916  1.00  0.00     0.000 C 
BRANCH  15  16
ATOM     16  C   UNL     1      19.820  13.304  28.637  1.00  0.00     0.006 C 
BRANCH  16  17
ATOM     17  C   UNL     1      19.258  14.626  28.090  1.00  0.00     0.053 C 
BRANCH  17  18
ATOM     18  C   UNL     1      19.518  14.783  26.623  1.00  0.00     0.041 C 
ATOM     19  O   UNL     1      19.974  13.820  25.954  1.00  0.00    -0.550 OA
ATOM     20  O   UNL     1      19.225  15.984  25.989  1.00  0.00    -0.550 OA
ENDBRANCH  17  18
ENDBRANCH  16  17
ENDBRANCH  15  16
ENDBRANCH  14  15
ENDBRANCH  13  14
ENDBRANCH  12  13
ENDBRANCH  11  12
ENDBRANCH   1  11
TORSDOF 15
ENDMDL
