MODEL 1
REMARK VINA RESULT:    -4.181      0.000      0.000
REMARK INTER + INTRA:          -4.181
REMARK INTER:                  -4.181
REMARK INTRA:                   0.000
REMARK UNBOUND:                 0.000
REMARK SMILES O=c1ccc2ccccc2o1
REMARK SMILES IDX 7 1 8 2 9 3 10 4 5 5 6 6 4 7 3 8 2 9 1 10 11 11
REMARK H PARENT
REMARK Flexibility Score: inf
ROOT
ATOM      1  C   UNL     1      72.265  37.721  18.875  1.00  0.00     0.001 A 
ATOM      2  C   UNL     1      71.351  37.960  19.907  1.00  0.00     0.004 A 
ATOM      3  C   UNL     1      71.713  38.757  20.998  1.00  0.00     0.048 A 
ATOM      4  C   UNL     1      72.993  39.318  21.061  1.00  0.00     0.138 A 
ATOM      5  C   UNL     1      73.918  39.076  20.019  1.00  0.00     0.018 A 
ATOM      6  C   UNL     1      73.547  38.276  18.928  1.00  0.00     0.012 A 
ATOM      7  C   UNL     1      75.189  39.648  20.110  1.00  0.00     0.019 A 
ATOM      8  C   UNL     1      75.508  40.436  21.216  1.00  0.00     0.094 A 
ATOM      9  C   UNL     1      74.542  40.633  22.210  1.00  0.00     0.336 A 
ATOM     10  O   UNL     1      74.811  41.339  23.216  1.00  0.00    -0.246 OA
ATOM     11  O   UNL     1      73.339  40.075  22.100  1.00  0.00    -0.423 OA
ENDROOT
TORSDOF 0
ENDMDL
MODEL 2
REMARK VINA RESULT:    -4.120      1.836      4.328
REMARK INTER + INTRA:          -4.120
REMARK INTER:                  -4.120
REMARK INTRA:                   0.000
REMARK UNBOUND:                 0.000
REMARK SMILES O=c1ccc2ccccc2o1
REMARK SMILES IDX 7 1 8 2 9 3 10 4 5 5 6 6 4 7 3 8 2 9 1 10 11 11
REMARK H PARENT
REMARK Flexibility Score: inf
ROOT
ATOM      1  C   UNL     1      74.306  41.441  22.498  1.00  0.00     0.001 A 
ATOM      2  C   UNL     1      75.388  40.876  21.816  1.00  0.00     0.004 A 
ATOM      3  C   UNL     1      75.187  39.806  20.937  1.00  0.00     0.048 A 
ATOM      4  C   UNL     1      73.899  39.297  20.738  1.00  0.00     0.138 A 
ATOM      5  C   UNL     1      72.805  39.866  21.428  1.00  0.00     0.018 A 
ATOM      6  C   UNL     1      73.014  40.939  22.307  1.00  0.00     0.012 A 
ATOM      7  C   UNL     1      71.530  39.336  21.210  1.00  0.00     0.019 A 
ATOM      8  C   UNL     1      71.374  38.269  20.325  1.00  0.00     0.094 A 
ATOM      9  C   UNL     1      72.504  37.756  19.677  1.00  0.00     0.336 A 
ATOM     10  O   UNL     1      72.385  36.792  18.876  1.00  0.00    -0.246 OA
ATOM     11  O   UNL     1      73.707  38.278  19.904  1.00  0.00    -0.423 OA
ENDROOT
TORSDOF 0
ENDMDL
MODEL 3
REMARK VINA RESULT:    -4.038      1.006      2.122
REMARK INTER + INTRA:          -4.038
REMARK INTER:                  -4.038
REMARK INTRA:                   0.000
REMARK UNBOUND:                 0.000
REMARK SMILES O=c1ccc2ccccc2o1
REMARK SMILES IDX 7 1 8 2 9 3 10 4 5 5 6 6 4 7 3 8 2 9 1 10 11 11
REMARK H PARENT
REMARK Flexibility Score: inf
ROOT
ATOM      1  C   UNL     1      71.696  37.873  19.393  1.00  0.00     0.001 A 
ATOM      2  C   UNL     1      72.996  37.865  18.875  1.00  0.00     0.004 A 
ATOM      3  C   UNL     1      74.000  38.625  19.483  1.00  0.00     0.048 A 
ATOM      4  C   UNL     1      73.708  39.398  20.612  1.00  0.00     0.138 A 
ATOM      5  C   UNL     1      72.395  39.407  21.135  1.00  0.00     0.018 A 
ATOM      6  C   UNL     1      71.393  38.642  20.521  1.00  0.00     0.012 A 
ATOM      7  C   UNL     1      72.132  40.189  22.263  1.00  0.00     0.019 A 
ATOM      8  C   UNL     1      73.164  40.932  22.837  1.00  0.00     0.094 A 
ATOM      9  C   UNL     1      74.440  40.875  22.264  1.00  0.00     0.336 A 
ATOM     10  O   UNL     1      75.384  41.539  22.767  1.00  0.00    -0.246 OA
ATOM     11  O   UNL     1      74.663  40.123  21.189  1.00  0.00    -0.423 OA
ENDROOT
TORSDOF 0
ENDMDL
MODEL 4
REMARK VINA RESULT:    -3.999      1.637      3.818
REMARK INTER + INTRA:          -3.999
REMARK INTER:                  -3.999
REMARK INTRA:                   0.000
REMARK UNBOUND:                 0.000
REMARK SMILES O=c1ccc2ccccc2o1
REMARK SMILES IDX 7 1 8 2 9 3 10 4 5 5 6 6 4 7 3 8 2 9 1 10 11 11
REMARK H PARENT
REMARK Flexibility Score: inf
ROOT
ATOM      1  C   UNL     1      75.434  40.911  22.355  1.00  0.00     0.001 A 
ATOM      2  C   UNL     1      74.242  40.914  23.088  1.00  0.00     0.004 A 
ATOM      3  C   UNL     1      73.100  40.287  22.578  1.00  0.00     0.048 A 
ATOM      4  C   UNL     1      73.146  39.656  21.330  1.00  0.00     0.138 A 
ATOM      5  C   UNL     1      74.350  39.653  20.589  1.00  0.00     0.018 A 
ATOM      6  C   UNL     1      75.491  40.283  21.107  1.00  0.00     0.012 A 
ATOM      7  C   UNL     1      74.365  39.015  19.345  1.00  0.00     0.019 A 
ATOM      8  C   UNL     1      73.204  38.403  18.875  1.00  0.00     0.094 A 
ATOM      9  C   UNL     1      72.048  38.445  19.664  1.00  0.00     0.336 A 
ATOM     10  O   UNL     1      70.989  37.900  19.257  1.00  0.00    -0.246 OA
ATOM     11  O   UNL     1      72.060  39.061  20.844  1.00  0.00    -0.423 OA
ENDROOT
TORSDOF 0
ENDMDL
MODEL 5
REMARK VINA RESULT:    -3.988      2.115      2.480
REMARK INTER + INTRA:          -3.988
REMARK INTER:                  -3.988
REMARK INTRA:                   0.000
REMARK UNBOUND:                 0.000
REMARK SMILES O=c1ccc2ccccc2o1
REMARK SMILES IDX 7 1 8 2 9 3 10 4 5 5 6 6 4 7 3 8 2 9 1 10 11 11
REMARK H PARENT
REMARK Flexibility Score: inf
ROOT
ATOM      1  C   UNL     1      72.426  37.381  19.725  1.00  0.00     0.001 A 
ATOM      2  C   UNL     1      71.507  38.065  18.922  1.00  0.00     0.004 A 
ATOM      3  C   UNL     1      71.135  39.376  19.237  1.00  0.00     0.048 A 
ATOM      4  C   UNL     1      71.681  40.008  20.360  1.00  0.00     0.138 A 
ATOM      5  C   UNL     1      72.609  39.317  21.172  1.00  0.00     0.018 A 
ATOM      6  C   UNL     1      72.978  38.004  20.849  1.00  0.00     0.012 A 
ATOM      7  C   UNL     1      73.137  39.974  22.287  1.00  0.00     0.019 A 
ATOM      8  C   UNL     1      72.738  41.282  22.564  1.00  0.00     0.094 A 
ATOM      9  C   UNL     1      71.815  41.903  21.715  1.00  0.00     0.336 A 
ATOM     10  O   UNL     1      71.441  43.082  21.950  1.00  0.00    -0.246 OA
ATOM     11  O   UNL     1      71.326  41.255  20.661  1.00  0.00    -0.423 OA
ENDROOT
TORSDOF 0
ENDMDL
MODEL 6
REMARK VINA RESULT:    -3.924      1.620      2.350
REMARK INTER + INTRA:          -3.924
REMARK INTER:                  -3.924
REMARK INTRA:                   0.000
REMARK UNBOUND:                 0.000
REMARK SMILES O=c1ccc2ccccc2o1
REMARK SMILES IDX 7 1 8 2 9 3 10 4 5 5 6 6 4 7 3 8 2 9 1 10 11 11
REMARK H PARENT
REMARK Flexibility Score: inf
ROOT
ATOM      1  C   UNL     1      71.749  37.846  20.323  1.00  0.00     0.001 A 
ATOM      2  C   UNL     1      72.491  37.577  19.167  1.00  0.00     0.004 A 
ATOM      3  C   UNL     1      73.642  38.319  18.880  1.00  0.00     0.048 A 
ATOM      4  C   UNL     1      74.056  39.334  19.750  1.00  0.00     0.138 A 
ATOM      5  C   UNL     1      73.307  39.606  20.917  1.00  0.00     0.018 A 
ATOM      6  C   UNL     1      72.154  38.858  21.199  1.00  0.00     0.012 A 
ATOM      7  C   UNL     1      73.744  40.626  21.767  1.00  0.00     0.019 A 
ATOM      8  C   UNL     1      74.898  41.340  21.442  1.00  0.00     0.094 A 
ATOM      9  C   UNL     1      75.589  41.015  20.270  1.00  0.00     0.336 A 
ATOM     10  O   UNL     1      76.631  41.649  19.958  1.00  0.00    -0.246 OA
ATOM     11  O   UNL     1      75.150  40.040  19.477  1.00  0.00    -0.423 OA
ENDROOT
TORSDOF 0
ENDMDL
MODEL 7
REMARK VINA RESULT:    -3.736      1.857      2.515
REMARK INTER + INTRA:          -3.736
REMARK INTER:                  -3.736
REMARK INTRA:                   0.000
REMARK UNBOUND:                 0.000
REMARK SMILES O=c1ccc2ccccc2o1
REMARK SMILES IDX 7 1 8 2 9 3 10 4 5 5 6 6 4 7 3 8 2 9 1 10 11 11
REMARK H PARENT
REMARK Flexibility Score: inf
ROOT
ATOM      1  C   UNL     1      73.988  38.617  19.574  1.00  0.00     0.001 A 
ATOM      2  C   UNL     1      72.677  38.129  19.611  1.00  0.00     0.004 A 
ATOM      3  C   UNL     1      71.736  38.702  20.473  1.00  0.00     0.048 A 
ATOM      4  C   UNL     1      72.103  39.767  21.302  1.00  0.00     0.138 A 
ATOM      5  C   UNL     1      73.427  40.261  21.265  1.00  0.00     0.018 A 
ATOM      6  C   UNL     1      74.365  39.682  20.398  1.00  0.00     0.012 A 
ATOM      7  C   UNL     1      73.765  41.326  22.105  1.00  0.00     0.019 A 
ATOM      8  C   UNL     1      72.795  41.867  22.949  1.00  0.00     0.094 A 
ATOM      9  C   UNL     1      71.504  41.327  22.931  1.00  0.00     0.336 A 
ATOM     10  O   UNL     1      70.614  41.800  23.686  1.00  0.00    -0.246 OA
ATOM     11  O   UNL     1      71.208  40.311  22.123  1.00  0.00    -0.423 OA
ENDROOT
TORSDOF 0
ENDMDL
MODEL 8
REMARK VINA RESULT:    -3.705      2.265      3.971
REMARK INTER + INTRA:          -3.705
REMARK INTER:                  -3.705
REMARK INTRA:                   0.000
REMARK UNBOUND:                 0.000
REMARK SMILES O=c1ccc2ccccc2o1
REMARK SMILES IDX 7 1 8 2 9 3 10 4 5 5 6 6 4 7 3 8 2 9 1 10 11 11
REMARK H PARENT
REMARK Flexibility Score: inf
ROOT
ATOM      1  C   UNL     1      72.721  42.992  23.179  1.00  0.00     0.001 A 
ATOM      2  C   UNL     1      71.434  42.449  23.260  1.00  0.00     0.004 A 
ATOM      3  C   UNL     1      71.160  41.199  22.696  1.00  0.00     0.048 A 
ATOM      4  C   UNL     1      72.174  40.485  22.048  1.00  0.00     0.138 A 
ATOM      5  C   UNL     1      73.475  41.033  21.966  1.00  0.00     0.018 A 
ATOM      6  C   UNL     1      73.742  42.287  22.533  1.00  0.00     0.012 A 
ATOM      7  C   UNL     1      74.467  40.297  21.312  1.00  0.00     0.019 A 
ATOM      8  C   UNL     1      74.150  39.054  20.764  1.00  0.00     0.094 A 
ATOM      9  C   UNL     1      72.841  38.575  20.884  1.00  0.00     0.336 A 
ATOM     10  O   UNL     1      72.534  37.456  20.395  1.00  0.00    -0.246 OA
ATOM     11  O   UNL     1      71.914  39.296  21.511  1.00  0.00    -0.423 OA
ENDROOT
TORSDOF 0
ENDMDL
MODEL 9
REMARK VINA RESULT:    -3.469      2.250      4.043
REMARK INTER + INTRA:          -3.469
REMARK INTER:                  -3.469
REMARK INTRA:                   0.000
REMARK UNBOUND:                 0.000
REMARK SMILES O=c1ccc2ccccc2o1
REMARK SMILES IDX 7 1 8 2 9 3 10 4 5 5 6 6 4 7 3 8 2 9 1 10 11 11
REMARK H PARENT
REMARK Flexibility Score: inf
ROOT
ATOM      1  C   UNL     1      71.482  42.137  23.372  1.00  0.00     0.001 A 
ATOM      2  C   UNL     1      72.621  42.922  23.161  1.00  0.00     0.004 A 
ATOM      3  C   UNL     1      73.635  42.477  22.307  1.00  0.00     0.048 A 
ATOM      4  C   UNL     1      73.514  41.242  21.660  1.00  0.00     0.138 A 
ATOM      5  C   UNL     1      72.364  40.448  21.873  1.00  0.00     0.018 A 
ATOM      6  C   UNL     1      71.351  40.901  22.730  1.00  0.00     0.012 A 
ATOM      7  C   UNL     1      72.271  39.219  21.214  1.00  0.00     0.019 A 
ATOM      8  C   UNL     1      73.306  38.814  20.371  1.00  0.00     0.094 A 
ATOM      9  C   UNL     1      74.415  39.653  20.208  1.00  0.00     0.336 A 
ATOM     10  O   UNL     1      75.359  39.304  19.452  1.00  0.00    -0.246 OA
ATOM     11  O   UNL     1      74.479  40.818  20.848  1.00  0.00    -0.423 OA
ENDROOT
TORSDOF 0
ENDMDL
