MODEL 1
REMARK VINA RESULT:    -5.468      0.000      0.000
REMARK INTER + INTRA:          -7.126
REMARK INTER:                  -6.747
REMARK INTRA:                  -0.379
REMARK UNBOUND:                -0.379
REMARK SMILES Oc1cc(O)c2cc(O)c(-c3cc(O)c(O)c(O)c3)[o+]c2c1
REMARK SMILES IDX 10 1 20 2 21 3 22 4 2 5 3 6 4 7 6 8 7 9 8 10 11 11 12 12
REMARK SMILES IDX 13 13 19 14 15 15 17 16 14 17 16 19 18 21 9 23 1 25 5 27
REMARK H PARENT 14 18 16 20 18 22 9 24 1 26 5 28
REMARK Flexibility Score: inf
ROOT
ATOM      1  C   UNL     1      23.997 -13.125  54.701  1.00  0.00     0.402 A 
ATOM      2  O   UNL     1      24.831 -12.872  55.705  1.00  0.00    -0.202 OA
ATOM      3  C   UNL     1      24.533 -12.062  56.715  1.00  0.00     0.368 A 
ATOM      4  C   UNL     1      25.476 -11.861  57.727  1.00  0.00     0.162 A 
ATOM      5  C   UNL     1      25.187 -11.016  58.803  1.00  0.00     0.128 A 
ATOM      6  C   UNL     1      23.951 -10.370  58.866  1.00  0.00     0.093 A 
ATOM      7  C   UNL     1      22.989 -10.555  57.865  1.00  0.00     0.136 A 
ATOM      8  C   UNL     1      23.278 -11.410  56.770  1.00  0.00     0.125 A 
ATOM      9  C   UNL     1      22.380 -11.644  55.715  1.00  0.00     0.078 A 
ATOM     10  C   UNL     1      22.738 -12.497  54.667  1.00  0.00     0.223 A 
ENDROOT
BRANCH   1  11
ATOM     11  C   UNL     1      24.441 -14.056  53.637  1.00  0.00     0.091 A 
ATOM     12  C   UNL     1      25.086 -13.593  52.481  1.00  0.00     0.068 A 
ATOM     13  C   UNL     1      25.478 -14.488  51.478  1.00  0.00     0.162 A 
ATOM     14  C   UNL     1      24.161 -15.426  53.759  1.00  0.00     0.068 A 
ATOM     15  C   UNL     1      25.217 -15.859  51.611  1.00  0.00     0.200 A 
ATOM     16  C   UNL     1      24.547 -16.332  52.764  1.00  0.00     0.162 A 
BRANCH  13  17
ATOM     17  O   UNL     1      26.125 -14.019  50.335  1.00  0.00    -0.504 OA
ATOM     18  H   UNL     1      26.752 -14.608  49.801  1.00  0.00     0.293 HD
ENDBRANCH  13  17
BRANCH  15  19
ATOM     19  O   UNL     1      25.636 -16.708  50.585  1.00  0.00    -0.502 OA
ATOM     20  H   UNL     1      25.094 -16.901  49.753  1.00  0.00     0.293 HD
ENDBRANCH  15  19
BRANCH  16  21
ATOM     21  O   UNL     1      24.243 -17.680  52.961  1.00  0.00    -0.504 OA
ATOM     22  H   UNL     1      23.521 -18.012  53.583  1.00  0.00     0.293 HD
ENDBRANCH  16  21
ENDBRANCH   1  11
BRANCH  10  23
ATOM     23  O   UNL     1      21.867 -12.690  53.594  1.00  0.00    -0.500 OA
ATOM     24  H   UNL     1      21.089 -13.338  53.650  1.00  0.00     0.294 HD
ENDBRANCH  10  23
BRANCH   5  25
ATOM     25  O   UNL     1      26.123 -10.811  59.814  1.00  0.00    -0.507 OA
ATOM     26  H   UNL     1      27.114 -10.951  59.657  1.00  0.00     0.293 HD
ENDBRANCH   5  25
BRANCH   7  27
ATOM     27  O   UNL     1      21.776  -9.875  58.006  1.00  0.00    -0.507 OA
ATOM     28  H   UNL     1      21.191  -9.916  58.828  1.00  0.00     0.293 HD
ENDBRANCH   7  27
TORSDOF 7
ENDMDL
