MODEL 1
REMARK VINA RESULT:    -2.290      0.000      0.000
REMARK INTER + INTRA:          -1.996
REMARK INTER:                  -3.228
REMARK INTRA:                   1.232
REMARK UNBOUND:                 1.232
REMARK SMILES CC1=CCCC(C)=CCC(C)(C)C=CC1
REMARK SMILES IDX 2 1 3 2 1 3 4 4 5 5 6 6 7 7 8 8 15 10 14 11 13 12 10 13
REMARK SMILES IDX 11 14 12 15 9 16
REMARK H PARENT
REMARK Flexibility Score: 60.00
ROOT
ATOM      1  C   UNL     1     146.578 147.093 131.410  1.00  0.00    -0.074 C 
ATOM      2  C   UNL     1     146.223 147.592 132.624  1.00  0.00    -0.027 C 
ATOM      3  C   UNL     1     146.919 148.087 130.327  1.00  0.00     0.039 C 
ENDROOT
BRANCH   2   4
ATOM      4  C   UNL     1     145.817 146.810 133.856  1.00  0.00     0.032 C 
BRANCH   4   5
ATOM      5  C   UNL     1     144.300 146.943 134.122  1.00  0.00     0.034 C 
BRANCH   5   6
ATOM      6  C   UNL     1     143.479 146.862 132.846  1.00  0.00    -0.077 C 
ATOM      7  C   UNL     1     143.047 148.136 132.168  1.00  0.00     0.039 C 
ATOM      8  C   UNL     1     143.139 145.684 132.270  1.00  0.00    -0.027 CG0
ATOM      9  G   UNL     1     143.502 144.322 132.824  1.00  0.00     0.000 G0
ENDBRANCH   5   6
ENDBRANCH   4   5
ENDBRANCH   2   4
BRANCH   1  10
ATOM     10  C   UNL     1     146.730 145.614 131.091  1.00  0.00     0.057 C 
BRANCH  10  11
ATOM     11  C   UNL     1     145.597 145.087 130.236  1.00  0.00    -0.026 C 
ATOM     12  C   UNL     1     144.647 144.179 130.568  1.00  0.00    -0.024 C 
BRANCH  12  13
ATOM     13  C   UNL     1     144.430 143.469 131.911  1.00  0.00    -0.014 C 
ATOM     14  C   UNL     1     145.790 143.118 132.576  1.00  0.00     0.016 C 
ATOM     15  C   UNL     1     143.706 142.131 131.619  1.00  0.00     0.016 C 
BRANCH  13  16
ATOM     16  C   UNL     1     143.498 144.338 132.814  1.00  0.00     0.038 CG0
ATOM     17  G   UNL     1     143.168 145.698 132.232  1.00  0.00     0.000 G0
ENDBRANCH  13  16
ENDBRANCH  12  13
ENDBRANCH  10  11
ENDBRANCH   1  10
TORSDOF 0
ENDMDL
MODEL 2
REMARK VINA RESULT:    -2.263      1.938      3.527
REMARK INTER + INTRA:          -1.957
REMARK INTER:                  -3.813
REMARK INTRA:                   1.855
REMARK UNBOUND:                 1.232
REMARK SMILES CC1=CCCC(C)=CCC(C)(C)C=CC1
REMARK SMILES IDX 2 1 3 2 1 3 4 4 5 5 6 6 7 7 8 8 15 10 14 11 13 12 10 13
REMARK SMILES IDX 11 14 12 15 9 16
REMARK H PARENT
REMARK Flexibility Score: 60.00
ROOT
ATOM      1  C   UNL     1     144.068 145.966 133.676  1.00  0.00    -0.074 C 
ATOM      2  C   UNL     1     144.376 147.101 132.993  1.00  0.00    -0.027 C 
ATOM      3  C   UNL     1     142.607 145.692 133.938  1.00  0.00     0.039 C 
ENDROOT
BRANCH   2   4
ATOM      4  C   UNL     1     145.756 147.608 132.628  1.00  0.00     0.032 C 
BRANCH   4   5
ATOM      5  C   UNL     1     146.061 147.354 131.134  1.00  0.00     0.034 C 
BRANCH   5   6
ATOM      6  C   UNL     1     145.237 146.214 130.559  1.00  0.00    -0.077 C 
ATOM      7  C   UNL     1     143.812 146.475 130.143  1.00  0.00     0.039 C 
ATOM      8  C   UNL     1     145.739 144.970 130.375  1.00  0.00    -0.027 CG0
ATOM      9  G   UNL     1     147.150 144.552 130.736  1.00  0.00     0.000 G0
ENDBRANCH   5   6
ENDBRANCH   4   5
ENDBRANCH   2   4
BRANCH   1  10
ATOM     10  C   UNL     1     145.079 144.921 134.123  1.00  0.00     0.057 C 
BRANCH  10  11
ATOM     11  C   UNL     1     144.989 143.645 133.312  1.00  0.00    -0.026 C 
ATOM     12  C   UNL     1     145.890 143.145 132.433  1.00  0.00    -0.024 C 
BRANCH  12  13
ATOM     13  C   UNL     1     147.266 143.706 132.049  1.00  0.00    -0.014 C 
ATOM     14  C   UNL     1     148.323 142.569 131.972  1.00  0.00     0.016 C 
ATOM     15  C   UNL     1     147.710 144.666 133.181  1.00  0.00     0.016 C 
BRANCH  13  16
ATOM     16  C   UNL     1     147.142 144.534 130.731  1.00  0.00     0.038 CG0
ATOM     17  G   UNL     1     145.729 144.977 130.412  1.00  0.00     0.000 G0
ENDBRANCH  13  16
ENDBRANCH  12  13
ENDBRANCH  10  11
ENDBRANCH   1  10
TORSDOF 0
ENDMDL
MODEL 3
REMARK VINA RESULT:    -2.196      1.883      4.625
REMARK INTER + INTRA:          -1.863
REMARK INTER:                  -3.041
REMARK INTRA:                   1.177
REMARK UNBOUND:                 1.232
REMARK SMILES CC1=CCCC(C)=CCC(C)(C)C=CC1
REMARK SMILES IDX 2 1 3 2 1 3 4 4 5 5 6 6 7 7 8 8 15 10 14 11 13 12 10 13
REMARK SMILES IDX 11 14 12 15 9 16
REMARK H PARENT
REMARK Flexibility Score: 60.00
ROOT
ATOM      1  C   UNL     1     144.046 143.494 131.492  1.00  0.00    -0.074 C 
ATOM      2  C   UNL     1     144.490 142.985 132.672  1.00  0.00    -0.027 C 
ATOM      3  C   UNL     1     143.637 142.509 130.425  1.00  0.00     0.039 C 
ENDROOT
BRANCH   2   4
ATOM      4  C   UNL     1     144.975 143.757 133.882  1.00  0.00     0.032 C 
BRANCH   4   5
ATOM      5  C   UNL     1     146.485 143.525 134.118  1.00  0.00     0.034 C 
BRANCH   5   6
ATOM      6  C   UNL     1     147.320 143.847 132.890  1.00  0.00    -0.077 C 
ATOM      7  C   UNL     1     147.990 142.723 132.142  1.00  0.00     0.039 C 
ATOM      8  C   UNL     1     147.467 145.107 132.416  1.00  0.00    -0.027 CG0
ATOM      9  G   UNL     1     146.854 146.339 133.050  1.00  0.00     0.000 G0
ENDBRANCH   5   6
ENDBRANCH   4   5
ENDBRANCH   2   4
BRANCH   1  10
ATOM     10  C   UNL     1     143.859 144.975 131.202  1.00  0.00     0.057 C 
BRANCH  10  11
ATOM     11  C   UNL     1     144.987 145.548 130.371  1.00  0.00    -0.026 C 
ATOM     12  C   UNL     1     145.886 146.500 130.719  1.00  0.00    -0.024 C 
BRANCH  12  13
ATOM     13  C   UNL     1     146.039 147.226 132.063  1.00  0.00    -0.014 C 
ATOM     14  C   UNL     1     144.652 147.659 132.617  1.00  0.00     0.016 C 
ATOM     15  C   UNL     1     146.850 148.520 131.804  1.00  0.00     0.016 C 
BRANCH  13  16
ATOM     16  C   UNL     1     146.854 146.331 133.049  1.00  0.00     0.038 CG0
ATOM     17  G   UNL     1     147.457 145.098 132.408  1.00  0.00     0.000 G0
ENDBRANCH  13  16
ENDBRANCH  12  13
ENDBRANCH  10  11
ENDBRANCH   1  10
TORSDOF 0
ENDMDL
MODEL 4
REMARK VINA RESULT:    -2.103      1.858      3.085
REMARK INTER + INTRA:          -1.732
REMARK INTER:                  -3.030
REMARK INTRA:                   1.298
REMARK UNBOUND:                 1.232
REMARK SMILES CC1=CCCC(C)=CCC(C)(C)C=CC1
REMARK SMILES IDX 2 1 3 2 1 3 4 4 5 5 6 6 7 7 8 8 15 10 14 11 13 12 10 13
REMARK SMILES IDX 11 14 12 15 9 16
REMARK H PARENT
REMARK Flexibility Score: 60.00
ROOT
ATOM      1  C   UNL     1     143.501 146.318 131.838  1.00  0.00    -0.074 C 
ATOM      2  C   UNL     1     143.887 147.173 132.823  1.00  0.00    -0.027 C 
ATOM      3  C   UNL     1     142.731 146.902 130.679  1.00  0.00     0.039 C 
ENDROOT
BRANCH   2   4
ATOM      4  C   UNL     1     144.643 146.833 134.091  1.00  0.00     0.032 C 
BRANCH   4   5
ATOM      5  C   UNL     1     146.036 147.502 134.102  1.00  0.00     0.034 C 
BRANCH   5   6
ATOM      6  C   UNL     1     146.790 147.292 132.799  1.00  0.00    -0.077 C 
ATOM      7  C   UNL     1     146.968 148.456 131.859  1.00  0.00     0.039 C 
ATOM      8  C   UNL     1     147.338 146.103 132.455  1.00  0.00    -0.027 CG0
ATOM      9  G   UNL     1     147.251 144.844 133.293  1.00  0.00     0.000 G0
ENDBRANCH   5   6
ENDBRANCH   4   5
ENDBRANCH   2   4
BRANCH   1  10
ATOM     10  C   UNL     1     143.854 144.840 131.785  1.00  0.00     0.057 C 
BRANCH  10  11
ATOM     11  C   UNL     1     144.991 144.551 130.828  1.00  0.00    -0.026 C 
ATOM     12  C   UNL     1     146.217 144.048 131.110  1.00  0.00    -0.024 C 
BRANCH  12  13
ATOM     13  C   UNL     1     146.776 143.590 132.465  1.00  0.00    -0.014 C 
ATOM     14  C   UNL     1     147.879 142.513 132.271  1.00  0.00     0.016 C 
ATOM     15  C   UNL     1     145.617 142.921 133.244  1.00  0.00     0.016 C 
BRANCH  13  16
ATOM     16  C   UNL     1     147.254 144.834 133.278  1.00  0.00     0.038 CG0
ATOM     17  G   UNL     1     147.343 146.108 132.462  1.00  0.00     0.000 G0
ENDBRANCH  13  16
ENDBRANCH  12  13
ENDBRANCH  10  11
ENDBRANCH   1  10
TORSDOF 0
ENDMDL
MODEL 5
REMARK VINA RESULT:    -1.973      1.491      4.008
REMARK INTER + INTRA:          -1.548
REMARK INTER:                  -2.961
REMARK INTRA:                   1.413
REMARK UNBOUND:                 1.232
REMARK SMILES CC1=CCCC(C)=CCC(C)(C)C=CC1
REMARK SMILES IDX 2 1 3 2 1 3 4 4 5 5 6 6 7 7 8 8 15 10 14 11 13 12 10 13
REMARK SMILES IDX 11 14 12 15 9 16
REMARK H PARENT
REMARK Flexibility Score: 60.00
ROOT
ATOM      1  C   UNL     1     146.486 144.620 133.949  1.00  0.00    -0.074 C 
ATOM      2  C   UNL     1     146.085 143.369 133.598  1.00  0.00    -0.027 C 
ATOM      3  C   UNL     1     147.970 144.854 134.098  1.00  0.00     0.039 C 
ENDROOT
BRANCH   2   4
ATOM      4  C   UNL     1     144.664 142.879 133.410  1.00  0.00     0.032 C 
BRANCH   4   5
ATOM      5  C   UNL     1     143.818 143.917 132.638  1.00  0.00     0.034 C 
BRANCH   5   6
ATOM      6  C   UNL     1     144.070 143.871 131.139  1.00  0.00    -0.077 C 
ATOM      7  C   UNL     1     143.865 142.574 130.400  1.00  0.00     0.039 C 
ATOM      8  C   UNL     1     144.446 144.960 130.428  1.00  0.00    -0.027 CG0
ATOM      9  G   UNL     1     144.687 146.332 131.023  1.00  0.00     0.000 G0
ENDBRANCH   5   6
ENDBRANCH   4   5
ENDBRANCH   2   4
BRANCH   1  10
ATOM     10  C   UNL     1     145.558 145.812 134.125  1.00  0.00     0.057 C 
BRANCH  10  11
ATOM     11  C   UNL     1     146.189 147.109 133.664  1.00  0.00    -0.026 C 
ATOM     12  C   UNL     1     146.475 147.499 132.398  1.00  0.00    -0.024 C 
BRANCH  12  13
ATOM     13  C   UNL     1     146.201 146.757 131.083  1.00  0.00    -0.014 C 
ATOM     14  C   UNL     1     147.182 145.564 130.907  1.00  0.00     0.016 C 
ATOM     15  C   UNL     1     146.476 147.748 129.923  1.00  0.00     0.016 C 
BRANCH  13  16
ATOM     16  C   UNL     1     144.697 146.344 131.022  1.00  0.00     0.038 CG0
ATOM     17  G   UNL     1     144.457 144.974 130.420  1.00  0.00     0.000 G0
ENDBRANCH  13  16
ENDBRANCH  12  13
ENDBRANCH  10  11
ENDBRANCH   1  10
TORSDOF 0
ENDMDL
MODEL 6
REMARK VINA RESULT:    -1.933      1.329      3.607
REMARK INTER + INTRA:          -1.493
REMARK INTER:                  -2.775
REMARK INTRA:                   1.282
REMARK UNBOUND:                 1.232
REMARK SMILES CC1=CCCC(C)=CCC(C)(C)C=CC1
REMARK SMILES IDX 2 1 3 2 1 3 4 4 5 5 6 6 7 7 8 8 15 10 14 11 13 12 10 13
REMARK SMILES IDX 11 14 12 15 9 16
REMARK H PARENT
REMARK Flexibility Score: 60.00
ROOT
ATOM      1  C   UNL     1     147.162 145.597 132.905  1.00  0.00    -0.074 C 
ATOM      2  C   UNL     1     147.192 144.384 132.290  1.00  0.00    -0.027 C 
ATOM      3  C   UNL     1     147.973 146.707 132.283  1.00  0.00     0.039 C 
ENDROOT
BRANCH   2   4
ATOM      4  C   UNL     1     146.489 143.115 132.727  1.00  0.00     0.032 C 
BRANCH   4   5
ATOM      5  C   UNL     1     145.138 143.436 133.404  1.00  0.00     0.034 C 
BRANCH   5   6
ATOM      6  C   UNL     1     143.989 143.488 132.410  1.00  0.00    -0.077 C 
ATOM      7  C   UNL     1     143.771 142.326 131.477  1.00  0.00     0.039 C 
ATOM      8  C   UNL     1     143.127 144.531 132.345  1.00  0.00    -0.027 CG0
ATOM      9  G   UNL     1     143.208 145.767 133.217  1.00  0.00     0.000 G0
ENDBRANCH   5   6
ENDBRANCH   4   5
ENDBRANCH   2   4
BRANCH   1  10
ATOM     10  C   UNL     1     146.314 145.932 134.122  1.00  0.00     0.057 C 
BRANCH  10  11
ATOM     11  C   UNL     1     145.759 147.340 134.071  1.00  0.00    -0.026 C 
ATOM     12  C   UNL     1     144.709 147.802 133.350  1.00  0.00    -0.024 C 
BRANCH  12  13
ATOM     13  C   UNL     1     143.766 147.021 132.425  1.00  0.00    -0.014 C 
ATOM     14  C   UNL     1     144.477 146.659 131.091  1.00  0.00     0.016 C 
ATOM     15  C   UNL     1     142.581 147.955 132.071  1.00  0.00     0.016 C 
BRANCH  13  16
ATOM     16  C   UNL     1     143.197 145.782 133.186  1.00  0.00     0.038 CG0
ATOM     17  G   UNL     1     143.122 144.523 132.347  1.00  0.00     0.000 G0
ENDBRANCH  13  16
ENDBRANCH  12  13
ENDBRANCH  10  11
ENDBRANCH   1  10
TORSDOF 0
ENDMDL
MODEL 7
REMARK VINA RESULT:    -1.887      1.258      2.274
REMARK INTER + INTRA:          -1.427
REMARK INTER:                  -2.886
REMARK INTRA:                   1.459
REMARK UNBOUND:                 1.232
REMARK SMILES CC1=CCCC(C)=CCC(C)(C)C=CC1
REMARK SMILES IDX 2 1 3 2 1 3 4 4 5 5 6 6 7 7 8 8 15 10 14 11 13 12 10 13
REMARK SMILES IDX 11 14 12 15 9 16
REMARK H PARENT
REMARK Flexibility Score: 60.00
ROOT
ATOM      1  C   UNL     1     146.939 147.099 131.730  1.00  0.00    -0.074 C 
ATOM      2  C   UNL     1     145.992 147.086 130.755  1.00  0.00    -0.027 C 
ATOM      3  C   UNL     1     147.472 148.445 132.158  1.00  0.00     0.039 C 
ENDROOT
BRANCH   2   4
ATOM      4  C   UNL     1     145.322 145.874 130.141  1.00  0.00     0.032 C 
BRANCH   4   5
ATOM      5  C   UNL     1     143.799 145.891 130.403  1.00  0.00     0.034 C 
BRANCH   5   6
ATOM      6  C   UNL     1     143.462 146.211 131.850  1.00  0.00    -0.077 C 
ATOM      7  C   UNL     1     143.000 147.600 132.207  1.00  0.00     0.039 C 
ATOM      8  C   UNL     1     143.532 145.287 132.838  1.00  0.00    -0.027 CG0
ATOM      9  G   UNL     1     143.972 143.851 132.639  1.00  0.00     0.000 G0
ENDBRANCH   5   6
ENDBRANCH   4   5
ENDBRANCH   2   4
BRANCH   1  10
ATOM     10  C   UNL     1     147.441 145.868 132.469  1.00  0.00     0.057 C 
BRANCH  10  11
ATOM     11  C   UNL     1     146.732 145.658 133.791  1.00  0.00    -0.026 C 
ATOM     12  C   UNL     1     145.851 144.685 134.124  1.00  0.00    -0.024 C 
BRANCH  12  13
ATOM     13  C   UNL     1     145.363 143.503 133.275  1.00  0.00    -0.014 C 
ATOM     14  C   UNL     1     145.365 142.189 134.104  1.00  0.00     0.016 C 
ATOM     15  C   UNL     1     146.374 143.313 132.117  1.00  0.00     0.016 C 
BRANCH  13  16
ATOM     16  C   UNL     1     143.972 143.848 132.654  1.00  0.00     0.038 CG0
ATOM     17  G   UNL     1     143.558 145.294 132.833  1.00  0.00     0.000 G0
ENDBRANCH  13  16
ENDBRANCH  12  13
ENDBRANCH  10  11
ENDBRANCH   1  10
TORSDOF 0
ENDMDL
MODEL 8
REMARK VINA RESULT:    -1.816      1.980      3.780
REMARK INTER + INTRA:          -1.327
REMARK INTER:                  -3.641
REMARK INTRA:                   2.314
REMARK UNBOUND:                 1.232
REMARK SMILES CC1=CCCC(C)=CCC(C)(C)C=CC1
REMARK SMILES IDX 2 1 3 2 1 3 4 4 5 5 6 6 7 7 8 8 15 10 14 11 13 12 10 13
REMARK SMILES IDX 11 14 12 15 9 16
REMARK H PARENT
REMARK Flexibility Score: 60.00
ROOT
ATOM      1  C   UNL     1     143.330 145.339 132.950  1.00  0.00    -0.074 C 
ATOM      2  C   UNL     1     143.574 146.506 132.297  1.00  0.00    -0.027 C 
ATOM      3  C   UNL     1     142.383 145.389 134.124  1.00  0.00     0.039 C 
ENDROOT
BRANCH   2   4
ATOM      4  C   UNL     1     144.495 146.722 131.114  1.00  0.00     0.032 C 
BRANCH   4   5
ATOM      5  C   UNL     1     145.829 147.363 131.559  1.00  0.00     0.034 C 
BRANCH   5   6
ATOM      6  C   UNL     1     146.098 147.169 133.042  1.00  0.00    -0.077 C 
ATOM      7  C   UNL     1     145.343 148.007 134.042  1.00  0.00     0.039 C 
ATOM      8  C   UNL     1     146.973 146.248 133.511  1.00  0.00    -0.027 CG0
ATOM      9  G   UNL     1     147.801 145.328 132.637  1.00  0.00     0.000 G0
ENDBRANCH   5   6
ENDBRANCH   4   5
ENDBRANCH   2   4
BRANCH   1  10
ATOM     10  C   UNL     1     143.878 143.982 132.536  1.00  0.00     0.057 C 
BRANCH  10  11
ATOM     11  C   UNL     1     144.929 143.466 133.496  1.00  0.00    -0.026 C 
ATOM     12  C   UNL     1     146.276 143.464 133.344  1.00  0.00    -0.024 C 
BRANCH  12  13
ATOM     13  C   UNL     1     147.108 144.024 132.181  1.00  0.00    -0.014 C 
ATOM     14  C   UNL     1     146.233 144.195 130.908  1.00  0.00     0.016 C 
ATOM     15  C   UNL     1     148.202 142.979 131.846  1.00  0.00     0.016 C 
BRANCH  13  16
ATOM     16  C   UNL     1     147.816 145.339 132.634  1.00  0.00     0.038 CG0
ATOM     17  G   UNL     1     146.963 146.228 133.516  1.00  0.00     0.000 G0
ENDBRANCH  13  16
ENDBRANCH  12  13
ENDBRANCH  10  11
ENDBRANCH   1  10
TORSDOF 0
ENDMDL
MODEL 9
REMARK VINA RESULT:    -1.787      1.488      4.134
REMARK INTER + INTRA:          -1.287
REMARK INTER:                  -3.411
REMARK INTRA:                   2.124
REMARK UNBOUND:                 1.232
REMARK SMILES CC1=CCCC(C)=CCC(C)(C)C=CC1
REMARK SMILES IDX 2 1 3 2 1 3 4 4 5 5 6 6 7 7 8 8 15 10 14 11 13 12 10 13
REMARK SMILES IDX 11 14 12 15 9 16
REMARK H PARENT
REMARK Flexibility Score: 60.00
ROOT
ATOM      1  C   UNL     1     145.448 143.351 132.941  1.00  0.00    -0.074 C 
ATOM      2  C   UNL     1     144.303 143.565 132.241  1.00  0.00    -0.027 C 
ATOM      3  C   UNL     1     145.375 142.402 134.112  1.00  0.00     0.039 C 
ENDROOT
BRANCH   2   4
ATOM      4  C   UNL     1     144.111 144.481 131.049  1.00  0.00     0.032 C 
BRANCH   4   5
ATOM      5  C   UNL     1     143.405 145.791 131.466  1.00  0.00     0.034 C 
BRANCH   5   6
ATOM      6  C   UNL     1     143.577 146.098 132.944  1.00  0.00    -0.077 C 
ATOM      7  C   UNL     1     142.751 145.341 133.952  1.00  0.00     0.039 C 
ATOM      8  C   UNL     1     144.468 147.008 133.403  1.00  0.00    -0.027 CG0
ATOM      9  G   UNL     1     145.372 147.844 132.520  1.00  0.00     0.000 G0
ENDBRANCH   5   6
ENDBRANCH   4   5
ENDBRANCH   2   4
BRANCH   1  10
ATOM     10  C   UNL     1     146.806 143.935 132.583  1.00  0.00     0.057 C 
BRANCH  10  11
ATOM     11  C   UNL     1     147.250 145.007 133.556  1.00  0.00    -0.026 C 
ATOM     12  C   UNL     1     147.246 146.351 133.384  1.00  0.00    -0.024 C 
BRANCH  12  13
ATOM     13  C   UNL     1     146.750 147.160 132.177  1.00  0.00    -0.014 C 
ATOM     14  C   UNL     1     146.680 146.268 130.907  1.00  0.00     0.016 C 
ATOM     15  C   UNL     1     147.795 148.268 131.899  1.00  0.00     0.016 C 
BRANCH  13  16
ATOM     16  C   UNL     1     145.395 147.848 132.534  1.00  0.00     0.038 CG0
ATOM     17  G   UNL     1     144.475 146.997 133.384  1.00  0.00     0.000 G0
ENDBRANCH  13  16
ENDBRANCH  12  13
ENDBRANCH  10  11
ENDBRANCH   1  10
TORSDOF 0
ENDMDL
