MODEL 1
REMARK VINA RESULT:    -5.148      0.000      0.000
REMARK INTER + INTRA:          -5.299
REMARK INTER:                  -5.299
REMARK INTRA:                   0.000
REMARK UNBOUND:                 0.000
REMARK SMILES O=c1ccc2ccc(O)cc2o1
REMARK SMILES IDX 6 1 7 2 8 3 10 4 11 5 5 6 4 7 3 8 2 9 1 10 12 11 9 12
REMARK H PARENT 9 13
REMARK Flexibility Score: inf
ROOT
ATOM      1  C   UNL     1      -8.600 -25.057  36.467  1.00  0.00     0.016 A 
ATOM      2  C   UNL     1      -9.250 -26.295  36.464  1.00  0.00     0.047 A 
ATOM      3  C   UNL     1      -8.823 -27.318  35.605  1.00  0.00     0.119 A 
ATOM      4  C   UNL     1      -7.739 -27.100  34.745  1.00  0.00     0.094 A 
ATOM      5  C   UNL     1      -7.081 -25.865  34.741  1.00  0.00     0.142 A 
ATOM      6  C   UNL     1      -7.514 -24.836  35.607  1.00  0.00     0.018 A 
ATOM      7  C   UNL     1      -6.837 -23.614  35.580  1.00  0.00     0.019 A 
ATOM      8  C   UNL     1      -5.764 -23.445  34.706  1.00  0.00     0.094 A 
ATOM      9  C   UNL     1      -5.391 -24.509  33.877  1.00  0.00     0.336 A 
ATOM     10  O   UNL     1      -4.425 -24.376  33.082  1.00  0.00    -0.246 OA
ATOM     11  O   UNL     1      -6.052 -25.662  33.922  1.00  0.00    -0.423 OA
ENDROOT
BRANCH   3  12
ATOM     12  O   UNL     1      -9.467 -28.553  35.597  1.00  0.00    -0.508 OA
ATOM     13  H   UNL     1     -10.310 -28.713  36.136  1.00  0.00     0.293 HD
ENDBRANCH   3  12
TORSDOF 1
ENDMDL
MODEL 2
REMARK VINA RESULT:    -5.122      1.940      2.273
REMARK INTER + INTRA:          -5.271
REMARK INTER:                  -5.271
REMARK INTRA:                   0.000
REMARK UNBOUND:                 0.000
REMARK SMILES O=c1ccc2ccc(O)cc2o1
REMARK SMILES IDX 6 1 7 2 8 3 10 4 11 5 5 6 4 7 3 8 2 9 1 10 12 11 9 12
REMARK H PARENT 9 13
REMARK Flexibility Score: inf
ROOT
ATOM      1  C   UNL     1      -6.247 -26.572  36.267  1.00  0.00     0.016 A 
ATOM      2  C   UNL     1      -6.932 -27.435  35.405  1.00  0.00     0.047 A 
ATOM      3  C   UNL     1      -7.220 -27.043  34.091  1.00  0.00     0.119 A 
ATOM      4  C   UNL     1      -6.820 -25.780  33.636  1.00  0.00     0.094 A 
ATOM      5  C   UNL     1      -6.133 -24.910  34.490  1.00  0.00     0.142 A 
ATOM      6  C   UNL     1      -5.845 -25.308  35.813  1.00  0.00     0.018 A 
ATOM      7  C   UNL     1      -5.157 -24.417  36.642  1.00  0.00     0.019 A 
ATOM      8  C   UNL     1      -4.779 -23.170  36.143  1.00  0.00     0.094 A 
ATOM      9  C   UNL     1      -5.099 -22.844  34.821  1.00  0.00     0.336 A 
ATOM     10  O   UNL     1      -4.766 -21.725  34.353  1.00  0.00    -0.246 OA
ATOM     11  O   UNL     1      -5.754 -23.711  34.053  1.00  0.00    -0.423 OA
ENDROOT
BRANCH   3  12
ATOM     12  O   UNL     1      -7.903 -27.898  33.228  1.00  0.00    -0.508 OA
ATOM     13  H   UNL     1      -8.760 -28.358  33.509  1.00  0.00     0.293 HD
ENDBRANCH   3  12
TORSDOF 1
ENDMDL
MODEL 3
REMARK VINA RESULT:    -5.065      1.928      2.680
REMARK INTER + INTRA:          -5.213
REMARK INTER:                  -5.213
REMARK INTRA:                   0.000
REMARK UNBOUND:                 0.000
REMARK SMILES O=c1ccc2ccc(O)cc2o1
REMARK SMILES IDX 6 1 7 2 8 3 10 4 11 5 5 6 4 7 3 8 2 9 1 10 12 11 9 12
REMARK H PARENT 9 13
REMARK Flexibility Score: inf
ROOT
ATOM      1  C   UNL     1      -6.984 -26.449  33.949  1.00  0.00     0.016 A 
ATOM      2  C   UNL     1      -7.807 -27.549  34.215  1.00  0.00     0.047 A 
ATOM      3  C   UNL     1      -8.744 -27.497  35.256  1.00  0.00     0.119 A 
ATOM      4  C   UNL     1      -8.859 -26.339  36.035  1.00  0.00     0.094 A 
ATOM      5  C   UNL     1      -8.041 -25.233  35.776  1.00  0.00     0.142 A 
ATOM      6  C   UNL     1      -7.097 -25.289  34.728  1.00  0.00     0.018 A 
ATOM      7  C   UNL     1      -6.294 -24.169  34.493  1.00  0.00     0.019 A 
ATOM      8  C   UNL     1      -6.445 -23.038  35.296  1.00  0.00     0.094 A 
ATOM      9  C   UNL     1      -7.401 -23.055  36.318  1.00  0.00     0.336 A 
ATOM     10  O   UNL     1      -7.552 -22.045  37.052  1.00  0.00    -0.246 OA
ATOM     11  O   UNL     1      -8.153 -24.134  36.519  1.00  0.00    -0.423 OA
ENDROOT
BRANCH   3  12
ATOM     12  O   UNL     1      -9.567 -28.589  35.526  1.00  0.00    -0.508 OA
ATOM     13  H   UNL     1     -10.557 -28.569  35.317  1.00  0.00     0.293 HD
ENDBRANCH   3  12
TORSDOF 1
ENDMDL
MODEL 4
REMARK VINA RESULT:    -5.004      3.094      4.446
REMARK INTER + INTRA:          -5.150
REMARK INTER:                  -5.150
REMARK INTRA:                   0.000
REMARK UNBOUND:                 0.000
REMARK SMILES O=c1ccc2ccc(O)cc2o1
REMARK SMILES IDX 6 1 7 2 8 3 10 4 11 5 5 6 4 7 3 8 2 9 1 10 12 11 9 12
REMARK H PARENT 9 13
REMARK Flexibility Score: inf
ROOT
ATOM      1  C   UNL     1      -7.858 -22.654  31.940  1.00  0.00     0.016 A 
ATOM      2  C   UNL     1      -8.885 -21.766  32.279  1.00  0.00     0.047 A 
ATOM      3  C   UNL     1      -9.267 -21.604  33.619  1.00  0.00     0.119 A 
ATOM      4  C   UNL     1      -8.618 -22.333  34.623  1.00  0.00     0.094 A 
ATOM      5  C   UNL     1      -7.589 -23.223  34.293  1.00  0.00     0.142 A 
ATOM      6  C   UNL     1      -7.207 -23.385  32.943  1.00  0.00     0.018 A 
ATOM      7  C   UNL     1      -6.176 -24.280  32.645  1.00  0.00     0.019 A 
ATOM      8  C   UNL     1      -5.560 -24.984  33.680  1.00  0.00     0.094 A 
ATOM      9  C   UNL     1      -5.992 -24.773  34.994  1.00  0.00     0.336 A 
ATOM     10  O   UNL     1      -5.448 -25.398  35.941  1.00  0.00    -0.246 OA
ATOM     11  O   UNL     1      -6.975 -23.914  35.250  1.00  0.00    -0.423 OA
ENDROOT
BRANCH   3  12
ATOM     12  O   UNL     1     -10.289 -20.722  33.963  1.00  0.00    -0.508 OA
ATOM     13  H   UNL     1     -10.757 -20.157  33.266  1.00  0.00     0.293 HD
ENDBRANCH   3  12
TORSDOF 1
ENDMDL
MODEL 5
REMARK VINA RESULT:    -5.001      1.983      4.444
REMARK INTER + INTRA:          -5.147
REMARK INTER:                  -5.147
REMARK INTRA:                   0.000
REMARK UNBOUND:                 0.000
REMARK SMILES O=c1ccc2ccc(O)cc2o1
REMARK SMILES IDX 6 1 7 2 8 3 10 4 11 5 5 6 4 7 3 8 2 9 1 10 12 11 9 12
REMARK H PARENT 9 13
REMARK Flexibility Score: inf
ROOT
ATOM      1  C   UNL     1      -5.095 -24.110  36.323  1.00  0.00     0.016 A 
ATOM      2  C   UNL     1      -4.770 -22.897  35.707  1.00  0.00     0.047 A 
ATOM      3  C   UNL     1      -5.137 -22.658  34.375  1.00  0.00     0.119 A 
ATOM      4  C   UNL     1      -5.833 -23.638  33.656  1.00  0.00     0.094 A 
ATOM      5  C   UNL     1      -6.163 -24.855  34.264  1.00  0.00     0.142 A 
ATOM      6  C   UNL     1      -5.792 -25.093  35.605  1.00  0.00     0.018 A 
ATOM      7  C   UNL     1      -6.136 -26.317  36.185  1.00  0.00     0.019 A 
ATOM      8  C   UNL     1      -6.828 -27.262  35.428  1.00  0.00     0.094 A 
ATOM      9  C   UNL     1      -7.163 -26.957  34.104  1.00  0.00     0.336 A 
ATOM     10  O   UNL     1      -7.789 -27.796  33.405  1.00  0.00    -0.246 OA
ATOM     11  O   UNL     1      -6.824 -25.783  33.577  1.00  0.00    -0.423 OA
ENDROOT
BRANCH   3  12
ATOM     12  O   UNL     1      -4.816 -21.452  33.756  1.00  0.00    -0.508 OA
ATOM     13  H   UNL     1      -3.993 -21.359  33.174  1.00  0.00     0.293 HD
ENDBRANCH   3  12
TORSDOF 1
ENDMDL
MODEL 6
REMARK VINA RESULT:    -4.860      1.844      4.725
REMARK INTER + INTRA:          -5.002
REMARK INTER:                  -5.002
REMARK INTRA:                   0.000
REMARK UNBOUND:                 0.000
REMARK SMILES O=c1ccc2ccc(O)cc2o1
REMARK SMILES IDX 6 1 7 2 8 3 10 4 11 5 5 6 4 7 3 8 2 9 1 10 12 11 9 12
REMARK H PARENT 9 13
REMARK Flexibility Score: inf
ROOT
ATOM      1  C   UNL     1      -5.130 -24.758  34.382  1.00  0.00     0.016 A 
ATOM      2  C   UNL     1      -5.113 -23.501  33.768  1.00  0.00     0.047 A 
ATOM      3  C   UNL     1      -6.240 -22.669  33.826  1.00  0.00     0.119 A 
ATOM      4  C   UNL     1      -7.389 -23.097  34.502  1.00  0.00     0.094 A 
ATOM      5  C   UNL     1      -7.416 -24.352  35.120  1.00  0.00     0.142 A 
ATOM      6  C   UNL     1      -6.280 -25.188  35.059  1.00  0.00     0.018 A 
ATOM      7  C   UNL     1      -6.336 -26.436  35.686  1.00  0.00     0.019 A 
ATOM      8  C   UNL     1      -7.504 -26.818  36.346  1.00  0.00     0.094 A 
ATOM      9  C   UNL     1      -8.591 -25.937  36.365  1.00  0.00     0.336 A 
ATOM     10  O   UNL     1      -9.653 -26.264  36.956  1.00  0.00    -0.246 OA
ATOM     11  O   UNL     1      -8.510 -24.755  35.761  1.00  0.00    -0.423 OA
ENDROOT
BRANCH   3  12
ATOM     12  O   UNL     1      -6.229 -21.416  33.217  1.00  0.00    -0.508 OA
ATOM     13  H   UNL     1      -6.189 -20.563  33.761  1.00  0.00     0.293 HD
ENDBRANCH   3  12
TORSDOF 1
ENDMDL
MODEL 7
REMARK VINA RESULT:    -4.846      1.745      2.311
REMARK INTER + INTRA:          -4.988
REMARK INTER:                  -4.988
REMARK INTRA:                   0.000
REMARK UNBOUND:                 0.000
REMARK SMILES O=c1ccc2ccc(O)cc2o1
REMARK SMILES IDX 6 1 7 2 8 3 10 4 11 5 5 6 4 7 3 8 2 9 1 10 12 11 9 12
REMARK H PARENT 9 13
REMARK Flexibility Score: inf
ROOT
ATOM      1  C   UNL     1      -6.251 -26.561  35.621  1.00  0.00     0.016 A 
ATOM      2  C   UNL     1      -7.392 -27.022  36.288  1.00  0.00     0.047 A 
ATOM      3  C   UNL     1      -8.500 -26.180  36.461  1.00  0.00     0.119 A 
ATOM      4  C   UNL     1      -8.467 -24.872  35.963  1.00  0.00     0.094 A 
ATOM      5  C   UNL     1      -7.331 -24.402  35.294  1.00  0.00     0.142 A 
ATOM      6  C   UNL     1      -6.216 -25.252  35.122  1.00  0.00     0.018 A 
ATOM      7  C   UNL     1      -5.096 -24.754  34.449  1.00  0.00     0.019 A 
ATOM      8  C   UNL     1      -5.111 -23.443  33.973  1.00  0.00     0.094 A 
ATOM      9  C   UNL     1      -6.251 -22.660  34.180  1.00  0.00     0.336 A 
ATOM     10  O   UNL     1      -6.284 -21.475  33.756  1.00  0.00    -0.246 OA
ATOM     11  O   UNL     1      -7.304 -23.158  34.823  1.00  0.00    -0.423 OA
ENDROOT
BRANCH   3  12
ATOM     12  O   UNL     1      -9.638 -26.633  37.125  1.00  0.00    -0.508 OA
ATOM     13  H   UNL     1      -9.612 -26.889  38.104  1.00  0.00     0.293 HD
ENDBRANCH   3  12
TORSDOF 1
ENDMDL
MODEL 8
REMARK VINA RESULT:    -4.741      3.057      4.298
REMARK INTER + INTRA:          -4.880
REMARK INTER:                  -4.880
REMARK INTRA:                   0.000
REMARK UNBOUND:                 0.000
REMARK SMILES O=c1ccc2ccc(O)cc2o1
REMARK SMILES IDX 6 1 7 2 8 3 10 4 11 5 5 6 4 7 3 8 2 9 1 10 12 11 9 12
REMARK H PARENT 9 13
REMARK Flexibility Score: inf
ROOT
ATOM      1  C   UNL     1      -5.906 -24.515  33.104  1.00  0.00     0.016 A 
ATOM      2  C   UNL     1      -5.401 -25.056  34.292  1.00  0.00     0.047 A 
ATOM      3  C   UNL     1      -5.960 -24.698  35.527  1.00  0.00     0.119 A 
ATOM      4  C   UNL     1      -7.030 -23.796  35.574  1.00  0.00     0.094 A 
ATOM      5  C   UNL     1      -7.543 -23.250  34.391  1.00  0.00     0.142 A 
ATOM      6  C   UNL     1      -6.977 -23.611  33.149  1.00  0.00     0.018 A 
ATOM      7  C   UNL     1      -7.511 -23.050  31.985  1.00  0.00     0.019 A 
ATOM      8  C   UNL     1      -8.576 -22.155  32.084  1.00  0.00     0.094 A 
ATOM      9  C   UNL     1      -9.085 -21.844  33.349  1.00  0.00     0.336 A 
ATOM     10  O   UNL     1     -10.047 -21.039  33.458  1.00  0.00    -0.246 OA
ATOM     11  O   UNL     1      -8.559 -22.393  34.441  1.00  0.00    -0.423 OA
ENDROOT
BRANCH   3  12
ATOM     12  O   UNL     1      -5.462 -25.233  36.713  1.00  0.00    -0.508 OA
ATOM     13  H   UNL     1      -4.593 -25.753  36.734  1.00  0.00     0.293 HD
ENDBRANCH   3  12
TORSDOF 1
ENDMDL
MODEL 9
REMARK VINA RESULT:    -4.699      5.145      7.934
REMARK INTER + INTRA:          -4.836
REMARK INTER:                  -4.836
REMARK INTRA:                   0.000
REMARK UNBOUND:                 0.000
REMARK SMILES O=c1ccc2ccc(O)cc2o1
REMARK SMILES IDX 6 1 7 2 8 3 10 4 11 5 5 6 4 7 3 8 2 9 1 10 12 11 9 12
REMARK H PARENT 9 13
REMARK Flexibility Score: inf
ROOT
ATOM      1  C   UNL     1      -4.724 -17.582  35.254  1.00  0.00     0.016 A 
ATOM      2  C   UNL     1      -3.606 -17.264  34.476  1.00  0.00     0.047 A 
ATOM      3  C   UNL     1      -3.285 -18.033  33.349  1.00  0.00     0.119 A 
ATOM      4  C   UNL     1      -4.086 -19.127  32.999  1.00  0.00     0.094 A 
ATOM      5  C   UNL     1      -5.207 -19.453  33.771  1.00  0.00     0.142 A 
ATOM      6  C   UNL     1      -5.528 -18.677  34.906  1.00  0.00     0.018 A 
ATOM      7  C   UNL     1      -6.654 -19.027  35.657  1.00  0.00     0.019 A 
ATOM      8  C   UNL     1      -7.421 -20.126  35.268  1.00  0.00     0.094 A 
ATOM      9  C   UNL     1      -7.042 -20.849  34.132  1.00  0.00     0.336 A 
ATOM     10  O   UNL     1      -7.722 -21.842  33.765  1.00  0.00    -0.246 OA
ATOM     11  O   UNL     1      -5.966 -20.494  33.435  1.00  0.00    -0.423 OA
ENDROOT
BRANCH   3  12
ATOM     12  O   UNL     1      -2.172 -17.721  32.571  1.00  0.00    -0.508 OA
ATOM     13  H   UNL     1      -1.469 -18.415  32.352  1.00  0.00     0.293 HD
ENDBRANCH   3  12
TORSDOF 1
ENDMDL
