MODEL 1
REMARK VINA RESULT:    -4.838      0.000      0.000
REMARK INTER + INTRA:          -6.743
REMARK INTER:                  -6.535
REMARK INTRA:                  -0.208
REMARK UNBOUND:                -0.208
REMARK SMILES C=C1C(=O)O[C@@H]2[C@@H]1CCC(C)=CCC[C@@]1(C)O[C@@H]21
REMARK SMILES IDX 6 1 7 2 2 3 1 4 3 5 4 6 5 7 8 8 9 9 10 10 11 11 12 12 18 14
REMARK SMILES IDX 15 15 17 16 16 17 14 18 13 19
REMARK H PARENT
REMARK Flexibility Score: 70.00
ROOT
ATOM      1  C   UNL     1      -3.470   5.943 -20.233  1.00  0.00     0.216 C 
ATOM      2  C   UNL     1      -3.316   5.261 -21.640  1.00  0.00     0.070 C 
ATOM      3  C   UNL     1      -3.526   3.805 -21.350  1.00  0.00     0.037 C 
ATOM      4  C   UNL     1      -3.417   2.809 -22.228  1.00  0.00     0.021 C 
ATOM      5  C   UNL     1      -3.796   3.664 -19.943  1.00  0.00     0.334 C 
ATOM      6  O   UNL     1      -4.026   2.580 -19.344  1.00  0.00    -0.247 OA
ATOM      7  O   UNL     1      -3.761   4.889 -19.316  1.00  0.00    -0.455 OA
ENDROOT
BRANCH   2   8
ATOM      8  C   UNL     1      -4.343   5.790 -22.686  1.00  0.00     0.017 C 
BRANCH   8   9
ATOM      9  C   UNL     1      -4.090   7.257 -23.103  1.00  0.00     0.031 C 
BRANCH   9  10
ATOM     10  C   UNL     1      -5.148   8.204 -22.553  1.00  0.00    -0.077 C 
ATOM     11  C   UNL     1      -6.580   8.032 -22.995  1.00  0.00     0.039 C 
ATOM     12  C   UNL     1      -4.869   9.206 -21.685  1.00  0.00    -0.028 CG0
ATOM     13  G   UNL     1      -3.505   9.505 -21.114  1.00  0.00     0.000 G0
ENDBRANCH   9  10
ENDBRANCH   8   9
ENDBRANCH   2   8
BRANCH   1  14
ATOM     14  C   UNL     1      -2.165   6.633 -19.793  1.00  0.00     0.192 C 
ATOM     15  C   UNL     1      -2.123   8.102 -19.519  1.00  0.00     0.096 C 
ATOM     16  O   UNL     1      -2.280   7.157 -18.484  1.00  0.00    -0.362 OA
ATOM     17  C   UNL     1      -0.747   8.769 -19.462  1.00  0.00     0.045 C 
BRANCH  15  18
ATOM     18  C   UNL     1      -3.362   9.003 -19.667  1.00  0.00     0.042 C 
BRANCH  18  19
ATOM     19  C   UNL     1      -3.503   9.523 -21.106  1.00  0.00     0.030 CG0
ATOM     20  G   UNL     1      -4.858   9.187 -21.678  1.00  0.00     0.000 G0
ENDBRANCH  18  19
ENDBRANCH  15  18
ENDBRANCH   1  14
TORSDOF 0
ENDMDL
MODEL 2
REMARK VINA RESULT:    -4.835      1.942      2.691
REMARK INTER + INTRA:          -6.740
REMARK INTER:                  -6.492
REMARK INTRA:                  -0.248
REMARK UNBOUND:                -0.208
REMARK SMILES C=C1C(=O)O[C@@H]2[C@@H]1CCC(C)=CCC[C@@]1(C)O[C@@H]21
REMARK SMILES IDX 6 1 7 2 2 3 1 4 3 5 4 6 5 7 8 8 9 9 10 10 11 11 12 12 18 14
REMARK SMILES IDX 15 15 17 16 16 17 14 18 13 19
REMARK H PARENT
REMARK Flexibility Score: 70.00
ROOT
ATOM      1  C   UNL     1      -3.096   4.618 -19.035  1.00  0.00     0.216 C 
ATOM      2  C   UNL     1      -2.907   4.585 -20.594  1.00  0.00     0.070 C 
ATOM      3  C   UNL     1      -3.670   3.365 -21.015  1.00  0.00     0.037 C 
ATOM      4  C   UNL     1      -3.740   2.875 -22.253  1.00  0.00     0.021 C 
ATOM      5  C   UNL     1      -4.254   2.775 -19.839  1.00  0.00     0.334 C 
ATOM      6  O   UNL     1      -4.968   1.738 -19.815  1.00  0.00    -0.247 OA
ATOM      7  O   UNL     1      -3.920   3.497 -18.716  1.00  0.00    -0.455 OA
ENDROOT
BRANCH   2   8
ATOM      8  C   UNL     1      -3.445   5.868 -21.297  1.00  0.00     0.017 C 
BRANCH   8   9
ATOM      9  C   UNL     1      -2.385   6.986 -21.423  1.00  0.00     0.031 C 
BRANCH   9  10
ATOM     10  C   UNL     1      -2.790   8.251 -20.679  1.00  0.00    -0.077 C 
ATOM     11  C   UNL     1      -3.886   9.114 -21.253  1.00  0.00     0.039 C 
ATOM     12  C   UNL     1      -2.208   8.651 -19.523  1.00  0.00    -0.028 CG0
ATOM     13  G   UNL     1      -1.122   7.901 -18.793  1.00  0.00     0.000 G0
ENDBRANCH   9  10
ENDBRANCH   8   9
ENDBRANCH   2   8
BRANCH   1  14
ATOM     14  C   UNL     1      -1.752   4.466 -18.298  1.00  0.00     0.192 C 
ATOM     15  C   UNL     1      -1.100   5.635 -17.633  1.00  0.00     0.096 C 
ATOM     16  O   UNL     1      -1.895   4.719 -16.914  1.00  0.00    -0.362 OA
ATOM     17  C   UNL     1       0.379   5.500 -17.262  1.00  0.00     0.045 C 
BRANCH  15  18
ATOM     18  C   UNL     1      -1.720   7.043 -17.650  1.00  0.00     0.042 C 
BRANCH  18  19
ATOM     19  C   UNL     1      -1.131   7.897 -18.785  1.00  0.00     0.030 CG0
ATOM     20  G   UNL     1      -2.212   8.651 -19.518  1.00  0.00     0.000 G0
ENDBRANCH  18  19
ENDBRANCH  15  18
ENDBRANCH   1  14
TORSDOF 0
ENDMDL
MODEL 3
REMARK VINA RESULT:    -4.748      2.196      4.097
REMARK INTER + INTRA:          -6.622
REMARK INTER:                  -6.389
REMARK INTRA:                  -0.233
REMARK UNBOUND:                -0.208
REMARK SMILES C=C1C(=O)O[C@@H]2[C@@H]1CCC(C)=CCC[C@@]1(C)O[C@@H]21
REMARK SMILES IDX 6 1 7 2 2 3 1 4 3 5 4 6 5 7 8 8 9 9 10 10 11 11 12 12 18 14
REMARK SMILES IDX 15 15 17 16 16 17 14 18 13 19
REMARK H PARENT
REMARK Flexibility Score: 70.00
ROOT
ATOM      1  C   UNL     1      -2.656   4.676 -19.292  1.00  0.00     0.216 C 
ATOM      2  C   UNL     1      -3.661   5.627 -18.549  1.00  0.00     0.070 C 
ATOM      3  C   UNL     1      -3.389   5.361 -17.098  1.00  0.00     0.037 C 
ATOM      4  C   UNL     1      -4.055   5.884 -16.069  1.00  0.00     0.021 C 
ATOM      5  C   UNL     1      -2.333   4.388 -17.014  1.00  0.00     0.334 C 
ATOM      6  O   UNL     1      -1.841   3.929 -15.948  1.00  0.00    -0.247 OA
ATOM      7  O   UNL     1      -1.923   4.004 -18.269  1.00  0.00    -0.455 OA
ENDROOT
BRANCH   2   8
ATOM      8  C   UNL     1      -3.450   7.130 -18.904  1.00  0.00     0.017 C 
BRANCH   8   9
ATOM      9  C   UNL     1      -4.599   7.726 -19.749  1.00  0.00     0.031 C 
BRANCH   9  10
ATOM     10  C   UNL     1      -4.107   8.292 -21.074  1.00  0.00    -0.077 C 
ATOM     11  C   UNL     1      -3.605   9.714 -21.117  1.00  0.00     0.039 C 
ATOM     12  C   UNL     1      -4.103   7.584 -22.229  1.00  0.00    -0.028 CG0
ATOM     13  G   UNL     1      -4.538   6.146 -22.368  1.00  0.00     0.000 G0
ENDBRANCH   9  10
ENDBRANCH   8   9
ENDBRANCH   2   8
BRANCH   1  14
ATOM     14  C   UNL     1      -3.396   3.624 -20.141  1.00  0.00     0.192 C 
ATOM     15  C   UNL     1      -3.712   3.876 -21.580  1.00  0.00     0.096 C 
ATOM     16  O   UNL     1      -2.575   3.140 -21.186  1.00  0.00    -0.362 OA
ATOM     17  C   UNL     1      -4.757   2.974 -22.240  1.00  0.00     0.045 C 
BRANCH  15  18
ATOM     18  C   UNL     1      -3.330   5.187 -22.289  1.00  0.00     0.042 C 
BRANCH  18  19
ATOM     19  C   UNL     1      -4.533   6.138 -22.386  1.00  0.00     0.030 CG0
ATOM     20  G   UNL     1      -4.107   7.576 -22.226  1.00  0.00     0.000 G0
ENDBRANCH  18  19
ENDBRANCH  15  18
ENDBRANCH   1  14
TORSDOF 0
ENDMDL
MODEL 4
REMARK VINA RESULT:    -4.747      2.515      4.396
REMARK INTER + INTRA:          -6.620
REMARK INTER:                  -6.539
REMARK INTRA:                  -0.081
REMARK UNBOUND:                -0.208
REMARK SMILES C=C1C(=O)O[C@@H]2[C@@H]1CCC(C)=CCC[C@@]1(C)O[C@@H]21
REMARK SMILES IDX 6 1 7 2 2 3 1 4 3 5 4 6 5 7 8 8 9 9 10 10 11 11 12 12 18 14
REMARK SMILES IDX 15 15 17 16 16 17 14 18 13 19
REMARK H PARENT
REMARK Flexibility Score: 70.00
ROOT
ATOM      1  C   UNL     1      -3.063   4.978 -21.368  1.00  0.00     0.216 C 
ATOM      2  C   UNL     1      -3.265   4.321 -19.956  1.00  0.00     0.070 C 
ATOM      3  C   UNL     1      -4.044   3.075 -20.255  1.00  0.00     0.037 C 
ATOM      4  C   UNL     1      -4.521   2.216 -19.355  1.00  0.00     0.021 C 
ATOM      5  C   UNL     1      -4.247   3.007 -21.678  1.00  0.00     0.334 C 
ATOM      6  O   UNL     1      -4.859   2.091 -22.290  1.00  0.00    -0.247 OA
ATOM      7  O   UNL     1      -3.684   4.096 -22.303  1.00  0.00    -0.455 OA
ENDROOT
BRANCH   2   8
ATOM      8  C   UNL     1      -1.919   3.996 -19.240  1.00  0.00     0.017 C 
BRANCH   8   9
ATOM      9  C   UNL     1      -1.801   4.639 -17.839  1.00  0.00     0.031 C 
BRANCH   9  10
ATOM     10  C   UNL     1      -0.594   5.561 -17.727  1.00  0.00    -0.077 C 
ATOM     11  C   UNL     1       0.687   5.017 -17.147  1.00  0.00     0.039 C 
ATOM     12  C   UNL     1      -0.613   6.858 -18.118  1.00  0.00    -0.028 CG0
ATOM     13  G   UNL     1      -1.792   7.560 -18.745  1.00  0.00     0.000 G0
ENDBRANCH   9  10
ENDBRANCH   8   9
ENDBRANCH   2   8
BRANCH   1  14
ATOM     14  C   UNL     1      -3.752   6.354 -21.456  1.00  0.00     0.192 C 
ATOM     15  C   UNL     1      -3.083   7.586 -20.936  1.00  0.00     0.096 C 
ATOM     16  O   UNL     1      -3.034   7.232 -22.300  1.00  0.00    -0.362 OA
ATOM     17  C   UNL     1      -3.959   8.821 -20.712  1.00  0.00     0.045 C 
BRANCH  15  18
ATOM     18  C   UNL     1      -1.690   7.554 -20.284  1.00  0.00     0.042 C 
BRANCH  18  19
ATOM     19  C   UNL     1      -1.793   7.569 -18.751  1.00  0.00     0.030 CG0
ATOM     20  G   UNL     1      -0.617   6.868 -18.118  1.00  0.00     0.000 G0
ENDBRANCH  18  19
ENDBRANCH  15  18
ENDBRANCH   1  14
TORSDOF 0
ENDMDL
MODEL 5
REMARK VINA RESULT:    -4.620      3.357      5.160
REMARK INTER + INTRA:          -6.449
REMARK INTER:                  -6.191
REMARK INTRA:                  -0.258
REMARK UNBOUND:                -0.208
REMARK SMILES C=C1C(=O)O[C@@H]2[C@@H]1CCC(C)=CCC[C@@]1(C)O[C@@H]21
REMARK SMILES IDX 6 1 7 2 2 3 1 4 3 5 4 6 5 7 8 8 9 9 10 10 11 11 12 12 18 14
REMARK SMILES IDX 15 15 17 16 16 17 14 18 13 19
REMARK H PARENT
REMARK Flexibility Score: 70.00
ROOT
ATOM      1  C   UNL     1      -3.142   7.018 -19.848  1.00  0.00     0.216 C 
ATOM      2  C   UNL     1      -3.323   5.749 -20.756  1.00  0.00     0.070 C 
ATOM      3  C   UNL     1      -4.025   6.282 -21.969  1.00  0.00     0.037 C 
ATOM      4  C   UNL     1      -4.464   5.560 -22.999  1.00  0.00     0.021 C 
ATOM      5  C   UNL     1      -4.205   7.699 -21.794  1.00  0.00     0.334 C 
ATOM      6  O   UNL     1      -4.756   8.477 -22.618  1.00  0.00    -0.247 OA
ATOM      7  O   UNL     1      -3.699   8.108 -20.582  1.00  0.00    -0.455 OA
ENDROOT
BRANCH   2   8
ATOM      8  C   UNL     1      -1.970   5.071 -21.129  1.00  0.00     0.017 C 
BRANCH   8   9
ATOM      9  C   UNL     1      -1.725   3.741 -20.379  1.00  0.00     0.031 C 
BRANCH   9  10
ATOM     10  C   UNL     1      -0.440   3.767 -19.563  1.00  0.00    -0.077 C 
ATOM     11  C   UNL     1       0.864   3.449 -20.250  1.00  0.00     0.039 C 
ATOM     12  C   UNL     1      -0.406   4.057 -18.240  1.00  0.00    -0.028 CG0
ATOM     13  G   UNL     1      -1.604   4.427 -17.401  1.00  0.00     0.000 G0
ENDBRANCH   9  10
ENDBRANCH   8   9
ENDBRANCH   2   8
BRANCH   1  14
ATOM     14  C   UNL     1      -3.907   6.877 -18.518  1.00  0.00     0.192 C 
ATOM     15  C   UNL     1      -3.227   6.372 -17.286  1.00  0.00     0.096 C 
ATOM     16  O   UNL     1      -3.389   7.751 -17.535  1.00  0.00    -0.362 OA
ATOM     17  C   UNL     1      -4.117   5.906 -16.132  1.00  0.00     0.045 C 
BRANCH  15  18
ATOM     18  C   UNL     1      -1.745   5.961 -17.274  1.00  0.00     0.042 C 
BRANCH  18  19
ATOM     19  C   UNL     1      -1.590   4.435 -17.370  1.00  0.00     0.030 CG0
ATOM     20  G   UNL     1      -0.410   4.060 -18.232  1.00  0.00     0.000 G0
ENDBRANCH  18  19
ENDBRANCH  15  18
ENDBRANCH   1  14
TORSDOF 0
ENDMDL
MODEL 6
REMARK VINA RESULT:    -4.553      2.617      4.406
REMARK INTER + INTRA:          -6.359
REMARK INTER:                  -6.113
REMARK INTRA:                  -0.245
REMARK UNBOUND:                -0.208
REMARK SMILES C=C1C(=O)O[C@@H]2[C@@H]1CCC(C)=CCC[C@@]1(C)O[C@@H]21
REMARK SMILES IDX 6 1 7 2 2 3 1 4 3 5 4 6 5 7 8 8 9 9 10 10 11 11 12 12 18 14
REMARK SMILES IDX 15 15 17 16 16 17 14 18 13 19
REMARK H PARENT
REMARK Flexibility Score: 70.00
ROOT
ATOM      1  C   UNL     1      -4.940   8.629 -20.221  1.00  0.00     0.216 C 
ATOM      2  C   UNL     1      -6.295   8.139 -20.844  1.00  0.00     0.070 C 
ATOM      3  C   UNL     1      -7.335   8.846 -20.027  1.00  0.00     0.037 C 
ATOM      4  C   UNL     1      -8.654   8.689 -20.133  1.00  0.00     0.021 C 
ATOM      5  C   UNL     1      -6.658   9.669 -19.060  1.00  0.00     0.334 C 
ATOM      6  O   UNL     1      -7.216  10.410 -18.207  1.00  0.00    -0.247 OA
ATOM      7  O   UNL     1      -5.293   9.538 -19.180  1.00  0.00    -0.455 OA
ENDROOT
BRANCH   2   8
ATOM      8  C   UNL     1      -6.427   8.482 -22.359  1.00  0.00     0.017 C 
BRANCH   8   9
ATOM      9  C   UNL     1      -6.211   7.263 -23.284  1.00  0.00     0.031 C 
BRANCH   9  10
ATOM     10  C   UNL     1      -5.067   7.479 -24.266  1.00  0.00    -0.077 C 
ATOM     11  C   UNL     1      -5.332   8.254 -25.533  1.00  0.00     0.039 C 
ATOM     12  C   UNL     1      -3.815   7.003 -24.064  1.00  0.00    -0.028 CG0
ATOM     13  G   UNL     1      -3.363   6.236 -22.846  1.00  0.00     0.000 G0
ENDBRANCH   9  10
ENDBRANCH   8   9
ENDBRANCH   2   8
BRANCH   1  14
ATOM     14  C   UNL     1      -4.144   7.462 -19.607  1.00  0.00     0.192 C 
ATOM     15  C   UNL     1      -3.063   6.774 -20.379  1.00  0.00     0.096 C 
ATOM     16  O   UNL     1      -2.779   7.799 -19.452  1.00  0.00    -0.362 OA
ATOM     17  C   UNL     1      -2.590   5.412 -19.866  1.00  0.00     0.045 C 
BRANCH  15  18
ATOM     18  C   UNL     1      -2.691   7.180 -21.815  1.00  0.00     0.042 C 
BRANCH  18  19
ATOM     19  C   UNL     1      -3.344   6.244 -22.845  1.00  0.00     0.030 CG0
ATOM     20  G   UNL     1      -3.818   7.009 -24.055  1.00  0.00     0.000 G0
ENDBRANCH  18  19
ENDBRANCH  15  18
ENDBRANCH   1  14
TORSDOF 0
ENDMDL
MODEL 7
REMARK VINA RESULT:    -4.289      2.348      3.853
REMARK INTER + INTRA:          -6.002
REMARK INTER:                  -6.280
REMARK INTRA:                   0.278
REMARK UNBOUND:                -0.208
REMARK SMILES C=C1C(=O)O[C@@H]2[C@@H]1CCC(C)=CCC[C@@]1(C)O[C@@H]21
REMARK SMILES IDX 6 1 7 2 2 3 1 4 3 5 4 6 5 7 8 8 9 9 10 10 11 11 12 12 18 14
REMARK SMILES IDX 15 15 17 16 16 17 14 18 13 19
REMARK H PARENT
REMARK Flexibility Score: 70.00
ROOT
ATOM      1  C   UNL     1      -1.985   5.897 -18.834  1.00  0.00     0.216 C 
ATOM      2  C   UNL     1      -1.072   4.996 -19.739  1.00  0.00     0.070 C 
ATOM      3  C   UNL     1       0.003   4.531 -18.803  1.00  0.00     0.037 C 
ATOM      4  C   UNL     1       1.063   3.794 -19.133  1.00  0.00     0.021 C 
ATOM      5  C   UNL     1      -0.273   5.078 -17.501  1.00  0.00     0.334 C 
ATOM      6  O   UNL     1       0.420   4.893 -16.465  1.00  0.00    -0.247 OA
ATOM      7  O   UNL     1      -1.408   5.855 -17.529  1.00  0.00    -0.455 OA
ENDROOT
BRANCH   2   8
ATOM      8  C   UNL     1      -1.839   3.796 -20.372  1.00  0.00     0.017 C 
BRANCH   8   9
ATOM      9  C   UNL     1      -3.376   3.950 -20.307  1.00  0.00     0.031 C 
BRANCH   9  10
ATOM     10  C   UNL     1      -4.022   3.866 -21.683  1.00  0.00    -0.077 C 
ATOM     11  C   UNL     1      -4.643   2.562 -22.118  1.00  0.00     0.039 C 
ATOM     12  C   UNL     1      -4.064   4.908 -22.549  1.00  0.00    -0.028 CG0
ATOM     13  G   UNL     1      -3.524   6.289 -22.272  1.00  0.00     0.000 G0
ENDBRANCH   9  10
ENDBRANCH   8   9
ENDBRANCH   2   8
BRANCH   1  14
ATOM     14  C   UNL     1      -2.000   7.359 -19.320  1.00  0.00     0.192 C 
ATOM     15  C   UNL     1      -2.983   7.821 -20.347  1.00  0.00     0.096 C 
ATOM     16  O   UNL     1      -3.207   8.004 -18.966  1.00  0.00    -0.362 OA
ATOM     17  C   UNL     1      -2.698   9.152 -21.046  1.00  0.00     0.045 C 
BRANCH  15  18
ATOM     18  C   UNL     1      -4.021   6.877 -20.977  1.00  0.00     0.042 C 
BRANCH  18  19
ATOM     19  C   UNL     1      -3.507   6.288 -22.300  1.00  0.00     0.030 CG0
ATOM     20  G   UNL     1      -4.071   4.910 -22.541  1.00  0.00     0.000 G0
ENDBRANCH  18  19
ENDBRANCH  15  18
ENDBRANCH   1  14
TORSDOF 0
ENDMDL
MODEL 8
REMARK VINA RESULT:    -4.246      3.131      5.208
REMARK INTER + INTRA:          -5.944
REMARK INTER:                  -5.694
REMARK INTRA:                  -0.250
REMARK UNBOUND:                -0.208
REMARK SMILES C=C1C(=O)O[C@@H]2[C@@H]1CCC(C)=CCC[C@@]1(C)O[C@@H]21
REMARK SMILES IDX 6 1 7 2 2 3 1 4 3 5 4 6 5 7 8 8 9 9 10 10 11 11 12 12 18 14
REMARK SMILES IDX 15 15 17 16 16 17 14 18 13 19
REMARK H PARENT
REMARK Flexibility Score: 70.00
ROOT
ATOM      1  C   UNL     1      -2.866   5.456 -20.433  1.00  0.00     0.216 C 
ATOM      2  C   UNL     1      -2.509   6.983 -20.526  1.00  0.00     0.070 C 
ATOM      3  C   UNL     1      -3.381   7.480 -21.641  1.00  0.00     0.037 C 
ATOM      4  C   UNL     1      -3.378   8.714 -22.144  1.00  0.00     0.021 C 
ATOM      5  C   UNL     1      -4.168   6.374 -22.119  1.00  0.00     0.334 C 
ATOM      6  O   UNL     1      -5.016   6.425 -23.049  1.00  0.00    -0.247 OA
ATOM      7  O   UNL     1      -3.866   5.226 -21.424  1.00  0.00    -0.455 OA
ENDROOT
BRANCH   2   8
ATOM      8  C   UNL     1      -2.783   7.753 -19.198  1.00  0.00     0.017 C 
BRANCH   8   9
ATOM      9  C   UNL     1      -1.500   8.051 -18.389  1.00  0.00     0.031 C 
BRANCH   9  10
ATOM     10  C   UNL     1      -1.546   7.447 -16.992  1.00  0.00    -0.077 C 
ATOM     11  C   UNL     1      -2.303   8.175 -15.909  1.00  0.00     0.039 C 
ATOM     12  C   UNL     1      -0.933   6.284 -16.665  1.00  0.00    -0.028 CG0
ATOM     13  G   UNL     1      -0.161   5.411 -17.622  1.00  0.00     0.000 G0
ENDBRANCH   9  10
ENDBRANCH   8   9
ENDBRANCH   2   8
BRANCH   1  14
ATOM     14  C   UNL     1      -1.646   4.570 -20.749  1.00  0.00     0.192 C 
ATOM     15  C   UNL     1      -0.797   4.005 -19.655  1.00  0.00     0.096 C 
ATOM     16  O   UNL     1      -1.828   3.256 -20.259  1.00  0.00    -0.362 OA
ATOM     17  C   UNL     1       0.583   3.468 -20.040  1.00  0.00     0.045 C 
BRANCH  15  18
ATOM     18  C   UNL     1      -1.082   4.279 -18.168  1.00  0.00     0.042 C 
BRANCH  18  19
ATOM     19  C   UNL     1      -0.170   5.388 -17.621  1.00  0.00     0.030 CG0
ATOM     20  G   UNL     1      -0.917   6.293 -16.673  1.00  0.00     0.000 G0
ENDBRANCH  18  19
ENDBRANCH  15  18
ENDBRANCH   1  14
TORSDOF 0
ENDMDL
MODEL 9
REMARK VINA RESULT:    -4.125     15.455     17.640
REMARK INTER + INTRA:          -5.780
REMARK INTER:                  -5.541
REMARK INTRA:                  -0.239
REMARK UNBOUND:                -0.208
REMARK SMILES C=C1C(=O)O[C@@H]2[C@@H]1CCC(C)=CCC[C@@]1(C)O[C@@H]21
REMARK SMILES IDX 6 1 7 2 2 3 1 4 3 5 4 6 5 7 8 8 9 9 10 10 11 11 12 12 18 14
REMARK SMILES IDX 15 15 17 16 16 17 14 18 13 19
REMARK H PARENT
REMARK Flexibility Score: 70.00
ROOT
ATOM      1  C   UNL     1     -13.076  -1.263 -33.081  1.00  0.00     0.216 C 
ATOM      2  C   UNL     1     -13.181  -1.897 -31.649  1.00  0.00     0.070 C 
ATOM      3  C   UNL     1     -11.943  -2.736 -31.544  1.00  0.00     0.037 C 
ATOM      4  C   UNL     1     -11.623  -3.534 -30.526  1.00  0.00     0.021 C 
ATOM      5  C   UNL     1     -11.197  -2.584 -32.765  1.00  0.00     0.334 C 
ATOM      6  O   UNL     1     -10.098  -3.141 -33.028  1.00  0.00    -0.247 OA
ATOM      7  O   UNL     1     -11.851  -1.743 -33.634  1.00  0.00    -0.455 OA
ENDROOT
BRANCH   2   8
ATOM      8  C   UNL     1     -13.246  -0.828 -30.515  1.00  0.00     0.017 C 
BRANCH   8   9
ATOM      9  C   UNL     1     -14.673  -0.608 -29.963  1.00  0.00     0.031 C 
BRANCH   9  10
ATOM     10  C   UNL     1     -15.133   0.835 -30.115  1.00  0.00    -0.077 C 
ATOM     11  C   UNL     1     -14.674   1.856 -29.104  1.00  0.00     0.039 C 
ATOM     12  C   UNL     1     -15.946   1.254 -31.114  1.00  0.00    -0.028 CG0
ATOM     13  G   UNL     1     -16.476   0.383 -32.226  1.00  0.00     0.000 G0
ENDBRANCH   9  10
ENDBRANCH   8   9
ENDBRANCH   2   8
BRANCH   1  14
ATOM     14  C   UNL     1     -14.237  -1.716 -33.987  1.00  0.00     0.192 C 
ATOM     15  C   UNL     1     -15.447  -0.859 -34.179  1.00  0.00     0.096 C 
ATOM     16  O   UNL     1     -14.381  -0.859 -35.103  1.00  0.00    -0.362 OA
ATOM     17  C   UNL     1     -16.694  -1.523 -34.768  1.00  0.00     0.045 C 
BRANCH  15  18
ATOM     18  C   UNL     1     -15.607   0.506 -33.487  1.00  0.00     0.042 C 
BRANCH  18  19
ATOM     19  C   UNL     1     -16.481   0.391 -32.227  1.00  0.00     0.030 CG0
ATOM     20  G   UNL     1     -15.951   1.260 -31.114  1.00  0.00     0.000 G0
ENDBRANCH  18  19
ENDBRANCH  15  18
ENDBRANCH   1  14
TORSDOF 0
ENDMDL
