MODEL 1
REMARK VINA RESULT:    -3.323      0.000      0.000
REMARK INTER + INTRA:          -4.425
REMARK INTER:                  -4.295
REMARK INTRA:                  -0.130
REMARK UNBOUND:                -0.130
REMARK SMILES CCCCCCC(=O)[O-]
REMARK SMILES IDX 5 1 6 2 7 3 8 4 9 5 4 6 3 7 2 8 1 9
REMARK H PARENT
REMARK Flexibility Score: inf
ROOT
ATOM      1  C   UNL     1     120.967 108.745 106.816  1.00  0.00     0.006 C 
ENDROOT
BRANCH   1   2
ATOM      2  C   UNL     1     120.072 107.705 106.130  1.00  0.00     0.053 C 
BRANCH   2   3
ATOM      3  C   UNL     1     120.797 106.987 105.032  1.00  0.00     0.041 C 
ATOM      4  O   UNL     1     120.261 106.849 103.901  1.00  0.00    -0.550 OA
ATOM      5  O   UNL     1     122.081 106.501 105.249  1.00  0.00    -0.550 OA
ENDBRANCH   2   3
ENDBRANCH   1   2
BRANCH   1   6
ATOM      6  C   UNL     1     120.300 109.353 108.062  1.00  0.00     0.000 C 
BRANCH   6   7
ATOM      7  C   UNL     1     121.158 109.197 109.327  1.00  0.00    -0.000 C 
BRANCH   7   8
ATOM      8  C   UNL     1     120.406 109.602 110.603  1.00  0.00    -0.003 C 
ATOM      9  C   UNL     1     119.100 110.316 110.268  1.00  0.00     0.004 C 
ENDBRANCH   7   8
ENDBRANCH   6   7
ENDBRANCH   1   6
TORSDOF 5
ENDMDL
MODEL 2
REMARK VINA RESULT:    -3.278      1.199      1.854
REMARK INTER + INTRA:          -4.366
REMARK INTER:                  -4.243
REMARK INTRA:                  -0.123
REMARK UNBOUND:                -0.130
REMARK SMILES CCCCCCC(=O)[O-]
REMARK SMILES IDX 5 1 6 2 7 3 8 4 9 5 4 6 3 7 2 8 1 9
REMARK H PARENT
REMARK Flexibility Score: inf
ROOT
ATOM      1  C   UNL     1     120.066 109.786 107.679  1.00  0.00     0.006 C 
ENDROOT
BRANCH   1   2
ATOM      2  C   UNL     1     121.238 109.079 106.987  1.00  0.00     0.053 C 
BRANCH   2   3
ATOM      3  C   UNL     1     120.787 107.871 106.224  1.00  0.00     0.041 C 
ATOM      4  O   UNL     1     119.558 107.638 106.075  1.00  0.00    -0.550 OA
ATOM      5  O   UNL     1     121.724 107.023 105.647  1.00  0.00    -0.550 OA
ENDBRANCH   2   3
ENDBRANCH   1   2
BRANCH   1   6
ATOM      6  C   UNL     1     120.104 109.614 109.207  1.00  0.00     0.000 C 
BRANCH   6   7
ATOM      7  C   UNL     1     119.270 110.674 109.942  1.00  0.00    -0.000 C 
BRANCH   7   8
ATOM      8  C   UNL     1     118.999 110.301 111.407  1.00  0.00    -0.003 C 
ATOM      9  C   UNL     1     120.297 109.973 112.139  1.00  0.00     0.004 C 
ENDBRANCH   7   8
ENDBRANCH   6   7
ENDBRANCH   1   6
TORSDOF 5
ENDMDL
MODEL 3
REMARK VINA RESULT:    -3.275      1.331      2.259
REMARK INTER + INTRA:          -4.362
REMARK INTER:                  -4.200
REMARK INTRA:                  -0.162
REMARK UNBOUND:                -0.130
REMARK SMILES CCCCCCC(=O)[O-]
REMARK SMILES IDX 5 1 6 2 7 3 8 4 9 5 4 6 3 7 2 8 1 9
REMARK H PARENT
REMARK Flexibility Score: inf
ROOT
ATOM      1  C   UNL     1     120.977 109.646 108.412  1.00  0.00     0.006 C 
ENDROOT
BRANCH   1   2
ATOM      2  C   UNL     1     119.968 109.234 107.332  1.00  0.00     0.053 C 
BRANCH   2   3
ATOM      3  C   UNL     1     120.506 108.143 106.457  1.00  0.00     0.041 C 
ATOM      4  O   UNL     1     121.745 107.928 106.401  1.00  0.00    -0.550 OA
ATOM      5  O   UNL     1     119.634 107.340 105.733  1.00  0.00    -0.550 OA
ENDBRANCH   2   3
ENDBRANCH   1   2
BRANCH   1   6
ATOM      6  C   UNL     1     120.473 109.326 109.830  1.00  0.00     0.000 C 
BRANCH   6   7
ATOM      7  C   UNL     1     119.276 110.195 110.242  1.00  0.00    -0.000 C 
BRANCH   7   8
ATOM      8  C   UNL     1     119.141 110.330 111.766  1.00  0.00    -0.003 C 
ATOM      9  C   UNL     1     120.485 110.117 112.457  1.00  0.00     0.004 C 
ENDBRANCH   7   8
ENDBRANCH   6   7
ENDBRANCH   1   6
TORSDOF 5
ENDMDL
MODEL 4
REMARK VINA RESULT:    -3.234      4.442      6.124
REMARK INTER + INTRA:          -4.309
REMARK INTER:                  -4.101
REMARK INTRA:                  -0.209
REMARK UNBOUND:                -0.130
REMARK SMILES CCCCCCC(=O)[O-]
REMARK SMILES IDX 5 1 6 2 7 3 8 4 9 5 4 6 3 7 2 8 1 9
REMARK H PARENT
REMARK Flexibility Score: inf
ROOT
ATOM      1  C   UNL     1     119.675 109.949 109.950  1.00  0.00     0.006 C 
ENDROOT
BRANCH   1   2
ATOM      2  C   UNL     1     119.007 110.268 111.293  1.00  0.00     0.053 C 
BRANCH   2   3
ATOM      3  C   UNL     1     119.993 110.791 112.293  1.00  0.00     0.041 C 
ATOM      4  O   UNL     1     120.785 110.002 112.874  1.00  0.00    -0.550 OA
ATOM      5  O   UNL     1     120.060 112.153 112.557  1.00  0.00    -0.550 OA
ENDBRANCH   2   3
ENDBRANCH   1   2
BRANCH   1   6
ATOM      6  C   UNL     1     119.716 111.171 109.016  1.00  0.00     0.000 C 
BRANCH   6   7
ATOM      7  C   UNL     1     120.149 110.809 107.587  1.00  0.00    -0.000 C 
BRANCH   7   8
ATOM      8  C   UNL     1     120.005 109.309 107.289  1.00  0.00    -0.003 C 
ATOM      9  C   UNL     1     121.305 108.731 106.740  1.00  0.00     0.004 C 
ENDBRANCH   7   8
ENDBRANCH   6   7
ENDBRANCH   1   6
TORSDOF 5
ENDMDL
MODEL 5
REMARK VINA RESULT:    -3.228     10.684     11.454
REMARK INTER + INTRA:          -4.301
REMARK INTER:                  -4.147
REMARK INTRA:                  -0.154
REMARK UNBOUND:                -0.130
REMARK SMILES CCCCCCC(=O)[O-]
REMARK SMILES IDX 5 1 6 2 7 3 8 4 9 5 4 6 3 7 2 8 1 9
REMARK H PARENT
REMARK Flexibility Score: inf
ROOT
ATOM      1  C   UNL     1     118.243 114.498 115.956  1.00  0.00     0.006 C 
ENDROOT
BRANCH   1   2
ATOM      2  C   UNL     1     117.935 115.943 115.544  1.00  0.00     0.053 C 
BRANCH   2   3
ATOM      3  C   UNL     1     118.830 116.406 114.435  1.00  0.00     0.041 C 
ATOM      4  O   UNL     1     119.177 115.608 113.525  1.00  0.00    -0.550 OA
ATOM      5  O   UNL     1     119.251 117.730 114.388  1.00  0.00    -0.550 OA
ENDBRANCH   2   3
ENDBRANCH   1   2
BRANCH   1   6
ATOM      6  C   UNL     1     117.584 114.123 117.295  1.00  0.00     0.000 C 
BRANCH   6   7
ATOM      7  C   UNL     1     118.018 112.739 117.800  1.00  0.00    -0.000 C 
BRANCH   7   8
ATOM      8  C   UNL     1     119.542 112.610 117.936  1.00  0.00    -0.003 C 
ATOM      9  C   UNL     1     120.024 111.249 117.444  1.00  0.00     0.004 C 
ENDBRANCH   7   8
ENDBRANCH   6   7
ENDBRANCH   1   6
TORSDOF 5
ENDMDL
MODEL 6
REMARK VINA RESULT:    -3.183      9.691     11.375
REMARK INTER + INTRA:          -4.243
REMARK INTER:                  -3.951
REMARK INTRA:                  -0.292
REMARK UNBOUND:                -0.130
REMARK SMILES CCCCCCC(=O)[O-]
REMARK SMILES IDX 5 1 6 2 7 3 8 4 9 5 4 6 3 7 2 8 1 9
REMARK H PARENT
REMARK Flexibility Score: inf
ROOT
ATOM      1  C   UNL     1     118.695 111.895 118.018  1.00  0.00     0.006 C 
ENDROOT
BRANCH   1   2
ATOM      2  C   UNL     1     118.830 113.407 117.797  1.00  0.00     0.053 C 
BRANCH   2   3
ATOM      3  C   UNL     1     117.657 113.965 117.050  1.00  0.00     0.041 C 
ATOM      4  O   UNL     1     117.820 114.891 116.212  1.00  0.00    -0.550 OA
ATOM      5  O   UNL     1     116.388 113.438 117.256  1.00  0.00    -0.550 OA
ENDBRANCH   2   3
ENDBRANCH   1   2
BRANCH   1   6
ATOM      6  C   UNL     1     119.914 111.119 117.488  1.00  0.00     0.000 C 
BRANCH   6   7
ATOM      7  C   UNL     1     120.877 112.008 116.686  1.00  0.00    -0.000 C 
BRANCH   7   8
ATOM      8  C   UNL     1     121.010 111.564 115.222  1.00  0.00    -0.003 C 
ATOM      9  C   UNL     1     120.629 112.692 114.269  1.00  0.00     0.004 C 
ENDBRANCH   7   8
ENDBRANCH   6   7
ENDBRANCH   1   6
TORSDOF 5
ENDMDL
MODEL 7
REMARK VINA RESULT:    -3.151      3.198      4.040
REMARK INTER + INTRA:          -4.202
REMARK INTER:                  -3.988
REMARK INTRA:                  -0.214
REMARK UNBOUND:                -0.130
REMARK SMILES CCCCCCC(=O)[O-]
REMARK SMILES IDX 5 1 6 2 7 3 8 4 9 5 4 6 3 7 2 8 1 9
REMARK H PARENT
REMARK Flexibility Score: inf
ROOT
ATOM      1  C   UNL     1     120.223 109.848 108.090  1.00  0.00     0.006 C 
ENDROOT
BRANCH   1   2
ATOM      2  C   UNL     1     119.951 111.308 107.705  1.00  0.00     0.053 C 
BRANCH   2   3
ATOM      3  C   UNL     1     121.128 111.930 107.017  1.00  0.00     0.041 C 
ATOM      4  O   UNL     1     122.232 111.326 106.980  1.00  0.00    -0.550 OA
ATOM      5  O   UNL     1     120.994 113.160 106.385  1.00  0.00    -0.550 OA
ENDBRANCH   2   3
ENDBRANCH   1   2
BRANCH   1   6
ATOM      6  C   UNL     1     120.161 109.628 109.611  1.00  0.00     0.000 C 
BRANCH   6   7
ATOM      7  C   UNL     1     118.994 110.379 110.271  1.00  0.00    -0.000 C 
BRANCH   7   8
ATOM      8  C   UNL     1     119.093 110.394 111.803  1.00  0.00    -0.003 C 
ATOM      9  C   UNL     1     120.499 110.028 112.266  1.00  0.00     0.004 C 
ENDBRANCH   7   8
ENDBRANCH   6   7
ENDBRANCH   1   6
TORSDOF 5
ENDMDL
MODEL 8
REMARK VINA RESULT:    -3.148      3.173      5.205
REMARK INTER + INTRA:          -4.198
REMARK INTER:                  -4.014
REMARK INTRA:                  -0.184
REMARK UNBOUND:                -0.130
REMARK SMILES CCCCCCC(=O)[O-]
REMARK SMILES IDX 5 1 6 2 7 3 8 4 9 5 4 6 3 7 2 8 1 9
REMARK H PARENT
REMARK Flexibility Score: inf
ROOT
ATOM      1  C   UNL     1     120.548 108.892 107.030  1.00  0.00     0.006 C 
ENDROOT
BRANCH   1   2
ATOM      2  C   UNL     1     120.187 109.505 108.389  1.00  0.00     0.053 C 
BRANCH   2   3
ATOM      3  C   UNL     1     119.985 110.987 108.293  1.00  0.00     0.041 C 
ATOM      4  O   UNL     1     119.488 111.623 109.259  1.00  0.00    -0.550 OA
ATOM      5  O   UNL     1     120.380 111.669 107.149  1.00  0.00    -0.550 OA
ENDBRANCH   2   3
ENDBRANCH   1   2
BRANCH   1   6
ATOM      6  C   UNL     1     119.409 108.026 106.463  1.00  0.00     0.000 C 
BRANCH   6   7
ATOM      7  C   UNL     1     119.924 106.859 105.608  1.00  0.00    -0.000 C 
BRANCH   7   8
ATOM      8  C   UNL     1     121.457 106.826 105.514  1.00  0.00    -0.003 C 
ATOM      9  C   UNL     1     121.917 105.964 104.343  1.00  0.00     0.004 C 
ENDBRANCH   7   8
ENDBRANCH   6   7
ENDBRANCH   1   6
TORSDOF 5
ENDMDL
MODEL 9
REMARK VINA RESULT:    -3.137      1.843      2.487
REMARK INTER + INTRA:          -4.183
REMARK INTER:                  -3.964
REMARK INTRA:                  -0.219
REMARK UNBOUND:                -0.130
REMARK SMILES CCCCCCC(=O)[O-]
REMARK SMILES IDX 5 1 6 2 7 3 8 4 9 5 4 6 3 7 2 8 1 9
REMARK H PARENT
REMARK Flexibility Score: inf
ROOT
ATOM      1  C   UNL     1     121.163 108.787 106.492  1.00  0.00     0.006 C 
ENDROOT
BRANCH   1   2
ATOM      2  C   UNL     1     121.211 107.256 106.408  1.00  0.00     0.053 C 
BRANCH   2   3
ATOM      3  C   UNL     1     120.261 106.727 105.377  1.00  0.00     0.041 C 
ATOM      4  O   UNL     1     120.412 107.026 104.163  1.00  0.00    -0.550 OA
ATOM      5  O   UNL     1     119.230 105.876 105.753  1.00  0.00    -0.550 OA
ENDBRANCH   2   3
ENDBRANCH   1   2
BRANCH   1   6
ATOM      6  C   UNL     1     119.913 109.289 107.234  1.00  0.00     0.000 C 
BRANCH   6   7
ATOM      7  C   UNL     1     120.094 110.702 107.809  1.00  0.00    -0.000 C 
BRANCH   7   8
ATOM      8  C   UNL     1     121.338 111.410 107.254  1.00  0.00    -0.003 C 
ATOM      9  C   UNL     1     120.973 112.756 106.634  1.00  0.00     0.004 C 
ENDBRANCH   7   8
ENDBRANCH   6   7
ENDBRANCH   1   6
TORSDOF 5
ENDMDL
