MODEL 1
REMARK VINA RESULT:    -2.903      0.000      0.000
REMARK INTER + INTRA:          -4.745
REMARK INTER:                  -4.176
REMARK INTRA:                  -0.569
REMARK UNBOUND:                -0.569
REMARK SMILES CCCCCCCCCO
REMARK SMILES IDX 6 1 5 2 4 3 3 4 2 5 1 6 7 7 8 8 9 9 10 10
REMARK H PARENT 10 11
REMARK Flexibility Score: inf
ROOT
ATOM      1  C   UNL     1     136.497 145.230 139.189  1.00  0.00     0.000 C 
ENDROOT
BRANCH   1   2
ATOM      2  C   UNL     1     137.939 144.836 138.848  1.00  0.00     0.000 C 
BRANCH   2   3
ATOM      3  C   UNL     1     138.894 146.022 139.035  1.00  0.00    -0.000 C 
BRANCH   3   4
ATOM      4  C   UNL     1     139.835 146.165 137.831  1.00  0.00    -0.000 C 
BRANCH   4   5
ATOM      5  C   UNL     1     139.454 147.342 136.920  1.00  0.00    -0.003 C 
ATOM      6  C   UNL     1     139.581 148.695 137.618  1.00  0.00     0.004 C 
ENDBRANCH   4   5
ENDBRANCH   3   4
ENDBRANCH   2   3
ENDBRANCH   1   2
BRANCH   1   7
ATOM      7  C   UNL     1     136.432 146.654 139.753  1.00  0.00     0.002 C 
BRANCH   7   8
ATOM      8  C   UNL     1     135.304 147.456 139.092  1.00  0.00     0.028 C 
BRANCH   8   9
ATOM      9  C   UNL     1     135.827 148.347 137.964  1.00  0.00     0.156 C 
BRANCH   9  10
ATOM     10  O   UNL     1     134.907 148.381 136.909  1.00  0.00    -0.396 OA
ATOM     11  H   UNL     1     135.393 148.763 136.132  1.00  0.00     0.210 HD
ENDBRANCH   9  10
ENDBRANCH   8   9
ENDBRANCH   7   8
ENDBRANCH   1   7
TORSDOF 8
ENDMDL
MODEL 2
REMARK VINA RESULT:    -2.898     12.592     14.448
REMARK INTER + INTRA:          -4.737
REMARK INTER:                  -4.179
REMARK INTRA:                  -0.558
REMARK UNBOUND:                -0.569
REMARK SMILES CCCCCCCCCO
REMARK SMILES IDX 6 1 5 2 4 3 3 4 2 5 1 6 7 7 8 8 9 9 10 10
REMARK H PARENT 10 11
REMARK Flexibility Score: inf
ROOT
ATOM      1  C   UNL     1     144.615 135.943 139.813  1.00  0.00     0.000 C 
ENDROOT
BRANCH   1   2
ATOM      2  C   UNL     1     144.049 136.995 138.851  1.00  0.00     0.000 C 
BRANCH   2   3
ATOM      3  C   UNL     1     142.533 136.831 138.685  1.00  0.00    -0.000 C 
BRANCH   3   4
ATOM      4  C   UNL     1     142.206 135.884 137.522  1.00  0.00    -0.000 C 
BRANCH   4   5
ATOM      5  C   UNL     1     141.486 134.608 137.985  1.00  0.00    -0.003 C 
ATOM      6  C   UNL     1     141.647 133.449 137.002  1.00  0.00     0.004 C 
ENDBRANCH   4   5
ENDBRANCH   3   4
ENDBRANCH   2   3
ENDBRANCH   1   2
BRANCH   1   7
ATOM      7  C   UNL     1     145.693 135.094 139.129  1.00  0.00     0.002 C 
BRANCH   7   8
ATOM      8  C   UNL     1     145.122 133.747 138.668  1.00  0.00     0.028 C 
BRANCH   8   9
ATOM      9  C   UNL     1     146.220 132.806 138.170  1.00  0.00     0.156 C 
BRANCH   9  10
ATOM     10  O   UNL     1     146.685 133.225 136.918  1.00  0.00    -0.396 OA
ATOM     11  H   UNL     1     145.971 132.997 136.268  1.00  0.00     0.210 HD
ENDBRANCH   9  10
ENDBRANCH   8   9
ENDBRANCH   7   8
ENDBRANCH   1   7
TORSDOF 8
ENDMDL
MODEL 3
REMARK VINA RESULT:    -2.875     13.035     14.814
REMARK INTER + INTRA:          -4.704
REMARK INTER:                  -3.972
REMARK INTRA:                  -0.732
REMARK UNBOUND:                -0.569
REMARK SMILES CCCCCCCCCO
REMARK SMILES IDX 6 1 5 2 4 3 3 4 2 5 1 6 7 7 8 8 9 9 10 10
REMARK H PARENT 10 11
REMARK Flexibility Score: inf
ROOT
ATOM      1  C   UNL     1     143.290 132.455 137.996  1.00  0.00     0.000 C 
ENDROOT
BRANCH   1   2
ATOM      2  C   UNL     1     141.904 133.111 137.963  1.00  0.00     0.000 C 
BRANCH   2   3
ATOM      3  C   UNL     1     141.830 134.190 136.876  1.00  0.00    -0.000 C 
BRANCH   3   4
ATOM      4  C   UNL     1     141.930 135.595 137.489  1.00  0.00    -0.000 C 
BRANCH   4   5
ATOM      5  C   UNL     1     141.449 135.638 138.948  1.00  0.00    -0.003 C 
ATOM      6  C   UNL     1     142.478 136.263 139.890  1.00  0.00     0.004 C 
ENDBRANCH   4   5
ENDBRANCH   3   4
ENDBRANCH   2   3
ENDBRANCH   1   2
BRANCH   1   7
ATOM      7  C   UNL     1     144.112 132.963 139.186  1.00  0.00     0.002 C 
BRANCH   7   8
ATOM      8  C   UNL     1     145.243 133.888 138.719  1.00  0.00     0.028 C 
BRANCH   8   9
ATOM      9  C   UNL     1     146.491 133.101 138.319  1.00  0.00     0.156 C 
BRANCH   9  10
ATOM     10  O   UNL     1     146.632 133.094 136.926  1.00  0.00    -0.396 OA
ATOM     11  H   UNL     1     146.415 132.171 136.631  1.00  0.00     0.210 HD
ENDBRANCH   9  10
ENDBRANCH   8   9
ENDBRANCH   7   8
ENDBRANCH   1   7
TORSDOF 8
ENDMDL
MODEL 4
REMARK VINA RESULT:    -2.843      1.114      2.996
REMARK INTER + INTRA:          -4.658
REMARK INTER:                  -4.067
REMARK INTRA:                  -0.592
REMARK UNBOUND:                -0.569
REMARK SMILES CCCCCCCCCO
REMARK SMILES IDX 6 1 5 2 4 3 3 4 2 5 1 6 7 7 8 8 9 9 10 10
REMARK H PARENT 10 11
REMARK Flexibility Score: inf
ROOT
ATOM      1  C   UNL     1     139.387 147.820 138.298  1.00  0.00     0.000 C 
ENDROOT
BRANCH   1   2
ATOM      2  C   UNL     1     139.377 146.910 137.064  1.00  0.00     0.000 C 
BRANCH   2   3
ATOM      3  C   UNL     1     139.728 145.465 137.441  1.00  0.00    -0.000 C 
BRANCH   3   4
ATOM      4  C   UNL     1     139.103 145.081 138.790  1.00  0.00    -0.000 C 
BRANCH   4   5
ATOM      5  C   UNL     1     137.846 144.211 138.631  1.00  0.00    -0.003 C 
ATOM      6  C   UNL     1     136.771 144.532 139.669  1.00  0.00     0.004 C 
ENDBRANCH   4   5
ENDBRANCH   3   4
ENDBRANCH   2   3
ENDBRANCH   1   2
BRANCH   1   7
ATOM      7  C   UNL     1     138.181 148.766 138.296  1.00  0.00     0.002 C 
BRANCH   7   8
ATOM      8  C   UNL     1     136.866 147.979 138.227  1.00  0.00     0.028 C 
BRANCH   8   9
ATOM      9  C   UNL     1     135.673 148.894 137.942  1.00  0.00     0.156 C 
BRANCH   9  10
ATOM     10  O   UNL     1     134.899 148.367 136.901  1.00  0.00    -0.396 OA
ATOM     11  H   UNL     1     135.467 148.407 136.088  1.00  0.00     0.210 HD
ENDBRANCH   9  10
ENDBRANCH   8   9
ENDBRANCH   7   8
ENDBRANCH   1   7
TORSDOF 8
ENDMDL
MODEL 5
REMARK VINA RESULT:    -2.832     12.716     14.402
REMARK INTER + INTRA:          -4.643
REMARK INTER:                  -4.146
REMARK INTRA:                  -0.497
REMARK UNBOUND:                -0.569
REMARK SMILES CCCCCCCCCO
REMARK SMILES IDX 6 1 5 2 4 3 3 4 2 5 1 6 7 7 8 8 9 9 10 10
REMARK H PARENT 10 11
REMARK Flexibility Score: inf
ROOT
ATOM      1  C   UNL     1     142.162 132.907 137.679  1.00  0.00     0.000 C 
ENDROOT
BRANCH   1   2
ATOM      2  C   UNL     1     141.834 134.262 137.040  1.00  0.00     0.000 C 
BRANCH   2   3
ATOM      3  C   UNL     1     141.621 135.340 138.111  1.00  0.00    -0.000 C 
BRANCH   3   4
ATOM      4  C   UNL     1     142.540 136.546 137.866  1.00  0.00    -0.000 C 
BRANCH   4   5
ATOM      5  C   UNL     1     143.255 137.012 139.144  1.00  0.00    -0.003 C 
ATOM      6  C   UNL     1     144.771 136.831 139.071  1.00  0.00     0.004 C 
ENDBRANCH   4   5
ENDBRANCH   3   4
ENDBRANCH   2   3
ENDBRANCH   1   2
BRANCH   1   7
ATOM      7  C   UNL     1     143.313 133.035 138.684  1.00  0.00     0.002 C 
BRANCH   7   8
ATOM      8  C   UNL     1     144.595 132.396 138.137  1.00  0.00     0.028 C 
BRANCH   8   9
ATOM      9  C   UNL     1     145.748 133.399 138.077  1.00  0.00     0.156 C 
BRANCH   9  10
ATOM     10  O   UNL     1     146.584 133.110 136.992  1.00  0.00    -0.396 OA
ATOM     11  H   UNL     1     147.344 132.588 137.361  1.00  0.00     0.210 HD
ENDBRANCH   9  10
ENDBRANCH   8   9
ENDBRANCH   7   8
ENDBRANCH   1   7
TORSDOF 8
ENDMDL
MODEL 6
REMARK VINA RESULT:    -2.783      8.546     10.113
REMARK INTER + INTRA:          -4.572
REMARK INTER:                  -4.066
REMARK INTRA:                  -0.506
REMARK UNBOUND:                -0.569
REMARK SMILES CCCCCCCCCO
REMARK SMILES IDX 6 1 5 2 4 3 3 4 2 5 1 6 7 7 8 8 9 9 10 10
REMARK H PARENT 10 11
REMARK Flexibility Score: inf
ROOT
ATOM      1  C   UNL     1     133.456 138.430 138.974  1.00  0.00     0.000 C 
ENDROOT
BRANCH   1   2
ATOM      2  C   UNL     1     132.999 139.279 137.781  1.00  0.00     0.000 C 
BRANCH   2   3
ATOM      3  C   UNL     1     134.199 139.899 137.054  1.00  0.00    -0.000 C 
BRANCH   3   4
ATOM      4  C   UNL     1     135.382 140.096 138.013  1.00  0.00    -0.000 C 
BRANCH   4   5
ATOM      5  C   UNL     1     136.682 139.473 137.483  1.00  0.00    -0.003 C 
ATOM      6  C   UNL     1     137.198 138.340 138.369  1.00  0.00     0.004 C 
ENDBRANCH   4   5
ENDBRANCH   3   4
ENDBRANCH   2   3
ENDBRANCH   1   2
BRANCH   1   7
ATOM      7  C   UNL     1     133.397 136.934 138.641  1.00  0.00     0.002 C 
BRANCH   7   8
ATOM      8  C   UNL     1     131.969 136.506 138.284  1.00  0.00     0.028 C 
BRANCH   8   9
ATOM      9  C   UNL     1     131.951 135.200 137.487  1.00  0.00     0.156 C 
BRANCH   9  10
ATOM     10  O   UNL     1     133.198 134.981 136.890  1.00  0.00    -0.396 OA
ATOM     11  H   UNL     1     133.742 134.490 137.560  1.00  0.00     0.210 HD
ENDBRANCH   9  10
ENDBRANCH   8   9
ENDBRANCH   7   8
ENDBRANCH   1   7
TORSDOF 8
ENDMDL
MODEL 7
REMARK VINA RESULT:    -2.741      8.774     10.836
REMARK INTER + INTRA:          -4.512
REMARK INTER:                  -3.933
REMARK INTRA:                  -0.579
REMARK UNBOUND:                -0.569
REMARK SMILES CCCCCCCCCO
REMARK SMILES IDX 6 1 5 2 4 3 3 4 2 5 1 6 7 7 8 8 9 9 10 10
REMARK H PARENT 10 11
REMARK Flexibility Score: inf
ROOT
ATOM      1  C   UNL     1     148.484 143.325 138.714  1.00  0.00     0.000 C 
ENDROOT
BRANCH   1   2
ATOM      2  C   UNL     1     148.814 142.249 137.672  1.00  0.00     0.000 C 
BRANCH   2   3
ATOM      3  C   UNL     1     147.539 141.722 137.001  1.00  0.00    -0.000 C 
BRANCH   3   4
ATOM      4  C   UNL     1     146.416 141.526 138.030  1.00  0.00    -0.000 C 
BRANCH   4   5
ATOM      5  C   UNL     1     145.091 142.162 137.585  1.00  0.00    -0.003 C 
ATOM      6  C   UNL     1     144.642 143.297 138.505  1.00  0.00     0.004 C 
ENDBRANCH   4   5
ENDBRANCH   3   4
ENDBRANCH   2   3
ENDBRANCH   1   2
BRANCH   1   7
ATOM      7  C   UNL     1     148.722 144.730 138.149  1.00  0.00     0.002 C 
BRANCH   7   8
ATOM      8  C   UNL     1     147.610 145.693 138.585  1.00  0.00     0.028 C 
BRANCH   8   9
ATOM      9  C   UNL     1     148.178 147.010 139.118  1.00  0.00     0.156 C 
BRANCH   9  10
ATOM     10  O   UNL     1     147.151 147.949 139.275  1.00  0.00    -0.396 OA
ATOM     11  H   UNL     1     146.301 147.445 139.186  1.00  0.00     0.210 HD
ENDBRANCH   9  10
ENDBRANCH   8   9
ENDBRANCH   7   8
ENDBRANCH   1   7
TORSDOF 8
ENDMDL
MODEL 8
REMARK VINA RESULT:    -2.720      8.791     10.438
REMARK INTER + INTRA:          -4.482
REMARK INTER:                  -3.900
REMARK INTRA:                  -0.582
REMARK UNBOUND:                -0.569
REMARK SMILES CCCCCCCCCO
REMARK SMILES IDX 6 1 5 2 4 3 3 4 2 5 1 6 7 7 8 8 9 9 10 10
REMARK H PARENT 10 11
REMARK Flexibility Score: inf
ROOT
ATOM      1  C   UNL     1     133.131 138.279 138.738  1.00  0.00     0.000 C 
ENDROOT
BRANCH   1   2
ATOM      2  C   UNL     1     132.741 139.258 137.625  1.00  0.00     0.000 C 
BRANCH   2   3
ATOM      3  C   UNL     1     133.975 139.973 137.060  1.00  0.00    -0.000 C 
BRANCH   3   4
ATOM      4  C   UNL     1     135.110 140.010 138.094  1.00  0.00    -0.000 C 
BRANCH   4   5
ATOM      5  C   UNL     1     136.417 139.405 137.558  1.00  0.00    -0.003 C 
ATOM      6  C   UNL     1     137.014 138.360 138.499  1.00  0.00     0.004 C 
ENDBRANCH   4   5
ENDBRANCH   3   4
ENDBRANCH   2   3
ENDBRANCH   1   2
BRANCH   1   7
ATOM      7  C   UNL     1     132.953 136.827 138.283  1.00  0.00     0.002 C 
BRANCH   7   8
ATOM      8  C   UNL     1     134.151 135.967 138.706  1.00  0.00     0.028 C 
BRANCH   8   9
ATOM      9  C   UNL     1     133.714 134.743 139.513  1.00  0.00     0.156 C 
BRANCH   9  10
ATOM     10  O   UNL     1     134.587 133.674 139.279  1.00  0.00    -0.396 OA
ATOM     11  H   UNL     1     135.334 134.041 138.739  1.00  0.00     0.210 HD
ENDBRANCH   9  10
ENDBRANCH   8   9
ENDBRANCH   7   8
ENDBRANCH   1   7
TORSDOF 8
ENDMDL
MODEL 9
REMARK VINA RESULT:    -2.703      1.400      2.857
REMARK INTER + INTRA:          -4.457
REMARK INTER:                  -3.875
REMARK INTRA:                  -0.582
REMARK UNBOUND:                -0.569
REMARK SMILES CCCCCCCCCO
REMARK SMILES IDX 6 1 5 2 4 3 3 4 2 5 1 6 7 7 8 8 9 9 10 10
REMARK H PARENT 10 11
REMARK Flexibility Score: inf
ROOT
ATOM      1  C   UNL     1     138.259 148.148 138.997  1.00  0.00     0.000 C 
ENDROOT
BRANCH   1   2
ATOM      2  C   UNL     1     139.334 148.414 137.936  1.00  0.00     0.000 C 
BRANCH   2   3
ATOM      3  C   UNL     1     139.601 147.160 137.095  1.00  0.00    -0.000 C 
BRANCH   3   4
ATOM      4  C   UNL     1     139.994 145.973 137.986  1.00  0.00    -0.000 C 
BRANCH   4   5
ATOM      5  C   UNL     1     139.255 144.680 137.607  1.00  0.00    -0.003 C 
ATOM      6  C   UNL     1     138.103 144.358 138.557  1.00  0.00     0.004 C 
ENDBRANCH   4   5
ENDBRANCH   3   4
ENDBRANCH   2   3
ENDBRANCH   1   2
BRANCH   1   7
ATOM      7  C   UNL     1     136.865 148.508 138.472  1.00  0.00     0.002 C 
BRANCH   7   8
ATOM      8  C   UNL     1     135.877 147.357 138.699  1.00  0.00     0.028 C 
BRANCH   8   9
ATOM      9  C   UNL     1     134.781 147.738 139.695  1.00  0.00     0.156 C 
BRANCH   9  10
ATOM     10  O   UNL     1     133.559 147.176 139.307  1.00  0.00    -0.396 OA
ATOM     11  H   UNL     1     133.322 146.517 140.012  1.00  0.00     0.210 HD
ENDBRANCH   9  10
ENDBRANCH   8   9
ENDBRANCH   7   8
ENDBRANCH   1   7
TORSDOF 8
ENDMDL
