MODEL 1
REMARK VINA RESULT:    -4.076      0.000      0.000
REMARK INTER + INTRA:          -6.285
REMARK INTER:                  -6.220
REMARK INTRA:                  -0.064
REMARK UNBOUND:                -0.064
REMARK SMILES CC1=CCC[C@H](C)C(=O)C[C@@H](C(C)C)C(=O)C1
REMARK SMILES IDX 8 1 9 2 6 3 7 4 5 5 4 6 3 7 2 8 1 9 10 11 11 12 15 13 16 14
REMARK SMILES IDX 17 15 12 17 13 18 14 19
REMARK H PARENT
REMARK Flexibility Score: 70.00
ROOT
ATOM      1  C   UNL     1     -13.112  13.533 -28.885  1.00  0.00     0.136 C 
ATOM      2  O   UNL     1     -12.774  14.598 -28.385  1.00  0.00    -0.299 OA
ENDROOT
BRANCH   1   3
ATOM      3  C   UNL     1     -12.855  12.228 -28.152  1.00  0.00     0.053 C 
ATOM      4  C   UNL     1     -12.053  12.431 -26.856  1.00  0.00     0.016 C 
BRANCH   3   5
ATOM      5  C   UNL     1     -14.168  11.460 -27.892  1.00  0.00     0.015 C 
BRANCH   5   6
ATOM      6  C   UNL     1     -15.316  12.350 -27.375  1.00  0.00     0.028 C 
BRANCH   6   7
ATOM      7  C   UNL     1     -16.632  11.929 -27.975  1.00  0.00    -0.028 C 
ATOM      8  C   UNL     1     -17.384  12.699 -28.798  1.00  0.00    -0.070 CG0
ATOM      9  C   UNL     1     -18.650  12.104 -29.362  1.00  0.00     0.039 C 
ATOM     10  G   UNL     1     -17.018  14.132 -29.158  1.00  0.00     0.000 G0
ENDBRANCH   6   7
ENDBRANCH   5   6
ENDBRANCH   3   5
ENDBRANCH   1   3
BRANCH   1  11
ATOM     11  C   UNL     1     -13.789  13.544 -30.235  1.00  0.00     0.087 C 
BRANCH  11  12
ATOM     12  C   UNL     1     -14.781  14.728 -30.383  1.00  0.00     0.066 C 
BRANCH  12  13
ATOM     13  C   UNL     1     -16.220  14.237 -30.424  1.00  0.00     0.140 C 
ATOM     14  O   UNL     1     -16.747  13.985 -31.500  1.00  0.00    -0.299 OA
BRANCH  13  15
ATOM     15  C   UNL     1     -17.041  14.138 -29.162  1.00  0.00     0.106 CG0
ATOM     16  G   UNL     1     -17.380  12.699 -28.799  1.00  0.00     0.000 G0
ENDBRANCH  13  15
ENDBRANCH  12  13
BRANCH  12  17
ATOM     17  C   UNL     1     -14.473  15.648 -31.608  1.00  0.00    -0.006 C 
ATOM     18  C   UNL     1     -13.581  14.990 -32.678  1.00  0.00     0.008 C 
ATOM     19  C   UNL     1     -13.856  16.985 -31.167  1.00  0.00     0.008 C 
ENDBRANCH  12  17
ENDBRANCH  11  12
ENDBRANCH   1  11
TORSDOF 1
ENDMDL
MODEL 2
REMARK VINA RESULT:    -4.068      2.047      4.482
REMARK INTER + INTRA:          -6.272
REMARK INTER:                  -5.985
REMARK INTRA:                  -0.287
REMARK UNBOUND:                -0.064
REMARK SMILES CC1=CCC[C@H](C)C(=O)C[C@@H](C(C)C)C(=O)C1
REMARK SMILES IDX 8 1 9 2 6 3 7 4 5 5 4 6 3 7 2 8 1 9 10 11 11 12 15 13 16 14
REMARK SMILES IDX 17 15 12 17 13 18 14 19
REMARK H PARENT
REMARK Flexibility Score: 70.00
ROOT
ATOM      1  C   UNL     1     -15.956  12.230 -28.188  1.00  0.00     0.136 C 
ATOM      2  O   UNL     1     -16.135  12.325 -26.981  1.00  0.00    -0.299 OA
ENDROOT
BRANCH   1   3
ATOM      3  C   UNL     1     -17.067  12.595 -29.157  1.00  0.00     0.053 C 
ATOM      4  C   UNL     1     -18.306  11.700 -28.993  1.00  0.00     0.016 C 
BRANCH   3   5
ATOM      5  C   UNL     1     -17.430  14.091 -29.060  1.00  0.00     0.015 C 
BRANCH   5   6
ATOM      6  C   UNL     1     -16.380  15.028 -29.689  1.00  0.00     0.028 C 
BRANCH   6   7
ATOM      7  C   UNL     1     -16.180  14.705 -31.147  1.00  0.00    -0.028 C 
ATOM      8  C   UNL     1     -14.982  14.431 -31.718  1.00  0.00    -0.070 CG0
ATOM      9  C   UNL     1     -14.963  14.069 -33.181  1.00  0.00     0.039 C 
ATOM     10  G   UNL     1     -13.666  14.492 -30.955  1.00  0.00     0.000 G0
ENDBRANCH   6   7
ENDBRANCH   5   6
ENDBRANCH   3   5
ENDBRANCH   1   3
BRANCH   1  11
ATOM     11  C   UNL     1     -14.616  11.750 -28.691  1.00  0.00     0.087 C 
BRANCH  11  12
ATOM     12  C   UNL     1     -13.600  12.912 -28.853  1.00  0.00     0.066 C 
BRANCH  12  13
ATOM     13  C   UNL     1     -13.285  13.166 -30.320  1.00  0.00     0.140 C 
ATOM     14  O   UNL     1     -12.676  12.326 -30.966  1.00  0.00    -0.299 OA
BRANCH  13  15
ATOM     15  C   UNL     1     -13.637  14.483 -30.970  1.00  0.00     0.106 CG0
ATOM     16  G   UNL     1     -14.961  14.426 -31.718  1.00  0.00     0.000 G0
ENDBRANCH  13  15
ENDBRANCH  12  13
BRANCH  12  17
ATOM     17  C   UNL     1     -12.287  12.710 -28.030  1.00  0.00    -0.006 C 
ATOM     18  C   UNL     1     -12.205  11.355 -27.303  1.00  0.00     0.008 C 
ATOM     19  C   UNL     1     -12.070  13.853 -27.026  1.00  0.00     0.008 C 
ENDBRANCH  12  17
ENDBRANCH  11  12
ENDBRANCH   1  11
TORSDOF 1
ENDMDL
MODEL 3
REMARK VINA RESULT:    -4.019      2.247      4.200
REMARK INTER + INTRA:          -6.198
REMARK INTER:                  -6.093
REMARK INTRA:                  -0.104
REMARK UNBOUND:                -0.064
REMARK SMILES CC1=CCC[C@H](C)C(=O)C[C@@H](C(C)C)C(=O)C1
REMARK SMILES IDX 8 1 9 2 6 3 7 4 5 5 4 6 3 7 2 8 1 9 10 11 11 12 15 13 16 14
REMARK SMILES IDX 17 15 12 17 13 18 14 19
REMARK H PARENT
REMARK Flexibility Score: 70.00
ROOT
ATOM      1  C   UNL     1     -12.906  13.665 -31.387  1.00  0.00     0.136 C 
ATOM      2  O   UNL     1     -12.110  12.758 -31.592  1.00  0.00    -0.299 OA
ENDROOT
BRANCH   1   3
ATOM      3  C   UNL     1     -12.407  15.062 -31.062  1.00  0.00     0.053 C 
ATOM      4  C   UNL     1     -13.556  16.059 -30.839  1.00  0.00     0.016 C 
BRANCH   3   5
ATOM      5  C   UNL     1     -11.429  15.046 -29.868  1.00  0.00     0.015 C 
BRANCH   5   6
ATOM      6  C   UNL     1     -12.113  14.808 -28.507  1.00  0.00     0.028 C 
BRANCH   6   7
ATOM      7  C   UNL     1     -11.739  13.460 -27.949  1.00  0.00    -0.028 C 
ATOM      8  C   UNL     1     -12.622  12.478 -27.648  1.00  0.00    -0.070 CG0
ATOM      9  C   UNL     1     -12.077  11.163 -27.152  1.00  0.00     0.039 C 
ATOM     10  G   UNL     1     -14.130  12.652 -27.772  1.00  0.00     0.000 G0
ENDBRANCH   6   7
ENDBRANCH   5   6
ENDBRANCH   3   5
ENDBRANCH   1   3
BRANCH   1  11
ATOM     11  C   UNL     1     -14.384  13.369 -31.469  1.00  0.00     0.087 C 
BRANCH  11  12
ATOM     12  C   UNL     1     -15.080  13.474 -30.085  1.00  0.00     0.066 C 
BRANCH  12  13
ATOM     13  C   UNL     1     -14.654  12.338 -29.168  1.00  0.00     0.140 C 
ATOM     14  O   UNL     1     -14.790  11.178 -29.532  1.00  0.00    -0.299 OA
BRANCH  13  15
ATOM     15  C   UNL     1     -14.146  12.617 -27.774  1.00  0.00     0.106 CG0
ATOM     16  G   UNL     1     -12.634  12.478 -27.668  1.00  0.00     0.000 G0
ENDBRANCH  13  15
ENDBRANCH  12  13
BRANCH  12  17
ATOM     17  C   UNL     1     -16.638  13.559 -30.177  1.00  0.00    -0.006 C 
ATOM     18  C   UNL     1     -17.154  14.238 -31.461  1.00  0.00     0.008 C 
ATOM     19  C   UNL     1     -17.238  14.254 -28.944  1.00  0.00     0.008 C 
ENDBRANCH  12  17
ENDBRANCH  11  12
ENDBRANCH   1  11
TORSDOF 1
ENDMDL
MODEL 4
REMARK VINA RESULT:    -4.005      2.167      4.918
REMARK INTER + INTRA:          -6.177
REMARK INTER:                  -5.947
REMARK INTRA:                  -0.229
REMARK UNBOUND:                -0.064
REMARK SMILES CC1=CCC[C@H](C)C(=O)C[C@@H](C(C)C)C(=O)C1
REMARK SMILES IDX 8 1 9 2 6 3 7 4 5 5 4 6 3 7 2 8 1 9 10 11 11 12 15 13 16 14
REMARK SMILES IDX 17 15 12 17 13 18 14 19
REMARK H PARENT
REMARK Flexibility Score: 70.00
ROOT
ATOM      1  C   UNL     1     -15.618  14.632 -32.086  1.00  0.00     0.136 C 
ATOM      2  O   UNL     1     -16.605  14.940 -32.741  1.00  0.00    -0.299 OA
ENDROOT
BRANCH   1   3
ATOM      3  C   UNL     1     -14.445  15.592 -31.975  1.00  0.00     0.053 C 
ATOM      4  C   UNL     1     -14.554  16.513 -30.749  1.00  0.00     0.016 C 
BRANCH   3   5
ATOM      5  C   UNL     1     -13.098  14.840 -32.002  1.00  0.00     0.015 C 
BRANCH   5   6
ATOM      6  C   UNL     1     -12.286  14.973 -30.698  1.00  0.00     0.028 C 
BRANCH   6   7
ATOM      7  C   UNL     1     -11.591  13.678 -30.366  1.00  0.00    -0.028 C 
ATOM      8  C   UNL     1     -12.038  12.774 -29.461  1.00  0.00    -0.070 CG0
ATOM      9  C   UNL     1     -11.253  11.498 -29.290  1.00  0.00     0.039 C 
ATOM     10  G   UNL     1     -13.278  12.999 -28.607  1.00  0.00     0.000 G0
ENDBRANCH   6   7
ENDBRANCH   5   6
ENDBRANCH   3   5
ENDBRANCH   1   3
BRANCH   1  11
ATOM     11  C   UNL     1     -15.591  13.292 -31.393  1.00  0.00     0.087 C 
BRANCH  11  12
ATOM     12  C   UNL     1     -15.553  13.432 -29.848  1.00  0.00     0.066 C 
BRANCH  12  13
ATOM     13  C   UNL     1     -14.542  12.476 -29.233  1.00  0.00     0.140 C 
ATOM     14  O   UNL     1     -14.785  11.278 -29.191  1.00  0.00    -0.299 OA
BRANCH  13  15
ATOM     15  C   UNL     1     -13.277  12.994 -28.594  1.00  0.00     0.106 CG0
ATOM     16  G   UNL     1     -12.053  12.789 -29.477  1.00  0.00     0.000 G0
ENDBRANCH  13  15
ENDBRANCH  12  13
BRANCH  12  17
ATOM     17  C   UNL     1     -16.954  13.267 -29.173  1.00  0.00    -0.006 C 
ATOM     18  C   UNL     1     -17.969  12.478 -30.021  1.00  0.00     0.008 C 
ATOM     19  C   UNL     1     -17.552  14.627 -28.777  1.00  0.00     0.008 C 
ENDBRANCH  12  17
ENDBRANCH  11  12
ENDBRANCH   1  11
TORSDOF 1
ENDMDL
MODEL 5
REMARK VINA RESULT:    -3.988      2.545      5.548
REMARK INTER + INTRA:          -6.151
REMARK INTER:                  -6.091
REMARK INTRA:                  -0.060
REMARK UNBOUND:                -0.064
REMARK SMILES CC1=CCC[C@H](C)C(=O)C[C@@H](C(C)C)C(=O)C1
REMARK SMILES IDX 8 1 9 2 6 3 7 4 5 5 4 6 3 7 2 8 1 9 10 11 11 12 15 13 16 14
REMARK SMILES IDX 17 15 12 17 13 18 14 19
REMARK H PARENT
REMARK Flexibility Score: 70.00
ROOT
ATOM      1  C   UNL     1     -15.749  14.224 -29.786  1.00  0.00     0.136 C 
ATOM      2  O   UNL     1     -16.390  14.850 -28.953  1.00  0.00    -0.299 OA
ENDROOT
BRANCH   1   3
ATOM      3  C   UNL     1     -15.587  14.770 -31.195  1.00  0.00     0.053 C 
ATOM      4  C   UNL     1     -16.857  14.592 -32.042  1.00  0.00     0.016 C 
BRANCH   3   5
ATOM      5  C   UNL     1     -15.117  16.239 -31.178  1.00  0.00     0.015 C 
BRANCH   5   6
ATOM      6  C   UNL     1     -13.611  16.407 -30.898  1.00  0.00     0.028 C 
BRANCH   6   7
ATOM      7  C   UNL     1     -12.789  15.781 -31.994  1.00  0.00    -0.028 C 
ATOM      8  C   UNL     1     -11.969  14.715 -31.830  1.00  0.00    -0.070 CG0
ATOM      9  C   UNL     1     -11.261  14.174 -33.046  1.00  0.00     0.039 C 
ATOM     10  G   UNL     1     -11.721  14.060 -30.479  1.00  0.00     0.000 G0
ENDBRANCH   6   7
ENDBRANCH   5   6
ENDBRANCH   3   5
ENDBRANCH   1   3
BRANCH   1  11
ATOM     11  C   UNL     1     -15.122  12.910 -29.388  1.00  0.00     0.087 C 
BRANCH  11  12
ATOM     12  C   UNL     1     -13.637  13.073 -28.966  1.00  0.00     0.066 C 
BRANCH  12  13
ATOM     13  C   UNL     1     -12.710  12.968 -30.167  1.00  0.00     0.140 C 
ATOM     14  O   UNL     1     -12.719  11.958 -30.857  1.00  0.00    -0.299 OA
BRANCH  13  15
ATOM     15  C   UNL     1     -11.711  14.058 -30.471  1.00  0.00     0.106 CG0
ATOM     16  G   UNL     1     -11.956  14.710 -31.824  1.00  0.00     0.000 G0
ENDBRANCH  13  15
ENDBRANCH  12  13
BRANCH  12  17
ATOM     17  C   UNL     1     -13.199  12.084 -27.837  1.00  0.00    -0.006 C 
ATOM     18  C   UNL     1     -14.358  11.267 -27.235  1.00  0.00     0.008 C 
ATOM     19  C   UNL     1     -12.436  12.809 -26.717  1.00  0.00     0.008 C 
ENDBRANCH  12  17
ENDBRANCH  11  12
ENDBRANCH   1  11
TORSDOF 1
ENDMDL
MODEL 6
REMARK VINA RESULT:    -3.943      2.093      4.048
REMARK INTER + INTRA:          -6.082
REMARK INTER:                  -6.148
REMARK INTRA:                   0.066
REMARK UNBOUND:                -0.064
REMARK SMILES CC1=CCC[C@H](C)C(=O)C[C@@H](C(C)C)C(=O)C1
REMARK SMILES IDX 8 1 9 2 6 3 7 4 5 5 4 6 3 7 2 8 1 9 10 11 11 12 15 13 16 14
REMARK SMILES IDX 17 15 12 17 13 18 14 19
REMARK H PARENT
REMARK Flexibility Score: 70.00
ROOT
ATOM      1  C   UNL     1     -15.294  15.350 -30.527  1.00  0.00     0.136 C 
ATOM      2  O   UNL     1     -15.861  15.812 -29.545  1.00  0.00    -0.299 OA
ENDROOT
BRANCH   1   3
ATOM      3  C   UNL     1     -15.999  14.335 -31.409  1.00  0.00     0.053 C 
ATOM      4  C   UNL     1     -15.182  13.977 -32.661  1.00  0.00     0.016 C 
BRANCH   3   5
ATOM      5  C   UNL     1     -16.398  13.076 -30.612  1.00  0.00     0.015 C 
BRANCH   5   6
ATOM      6  C   UNL     1     -15.206  12.166 -30.251  1.00  0.00     0.028 C 
BRANCH   6   7
ATOM      7  C   UNL     1     -14.976  12.150 -28.762  1.00  0.00    -0.028 C 
ATOM      8  C   UNL     1     -13.806  12.471 -28.160  1.00  0.00    -0.070 CG0
ATOM      9  C   UNL     1     -13.760  12.461 -26.653  1.00  0.00     0.039 C 
ATOM     10  G   UNL     1     -12.542  12.818 -28.935  1.00  0.00     0.000 G0
ENDBRANCH   6   7
ENDBRANCH   5   6
ENDBRANCH   3   5
ENDBRANCH   1   3
BRANCH   1  11
ATOM     11  C   UNL     1     -13.891  15.810 -30.842  1.00  0.00     0.087 C 
BRANCH  11  12
ATOM     12  C   UNL     1     -12.870  14.642 -30.807  1.00  0.00     0.066 C 
BRANCH  12  13
ATOM     13  C   UNL     1     -12.507  14.271 -29.377  1.00  0.00     0.140 C 
ATOM     14  O   UNL     1     -12.123  15.136 -28.603  1.00  0.00    -0.299 OA
BRANCH  13  15
ATOM     15  C   UNL     1     -12.530  12.832 -28.922  1.00  0.00     0.106 CG0
ATOM     16  G   UNL     1     -13.810  12.477 -28.179  1.00  0.00     0.000 G0
ENDBRANCH  13  15
ENDBRANCH  12  13
BRANCH  12  17
ATOM     17  C   UNL     1     -11.585  14.914 -31.654  1.00  0.00    -0.006 C 
ATOM     18  C   UNL     1     -11.800  15.894 -32.822  1.00  0.00     0.008 C 
ATOM     19  C   UNL     1     -10.968  13.607 -32.178  1.00  0.00     0.008 C 
ENDBRANCH  12  17
ENDBRANCH  11  12
ENDBRANCH   1  11
TORSDOF 1
ENDMDL
MODEL 7
REMARK VINA RESULT:    -3.595      1.946      4.080
REMARK INTER + INTRA:          -5.551
REMARK INTER:                  -6.059
REMARK INTRA:                   0.508
REMARK UNBOUND:                -0.064
REMARK SMILES CC1=CCC[C@H](C)C(=O)C[C@@H](C(C)C)C(=O)C1
REMARK SMILES IDX 8 1 9 2 6 3 7 4 5 5 4 6 3 7 2 8 1 9 10 11 11 12 15 13 16 14
REMARK SMILES IDX 17 15 12 17 13 18 14 19
REMARK H PARENT
REMARK Flexibility Score: 70.00
ROOT
ATOM      1  C   UNL     1     -16.079  14.165 -31.683  1.00  0.00     0.136 C 
ATOM      2  O   UNL     1     -16.159  15.053 -32.522  1.00  0.00    -0.299 OA
ENDROOT
BRANCH   1   3
ATOM      3  C   UNL     1     -17.083  14.096 -30.545  1.00  0.00     0.053 C 
ATOM      4  C   UNL     1     -17.992  12.859 -30.639  1.00  0.00     0.016 C 
BRANCH   3   5
ATOM      5  C   UNL     1     -16.385  14.185 -29.172  1.00  0.00     0.015 C 
BRANCH   5   6
ATOM      6  C   UNL     1     -15.952  12.818 -28.606  1.00  0.00     0.028 C 
BRANCH   6   7
ATOM      7  C   UNL     1     -14.646  12.936 -27.864  1.00  0.00    -0.028 C 
ATOM      8  C   UNL     1     -13.431  12.658 -28.395  1.00  0.00    -0.070 CG0
ATOM      9  C   UNL     1     -12.214  12.885 -27.534  1.00  0.00     0.039 C 
ATOM     10  G   UNL     1     -13.246  12.114 -29.805  1.00  0.00     0.000 G0
ENDBRANCH   6   7
ENDBRANCH   5   6
ENDBRANCH   3   5
ENDBRANCH   1   3
BRANCH   1  11
ATOM     11  C   UNL     1     -14.973  13.145 -31.804  1.00  0.00     0.087 C 
BRANCH  11  12
ATOM     12  C   UNL     1     -13.566  13.801 -31.780  1.00  0.00     0.066 C 
BRANCH  12  13
ATOM     13  C   UNL     1     -12.656  13.115 -30.773  1.00  0.00     0.140 C 
ATOM     14  O   UNL     1     -11.453  13.335 -30.791  1.00  0.00    -0.299 OA
BRANCH  13  15
ATOM     15  C   UNL     1     -13.204  12.095 -29.805  1.00  0.00     0.106 CG0
ATOM     16  G   UNL     1     -13.415  12.670 -28.412  1.00  0.00     0.000 G0
ENDBRANCH  13  15
ENDBRANCH  12  13
BRANCH  12  17
ATOM     17  C   UNL     1     -13.604  15.344 -31.532  1.00  0.00    -0.006 C 
ATOM     18  C   UNL     1     -12.790  16.163 -32.552  1.00  0.00     0.008 C 
ATOM     19  C   UNL     1     -13.157  15.697 -30.105  1.00  0.00     0.008 C 
ENDBRANCH  12  17
ENDBRANCH  11  12
ENDBRANCH   1  11
TORSDOF 1
ENDMDL
MODEL 8
REMARK VINA RESULT:    -3.007      2.205      4.358
REMARK INTER + INTRA:          -4.654
REMARK INTER:                  -5.344
REMARK INTRA:                   0.691
REMARK UNBOUND:                -0.064
REMARK SMILES CC1=CCC[C@H](C)C(=O)C[C@@H](C(C)C)C(=O)C1
REMARK SMILES IDX 8 1 9 2 6 3 7 4 5 5 4 6 3 7 2 8 1 9 10 11 11 12 15 13 16 14
REMARK SMILES IDX 17 15 12 17 13 18 14 19
REMARK H PARENT
REMARK Flexibility Score: 70.00
ROOT
ATOM      1  C   UNL     1     -13.366  15.483 -30.306  1.00  0.00     0.136 C 
ATOM      2  O   UNL     1     -12.551  15.734 -29.427  1.00  0.00    -0.299 OA
ENDROOT
BRANCH   1   3
ATOM      3  C   UNL     1     -12.896  15.017 -31.673  1.00  0.00     0.053 C 
ATOM      4  C   UNL     1     -12.833  16.165 -32.694  1.00  0.00     0.016 C 
BRANCH   3   5
ATOM      5  C   UNL     1     -11.553  14.265 -31.581  1.00  0.00     0.015 C 
BRANCH   5   6
ATOM      6  C   UNL     1     -11.698  12.730 -31.609  1.00  0.00     0.028 C 
BRANCH   6   7
ATOM      7  C   UNL     1     -11.540  12.152 -30.227  1.00  0.00    -0.028 C 
ATOM      8  C   UNL     1     -12.568  11.832 -29.404  1.00  0.00    -0.070 CG0
ATOM      9  C   UNL     1     -12.239  11.206 -28.072  1.00  0.00     0.039 C 
ATOM     10  G   UNL     1     -14.025  12.092 -29.757  1.00  0.00     0.000 G0
ENDBRANCH   6   7
ENDBRANCH   5   6
ENDBRANCH   3   5
ENDBRANCH   1   3
BRANCH   1  11
ATOM     11  C   UNL     1     -14.836  15.642 -30.003  1.00  0.00     0.087 C 
BRANCH  11  12
ATOM     12  C   UNL     1     -15.532  14.278 -29.751  1.00  0.00     0.066 C 
BRANCH  12  13
ATOM     13  C   UNL     1     -14.603  13.310 -29.034  1.00  0.00     0.140 C 
ATOM     14  O   UNL     1     -14.243  13.547 -27.889  1.00  0.00    -0.299 OA
BRANCH  13  15
ATOM     15  C   UNL     1     -14.045  12.102 -29.746  1.00  0.00     0.106 CG0
ATOM     16  G   UNL     1     -12.590  11.835 -29.387  1.00  0.00     0.000 G0
ENDBRANCH  13  15
ENDBRANCH  12  13
BRANCH  12  17
ATOM     17  C   UNL     1     -16.116  13.629 -31.047  1.00  0.00    -0.006 C 
ATOM     18  C   UNL     1     -16.109  14.561 -32.273  1.00  0.00     0.008 C 
ATOM     19  C   UNL     1     -17.536  13.086 -30.815  1.00  0.00     0.008 C 
ENDBRANCH  12  17
ENDBRANCH  11  12
ENDBRANCH   1  11
TORSDOF 1
ENDMDL
MODEL 9
REMARK VINA RESULT:    -2.973      2.011      2.640
REMARK INTER + INTRA:          -4.602
REMARK INTER:                  -4.617
REMARK INTRA:                   0.015
REMARK UNBOUND:                -0.064
REMARK SMILES CC1=CCC[C@H](C)C(=O)C[C@@H](C(C)C)C(=O)C1
REMARK SMILES IDX 8 1 9 2 6 3 7 4 5 5 4 6 3 7 2 8 1 9 10 11 11 12 15 13 16 14
REMARK SMILES IDX 17 15 12 17 13 18 14 19
REMARK H PARENT
REMARK Flexibility Score: 70.00
ROOT
ATOM      1  C   UNL     1     -11.672  14.069 -31.951  1.00  0.00     0.136 C 
ATOM      2  O   UNL     1     -10.924  14.529 -32.803  1.00  0.00    -0.299 OA
ENDROOT
BRANCH   1   3
ATOM      3  C   UNL     1     -11.102  13.348 -30.742  1.00  0.00     0.053 C 
ATOM      4  C   UNL     1     -11.114  14.222 -29.478  1.00  0.00     0.016 C 
BRANCH   3   5
ATOM      5  C   UNL     1     -11.810  11.998 -30.505  1.00  0.00     0.015 C 
BRANCH   5   6
ATOM      6  C   UNL     1     -12.521  11.901 -29.140  1.00  0.00     0.028 C 
BRANCH   6   7
ATOM      7  C   UNL     1     -13.949  11.452 -29.311  1.00  0.00    -0.028 C 
ATOM      8  C   UNL     1     -15.020  12.282 -29.337  1.00  0.00    -0.070 CG0
ATOM      9  C   UNL     1     -16.379  11.676 -29.576  1.00  0.00     0.039 C 
ATOM     10  G   UNL     1     -14.910  13.785 -29.117  1.00  0.00     0.000 G0
ENDBRANCH   6   7
ENDBRANCH   5   6
ENDBRANCH   3   5
ENDBRANCH   1   3
BRANCH   1  11
ATOM     11  C   UNL     1     -13.162  14.234 -32.123  1.00  0.00     0.087 C 
BRANCH  11  12
ATOM     12  C   UNL     1     -13.771  15.195 -31.067  1.00  0.00     0.066 C 
BRANCH  12  13
ATOM     13  C   UNL     1     -15.003  14.585 -30.414  1.00  0.00     0.140 C 
ATOM     14  O   UNL     1     -16.109  14.789 -30.894  1.00  0.00    -0.299 OA
BRANCH  13  15
ATOM     15  C   UNL     1     -14.890  13.802 -29.129  1.00  0.00     0.106 CG0
ATOM     16  G   UNL     1     -15.052  12.304 -29.345  1.00  0.00     0.000 G0
ENDBRANCH  13  15
ENDBRANCH  12  13
BRANCH  12  17
ATOM     17  C   UNL     1     -14.088  16.618 -31.629  1.00  0.00    -0.006 C 
ATOM     18  C   UNL     1     -13.069  17.123 -32.668  1.00  0.00     0.008 C 
ATOM     19  C   UNL     1     -14.235  17.651 -30.500  1.00  0.00     0.008 C 
ENDBRANCH  12  17
ENDBRANCH  11  12
ENDBRANCH   1  11
TORSDOF 1
ENDMDL
