MODEL 1
REMARK VINA RESULT:    -4.891      0.000      0.000
REMARK INTER + INTRA:         -15.453
REMARK INTER:                 -12.325
REMARK INTRA:                  -3.128
REMARK UNBOUND:                -3.128
REMARK SMILES CCCCCCCCCCCCCCCCCCCCCCCCCCCC(=O)[O-]
REMARK SMILES IDX 15 1 16 2 17 3 18 4 19 5 20 6 21 7 22 8 23 9 24 10 25 11
REMARK SMILES IDX 26 12 27 13 28 14 29 15 30 16 14 17 13 18 12 19 11 20 10 21
REMARK SMILES IDX 9 22 8 23 7 24 6 25 5 26 4 27 3 28 2 29 1 30
REMARK H PARENT
REMARK Flexibility Score: inf
ROOT
ATOM      1  C   UNL     1       7.291 -13.499  36.287  1.00  0.00     0.000 C 
ENDROOT
BRANCH   1   2
ATOM      2  C   UNL     1       7.573 -12.091  35.726  1.00  0.00     0.000 C 
BRANCH   2   3
ATOM      3  C   UNL     1       7.060 -10.944  36.623  1.00  0.00     0.000 C 
BRANCH   3   4
ATOM      4  C   UNL     1       5.843 -10.219  36.022  1.00  0.00     0.000 C 
BRANCH   4   5
ATOM      5  C   UNL     1       5.196  -9.277  37.049  1.00  0.00     0.000 C 
BRANCH   5   6
ATOM      6  C   UNL     1       4.006  -8.489  36.468  1.00  0.00     0.000 C 
BRANCH   6   7
ATOM      7  C   UNL     1       4.254  -6.983  36.268  1.00  0.00     0.000 C 
BRANCH   7   8
ATOM      8  C   UNL     1       3.181  -6.310  35.397  1.00  0.00     0.000 C 
BRANCH   8   9
ATOM      9  C   UNL     1       1.935  -5.889  36.198  1.00  0.00     0.000 C 
BRANCH   9  10
ATOM     10  C   UNL     1       2.139  -4.707  37.168  1.00  0.00     0.000 C 
BRANCH  10  11
ATOM     11  C   UNL     1       3.167  -3.657  36.710  1.00  0.00     0.000 C 
BRANCH  11  12
ATOM     12  C   UNL     1       4.028  -3.123  37.869  1.00  0.00     0.006 C 
BRANCH  12  13
ATOM     13  C   UNL     1       5.248  -4.015  38.141  1.00  0.00     0.053 C 
BRANCH  13  14
ATOM     14  C   UNL     1       6.388  -3.681  37.227  1.00  0.00     0.041 C 
ATOM     15  O   UNL     1       7.380  -3.034  37.658  1.00  0.00    -0.550 OA
ATOM     16  O   UNL     1       6.377  -4.127  35.912  1.00  0.00    -0.550 OA
ENDBRANCH  13  14
ENDBRANCH  12  13
ENDBRANCH  11  12
ENDBRANCH  10  11
ENDBRANCH   9  10
ENDBRANCH   8   9
ENDBRANCH   7   8
ENDBRANCH   6   7
ENDBRANCH   5   6
ENDBRANCH   4   5
ENDBRANCH   3   4
ENDBRANCH   2   3
ENDBRANCH   1   2
BRANCH   1  17
ATOM     17  C   UNL     1       7.466 -13.650  37.808  1.00  0.00     0.000 C 
BRANCH  17  18
ATOM     18  C   UNL     1       8.916 -13.528  38.320  1.00  0.00     0.000 C 
BRANCH  18  19
ATOM     19  C   UNL     1       9.772 -14.790  38.082  1.00  0.00     0.000 C 
BRANCH  19  20
ATOM     20  C   UNL     1      10.749 -14.633  36.904  1.00  0.00     0.000 C 
BRANCH  20  21
ATOM     21  C   UNL     1      12.222 -14.812  37.316  1.00  0.00     0.000 C 
BRANCH  21  22
ATOM     22  C   UNL     1      13.171 -13.691  36.847  1.00  0.00    -0.000 C 
BRANCH  22  23
ATOM     23  C   UNL     1      13.030 -13.291  35.365  1.00  0.00    -0.000 C 
BRANCH  23  24
ATOM     24  C   UNL     1      14.107 -12.323  34.844  1.00  0.00    -0.000 C 
BRANCH  24  25
ATOM     25  C   UNL     1      13.645 -10.856  34.858  1.00  0.00    -0.000 C 
BRANCH  25  26
ATOM     26  C   UNL     1      12.114 -10.707  34.935  1.00  0.00    -0.000 C 
BRANCH  26  27
ATOM     27  C   UNL     1      11.590  -9.934  36.161  1.00  0.00    -0.000 C 
BRANCH  27  28
ATOM     28  C   UNL     1      10.812 -10.824  37.146  1.00  0.00    -0.000 C 
BRANCH  28  29
ATOM     29  C   UNL     1      11.483 -10.895  38.528  1.00  0.00    -0.003 C 
ATOM     30  C   UNL     1      12.902 -10.327  38.525  1.00  0.00     0.004 C 
ENDBRANCH  28  29
ENDBRANCH  27  28
ENDBRANCH  26  27
ENDBRANCH  25  26
ENDBRANCH  24  25
ENDBRANCH  23  24
ENDBRANCH  22  23
ENDBRANCH  21  22
ENDBRANCH  20  21
ENDBRANCH  19  20
ENDBRANCH  18  19
ENDBRANCH  17  18
ENDBRANCH   1  17
TORSDOF 26
ENDMDL
MODEL 2
REMARK VINA RESULT:    -4.725      1.350      2.432
REMARK INTER + INTRA:         -15.034
REMARK INTER:                 -12.092
REMARK INTRA:                  -2.942
REMARK UNBOUND:                -3.128
REMARK SMILES CCCCCCCCCCCCCCCCCCCCCCCCCCCC(=O)[O-]
REMARK SMILES IDX 15 1 16 2 17 3 18 4 19 5 20 6 21 7 22 8 23 9 24 10 25 11
REMARK SMILES IDX 26 12 27 13 28 14 29 15 30 16 14 17 13 18 12 19 11 20 10 21
REMARK SMILES IDX 9 22 8 23 7 24 6 25 5 26 4 27 3 28 2 29 1 30
REMARK H PARENT
REMARK Flexibility Score: inf
ROOT
ATOM      1  C   UNL     1       7.250 -11.097  36.203  1.00  0.00     0.000 C 
ENDROOT
BRANCH   1   2
ATOM      2  C   UNL     1       5.861 -10.483  35.937  1.00  0.00     0.000 C 
BRANCH   2   3
ATOM      3  C   UNL     1       5.464  -9.374  36.935  1.00  0.00     0.000 C 
BRANCH   3   4
ATOM      4  C   UNL     1       4.089  -8.760  36.625  1.00  0.00     0.000 C 
BRANCH   4   5
ATOM      5  C   UNL     1       4.223  -7.302  36.161  1.00  0.00     0.000 C 
BRANCH   5   6
ATOM      6  C   UNL     1       2.910  -6.509  36.298  1.00  0.00     0.000 C 
BRANCH   6   7
ATOM      7  C   UNL     1       2.222  -6.147  34.969  1.00  0.00     0.000 C 
BRANCH   7   8
ATOM      8  C   UNL     1       2.033  -4.632  34.785  1.00  0.00     0.000 C 
BRANCH   8   9
ATOM      9  C   UNL     1       3.363  -3.856  34.802  1.00  0.00     0.000 C 
BRANCH   9  10
ATOM     10  C   UNL     1       4.391  -4.278  33.732  1.00  0.00     0.000 C 
BRANCH  10  11
ATOM     11  C   UNL     1       5.865  -4.129  34.149  1.00  0.00     0.000 C 
BRANCH  11  12
ATOM     12  C   UNL     1       6.046  -3.234  35.388  1.00  0.00     0.006 C 
BRANCH  12  13
ATOM     13  C   UNL     1       6.732  -3.978  36.542  1.00  0.00     0.053 C 
BRANCH  13  14
ATOM     14  C   UNL     1       6.032  -3.739  37.845  1.00  0.00     0.041 C 
ATOM     15  O   UNL     1       5.092  -4.495  38.210  1.00  0.00    -0.550 OA
ATOM     16  O   UNL     1       6.449  -2.710  38.679  1.00  0.00    -0.550 OA
ENDBRANCH  13  14
ENDBRANCH  12  13
ENDBRANCH  11  12
ENDBRANCH  10  11
ENDBRANCH   9  10
ENDBRANCH   8   9
ENDBRANCH   7   8
ENDBRANCH   6   7
ENDBRANCH   5   6
ENDBRANCH   4   5
ENDBRANCH   3   4
ENDBRANCH   2   3
ENDBRANCH   1   2
BRANCH   1  17
ATOM     17  C   UNL     1       7.748 -12.087  35.137  1.00  0.00     0.000 C 
BRANCH  17  18
ATOM     18  C   UNL     1       7.871 -13.552  35.602  1.00  0.00     0.000 C 
BRANCH  18  19
ATOM     19  C   UNL     1       7.877 -13.723  37.137  1.00  0.00     0.000 C 
BRANCH  19  20
ATOM     20  C   UNL     1       9.246 -14.166  37.680  1.00  0.00     0.000 C 
BRANCH  20  21
ATOM     21  C   UNL     1      10.222 -14.600  36.571  1.00  0.00     0.000 C 
BRANCH  21  22
ATOM     22  C   UNL     1      11.711 -14.583  36.970  1.00  0.00    -0.000 C 
BRANCH  22  23
ATOM     23  C   UNL     1      12.574 -13.535  36.236  1.00  0.00    -0.000 C 
BRANCH  23  24
ATOM     24  C   UNL     1      11.784 -12.451  35.482  1.00  0.00    -0.000 C 
BRANCH  24  25
ATOM     25  C   UNL     1      12.695 -11.400  34.826  1.00  0.00    -0.000 C 
BRANCH  25  26
ATOM     26  C   UNL     1      13.655 -10.727  35.825  1.00  0.00    -0.000 C 
BRANCH  26  27
ATOM     27  C   UNL     1      12.974  -9.878  36.917  1.00  0.00    -0.000 C 
BRANCH  27  28
ATOM     28  C   UNL     1      13.201 -10.429  38.336  1.00  0.00    -0.000 C 
BRANCH  28  29
ATOM     29  C   UNL     1      11.936 -10.350  39.205  1.00  0.00    -0.003 C 
ATOM     30  C   UNL     1      10.765 -11.138  38.616  1.00  0.00     0.004 C 
ENDBRANCH  28  29
ENDBRANCH  27  28
ENDBRANCH  26  27
ENDBRANCH  25  26
ENDBRANCH  24  25
ENDBRANCH  23  24
ENDBRANCH  22  23
ENDBRANCH  21  22
ENDBRANCH  20  21
ENDBRANCH  19  20
ENDBRANCH  18  19
ENDBRANCH  17  18
ENDBRANCH   1  17
TORSDOF 26
ENDMDL
MODEL 3
REMARK VINA RESULT:    -4.677      2.885      9.980
REMARK INTER + INTRA:         -14.914
REMARK INTER:                 -10.971
REMARK INTRA:                  -3.943
REMARK UNBOUND:                -3.128
REMARK SMILES CCCCCCCCCCCCCCCCCCCCCCCCCCCC(=O)[O-]
REMARK SMILES IDX 15 1 16 2 17 3 18 4 19 5 20 6 21 7 22 8 23 9 24 10 25 11
REMARK SMILES IDX 26 12 27 13 28 14 29 15 30 16 14 17 13 18 12 19 11 20 10 21
REMARK SMILES IDX 9 22 8 23 7 24 6 25 5 26 4 27 3 28 2 29 1 30
REMARK H PARENT
REMARK Flexibility Score: inf
ROOT
ATOM      1  C   UNL     1       5.369  -9.996  36.251  1.00  0.00     0.000 C 
ENDROOT
BRANCH   1   2
ATOM      2  C   UNL     1       6.784 -10.529  36.553  1.00  0.00     0.000 C 
BRANCH   2   3
ATOM      3  C   UNL     1       6.973 -12.026  36.227  1.00  0.00     0.000 C 
BRANCH   3   4
ATOM      4  C   UNL     1       7.570 -12.259  34.829  1.00  0.00     0.000 C 
BRANCH   4   5
ATOM      5  C   UNL     1       8.375 -13.567  34.779  1.00  0.00     0.000 C 
BRANCH   5   6
ATOM      6  C   UNL     1       8.625 -14.166  36.176  1.00  0.00     0.000 C 
BRANCH   6   7
ATOM      7  C   UNL     1      10.042 -14.723  36.406  1.00  0.00     0.000 C 
BRANCH   7   8
ATOM      8  C   UNL     1      10.715 -14.148  37.663  1.00  0.00     0.000 C 
BRANCH   8   9
ATOM      9  C   UNL     1      10.148 -12.777  38.073  1.00  0.00     0.000 C 
BRANCH   9  10
ATOM     10  C   UNL     1      10.995 -11.557  37.656  1.00  0.00     0.000 C 
BRANCH  10  11
ATOM     11  C   UNL     1      10.541 -10.858  36.363  1.00  0.00     0.000 C 
BRANCH  11  12
ATOM     12  C   UNL     1      11.260 -11.396  35.112  1.00  0.00     0.006 C 
BRANCH  12  13
ATOM     13  C   UNL     1      12.646 -11.967  35.444  1.00  0.00     0.053 C 
BRANCH  13  14
ATOM     14  C   UNL     1      13.721 -10.939  35.266  1.00  0.00     0.041 C 
ATOM     15  O   UNL     1      14.503 -11.000  34.280  1.00  0.00    -0.550 OA
ATOM     16  O   UNL     1      13.829  -9.885  36.165  1.00  0.00    -0.550 OA
ENDBRANCH  13  14
ENDBRANCH  12  13
ENDBRANCH  11  12
ENDBRANCH  10  11
ENDBRANCH   9  10
ENDBRANCH   8   9
ENDBRANCH   7   8
ENDBRANCH   6   7
ENDBRANCH   5   6
ENDBRANCH   4   5
ENDBRANCH   3   4
ENDBRANCH   2   3
ENDBRANCH   1   2
BRANCH   1  17
ATOM     17  C   UNL     1       5.000  -8.675  36.946  1.00  0.00     0.000 C 
BRANCH  17  18
ATOM     18  C   UNL     1       3.872  -7.868  36.273  1.00  0.00     0.000 C 
BRANCH  18  19
ATOM     19  C   UNL     1       4.236  -6.394  35.994  1.00  0.00     0.000 C 
BRANCH  19  20
ATOM     20  C   UNL     1       3.059  -5.590  35.416  1.00  0.00     0.000 C 
BRANCH  20  21
ATOM     21  C   UNL     1       2.411  -4.646  36.447  1.00  0.00     0.000 C 
BRANCH  21  22
ATOM     22  C   UNL     1       2.931  -3.196  36.419  1.00  0.00    -0.000 C 
BRANCH  22  23
ATOM     23  C   UNL     1       3.566  -2.702  37.735  1.00  0.00    -0.000 C 
BRANCH  23  24
ATOM     24  C   UNL     1       4.048  -3.813  38.684  1.00  0.00    -0.000 C 
BRANCH  24  25
ATOM     25  C   UNL     1       5.563  -4.063  38.586  1.00  0.00    -0.000 C 
BRANCH  25  26
ATOM     26  C   UNL     1       6.352  -2.816  38.144  1.00  0.00    -0.000 C 
BRANCH  26  27
ATOM     27  C   UNL     1       7.467  -3.077  37.113  1.00  0.00    -0.000 C 
BRANCH  27  28
ATOM     28  C   UNL     1       7.007  -3.963  35.941  1.00  0.00    -0.000 C 
BRANCH  28  29
ATOM     29  C   UNL     1       6.165  -3.188  34.915  1.00  0.00    -0.003 C 
ATOM     30  C   UNL     1       5.937  -3.976  33.624  1.00  0.00     0.004 C 
ENDBRANCH  28  29
ENDBRANCH  27  28
ENDBRANCH  26  27
ENDBRANCH  25  26
ENDBRANCH  24  25
ENDBRANCH  23  24
ENDBRANCH  22  23
ENDBRANCH  21  22
ENDBRANCH  20  21
ENDBRANCH  19  20
ENDBRANCH  18  19
ENDBRANCH  17  18
ENDBRANCH   1  17
TORSDOF 26
ENDMDL
MODEL 4
REMARK VINA RESULT:    -4.675      2.284      9.831
REMARK INTER + INTRA:         -14.908
REMARK INTER:                 -11.734
REMARK INTRA:                  -3.174
REMARK UNBOUND:                -3.128
REMARK SMILES CCCCCCCCCCCCCCCCCCCCCCCCCCCC(=O)[O-]
REMARK SMILES IDX 15 1 16 2 17 3 18 4 19 5 20 6 21 7 22 8 23 9 24 10 25 11
REMARK SMILES IDX 26 12 27 13 28 14 29 15 30 16 14 17 13 18 12 19 11 20 10 21
REMARK SMILES IDX 9 22 8 23 7 24 6 25 5 26 4 27 3 28 2 29 1 30
REMARK H PARENT
REMARK Flexibility Score: inf
ROOT
ATOM      1  C   UNL     1       5.876 -10.651  35.917  1.00  0.00     0.000 C 
ENDROOT
BRANCH   1   2
ATOM      2  C   UNL     1       7.268 -11.297  36.065  1.00  0.00     0.000 C 
BRANCH   2   3
ATOM      3  C   UNL     1       7.648 -12.240  34.905  1.00  0.00     0.000 C 
BRANCH   3   4
ATOM      4  C   UNL     1       8.241 -13.573  35.392  1.00  0.00     0.000 C 
BRANCH   4   5
ATOM      5  C   UNL     1       8.123 -13.709  36.918  1.00  0.00     0.000 C 
BRANCH   5   6
ATOM      6  C   UNL     1       9.468 -14.034  37.594  1.00  0.00     0.000 C 
BRANCH   6   7
ATOM      7  C   UNL     1      10.603 -14.434  36.633  1.00  0.00     0.000 C 
BRANCH   7   8
ATOM      8  C   UNL     1      11.958 -14.597  37.341  1.00  0.00     0.000 C 
BRANCH   8   9
ATOM      9  C   UNL     1      12.994 -13.546  36.903  1.00  0.00     0.000 C 
BRANCH   9  10
ATOM     10  C   UNL     1      12.962 -13.166  35.409  1.00  0.00     0.000 C 
BRANCH  10  11
ATOM     11  C   UNL     1      12.872 -11.657  35.121  1.00  0.00     0.000 C 
BRANCH  11  12
ATOM     12  C   UNL     1      11.420 -11.158  35.008  1.00  0.00     0.006 C 
BRANCH  12  13
ATOM     13  C   UNL     1      10.889 -10.623  36.346  1.00  0.00     0.053 C 
BRANCH  13  14
ATOM     14  C   UNL     1      11.755  -9.525  36.883  1.00  0.00     0.041 C 
ATOM     15  O   UNL     1      11.751  -8.388  36.339  1.00  0.00    -0.550 OA
ATOM     16  O   UNL     1      12.531  -9.743  38.013  1.00  0.00    -0.550 OA
ENDBRANCH  13  14
ENDBRANCH  12  13
ENDBRANCH  11  12
ENDBRANCH  10  11
ENDBRANCH   9  10
ENDBRANCH   8   9
ENDBRANCH   7   8
ENDBRANCH   6   7
ENDBRANCH   5   6
ENDBRANCH   4   5
ENDBRANCH   3   4
ENDBRANCH   2   3
ENDBRANCH   1   2
BRANCH   1  17
ATOM     17  C   UNL     1       5.625  -9.416  36.799  1.00  0.00     0.000 C 
BRANCH  17  18
ATOM     18  C   UNL     1       4.242  -8.755  36.630  1.00  0.00     0.000 C 
BRANCH  18  19
ATOM     19  C   UNL     1       4.304  -7.257  36.265  1.00  0.00     0.000 C 
BRANCH  19  20
ATOM     20  C   UNL     1       2.950  -6.703  35.791  1.00  0.00     0.000 C 
BRANCH  20  21
ATOM     21  C   UNL     1       3.083  -5.402  34.977  1.00  0.00     0.000 C 
BRANCH  21  22
ATOM     22  C   UNL     1       3.436  -4.150  35.803  1.00  0.00    -0.000 C 
BRANCH  22  23
ATOM     23  C   UNL     1       2.899  -4.147  37.250  1.00  0.00    -0.000 C 
BRANCH  23  24
ATOM     24  C   UNL     1       3.816  -3.471  38.285  1.00  0.00    -0.000 C 
BRANCH  24  25
ATOM     25  C   UNL     1       5.169  -4.187  38.438  1.00  0.00    -0.000 C 
BRANCH  25  26
ATOM     26  C   UNL     1       6.353  -3.213  38.580  1.00  0.00    -0.000 C 
BRANCH  26  27
ATOM     27  C   UNL     1       6.936  -2.692  37.252  1.00  0.00    -0.000 C 
BRANCH  27  28
ATOM     28  C   UNL     1       7.050  -3.785  36.175  1.00  0.00    -0.000 C 
BRANCH  28  29
ATOM     29  C   UNL     1       7.359  -3.208  34.783  1.00  0.00    -0.003 C 
ATOM     30  C   UNL     1       6.492  -3.822  33.684  1.00  0.00     0.004 C 
ENDBRANCH  28  29
ENDBRANCH  27  28
ENDBRANCH  26  27
ENDBRANCH  25  26
ENDBRANCH  24  25
ENDBRANCH  23  24
ENDBRANCH  22  23
ENDBRANCH  21  22
ENDBRANCH  20  21
ENDBRANCH  19  20
ENDBRANCH  18  19
ENDBRANCH  17  18
ENDBRANCH   1  17
TORSDOF 26
ENDMDL
MODEL 5
REMARK VINA RESULT:    -4.652      2.192      5.258
REMARK INTER + INTRA:         -14.851
REMARK INTER:                 -11.891
REMARK INTRA:                  -2.960
REMARK UNBOUND:                -3.128
REMARK SMILES CCCCCCCCCCCCCCCCCCCCCCCCCCCC(=O)[O-]
REMARK SMILES IDX 15 1 16 2 17 3 18 4 19 5 20 6 21 7 22 8 23 9 24 10 25 11
REMARK SMILES IDX 26 12 27 13 28 14 29 15 30 16 14 17 13 18 12 19 11 20 10 21
REMARK SMILES IDX 9 22 8 23 7 24 6 25 5 26 4 27 3 28 2 29 1 30
REMARK H PARENT
REMARK Flexibility Score: inf
ROOT
ATOM      1  C   UNL     1      12.912  -9.862  36.585  1.00  0.00     0.000 C 
ENDROOT
BRANCH   1   2
ATOM      2  C   UNL     1      11.597  -9.102  36.320  1.00  0.00     0.000 C 
BRANCH   2   3
ATOM      3  C   UNL     1      11.704  -7.575  36.520  1.00  0.00     0.000 C 
BRANCH   3   4
ATOM      4  C   UNL     1      10.979  -6.779  35.422  1.00  0.00     0.000 C 
BRANCH   4   5
ATOM      5  C   UNL     1      11.324  -5.284  35.500  1.00  0.00     0.000 C 
BRANCH   5   6
ATOM      6  C   UNL     1      10.074  -4.385  35.546  1.00  0.00     0.000 C 
BRANCH   6   7
ATOM      7  C   UNL     1      10.344  -2.906  35.879  1.00  0.00     0.000 C 
BRANCH   7   8
ATOM      8  C   UNL     1       9.059  -2.116  36.177  1.00  0.00     0.000 C 
BRANCH   8   9
ATOM      9  C   UNL     1       7.860  -3.023  36.507  1.00  0.00     0.000 C 
BRANCH   9  10
ATOM     10  C   UNL     1       6.641  -2.311  37.129  1.00  0.00     0.000 C 
BRANCH  10  11
ATOM     11  C   UNL     1       6.160  -2.893  38.470  1.00  0.00     0.000 C 
BRANCH  11  12
ATOM     12  C   UNL     1       5.466  -4.258  38.311  1.00  0.00     0.006 C 
BRANCH  12  13
ATOM     13  C   UNL     1       3.973  -4.112  37.982  1.00  0.00     0.053 C 
BRANCH  13  14
ATOM     14  C   UNL     1       3.607  -4.868  36.741  1.00  0.00     0.041 C 
ATOM     15  O   UNL     1       2.436  -4.807  36.281  1.00  0.00    -0.550 OA
ATOM     16  O   UNL     1       4.573  -5.603  36.066  1.00  0.00    -0.550 OA
ENDBRANCH  13  14
ENDBRANCH  12  13
ENDBRANCH  11  12
ENDBRANCH  10  11
ENDBRANCH   9  10
ENDBRANCH   8   9
ENDBRANCH   7   8
ENDBRANCH   6   7
ENDBRANCH   5   6
ENDBRANCH   4   5
ENDBRANCH   3   4
ENDBRANCH   2   3
ENDBRANCH   1   2
BRANCH   1  17
ATOM     17  C   UNL     1      13.378 -10.790  35.451  1.00  0.00     0.000 C 
BRANCH  17  18
ATOM     18  C   UNL     1      13.243 -12.300  35.736  1.00  0.00     0.000 C 
BRANCH  18  19
ATOM     19  C   UNL     1      12.733 -12.626  37.156  1.00  0.00     0.000 C 
BRANCH  19  20
ATOM     20  C   UNL     1      12.592 -14.138  37.404  1.00  0.00     0.000 C 
BRANCH  20  21
ATOM     21  C   UNL     1      11.712 -14.841  36.353  1.00  0.00     0.000 C 
BRANCH  21  22
ATOM     22  C   UNL     1      10.245 -15.060  36.773  1.00  0.00    -0.000 C 
BRANCH  22  23
ATOM     23  C   UNL     1       9.916 -14.671  38.229  1.00  0.00    -0.000 C 
BRANCH  23  24
ATOM     24  C   UNL     1       8.471 -14.199  38.467  1.00  0.00    -0.000 C 
BRANCH  24  25
ATOM     25  C   UNL     1       8.376 -12.687  38.736  1.00  0.00    -0.000 C 
BRANCH  25  26
ATOM     26  C   UNL     1       9.256 -11.851  37.787  1.00  0.00    -0.000 C 
BRANCH  26  27
ATOM     27  C   UNL     1       8.647 -11.580  36.397  1.00  0.00    -0.000 C 
BRANCH  27  28
ATOM     28  C   UNL     1       9.612 -11.908  35.244  1.00  0.00    -0.000 C 
BRANCH  28  29
ATOM     29  C   UNL     1       8.873 -12.271  33.946  1.00  0.00    -0.003 C 
ATOM     30  C   UNL     1       7.771 -13.309  34.165  1.00  0.00     0.004 C 
ENDBRANCH  28  29
ENDBRANCH  27  28
ENDBRANCH  26  27
ENDBRANCH  25  26
ENDBRANCH  24  25
ENDBRANCH  23  24
ENDBRANCH  22  23
ENDBRANCH  21  22
ENDBRANCH  20  21
ENDBRANCH  19  20
ENDBRANCH  18  19
ENDBRANCH  17  18
ENDBRANCH   1  17
TORSDOF 26
ENDMDL
MODEL 6
REMARK VINA RESULT:    -4.648      2.507      9.596
REMARK INTER + INTRA:         -14.842
REMARK INTER:                 -12.417
REMARK INTRA:                  -2.425
REMARK UNBOUND:                -3.128
REMARK SMILES CCCCCCCCCCCCCCCCCCCCCCCCCCCC(=O)[O-]
REMARK SMILES IDX 15 1 16 2 17 3 18 4 19 5 20 6 21 7 22 8 23 9 24 10 25 11
REMARK SMILES IDX 26 12 27 13 28 14 29 15 30 16 14 17 13 18 12 19 11 20 10 21
REMARK SMILES IDX 9 22 8 23 7 24 6 25 5 26 4 27 3 28 2 29 1 30
REMARK H PARENT
REMARK Flexibility Score: inf
ROOT
ATOM      1  C   UNL     1       7.624 -12.134  35.262  1.00  0.00     0.000 C 
ENDROOT
BRANCH   1   2
ATOM      2  C   UNL     1       7.962 -13.501  35.889  1.00  0.00     0.000 C 
BRANCH   2   3
ATOM      3  C   UNL     1       7.167 -13.814  37.175  1.00  0.00     0.000 C 
BRANCH   3   4
ATOM      4  C   UNL     1       8.065 -13.921  38.418  1.00  0.00     0.000 C 
BRANCH   4   5
ATOM      5  C   UNL     1       9.504 -13.486  38.103  1.00  0.00     0.000 C 
BRANCH   5   6
ATOM      6  C   UNL     1      10.508 -14.652  38.171  1.00  0.00     0.000 C 
BRANCH   6   7
ATOM      7  C   UNL     1      11.251 -14.953  36.856  1.00  0.00     0.000 C 
BRANCH   7   8
ATOM      8  C   UNL     1      12.559 -14.158  36.712  1.00  0.00     0.000 C 
BRANCH   8   9
ATOM      9  C   UNL     1      12.543 -13.187  35.518  1.00  0.00     0.000 C 
BRANCH   9  10
ATOM     10  C   UNL     1      13.917 -12.897  34.879  1.00  0.00     0.000 C 
BRANCH  10  11
ATOM     11  C   UNL     1      14.326 -11.414  34.857  1.00  0.00     0.000 C 
BRANCH  11  12
ATOM     12  C   UNL     1      13.283 -10.498  35.522  1.00  0.00     0.006 C 
BRANCH  12  13
ATOM     13  C   UNL     1      13.651 -10.162  36.974  1.00  0.00     0.053 C 
BRANCH  13  14
ATOM     14  C   UNL     1      12.460 -10.254  37.879  1.00  0.00     0.041 C 
ATOM     15  O   UNL     1      12.597 -10.125  39.125  1.00  0.00    -0.550 OA
ATOM     16  O   UNL     1      11.192 -10.433  37.342  1.00  0.00    -0.550 OA
ENDBRANCH  13  14
ENDBRANCH  12  13
ENDBRANCH  11  12
ENDBRANCH  10  11
ENDBRANCH   9  10
ENDBRANCH   8   9
ENDBRANCH   7   8
ENDBRANCH   6   7
ENDBRANCH   5   6
ENDBRANCH   4   5
ENDBRANCH   3   4
ENDBRANCH   2   3
ENDBRANCH   1   2
BRANCH   1  17
ATOM     17  C   UNL     1       7.177 -11.046  36.252  1.00  0.00     0.000 C 
BRANCH  17  18
ATOM     18  C   UNL     1       5.879 -10.303  35.875  1.00  0.00     0.000 C 
BRANCH  18  19
ATOM     19  C   UNL     1       5.344  -9.374  36.986  1.00  0.00     0.000 C 
BRANCH  19  20
ATOM     20  C   UNL     1       4.029  -8.677  36.595  1.00  0.00     0.000 C 
BRANCH  20  21
ATOM     21  C   UNL     1       4.223  -7.197  36.216  1.00  0.00     0.000 C 
BRANCH  21  22
ATOM     22  C   UNL     1       2.921  -6.384  36.075  1.00  0.00    -0.000 C 
BRANCH  22  23
ATOM     23  C   UNL     1       3.017  -5.147  35.159  1.00  0.00    -0.000 C 
BRANCH  23  24
ATOM     24  C   UNL     1       4.203  -5.150  34.180  1.00  0.00    -0.000 C 
BRANCH  24  25
ATOM     25  C   UNL     1       4.748  -3.739  33.901  1.00  0.00    -0.000 C 
BRANCH  25  26
ATOM     26  C   UNL     1       6.285  -3.663  33.965  1.00  0.00    -0.000 C 
BRANCH  26  27
ATOM     27  C   UNL     1       6.854  -2.887  35.169  1.00  0.00    -0.000 C 
BRANCH  27  28
ATOM     28  C   UNL     1       7.192  -3.796  36.364  1.00  0.00    -0.000 C 
BRANCH  28  29
ATOM     29  C   UNL     1       6.522  -3.325  37.666  1.00  0.00    -0.003 C 
ATOM     30  C   UNL     1       5.326  -4.192  38.061  1.00  0.00     0.004 C 
ENDBRANCH  28  29
ENDBRANCH  27  28
ENDBRANCH  26  27
ENDBRANCH  25  26
ENDBRANCH  24  25
ENDBRANCH  23  24
ENDBRANCH  22  23
ENDBRANCH  21  22
ENDBRANCH  20  21
ENDBRANCH  19  20
ENDBRANCH  18  19
ENDBRANCH  17  18
ENDBRANCH   1  17
TORSDOF 26
ENDMDL
MODEL 7
REMARK VINA RESULT:    -4.627      1.291      2.226
REMARK INTER + INTRA:         -14.788
REMARK INTER:                 -11.158
REMARK INTRA:                  -3.630
REMARK UNBOUND:                -3.128
REMARK SMILES CCCCCCCCCCCCCCCCCCCCCCCCCCCC(=O)[O-]
REMARK SMILES IDX 15 1 16 2 17 3 18 4 19 5 20 6 21 7 22 8 23 9 24 10 25 11
REMARK SMILES IDX 26 12 27 13 28 14 29 15 30 16 14 17 13 18 12 19 11 20 10 21
REMARK SMILES IDX 9 22 8 23 7 24 6 25 5 26 4 27 3 28 2 29 1 30
REMARK H PARENT
REMARK Flexibility Score: inf
ROOT
ATOM      1  C   UNL     1       7.256 -11.677  35.673  1.00  0.00     0.000 C 
ENDROOT
BRANCH   1   2
ATOM      2  C   UNL     1       6.722 -10.557  36.588  1.00  0.00     0.000 C 
BRANCH   2   3
ATOM      3  C   UNL     1       5.347 -10.001  36.161  1.00  0.00     0.000 C 
BRANCH   3   4
ATOM      4  C   UNL     1       4.951  -8.734  36.939  1.00  0.00     0.000 C 
BRANCH   4   5
ATOM      5  C   UNL     1       3.875  -7.935  36.187  1.00  0.00     0.000 C 
BRANCH   5   6
ATOM      6  C   UNL     1       4.105  -6.413  36.259  1.00  0.00     0.000 C 
BRANCH   6   7
ATOM      7  C   UNL     1       2.837  -5.553  36.104  1.00  0.00     0.000 C 
BRANCH   7   8
ATOM      8  C   UNL     1       3.062  -4.081  36.487  1.00  0.00     0.000 C 
BRANCH   8   9
ATOM      9  C   UNL     1       3.914  -3.915  37.759  1.00  0.00     0.000 C 
BRANCH   9  10
ATOM     10  C   UNL     1       5.065  -2.894  37.658  1.00  0.00     0.000 C 
BRANCH  10  11
ATOM     11  C   UNL     1       6.478  -3.505  37.632  1.00  0.00     0.000 C 
BRANCH  11  12
ATOM     12  C   UNL     1       6.900  -3.971  36.228  1.00  0.00     0.006 C 
BRANCH  12  13
ATOM     13  C   UNL     1       6.423  -3.008  35.132  1.00  0.00     0.053 C 
BRANCH  13  14
ATOM     14  C   UNL     1       6.242  -3.711  33.821  1.00  0.00     0.041 C 
ATOM     15  O   UNL     1       7.141  -3.655  32.940  1.00  0.00    -0.550 OA
ATOM     16  O   UNL     1       5.102  -4.469  33.592  1.00  0.00    -0.550 OA
ENDBRANCH  13  14
ENDBRANCH  12  13
ENDBRANCH  11  12
ENDBRANCH  10  11
ENDBRANCH   9  10
ENDBRANCH   8   9
ENDBRANCH   7   8
ENDBRANCH   6   7
ENDBRANCH   5   6
ENDBRANCH   4   5
ENDBRANCH   3   4
ENDBRANCH   2   3
ENDBRANCH   1   2
BRANCH   1  17
ATOM     17  C   UNL     1       7.423 -13.051  36.342  1.00  0.00     0.000 C 
BRANCH  17  18
ATOM     18  C   UNL     1       8.595 -13.904  35.814  1.00  0.00     0.000 C 
BRANCH  18  19
ATOM     19  C   UNL     1       9.546 -14.414  36.917  1.00  0.00     0.000 C 
BRANCH  19  20
ATOM     20  C   UNL     1      10.900 -14.888  36.364  1.00  0.00     0.000 C 
BRANCH  20  21
ATOM     21  C   UNL     1      12.050 -14.738  37.377  1.00  0.00     0.000 C 
BRANCH  21  22
ATOM     22  C   UNL     1      13.245 -13.896  36.887  1.00  0.00    -0.000 C 
BRANCH  22  23
ATOM     23  C   UNL     1      13.136 -13.387  35.435  1.00  0.00    -0.000 C 
BRANCH  23  24
ATOM     24  C   UNL     1      13.755 -12.002  35.181  1.00  0.00    -0.000 C 
BRANCH  24  25
ATOM     25  C   UNL     1      12.720 -10.966  34.710  1.00  0.00    -0.000 C 
BRANCH  25  26
ATOM     26  C   UNL     1      11.278 -11.331  35.108  1.00  0.00    -0.000 C 
BRANCH  26  27
ATOM     27  C   UNL     1      10.668 -10.467  36.229  1.00  0.00    -0.000 C 
BRANCH  27  28
ATOM     28  C   UNL     1      10.522 -11.224  37.561  1.00  0.00    -0.000 C 
BRANCH  28  29
ATOM     29  C   UNL     1      11.821 -11.220  38.383  1.00  0.00    -0.003 C 
ATOM     30  C   UNL     1      12.569  -9.889  38.299  1.00  0.00     0.004 C 
ENDBRANCH  28  29
ENDBRANCH  27  28
ENDBRANCH  26  27
ENDBRANCH  25  26
ENDBRANCH  24  25
ENDBRANCH  23  24
ENDBRANCH  22  23
ENDBRANCH  21  22
ENDBRANCH  20  21
ENDBRANCH  19  20
ENDBRANCH  18  19
ENDBRANCH  17  18
ENDBRANCH   1  17
TORSDOF 26
ENDMDL
MODEL 8
REMARK VINA RESULT:    -4.623      2.155      9.819
REMARK INTER + INTRA:         -14.777
REMARK INTER:                 -11.305
REMARK INTRA:                  -3.472
REMARK UNBOUND:                -3.128
REMARK SMILES CCCCCCCCCCCCCCCCCCCCCCCCCCCC(=O)[O-]
REMARK SMILES IDX 15 1 16 2 17 3 18 4 19 5 20 6 21 7 22 8 23 9 24 10 25 11
REMARK SMILES IDX 26 12 27 13 28 14 29 15 30 16 14 17 13 18 12 19 11 20 10 21
REMARK SMILES IDX 9 22 8 23 7 24 6 25 5 26 4 27 3 28 2 29 1 30
REMARK H PARENT
REMARK Flexibility Score: inf
ROOT
ATOM      1  C   UNL     1       6.988 -10.919  36.493  1.00  0.00     0.000 C 
ENDROOT
BRANCH   1   2
ATOM      2  C   UNL     1       7.593 -11.924  35.493  1.00  0.00     0.000 C 
BRANCH   2   3
ATOM      3  C   UNL     1       7.687 -13.367  36.033  1.00  0.00     0.000 C 
BRANCH   3   4
ATOM      4  C   UNL     1       7.048 -13.524  37.423  1.00  0.00     0.000 C 
BRANCH   4   5
ATOM      5  C   UNL     1       8.073 -14.025  38.452  1.00  0.00     0.000 C 
BRANCH   5   6
ATOM      6  C   UNL     1       9.529 -13.763  38.020  1.00  0.00     0.000 C 
BRANCH   6   7
ATOM      7  C   UNL     1      10.448 -14.998  38.033  1.00  0.00     0.000 C 
BRANCH   7   8
ATOM      8  C   UNL     1      11.471 -14.996  36.885  1.00  0.00     0.000 C 
BRANCH   8   9
ATOM      9  C   UNL     1      12.560 -13.922  37.056  1.00  0.00     0.000 C 
BRANCH   9  10
ATOM     10  C   UNL     1      12.741 -12.965  35.860  1.00  0.00     0.000 C 
BRANCH  10  11
ATOM     11  C   UNL     1      11.437 -12.539  35.162  1.00  0.00     0.000 C 
BRANCH  11  12
ATOM     12  C   UNL     1      11.261 -11.011  35.111  1.00  0.00     0.006 C 
BRANCH  12  13
ATOM     13  C   UNL     1      10.876 -10.428  36.478  1.00  0.00     0.053 C 
BRANCH  13  14
ATOM     14  C   UNL     1      11.898  -9.445  36.964  1.00  0.00     0.041 C 
ATOM     15  O   UNL     1      12.852  -9.828  37.694  1.00  0.00    -0.550 OA
ATOM     16  O   UNL     1      11.824  -8.116  36.571  1.00  0.00    -0.550 OA
ENDBRANCH  13  14
ENDBRANCH  12  13
ENDBRANCH  11  12
ENDBRANCH  10  11
ENDBRANCH   9  10
ENDBRANCH   8   9
ENDBRANCH   7   8
ENDBRANCH   6   7
ENDBRANCH   5   6
ENDBRANCH   4   5
ENDBRANCH   3   4
ENDBRANCH   2   3
ENDBRANCH   1   2
BRANCH   1  17
ATOM     17  C   UNL     1       5.770 -10.133  35.981  1.00  0.00     0.000 C 
BRANCH  17  18
ATOM     18  C   UNL     1       5.097  -9.210  37.017  1.00  0.00     0.000 C 
BRANCH  18  19
ATOM     19  C   UNL     1       3.921  -8.385  36.451  1.00  0.00     0.000 C 
BRANCH  19  20
ATOM     20  C   UNL     1       4.278  -6.903  36.246  1.00  0.00     0.000 C 
BRANCH  20  21
ATOM     21  C   UNL     1       3.217  -6.135  35.435  1.00  0.00     0.000 C 
BRANCH  21  22
ATOM     22  C   UNL     1       1.897  -5.862  36.181  1.00  0.00    -0.000 C 
BRANCH  22  23
ATOM     23  C   UNL     1       1.685  -4.399  36.622  1.00  0.00    -0.000 C 
BRANCH  23  24
ATOM     24  C   UNL     1       2.842  -3.442  36.290  1.00  0.00    -0.000 C 
BRANCH  24  25
ATOM     25  C   UNL     1       3.485  -2.829  37.546  1.00  0.00    -0.000 C 
BRANCH  25  26
ATOM     26  C   UNL     1       3.980  -3.888  38.548  1.00  0.00    -0.000 C 
BRANCH  26  27
ATOM     27  C   UNL     1       5.493  -4.178  38.503  1.00  0.00    -0.000 C 
BRANCH  27  28
ATOM     28  C   UNL     1       6.317  -2.990  37.974  1.00  0.00    -0.000 C 
BRANCH  28  29
ATOM     29  C   UNL     1       7.242  -3.389  36.812  1.00  0.00    -0.003 C 
ATOM     30  C   UNL     1       6.480  -3.994  35.633  1.00  0.00     0.004 C 
ENDBRANCH  28  29
ENDBRANCH  27  28
ENDBRANCH  26  27
ENDBRANCH  25  26
ENDBRANCH  24  25
ENDBRANCH  23  24
ENDBRANCH  22  23
ENDBRANCH  21  22
ENDBRANCH  20  21
ENDBRANCH  19  20
ENDBRANCH  18  19
ENDBRANCH  17  18
ENDBRANCH   1  17
TORSDOF 26
ENDMDL
MODEL 9
REMARK VINA RESULT:    -4.604      2.667      9.791
REMARK INTER + INTRA:         -14.730
REMARK INTER:                 -11.527
REMARK INTRA:                  -3.203
REMARK UNBOUND:                -3.128
REMARK SMILES CCCCCCCCCCCCCCCCCCCCCCCCCCCC(=O)[O-]
REMARK SMILES IDX 15 1 16 2 17 3 18 4 19 5 20 6 21 7 22 8 23 9 24 10 25 11
REMARK SMILES IDX 26 12 27 13 28 14 29 15 30 16 14 17 13 18 12 19 11 20 10 21
REMARK SMILES IDX 9 22 8 23 7 24 6 25 5 26 4 27 3 28 2 29 1 30
REMARK H PARENT
REMARK Flexibility Score: inf
ROOT
ATOM      1  C   UNL     1       6.216 -10.493  35.919  1.00  0.00     0.000 C 
ENDROOT
BRANCH   1   2
ATOM      2  C   UNL     1       7.517 -11.214  36.322  1.00  0.00     0.000 C 
BRANCH   2   3
ATOM      3  C   UNL     1       8.017 -12.236  35.279  1.00  0.00     0.000 C 
BRANCH   3   4
ATOM      4  C   UNL     1       7.992 -13.681  35.804  1.00  0.00     0.000 C 
BRANCH   4   5
ATOM      5  C   UNL     1       7.116 -13.800  37.061  1.00  0.00     0.000 C 
BRANCH   5   6
ATOM      6  C   UNL     1       7.926 -14.166  38.319  1.00  0.00     0.000 C 
BRANCH   6   7
ATOM      7  C   UNL     1       9.421 -13.804  38.263  1.00  0.00     0.000 C 
BRANCH   7   8
ATOM      8  C   UNL     1      10.330 -15.035  38.115  1.00  0.00     0.000 C 
BRANCH   8   9
ATOM      9  C   UNL     1      11.230 -14.970  36.868  1.00  0.00     0.000 C 
BRANCH   9  10
ATOM     10  C   UNL     1      12.494 -14.097  37.007  1.00  0.00     0.000 C 
BRANCH  10  11
ATOM     11  C   UNL     1      12.799 -13.194  35.799  1.00  0.00     0.000 C 
BRANCH  11  12
ATOM     12  C   UNL     1      11.726 -12.113  35.578  1.00  0.00     0.006 C 
BRANCH  12  13
ATOM     13  C   UNL     1      11.528 -11.234  36.821  1.00  0.00     0.053 C 
BRANCH  13  14
ATOM     14  C   UNL     1      12.750 -10.420  37.121  1.00  0.00     0.041 C 
ATOM     15  O   UNL     1      13.229 -10.397  38.286  1.00  0.00    -0.550 OA
ATOM     16  O   UNL     1      13.389  -9.727  36.102  1.00  0.00    -0.550 OA
ENDBRANCH  13  14
ENDBRANCH  12  13
ENDBRANCH  11  12
ENDBRANCH  10  11
ENDBRANCH   9  10
ENDBRANCH   8   9
ENDBRANCH   7   8
ENDBRANCH   6   7
ENDBRANCH   5   6
ENDBRANCH   4   5
ENDBRANCH   3   4
ENDBRANCH   2   3
ENDBRANCH   1   2
BRANCH   1  17
ATOM     17  C   UNL     1       5.543  -9.675  37.034  1.00  0.00     0.000 C 
BRANCH  17  18
ATOM     18  C   UNL     1       4.248  -8.943  36.626  1.00  0.00     0.000 C 
BRANCH  18  19
ATOM     19  C   UNL     1       4.458  -7.460  36.251  1.00  0.00     0.000 C 
BRANCH  19  20
ATOM     20  C   UNL     1       3.133  -6.698  36.076  1.00  0.00     0.000 C 
BRANCH  20  21
ATOM     21  C   UNL     1       3.031  -5.972  34.722  1.00  0.00     0.000 C 
BRANCH  21  22
ATOM     22  C   UNL     1       3.740  -4.605  34.660  1.00  0.00    -0.000 C 
BRANCH  22  23
ATOM     23  C   UNL     1       4.809  -4.470  33.556  1.00  0.00    -0.000 C 
BRANCH  23  24
ATOM     24  C   UNL     1       6.127  -3.814  34.001  1.00  0.00    -0.000 C 
BRANCH  24  25
ATOM     25  C   UNL     1       5.988  -3.034  35.320  1.00  0.00    -0.000 C 
BRANCH  25  26
ATOM     26  C   UNL     1       6.893  -3.581  36.441  1.00  0.00    -0.000 C 
BRANCH  26  27
ATOM     27  C   UNL     1       6.336  -3.421  37.869  1.00  0.00    -0.000 C 
BRANCH  27  28
ATOM     28  C   UNL     1       5.154  -4.362  38.163  1.00  0.00    -0.000 C 
BRANCH  28  29
ATOM     29  C   UNL     1       3.961  -3.627  38.794  1.00  0.00    -0.003 C 
ATOM     30  C   UNL     1       3.071  -2.945  37.755  1.00  0.00     0.004 C 
ENDBRANCH  28  29
ENDBRANCH  27  28
ENDBRANCH  26  27
ENDBRANCH  25  26
ENDBRANCH  24  25
ENDBRANCH  23  24
ENDBRANCH  22  23
ENDBRANCH  21  22
ENDBRANCH  20  21
ENDBRANCH  19  20
ENDBRANCH  18  19
ENDBRANCH  17  18
ENDBRANCH   1  17
TORSDOF 26
ENDMDL
