MODEL 1
REMARK VINA RESULT:    -4.629      0.000      0.000
REMARK INTER + INTRA:          -4.765
REMARK INTER:                  -4.765
REMARK INTRA:                   0.000
REMARK UNBOUND:                 0.000
REMARK SMILES Oc1ccc2[nH]ccc2c1
REMARK SMILES IDX 3 1 4 2 5 3 9 4 8 5 7 6 6 7 10 8 2 9 1 11
REMARK H PARENT 6 10 1 12
REMARK Flexibility Score: inf
ROOT
ATOM      1  C   UNL     1      20.502   8.681  33.971  1.00  0.00     0.048 A 
ATOM      2  C   UNL     1      19.101   8.697  33.845  1.00  0.00     0.030 A 
ATOM      3  C   UNL     1      18.538   9.603  32.948  1.00  0.00     0.046 A 
ATOM      4  C   UNL     1      19.311  10.456  32.207  1.00  0.00     0.003 A 
ATOM      5  C   UNL     1      18.462  11.211  31.429  1.00  0.00     0.028 A 
ATOM      6  C   UNL     1      17.183  10.764  31.747  1.00  0.00     0.083 A 
ATOM      7  N   UNL     1      17.236   9.781  32.675  1.00  0.00    -0.361 N 
ATOM      8  C   UNL     1      20.700  10.467  32.308  1.00  0.00     0.056 A 
ATOM      9  C   UNL     1      21.303   9.562  33.207  1.00  0.00     0.116 A 
ATOM     10  H   UNL     1      16.426   9.269  33.092  1.00  0.00     0.166 HD
ENDROOT
BRANCH   9  11
ATOM     11  O   UNL     1      22.688   9.527  33.352  1.00  0.00    -0.508 OA
ATOM     12  H   UNL     1      23.186  10.259  33.845  1.00  0.00     0.293 HD
ENDBRANCH   9  11
TORSDOF 1
ENDMDL
MODEL 2
REMARK VINA RESULT:    -4.552      2.644      3.682
REMARK INTER + INTRA:          -4.685
REMARK INTER:                  -4.685
REMARK INTRA:                   0.000
REMARK UNBOUND:                 0.000
REMARK SMILES Oc1ccc2[nH]ccc2c1
REMARK SMILES IDX 3 1 4 2 5 3 9 4 8 5 7 6 6 7 10 8 2 9 1 11
REMARK H PARENT 6 10 1 12
REMARK Flexibility Score: inf
ROOT
ATOM      1  C   UNL     1      17.258  10.121  32.580  1.00  0.00     0.048 A 
ATOM      2  C   UNL     1      18.307   9.430  33.212  1.00  0.00     0.030 A 
ATOM      3  C   UNL     1      19.606   9.666  32.765  1.00  0.00     0.046 A 
ATOM      4  C   UNL     1      19.867  10.540  31.744  1.00  0.00     0.003 A 
ATOM      5  C   UNL     1      21.230  10.547  31.546  1.00  0.00     0.028 A 
ATOM      6  C   UNL     1      21.738   9.653  32.484  1.00  0.00     0.083 A 
ATOM      7  N   UNL     1      20.742   9.118  33.226  1.00  0.00    -0.361 N 
ATOM      8  C   UNL     1      18.852  11.240  31.095  1.00  0.00     0.056 A 
ATOM      9  C   UNL     1      17.525  11.023  31.524  1.00  0.00     0.116 A 
ATOM     10  H   UNL     1      20.840   8.421  33.998  1.00  0.00     0.166 HD
ENDROOT
BRANCH   9  11
ATOM     11  O   UNL     1      16.468  11.694  30.913  1.00  0.00    -0.508 OA
ATOM     12  H   UNL     1      16.136  12.586  31.261  1.00  0.00     0.293 HD
ENDBRANCH   9  11
TORSDOF 1
ENDMDL
MODEL 3
REMARK VINA RESULT:    -4.441      2.620      4.052
REMARK INTER + INTRA:          -4.571
REMARK INTER:                  -4.571
REMARK INTRA:                   0.000
REMARK UNBOUND:                 0.000
REMARK SMILES Oc1ccc2[nH]ccc2c1
REMARK SMILES IDX 3 1 4 2 5 3 9 4 8 5 7 6 6 7 10 8 2 9 1 11
REMARK H PARENT 6 10 1 12
REMARK Flexibility Score: inf
ROOT
ATOM      1  C   UNL     1      18.718  11.351  30.885  1.00  0.00     0.048 A 
ATOM      2  C   UNL     1      19.989  10.915  31.300  1.00  0.00     0.030 A 
ATOM      3  C   UNL     1      20.057  10.057  32.397  1.00  0.00     0.046 A 
ATOM      4  C   UNL     1      18.931   9.644  33.058  1.00  0.00     0.003 A 
ATOM      5  C   UNL     1      19.336   8.814  34.080  1.00  0.00     0.028 A 
ATOM      6  C   UNL     1      20.723   8.765  33.982  1.00  0.00     0.083 A 
ATOM      7  N   UNL     1      21.158   9.526  32.952  1.00  0.00    -0.361 N 
ATOM      8  C   UNL     1      17.658  10.057  32.673  1.00  0.00     0.056 A 
ATOM      9  C   UNL     1      17.553  10.926  31.567  1.00  0.00     0.116 A 
ATOM     10  H   UNL     1      22.149   9.670  32.654  1.00  0.00     0.166 HD
ENDROOT
BRANCH   9  11
ATOM     11  O   UNL     1      16.307  11.374  31.136  1.00  0.00    -0.508 OA
ATOM     12  H   UNL     1      15.460  10.854  31.338  1.00  0.00     0.293 HD
ENDBRANCH   9  11
TORSDOF 1
ENDMDL
MODEL 4
REMARK VINA RESULT:    -4.239      1.449      2.154
REMARK INTER + INTRA:          -4.363
REMARK INTER:                  -4.363
REMARK INTRA:                   0.000
REMARK UNBOUND:                 0.000
REMARK SMILES Oc1ccc2[nH]ccc2c1
REMARK SMILES IDX 3 1 4 2 5 3 9 4 8 5 7 6 6 7 10 8 2 9 1 11
REMARK H PARENT 6 10 1 12
REMARK Flexibility Score: inf
ROOT
ATOM      1  C   UNL     1      21.121   9.412  33.189  1.00  0.00     0.048 A 
ATOM      2  C   UNL     1      20.815  10.318  32.158  1.00  0.00     0.030 A 
ATOM      3  C   UNL     1      19.471  10.588  31.904  1.00  0.00     0.046 A 
ATOM      4  C   UNL     1      18.470   9.997  32.628  1.00  0.00     0.003 A 
ATOM      5  C   UNL     1      17.273  10.468  32.135  1.00  0.00     0.028 A 
ATOM      6  C   UNL     1      17.620  11.344  31.112  1.00  0.00     0.083 A 
ATOM      7  N   UNL     1      18.965  11.414  30.975  1.00  0.00    -0.361 N 
ATOM      8  C   UNL     1      18.737   9.095  33.655  1.00  0.00     0.056 A 
ATOM      9  C   UNL     1      20.088   8.799  33.938  1.00  0.00     0.116 A 
ATOM     10  H   UNL     1      19.495  11.992  30.286  1.00  0.00     0.166 HD
ENDROOT
BRANCH   9  11
ATOM     11  O   UNL     1      20.417   7.905  34.953  1.00  0.00    -0.508 OA
ATOM     12  H   UNL     1      19.832   7.104  35.162  1.00  0.00     0.293 HD
ENDBRANCH   9  11
TORSDOF 1
ENDMDL
MODEL 5
REMARK VINA RESULT:    -4.157     14.737     15.089
REMARK INTER + INTRA:          -4.278
REMARK INTER:                  -4.278
REMARK INTRA:                   0.000
REMARK UNBOUND:                 0.000
REMARK SMILES Oc1ccc2[nH]ccc2c1
REMARK SMILES IDX 3 1 4 2 5 3 9 4 8 5 7 6 6 7 10 8 2 9 1 11
REMARK H PARENT 6 10 1 12
REMARK Flexibility Score: inf
ROOT
ATOM      1  C   UNL     1       8.323   2.526  27.100  1.00  0.00     0.048 A 
ATOM      2  C   UNL     1       7.875   3.582  26.286  1.00  0.00     0.030 A 
ATOM      3  C   UNL     1       8.291   3.600  24.955  1.00  0.00     0.046 A 
ATOM      4  C   UNL     1       9.107   2.627  24.444  1.00  0.00     0.003 A 
ATOM      5  C   UNL     1       9.329   2.931  23.119  1.00  0.00     0.028 A 
ATOM      6  C   UNL     1       8.615   4.103  22.890  1.00  0.00     0.083 A 
ATOM      7  N   UNL     1       7.982   4.507  24.015  1.00  0.00    -0.361 N 
ATOM      8  C   UNL     1       9.569   1.569  25.222  1.00  0.00     0.056 A 
ATOM      9  C   UNL     1       9.168   1.521  26.574  1.00  0.00     0.116 A 
ATOM     10  H   UNL     1       7.379   5.353  24.126  1.00  0.00     0.166 HD
ENDROOT
BRANCH   9  11
ATOM     11  O   UNL     1       9.598   0.486  27.402  1.00  0.00    -0.508 OA
ATOM     12  H   UNL     1       9.831   0.649  28.375  1.00  0.00     0.293 HD
ENDBRANCH   9  11
TORSDOF 1
ENDMDL
MODEL 6
REMARK VINA RESULT:    -3.971      2.373      3.134
REMARK INTER + INTRA:          -4.087
REMARK INTER:                  -4.087
REMARK INTRA:                   0.000
REMARK UNBOUND:                 0.000
REMARK SMILES Oc1ccc2[nH]ccc2c1
REMARK SMILES IDX 3 1 4 2 5 3 9 4 8 5 7 6 6 7 10 8 2 9 1 11
REMARK H PARENT 6 10 1 12
REMARK Flexibility Score: inf
ROOT
ATOM      1  C   UNL     1      18.853  10.531  32.432  1.00  0.00     0.048 A 
ATOM      2  C   UNL     1      18.247  11.197  31.352  1.00  0.00     0.030 A 
ATOM      3  C   UNL     1      19.058  11.582  30.285  1.00  0.00     0.046 A 
ATOM      4  C   UNL     1      20.403  11.325  30.276  1.00  0.00     0.003 A 
ATOM      5  C   UNL     1      20.910  11.826  29.097  1.00  0.00     0.028 A 
ATOM      6  C   UNL     1      19.815  12.375  28.435  1.00  0.00     0.083 A 
ATOM      7  N   UNL     1      18.687  12.222  29.165  1.00  0.00    -0.361 N 
ATOM      8  C   UNL     1      21.035  10.668  31.329  1.00  0.00     0.056 A 
ATOM      9  C   UNL     1      20.243  10.265  32.425  1.00  0.00     0.116 A 
ATOM     10  H   UNL     1      17.725  12.541  28.908  1.00  0.00     0.166 HD
ENDROOT
BRANCH   9  11
ATOM     11  O   UNL     1      20.819   9.604  33.507  1.00  0.00    -0.508 OA
ATOM     12  H   UNL     1      20.279   8.976  34.091  1.00  0.00     0.293 HD
ENDBRANCH   9  11
TORSDOF 1
ENDMDL
MODEL 7
REMARK VINA RESULT:    -3.917      2.666      4.212
REMARK INTER + INTRA:          -4.032
REMARK INTER:                  -4.032
REMARK INTRA:                   0.000
REMARK UNBOUND:                 0.000
REMARK SMILES Oc1ccc2[nH]ccc2c1
REMARK SMILES IDX 3 1 4 2 5 3 9 4 8 5 7 6 6 7 10 8 2 9 1 11
REMARK H PARENT 6 10 1 12
REMARK Flexibility Score: inf
ROOT
ATOM      1  C   UNL     1      19.458  10.875  33.017  1.00  0.00     0.048 A 
ATOM      2  C   UNL     1      20.586  10.718  33.843  1.00  0.00     0.030 A 
ATOM      3  C   UNL     1      20.745   9.501  34.504  1.00  0.00     0.046 A 
ATOM      4  C   UNL     1      19.841   8.483  34.363  1.00  0.00     0.003 A 
ATOM      5  C   UNL     1      20.281   7.431  35.136  1.00  0.00     0.028 A 
ATOM      6  C   UNL     1      21.462   7.879  35.721  1.00  0.00     0.083 A 
ATOM      7  N   UNL     1      21.741   9.144  35.330  1.00  0.00    -0.361 N 
ATOM      8  C   UNL     1      18.713   8.605  33.554  1.00  0.00     0.056 A 
ATOM      9  C   UNL     1      18.522   9.825  32.871  1.00  0.00     0.116 A 
ATOM     10  H   UNL     1      22.563   9.722  35.617  1.00  0.00     0.166 HD
ENDROOT
BRANCH   9  11
ATOM     11  O   UNL     1      17.413  10.006  32.048  1.00  0.00    -0.508 OA
ATOM     12  H   UNL     1      16.474   9.805  32.374  1.00  0.00     0.293 HD
ENDBRANCH   9  11
TORSDOF 1
ENDMDL
MODEL 8
REMARK VINA RESULT:    -3.878      6.085      7.088
REMARK INTER + INTRA:          -3.992
REMARK INTER:                  -3.992
REMARK INTRA:                   0.000
REMARK UNBOUND:                 0.000
REMARK SMILES Oc1ccc2[nH]ccc2c1
REMARK SMILES IDX 3 1 4 2 5 3 9 4 8 5 7 6 6 7 10 8 2 9 1 11
REMARK H PARENT 6 10 1 12
REMARK Flexibility Score: inf
ROOT
ATOM      1  C   UNL     1      21.014  11.862  29.229  1.00  0.00     0.048 A 
ATOM      2  C   UNL     1      22.353  11.871  28.796  1.00  0.00     0.030 A 
ATOM      3  C   UNL     1      22.616  12.319  27.502  1.00  0.00     0.046 A 
ATOM      4  C   UNL     1      21.614  12.741  26.670  1.00  0.00     0.003 A 
ATOM      5  C   UNL     1      22.198  13.115  25.480  1.00  0.00     0.028 A 
ATOM      6  C   UNL     1      23.560  12.895  25.658  1.00  0.00     0.083 A 
ATOM      7  N   UNL     1      23.810  12.409  26.896  1.00  0.00    -0.361 N 
ATOM      8  C   UNL     1      20.279  12.746  27.067  1.00  0.00     0.056 A 
ATOM      9  C   UNL     1      19.978  12.297  28.371  1.00  0.00     0.116 A 
ATOM     10  H   UNL     1      24.742  12.156  27.293  1.00  0.00     0.166 HD
ENDROOT
BRANCH   9  11
ATOM     11  O   UNL     1      18.661  12.278  28.824  1.00  0.00    -0.508 OA
ATOM     12  H   UNL     1      18.257  11.447  29.241  1.00  0.00     0.293 HD
ENDBRANCH   9  11
TORSDOF 1
ENDMDL
MODEL 9
REMARK VINA RESULT:    -3.768      5.500      6.912
REMARK INTER + INTRA:          -3.878
REMARK INTER:                  -3.878
REMARK INTRA:                   0.000
REMARK UNBOUND:                 0.000
REMARK SMILES Oc1ccc2[nH]ccc2c1
REMARK SMILES IDX 3 1 4 2 5 3 9 4 8 5 7 6 6 7 10 8 2 9 1 11
REMARK H PARENT 6 10 1 12
REMARK Flexibility Score: inf
ROOT
ATOM      1  C   UNL     1      20.503  12.825  27.078  1.00  0.00     0.048 A 
ATOM      2  C   UNL     1      21.876  12.899  26.779  1.00  0.00     0.030 A 
ATOM      3  C   UNL     1      22.779  12.478  27.754  1.00  0.00     0.046 A 
ATOM      4  C   UNL     1      22.357  12.006  28.968  1.00  0.00     0.003 A 
ATOM      5  C   UNL     1      23.481  11.678  29.694  1.00  0.00     0.028 A 
ATOM      6  C   UNL     1      24.554  11.975  28.859  1.00  0.00     0.083 A 
ATOM      7  N   UNL     1      24.119  12.464  27.675  1.00  0.00    -0.361 N 
ATOM      8  C   UNL     1      21.007  11.920  29.297  1.00  0.00     0.056 A 
ATOM      9  C   UNL     1      20.066  12.338  28.332  1.00  0.00     0.116 A 
ATOM     10  H   UNL     1      24.708  12.768  26.868  1.00  0.00     0.166 HD
ENDROOT
BRANCH   9  11
ATOM     11  O   UNL     1      18.701  12.276  28.604  1.00  0.00    -0.508 OA
ATOM     12  H   UNL     1      18.069  11.742  28.019  1.00  0.00     0.293 HD
ENDBRANCH   9  11
TORSDOF 1
ENDMDL
