MODEL 1
REMARK VINA RESULT:    -7.261      0.000      0.000
REMARK INTER + INTRA:          -9.034
REMARK INTER:                  -8.747
REMARK INTRA:                  -0.287
REMARK UNBOUND:                -0.287
REMARK SMILES O=c1c(O)c(-c2ccc(O)c(O)c2)oc2cc(O)cc(O)c12
REMARK SMILES IDX 5 1 3 2 2 3 1 4 22 5 20 6 19 7 17 8 16 9 15 10 14 11 6 12
REMARK SMILES IDX 7 13 8 14 9 15 13 16 11 17 10 18 12 20 4 22 21 24 18 26
REMARK H PARENT 10 19 12 21 4 23 21 25 18 27
REMARK Flexibility Score: inf
ROOT
ATOM      1  C   UNL     1     -12.432  44.531  30.386  1.00  0.00     0.180 A 
ATOM      2  C   UNL     1     -11.971  44.307  31.694  1.00  0.00     0.208 A 
ATOM      3  C   UNL     1     -12.907  44.118  32.723  1.00  0.00     0.238 A 
ATOM      4  O   UNL     1     -12.490  43.972  33.901  1.00  0.00    -0.285 OA
ATOM      5  C   UNL     1     -14.292  44.139  32.428  1.00  0.00     0.111 A 
ATOM      6  C   UNL     1     -15.329  43.920  33.385  1.00  0.00     0.134 A 
ATOM      7  C   UNL     1     -16.666  44.094  33.007  1.00  0.00     0.093 A 
ATOM      8  C   UNL     1     -17.008  44.416  31.694  1.00  0.00     0.123 A 
ATOM      9  C   UNL     1     -16.005  44.574  30.736  1.00  0.00     0.094 A 
ATOM     10  C   UNL     1     -14.660  44.442  31.091  1.00  0.00     0.146 A 
ATOM     11  O   UNL     1     -13.737  44.611  30.152  1.00  0.00    -0.452 OA
ENDROOT
BRANCH   1  12
ATOM     12  C   UNL     1     -11.506  44.714  29.244  1.00  0.00     0.025 A 
ATOM     13  C   UNL     1     -11.261  43.678  28.327  1.00  0.00     0.016 A 
ATOM     14  C   UNL     1     -10.402  43.881  27.244  1.00  0.00     0.051 A 
ATOM     15  C   UNL     1      -9.786  45.125  27.053  1.00  0.00     0.157 A 
ATOM     16  C   UNL     1     -10.902  45.966  29.037  1.00  0.00     0.062 A 
ATOM     17  C   UNL     1     -10.041  46.173  27.954  1.00  0.00     0.158 A 
BRANCH  15  18
ATOM     18  O   UNL     1      -8.928  45.324  25.973  1.00  0.00    -0.504 OA
ATOM     19  H   UNL     1      -8.974  46.163  25.405  1.00  0.00     0.293 HD
ENDBRANCH  15  18
BRANCH  17  20
ATOM     20  O   UNL     1      -9.450  47.425  27.788  1.00  0.00    -0.504 OA
ATOM     21  H   UNL     1      -8.761  47.604  27.067  1.00  0.00     0.293 HD
ENDBRANCH  17  20
ENDBRANCH   1  12
BRANCH   2  22
ATOM     22  O   UNL     1     -10.601  44.311  31.967  1.00  0.00    -0.502 OA
ATOM     23  H   UNL     1     -10.145  43.564  32.478  1.00  0.00     0.293 HD
ENDBRANCH   2  22
BRANCH   6  24
ATOM     24  O   UNL     1     -15.100  43.506  34.700  1.00  0.00    -0.507 OA
ATOM     25  H   UNL     1     -15.060  42.545  35.002  1.00  0.00     0.293 HD
ENDBRANCH   6  24
BRANCH   8  26
ATOM     26  O   UNL     1     -18.349  44.566  31.351  1.00  0.00    -0.508 OA
ATOM     27  H   UNL     1     -18.691  45.413  30.912  1.00  0.00     0.293 HD
ENDBRANCH   8  26
TORSDOF 6
ENDMDL
MODEL 2
REMARK VINA RESULT:    -6.815      4.812      7.869
REMARK INTER + INTRA:          -8.496
REMARK INTER:                  -8.220
REMARK INTRA:                  -0.277
REMARK UNBOUND:                -0.287
REMARK SMILES O=c1c(O)c(-c2ccc(O)c(O)c2)oc2cc(O)cc(O)c12
REMARK SMILES IDX 5 1 3 2 2 3 1 4 22 5 20 6 19 7 17 8 16 9 15 10 14 11 6 12
REMARK SMILES IDX 7 13 8 14 9 15 13 16 11 17 10 18 12 20 4 22 21 24 18 26
REMARK H PARENT 10 19 12 21 4 23 21 25 18 27
REMARK Flexibility Score: inf
ROOT
ATOM      1  C   UNL     1     -16.635  41.660  31.105  1.00  0.00     0.180 A 
ATOM      2  C   UNL     1     -16.779  40.303  31.439  1.00  0.00     0.208 A 
ATOM      3  C   UNL     1     -16.393  39.326  30.507  1.00  0.00     0.238 A 
ATOM      4  O   UNL     1     -16.574  38.114  30.791  1.00  0.00    -0.285 OA
ATOM      5  C   UNL     1     -15.853  39.720  29.259  1.00  0.00     0.111 A 
ATOM      6  C   UNL     1     -15.392  38.816  28.254  1.00  0.00     0.134 A 
ATOM      7  C   UNL     1     -14.999  39.313  27.005  1.00  0.00     0.093 A 
ATOM      8  C   UNL     1     -14.988  40.683  26.746  1.00  0.00     0.123 A 
ATOM      9  C   UNL     1     -15.380  41.579  27.742  1.00  0.00     0.094 A 
ATOM     10  C   UNL     1     -15.813  41.111  28.985  1.00  0.00     0.146 A 
ATOM     11  O   UNL     1     -16.187  41.997  29.901  1.00  0.00    -0.452 OA
ENDROOT
BRANCH   1  12
ATOM     12  C   UNL     1     -16.997  42.746  32.045  1.00  0.00     0.025 A 
ATOM     13  C   UNL     1     -16.013  43.469  32.742  1.00  0.00     0.016 A 
ATOM     14  C   UNL     1     -16.377  44.505  33.605  1.00  0.00     0.051 A 
ATOM     15  C   UNL     1     -17.726  44.845  33.773  1.00  0.00     0.157 A 
ATOM     16  C   UNL     1     -18.347  43.105  32.201  1.00  0.00     0.062 A 
ATOM     17  C   UNL     1     -18.714  44.142  33.065  1.00  0.00     0.158 A 
BRANCH  15  18
ATOM     18  O   UNL     1     -18.086  45.878  34.637  1.00  0.00    -0.504 OA
ATOM     19  H   UNL     1     -18.699  46.630  34.340  1.00  0.00     0.293 HD
ENDBRANCH  15  18
BRANCH  17  20
ATOM     20  O   UNL     1     -20.065  44.460  33.205  1.00  0.00    -0.504 OA
ATOM     21  H   UNL     1     -20.623  44.112  33.976  1.00  0.00     0.293 HD
ENDBRANCH  17  20
ENDBRANCH   1  12
BRANCH   2  22
ATOM     22  O   UNL     1     -17.334  39.937  32.669  1.00  0.00    -0.502 OA
ATOM     23  H   UNL     1     -16.770  39.788  33.498  1.00  0.00     0.293 HD
ENDBRANCH   2  22
BRANCH   6  24
ATOM     24  O   UNL     1     -15.275  37.436  28.441  1.00  0.00    -0.507 OA
ATOM     25  H   UNL     1     -16.051  36.792  28.474  1.00  0.00     0.293 HD
ENDBRANCH   6  24
BRANCH   8  26
ATOM     26  O   UNL     1     -14.576  41.143  25.498  1.00  0.00    -0.508 OA
ATOM     27  H   UNL     1     -14.772  40.623  24.651  1.00  0.00     0.293 HD
ENDBRANCH   8  26
TORSDOF 6
ENDMDL
MODEL 3
REMARK VINA RESULT:    -6.813      4.206      6.870
REMARK INTER + INTRA:          -8.494
REMARK INTER:                  -8.178
REMARK INTRA:                  -0.316
REMARK UNBOUND:                -0.287
REMARK SMILES O=c1c(O)c(-c2ccc(O)c(O)c2)oc2cc(O)cc(O)c12
REMARK SMILES IDX 5 1 3 2 2 3 1 4 22 5 20 6 19 7 17 8 16 9 15 10 14 11 6 12
REMARK SMILES IDX 7 13 8 14 9 15 13 16 11 17 10 18 12 20 4 22 21 24 18 26
REMARK H PARENT 10 19 12 21 4 23 21 25 18 27
REMARK Flexibility Score: inf
ROOT
ATOM      1  C   UNL     1     -15.768  42.237  31.600  1.00  0.00     0.180 A 
ATOM      2  C   UNL     1     -16.321  40.991  31.943  1.00  0.00     0.208 A 
ATOM      3  C   UNL     1     -16.475  40.016  30.944  1.00  0.00     0.238 A 
ATOM      4  O   UNL     1     -17.020  38.923  31.246  1.00  0.00    -0.285 OA
ATOM      5  C   UNL     1     -16.060  40.293  29.620  1.00  0.00     0.111 A 
ATOM      6  C   UNL     1     -16.132  39.365  28.537  1.00  0.00     0.134 A 
ATOM      7  C   UNL     1     -15.815  39.791  27.240  1.00  0.00     0.093 A 
ATOM      8  C   UNL     1     -15.367  41.088  26.997  1.00  0.00     0.123 A 
ATOM      9  C   UNL     1     -15.235  41.986  28.058  1.00  0.00     0.094 A 
ATOM     10  C   UNL     1     -15.579  41.602  29.356  1.00  0.00     0.146 A 
ATOM     11  O   UNL     1     -15.449  42.490  30.336  1.00  0.00    -0.452 OA
ENDROOT
BRANCH   1  12
ATOM     12  C   UNL     1     -15.551  43.306  32.602  1.00  0.00     0.025 A 
ATOM     13  C   UNL     1     -16.578  44.199  32.953  1.00  0.00     0.016 A 
ATOM     14  C   UNL     1     -16.357  45.185  33.918  1.00  0.00     0.051 A 
ATOM     15  C   UNL     1     -15.114  45.283  34.558  1.00  0.00     0.157 A 
ATOM     16  C   UNL     1     -14.313  43.395  33.261  1.00  0.00     0.062 A 
ATOM     17  C   UNL     1     -14.089  44.381  34.228  1.00  0.00     0.158 A 
BRANCH  15  18
ATOM     18  O   UNL     1     -14.897  46.268  35.520  1.00  0.00    -0.504 OA
ATOM     19  H   UNL     1     -14.007  46.747  35.598  1.00  0.00     0.293 HD
ENDBRANCH  15  18
BRANCH  17  20
ATOM     20  O   UNL     1     -12.844  44.448  34.851  1.00  0.00    -0.504 OA
ATOM     21  H   UNL     1     -12.562  43.787  35.566  1.00  0.00     0.293 HD
ENDBRANCH  17  20
ENDBRANCH   1  12
BRANCH   2  22
ATOM     22  O   UNL     1     -16.743  40.746  33.252  1.00  0.00    -0.502 OA
ATOM     23  H   UNL     1     -17.634  41.074  33.607  1.00  0.00     0.293 HD
ENDBRANCH   2  22
BRANCH   6  24
ATOM     24  O   UNL     1     -16.480  38.020  28.685  1.00  0.00    -0.507 OA
ATOM     25  H   UNL     1     -16.514  37.348  27.933  1.00  0.00     0.293 HD
ENDBRANCH   6  24
BRANCH   8  26
ATOM     26  O   UNL     1     -15.046  41.472  25.698  1.00  0.00    -0.508 OA
ATOM     27  H   UNL     1     -14.404  42.234  25.514  1.00  0.00     0.293 HD
ENDBRANCH   8  26
TORSDOF 6
ENDMDL
MODEL 4
REMARK VINA RESULT:    -6.806      4.203      5.590
REMARK INTER + INTRA:          -8.486
REMARK INTER:                  -8.187
REMARK INTRA:                  -0.299
REMARK UNBOUND:                -0.287
REMARK SMILES O=c1c(O)c(-c2ccc(O)c(O)c2)oc2cc(O)cc(O)c12
REMARK SMILES IDX 5 1 3 2 2 3 1 4 22 5 20 6 19 7 17 8 16 9 15 10 14 11 6 12
REMARK SMILES IDX 7 13 8 14 9 15 13 16 11 17 10 18 12 20 4 22 21 24 18 26
REMARK H PARENT 10 19 12 21 4 23 21 25 18 27
REMARK Flexibility Score: inf
ROOT
ATOM      1  C   UNL     1     -15.931  41.529  30.550  1.00  0.00     0.180 A 
ATOM      2  C   UNL     1     -14.771  42.149  31.045  1.00  0.00     0.208 A 
ATOM      3  C   UNL     1     -14.897  43.156  32.016  1.00  0.00     0.238 A 
ATOM      4  O   UNL     1     -13.860  43.745  32.415  1.00  0.00    -0.285 OA
ATOM      5  C   UNL     1     -16.181  43.518  32.491  1.00  0.00     0.111 A 
ATOM      6  C   UNL     1     -16.425  44.497  33.501  1.00  0.00     0.134 A 
ATOM      7  C   UNL     1     -17.742  44.868  33.800  1.00  0.00     0.093 A 
ATOM      8  C   UNL     1     -18.824  44.252  33.173  1.00  0.00     0.123 A 
ATOM      9  C   UNL     1     -18.598  43.251  32.226  1.00  0.00     0.094 A 
ATOM     10  C   UNL     1     -17.295  42.885  31.880  1.00  0.00     0.146 A 
ATOM     11  O   UNL     1     -17.124  41.936  30.967  1.00  0.00    -0.452 OA
ENDROOT
BRANCH   1  12
ATOM     12  C   UNL     1     -15.876  40.442  29.544  1.00  0.00     0.025 A 
ATOM     13  C   UNL     1     -16.011  39.094  29.916  1.00  0.00     0.016 A 
ATOM     14  C   UNL     1     -15.980  38.087  28.947  1.00  0.00     0.051 A 
ATOM     15  C   UNL     1     -15.829  38.414  27.593  1.00  0.00     0.157 A 
ATOM     16  C   UNL     1     -15.746  40.766  28.183  1.00  0.00     0.062 A 
ATOM     17  C   UNL     1     -15.714  39.761  27.211  1.00  0.00     0.158 A 
BRANCH  15  18
ATOM     18  O   UNL     1     -15.797  37.408  26.629  1.00  0.00    -0.504 OA
ATOM     19  H   UNL     1     -16.502  37.345  25.902  1.00  0.00     0.293 HD
ENDBRANCH  15  18
BRANCH  17  20
ATOM     20  O   UNL     1     -15.570  40.119  25.871  1.00  0.00    -0.504 OA
ATOM     21  H   UNL     1     -15.205  39.477  25.177  1.00  0.00     0.293 HD
ENDBRANCH  17  20
ENDBRANCH   1  12
BRANCH   2  22
ATOM     22  O   UNL     1     -13.515  41.791  30.547  1.00  0.00    -0.502 OA
ATOM     23  H   UNL     1     -13.354  40.923  30.049  1.00  0.00     0.293 HD
ENDBRANCH   2  22
BRANCH   6  24
ATOM     24  O   UNL     1     -15.418  45.107  34.254  1.00  0.00    -0.507 OA
ATOM     25  H   UNL     1     -14.486  44.740  34.374  1.00  0.00     0.293 HD
ENDBRANCH   6  24
BRANCH   8  26
ATOM     26  O   UNL     1     -20.121  44.635  33.506  1.00  0.00    -0.508 OA
ATOM     27  H   UNL     1     -20.313  45.528  33.944  1.00  0.00     0.293 HD
ENDBRANCH   8  26
TORSDOF 6
ENDMDL
MODEL 5
REMARK VINA RESULT:    -6.761      2.560      4.177
REMARK INTER + INTRA:          -8.432
REMARK INTER:                  -8.101
REMARK INTRA:                  -0.330
REMARK UNBOUND:                -0.287
REMARK SMILES O=c1c(O)c(-c2ccc(O)c(O)c2)oc2cc(O)cc(O)c12
REMARK SMILES IDX 5 1 3 2 2 3 1 4 22 5 20 6 19 7 17 8 16 9 15 10 14 11 6 12
REMARK SMILES IDX 7 13 8 14 9 15 13 16 11 17 10 18 12 20 4 22 21 24 18 26
REMARK H PARENT 10 19 12 21 4 23 21 25 18 27
REMARK Flexibility Score: inf
ROOT
ATOM      1  C   UNL     1     -14.477  43.543  31.626  1.00  0.00     0.180 A 
ATOM      2  C   UNL     1     -15.354  44.449  31.006  1.00  0.00     0.208 A 
ATOM      3  C   UNL     1     -16.704  44.461  31.389  1.00  0.00     0.238 A 
ATOM      4  O   UNL     1     -17.496  45.236  30.793  1.00  0.00    -0.285 OA
ATOM      5  C   UNL     1     -17.157  43.577  32.399  1.00  0.00     0.111 A 
ATOM      6  C   UNL     1     -18.496  43.530  32.894  1.00  0.00     0.134 A 
ATOM      7  C   UNL     1     -18.862  42.527  33.800  1.00  0.00     0.093 A 
ATOM      8  C   UNL     1     -17.925  41.611  34.278  1.00  0.00     0.123 A 
ATOM      9  C   UNL     1     -16.600  41.686  33.846  1.00  0.00     0.094 A 
ATOM     10  C   UNL     1     -16.213  42.652  32.915  1.00  0.00     0.146 A 
ATOM     11  O   UNL     1     -14.945  42.682  32.522  1.00  0.00    -0.452 OA
ENDROOT
BRANCH   1  12
ATOM     12  C   UNL     1     -13.034  43.489  31.292  1.00  0.00     0.025 A 
ATOM     13  C   UNL     1     -12.092  44.261  31.994  1.00  0.00     0.016 A 
ATOM     14  C   UNL     1     -10.733  44.175  31.677  1.00  0.00     0.051 A 
ATOM     15  C   UNL     1     -10.295  43.307  30.668  1.00  0.00     0.157 A 
ATOM     16  C   UNL     1     -12.587  42.605  30.296  1.00  0.00     0.062 A 
ATOM     17  C   UNL     1     -11.228  42.517  29.977  1.00  0.00     0.158 A 
BRANCH  15  18
ATOM     18  O   UNL     1      -8.940  43.226  30.355  1.00  0.00    -0.504 OA
ATOM     19  H   UNL     1      -8.281  43.936  30.656  1.00  0.00     0.293 HD
ENDBRANCH  15  18
BRANCH  17  20
ATOM     20  O   UNL     1     -10.823  41.639  28.972  1.00  0.00    -0.504 OA
ATOM     21  H   UNL     1     -10.920  40.634  29.064  1.00  0.00     0.293 HD
ENDBRANCH  17  20
ENDBRANCH   1  12
BRANCH   2  22
ATOM     22  O   UNL     1     -14.890  45.298  29.997  1.00  0.00    -0.502 OA
ATOM     23  H   UNL     1     -13.935  45.635  29.965  1.00  0.00     0.293 HD
ENDBRANCH   2  22
BRANCH   6  24
ATOM     24  O   UNL     1     -19.487  44.454  32.551  1.00  0.00    -0.507 OA
ATOM     25  H   UNL     1     -19.986  44.463  31.675  1.00  0.00     0.293 HD
ENDBRANCH   6  24
BRANCH   8  26
ATOM     26  O   UNL     1     -18.321  40.637  35.191  1.00  0.00    -0.508 OA
ATOM     27  H   UNL     1     -19.114  40.778  35.806  1.00  0.00     0.293 HD
ENDBRANCH   8  26
TORSDOF 6
ENDMDL
MODEL 6
REMARK VINA RESULT:    -6.743      2.384      3.970
REMARK INTER + INTRA:          -8.410
REMARK INTER:                  -8.117
REMARK INTRA:                  -0.293
REMARK UNBOUND:                -0.287
REMARK SMILES O=c1c(O)c(-c2ccc(O)c(O)c2)oc2cc(O)cc(O)c12
REMARK SMILES IDX 5 1 3 2 2 3 1 4 22 5 20 6 19 7 17 8 16 9 15 10 14 11 6 12
REMARK SMILES IDX 7 13 8 14 9 15 13 16 11 17 10 18 12 20 4 22 21 24 18 26
REMARK H PARENT 10 19 12 21 4 23 21 25 18 27
REMARK Flexibility Score: inf
ROOT
ATOM      1  C   UNL     1     -14.644  43.178  31.798  1.00  0.00     0.180 A 
ATOM      2  C   UNL     1     -14.997  41.825  31.658  1.00  0.00     0.208 A 
ATOM      3  C   UNL     1     -16.291  41.418  32.021  1.00  0.00     0.238 A 
ATOM      4  O   UNL     1     -16.584  40.197  31.944  1.00  0.00    -0.285 OA
ATOM      5  C   UNL     1     -17.219  42.371  32.504  1.00  0.00     0.111 A 
ATOM      6  C   UNL     1     -18.570  42.077  32.864  1.00  0.00     0.134 A 
ATOM      7  C   UNL     1     -19.359  43.072  33.454  1.00  0.00     0.093 A 
ATOM      8  C   UNL     1     -18.871  44.365  33.637  1.00  0.00     0.123 A 
ATOM      9  C   UNL     1     -17.572  44.679  33.234  1.00  0.00     0.094 A 
ATOM     10  C   UNL     1     -16.748  43.699  32.677  1.00  0.00     0.146 A 
ATOM     11  O   UNL     1     -15.515  44.036  32.316  1.00  0.00    -0.452 OA
ENDROOT
BRANCH   1  12
ATOM     12  C   UNL     1     -13.307  43.687  31.413  1.00  0.00     0.025 A 
ATOM     13  C   UNL     1     -13.106  44.375  30.203  1.00  0.00     0.016 A 
ATOM     14  C   UNL     1     -11.841  44.867  29.872  1.00  0.00     0.051 A 
ATOM     15  C   UNL     1     -10.763  44.694  30.750  1.00  0.00     0.157 A 
ATOM     16  C   UNL     1     -12.227  43.534  32.299  1.00  0.00     0.062 A 
ATOM     17  C   UNL     1     -10.959  44.026  31.970  1.00  0.00     0.158 A 
BRANCH  15  18
ATOM     18  O   UNL     1      -9.502  45.185  30.416  1.00  0.00    -0.504 OA
ATOM     19  H   UNL     1      -8.806  45.391  31.125  1.00  0.00     0.293 HD
ENDBRANCH  15  18
BRANCH  17  20
ATOM     20  O   UNL     1      -9.908  43.843  32.868  1.00  0.00    -0.504 OA
ATOM     21  H   UNL     1      -8.997  43.513  32.572  1.00  0.00     0.293 HD
ENDBRANCH  17  20
ENDBRANCH   1  12
BRANCH   2  22
ATOM     22  O   UNL     1     -14.059  40.897  31.199  1.00  0.00    -0.502 OA
ATOM     23  H   UNL     1     -14.259  40.245  30.450  1.00  0.00     0.293 HD
ENDBRANCH   2  22
BRANCH   6  24
ATOM     24  O   UNL     1     -19.185  40.843  32.639  1.00  0.00    -0.507 OA
ATOM     25  H   UNL     1     -19.218  40.087  33.305  1.00  0.00     0.293 HD
ENDBRANCH   6  24
BRANCH   8  26
ATOM     26  O   UNL     1     -19.689  45.334  34.213  1.00  0.00    -0.508 OA
ATOM     27  H   UNL     1     -20.628  45.505  33.872  1.00  0.00     0.293 HD
ENDBRANCH   8  26
TORSDOF 6
ENDMDL
MODEL 7
REMARK VINA RESULT:    -6.700      2.125      7.184
REMARK INTER + INTRA:          -8.358
REMARK INTER:                  -8.036
REMARK INTRA:                  -0.322
REMARK UNBOUND:                -0.287
REMARK SMILES O=c1c(O)c(-c2ccc(O)c(O)c2)oc2cc(O)cc(O)c12
REMARK SMILES IDX 5 1 3 2 2 3 1 4 22 5 20 6 19 7 17 8 16 9 15 10 14 11 6 12
REMARK SMILES IDX 7 13 8 14 9 15 13 16 11 17 10 18 12 20 4 22 21 24 18 26
REMARK H PARENT 10 19 12 21 4 23 21 25 18 27
REMARK Flexibility Score: inf
ROOT
ATOM      1  C   UNL     1     -15.060  43.105  32.162  1.00  0.00     0.180 A 
ATOM      2  C   UNL     1     -14.073  43.699  32.967  1.00  0.00     0.208 A 
ATOM      3  C   UNL     1     -12.831  44.021  32.397  1.00  0.00     0.238 A 
ATOM      4  O   UNL     1     -11.933  44.502  33.135  1.00  0.00    -0.285 OA
ATOM      5  C   UNL     1     -12.598  43.761  31.025  1.00  0.00     0.111 A 
ATOM      6  C   UNL     1     -11.391  44.084  30.332  1.00  0.00     0.134 A 
ATOM      7  C   UNL     1     -11.222  43.662  29.008  1.00  0.00     0.093 A 
ATOM      8  C   UNL     1     -12.238  42.988  28.330  1.00  0.00     0.123 A 
ATOM      9  C   UNL     1     -13.444  42.721  28.979  1.00  0.00     0.094 A 
ATOM     10  C   UNL     1     -13.629  43.096  30.312  1.00  0.00     0.146 A 
ATOM     11  O   UNL     1     -14.788  42.814  30.895  1.00  0.00    -0.452 OA
ENDROOT
BRANCH   1  12
ATOM     12  C   UNL     1     -16.402  42.759  32.686  1.00  0.00     0.025 A 
ATOM     13  C   UNL     1     -16.651  41.518  33.296  1.00  0.00     0.016 A 
ATOM     14  C   UNL     1     -17.919  41.223  33.804  1.00  0.00     0.051 A 
ATOM     15  C   UNL     1     -18.951  42.168  33.724  1.00  0.00     0.157 A 
ATOM     16  C   UNL     1     -17.434  43.711  32.627  1.00  0.00     0.062 A 
ATOM     17  C   UNL     1     -18.704  43.419  33.135  1.00  0.00     0.158 A 
BRANCH  15  18
ATOM     18  O   UNL     1     -20.214  41.870  34.231  1.00  0.00    -0.504 OA
ATOM     19  H   UNL     1     -20.407  41.893  35.227  1.00  0.00     0.293 HD
ENDBRANCH  15  18
BRANCH  17  20
ATOM     20  O   UNL     1     -19.707  44.383  33.046  1.00  0.00    -0.504 OA
ATOM     21  H   UNL     1     -20.478  44.421  33.703  1.00  0.00     0.293 HD
ENDBRANCH  17  20
ENDBRANCH   1  12
BRANCH   2  22
ATOM     22  O   UNL     1     -14.316  43.927  34.324  1.00  0.00    -0.502 OA
ATOM     23  H   UNL     1     -15.192  44.306  34.664  1.00  0.00     0.293 HD
ENDBRANCH   2  22
BRANCH   6  24
ATOM     24  O   UNL     1     -10.351  44.833  30.887  1.00  0.00    -0.507 OA
ATOM     25  H   UNL     1      -9.446  44.964  30.462  1.00  0.00     0.293 HD
ENDBRANCH   6  24
BRANCH   8  26
ATOM     26  O   UNL     1     -12.040  42.598  27.008  1.00  0.00    -0.508 OA
ATOM     27  H   UNL     1     -12.708  42.009  26.524  1.00  0.00     0.293 HD
ENDBRANCH   8  26
TORSDOF 6
ENDMDL
MODEL 8
REMARK VINA RESULT:    -6.625      4.198      7.528
REMARK INTER + INTRA:          -8.267
REMARK INTER:                  -7.977
REMARK INTRA:                  -0.290
REMARK UNBOUND:                -0.287
REMARK SMILES O=c1c(O)c(-c2ccc(O)c(O)c2)oc2cc(O)cc(O)c12
REMARK SMILES IDX 5 1 3 2 2 3 1 4 22 5 20 6 19 7 17 8 16 9 15 10 14 11 6 12
REMARK SMILES IDX 7 13 8 14 9 15 13 16 11 17 10 18 12 20 4 22 21 24 18 26
REMARK H PARENT 10 19 12 21 4 23 21 25 18 27
REMARK Flexibility Score: inf
ROOT
ATOM      1  C   UNL     1     -15.246  41.949  31.924  1.00  0.00     0.180 A 
ATOM      2  C   UNL     1     -14.010  42.163  32.559  1.00  0.00     0.208 A 
ATOM      3  C   UNL     1     -12.876  41.480  32.090  1.00  0.00     0.238 A 
ATOM      4  O   UNL     1     -11.784  41.634  32.696  1.00  0.00    -0.285 OA
ATOM      5  C   UNL     1     -12.989  40.605  30.983  1.00  0.00     0.111 A 
ATOM      6  C   UNL     1     -11.898  39.892  30.399  1.00  0.00     0.134 A 
ATOM      7  C   UNL     1     -12.148  38.953  29.390  1.00  0.00     0.093 A 
ATOM      8  C   UNL     1     -13.437  38.749  28.900  1.00  0.00     0.123 A 
ATOM      9  C   UNL     1     -14.502  39.484  29.422  1.00  0.00     0.094 A 
ATOM     10  C   UNL     1     -14.290  40.401  30.454  1.00  0.00     0.146 A 
ATOM     11  O   UNL     1     -15.332  41.072  30.931  1.00  0.00    -0.452 OA
ENDROOT
BRANCH   1  12
ATOM     12  C   UNL     1     -16.480  42.651  32.346  1.00  0.00     0.025 A 
ATOM     13  C   UNL     1     -16.712  43.994  32.001  1.00  0.00     0.016 A 
ATOM     14  C   UNL     1     -17.895  44.629  32.390  1.00  0.00     0.051 A 
ATOM     15  C   UNL     1     -18.869  43.928  33.113  1.00  0.00     0.157 A 
ATOM     16  C   UNL     1     -17.469  41.947  33.053  1.00  0.00     0.062 A 
ATOM     17  C   UNL     1     -18.655  42.580  33.444  1.00  0.00     0.158 A 
BRANCH  15  18
ATOM     18  O   UNL     1     -20.047  44.564  33.500  1.00  0.00    -0.504 OA
ATOM     19  H   UNL     1     -20.330  45.450  33.095  1.00  0.00     0.293 HD
ENDBRANCH  15  18
BRANCH  17  20
ATOM     20  O   UNL     1     -19.607  41.853  34.157  1.00  0.00    -0.504 OA
ATOM     21  H   UNL     1     -20.313  41.291  33.695  1.00  0.00     0.293 HD
ENDBRANCH  17  20
ENDBRANCH   1  12
BRANCH   2  22
ATOM     22  O   UNL     1     -13.926  43.015  33.663  1.00  0.00    -0.502 OA
ATOM     23  H   UNL     1     -13.041  43.277  34.082  1.00  0.00     0.293 HD
ENDBRANCH   2  22
BRANCH   6  24
ATOM     24  O   UNL     1     -10.561  40.088  30.752  1.00  0.00    -0.507 OA
ATOM     25  H   UNL     1     -10.244  40.397  31.659  1.00  0.00     0.293 HD
ENDBRANCH   6  24
BRANCH   8  26
ATOM     26  O   UNL     1     -13.646  37.818  27.885  1.00  0.00    -0.508 OA
ATOM     27  H   UNL     1     -14.072  36.918  28.071  1.00  0.00     0.293 HD
ENDBRANCH   8  26
TORSDOF 6
ENDMDL
MODEL 9
REMARK VINA RESULT:    -6.582      3.412      7.652
REMARK INTER + INTRA:          -8.215
REMARK INTER:                  -7.930
REMARK INTRA:                  -0.286
REMARK UNBOUND:                -0.287
REMARK SMILES O=c1c(O)c(-c2ccc(O)c(O)c2)oc2cc(O)cc(O)c12
REMARK SMILES IDX 5 1 3 2 2 3 1 4 22 5 20 6 19 7 17 8 16 9 15 10 14 11 6 12
REMARK SMILES IDX 7 13 8 14 9 15 13 16 11 17 10 18 12 20 4 22 21 24 18 26
REMARK H PARENT 10 19 12 21 4 23 21 25 18 27
REMARK Flexibility Score: inf
ROOT
ATOM      1  C   UNL     1     -15.113  42.712  31.433  1.00  0.00     0.180 A 
ATOM      2  C   UNL     1     -14.927  42.803  30.043  1.00  0.00     0.208 A 
ATOM      3  C   UNL     1     -13.699  42.400  29.493  1.00  0.00     0.238 A 
ATOM      4  O   UNL     1     -13.518  42.534  28.255  1.00  0.00    -0.285 OA
ATOM      5  C   UNL     1     -12.681  41.896  30.338  1.00  0.00     0.111 A 
ATOM      6  C   UNL     1     -11.413  41.421  29.884  1.00  0.00     0.134 A 
ATOM      7  C   UNL     1     -10.433  41.068  30.821  1.00  0.00     0.093 A 
ATOM      8  C   UNL     1     -10.695  41.110  32.189  1.00  0.00     0.123 A 
ATOM      9  C   UNL     1     -11.952  41.515  32.642  1.00  0.00     0.094 A 
ATOM     10  C   UNL     1     -12.938  41.909  31.734  1.00  0.00     0.146 A 
ATOM     11  O   UNL     1     -14.116  42.298  32.206  1.00  0.00    -0.452 OA
ENDROOT
BRANCH   1  12
ATOM     12  C   UNL     1     -16.388  43.095  32.083  1.00  0.00     0.025 A 
ATOM     13  C   UNL     1     -16.719  44.443  32.310  1.00  0.00     0.016 A 
ATOM     14  C   UNL     1     -17.937  44.781  32.904  1.00  0.00     0.051 A 
ATOM     15  C   UNL     1     -18.850  43.780  33.265  1.00  0.00     0.157 A 
ATOM     16  C   UNL     1     -17.316  42.097  32.428  1.00  0.00     0.062 A 
ATOM     17  C   UNL     1     -18.537  42.433  33.023  1.00  0.00     0.158 A 
BRANCH  15  18
ATOM     18  O   UNL     1     -20.064  44.121  33.858  1.00  0.00    -0.504 OA
ATOM     19  H   UNL     1     -20.532  43.498  34.507  1.00  0.00     0.293 HD
ENDBRANCH  15  18
BRANCH  17  20
ATOM     20  O   UNL     1     -19.426  41.415  33.365  1.00  0.00    -0.504 OA
ATOM     21  H   UNL     1     -19.896  40.852  32.665  1.00  0.00     0.293 HD
ENDBRANCH  17  20
ENDBRANCH   1  12
BRANCH   2  22
ATOM     22  O   UNL     1     -15.937  43.323  29.230  1.00  0.00    -0.502 OA
ATOM     23  H   UNL     1     -16.073  43.024  28.272  1.00  0.00     0.293 HD
ENDBRANCH   2  22
BRANCH   6  24
ATOM     24  O   UNL     1     -11.079  41.253  28.538  1.00  0.00    -0.507 OA
ATOM     25  H   UNL     1     -11.720  41.370  27.768  1.00  0.00     0.293 HD
ENDBRANCH   6  24
BRANCH   8  26
ATOM     26  O   UNL     1      -9.702  40.736  33.091  1.00  0.00    -0.508 OA
ATOM     27  H   UNL     1      -9.096  39.944  32.913  1.00  0.00     0.293 HD
ENDBRANCH   8  26
TORSDOF 6
ENDMDL
