MODEL 1
REMARK VINA RESULT:     2.751      0.000      0.000
REMARK INTER + INTRA:           5.609
REMARK INTER:                   4.038
REMARK INTRA:                   1.572
REMARK UNBOUND:                 1.572
REMARK SMILES C=C1C=C[C@@H](C(C)C)CCC(C)=CCC1
REMARK SMILES IDX 3 1 4 2 5 3 9 4 10 5 11 6 12 7 13 8 6 10 7 11 8 12 2 13 1 14
REMARK SMILES IDX 15 15 14 16
REMARK H PARENT
REMARK Flexibility Score: 70.00
ROOT
ATOM      1  C   UNL     1     153.788 139.136 162.175  1.00  0.00    -0.001 C 
ATOM      2  C   UNL     1     152.889 138.553 161.354  1.00  0.00    -0.023 C 
ENDROOT
BRANCH   2   3
ATOM      3  C   UNL     1     151.762 137.561 161.648  1.00  0.00     0.014 C 
BRANCH   3   4
ATOM      4  C   UNL     1     152.133 136.325 162.501  1.00  0.00     0.012 C 
BRANCH   4   5
ATOM      5  C   UNL     1     152.861 135.249 161.674  1.00  0.00     0.031 C 
BRANCH   5   6
ATOM      6  C   UNL     1     154.277 135.675 161.343  1.00  0.00    -0.077 C 
ATOM      7  C   UNL     1     154.745 135.544 159.917  1.00  0.00     0.039 C 
ATOM      8  C   UNL     1     155.123 136.217 162.249  1.00  0.00    -0.028 CG0
ATOM      9  G   UNL     1     154.821 136.472 163.708  1.00  0.00     0.000 G0
ENDBRANCH   5   6
ENDBRANCH   4   5
ENDBRANCH   3   4
BRANCH   3  10
ATOM     10  C   UNL     1     150.918 137.196 160.389  1.00  0.00    -0.010 C 
ATOM     11  C   UNL     1     151.763 136.930 159.139  1.00  0.00     0.008 C 
ATOM     12  C   UNL     1     149.855 138.263 160.083  1.00  0.00     0.008 C 
ENDBRANCH   3  10
ENDBRANCH   2   3
BRANCH   1  13
ATOM     13  C   UNL     1     154.010 138.896 163.618  1.00  0.00    -0.055 C 
ATOM     14  C   UNL     1     153.045 139.185 164.496  1.00  0.00     0.012 C 
BRANCH  13  15
ATOM     15  C   UNL     1     155.120 137.957 164.038  1.00  0.00     0.039 C 
BRANCH  15  16
ATOM     16  C   UNL     1     154.837 136.490 163.702  1.00  0.00     0.032 CG0
ATOM     17  G   UNL     1     155.095 136.185 162.243  1.00  0.00     0.000 G0
ENDBRANCH  15  16
ENDBRANCH  13  15
ENDBRANCH   1  13
TORSDOF 1
ENDMDL
MODEL 2
REMARK VINA RESULT:     3.250     20.458     22.713
REMARK INTER + INTRA:           6.341
REMARK INTER:                   5.470
REMARK INTRA:                   0.871
REMARK UNBOUND:                 1.572
REMARK SMILES C=C1C=C[C@@H](C(C)C)CCC(C)=CCC1
REMARK SMILES IDX 3 1 4 2 5 3 9 4 10 5 11 6 12 7 13 8 6 10 7 11 8 12 2 13 1 14
REMARK SMILES IDX 15 15 14 16
REMARK H PARENT
REMARK Flexibility Score: 70.00
ROOT
ATOM      1  C   UNL     1     136.355 155.125 161.379  1.00  0.00    -0.001 C 
ATOM      2  C   UNL     1     137.396 154.920 160.545  1.00  0.00    -0.023 C 
ENDROOT
BRANCH   2   3
ATOM      3  C   UNL     1     138.550 153.918 160.613  1.00  0.00     0.014 C 
BRANCH   3   4
ATOM      4  C   UNL     1     139.307 153.823 161.958  1.00  0.00     0.012 C 
BRANCH   4   5
ATOM      5  C   UNL     1     138.683 152.777 162.900  1.00  0.00     0.031 C 
BRANCH   5   6
ATOM      6  C   UNL     1     137.961 151.697 162.121  1.00  0.00    -0.077 C 
ATOM      7  C   UNL     1     138.754 150.881 161.133  1.00  0.00     0.039 C 
ATOM      8  C   UNL     1     136.655 151.392 162.303  1.00  0.00    -0.028 CG0
ATOM      9  G   UNL     1     135.712 152.063 163.277  1.00  0.00     0.000 G0
ENDBRANCH   5   6
ENDBRANCH   4   5
ENDBRANCH   3   4
BRANCH   3  10
ATOM     10  C   UNL     1     139.508 153.997 159.385  1.00  0.00    -0.010 C 
ATOM     11  C   UNL     1     138.853 153.576 158.066  1.00  0.00     0.008 C 
ATOM     12  C   UNL     1     140.796 153.188 159.610  1.00  0.00     0.008 C 
ENDBRANCH   3  10
ENDBRANCH   2   3
BRANCH   1  13
ATOM     13  C   UNL     1     136.083 154.487 162.686  1.00  0.00    -0.055 C 
ATOM     14  C   UNL     1     136.402 155.125 163.817  1.00  0.00     0.012 C 
BRANCH  13  15
ATOM     15  C   UNL     1     135.088 153.349 162.748  1.00  0.00     0.039 C 
BRANCH  15  16
ATOM     16  C   UNL     1     135.689 152.040 163.267  1.00  0.00     0.032 CG0
ATOM     17  G   UNL     1     136.657 151.432 162.276  1.00  0.00     0.000 G0
ENDBRANCH  15  16
ENDBRANCH  13  15
ENDBRANCH   1  13
TORSDOF 1
ENDMDL
MODEL 3
REMARK VINA RESULT:     3.254      1.837      3.900
REMARK INTER + INTRA:           6.348
REMARK INTER:                   4.992
REMARK INTRA:                   1.356
REMARK UNBOUND:                 1.572
REMARK SMILES C=C1C=C[C@@H](C(C)C)CCC(C)=CCC1
REMARK SMILES IDX 3 1 4 2 5 3 9 4 10 5 11 6 12 7 13 8 6 10 7 11 8 12 2 13 1 14
REMARK SMILES IDX 15 15 14 16
REMARK H PARENT
REMARK Flexibility Score: 70.00
ROOT
ATOM      1  C   UNL     1     154.766 137.251 161.649  1.00  0.00    -0.001 C 
ATOM      2  C   UNL     1     154.284 136.103 161.127  1.00  0.00    -0.023 C 
ENDROOT
BRANCH   2   3
ATOM      3  C   UNL     1     153.046 135.281 161.489  1.00  0.00     0.014 C 
BRANCH   3   4
ATOM      4  C   UNL     1     151.733 135.651 160.761  1.00  0.00     0.012 C 
BRANCH   4   5
ATOM      5  C   UNL     1     151.927 136.814 159.770  1.00  0.00     0.031 C 
BRANCH   5   6
ATOM      6  C   UNL     1     151.038 137.988 160.121  1.00  0.00    -0.077 C 
ATOM      7  C   UNL     1     149.566 137.883 159.815  1.00  0.00     0.039 C 
ATOM      8  C   UNL     1     151.486 139.104 160.743  1.00  0.00    -0.028 CG0
ATOM      9  G   UNL     1     152.910 139.373 161.171  1.00  0.00     0.000 G0
ENDBRANCH   5   6
ENDBRANCH   4   5
ENDBRANCH   3   4
BRANCH   3  10
ATOM     10  C   UNL     1     152.855 135.100 163.026  1.00  0.00    -0.010 C 
ATOM     11  C   UNL     1     152.083 136.245 163.688  1.00  0.00     0.008 C 
ATOM     12  C   UNL     1     154.195 134.886 163.749  1.00  0.00     0.008 C 
ENDBRANCH   3  10
ENDBRANCH   2   3
BRANCH   1  13
ATOM     13  C   UNL     1     154.274 138.007 162.822  1.00  0.00    -0.055 C 
ATOM     14  C   UNL     1     155.036 138.108 163.916  1.00  0.00     0.012 C 
BRANCH  13  15
ATOM     15  C   UNL     1     153.140 138.990 162.631  1.00  0.00     0.039 C 
BRANCH  15  16
ATOM     16  C   UNL     1     152.911 139.381 161.168  1.00  0.00     0.032 CG0
ATOM     17  G   UNL     1     151.488 139.116 160.729  1.00  0.00     0.000 G0
ENDBRANCH  15  16
ENDBRANCH  13  15
ENDBRANCH   1  13
TORSDOF 1
ENDMDL
MODEL 4
REMARK VINA RESULT:     3.835     20.426     22.654
REMARK INTER + INTRA:           7.200
REMARK INTER:                   6.598
REMARK INTRA:                   0.602
REMARK UNBOUND:                 1.572
REMARK SMILES C=C1C=C[C@@H](C(C)C)CCC(C)=CCC1
REMARK SMILES IDX 3 1 4 2 5 3 9 4 10 5 11 6 12 7 13 8 6 10 7 11 8 12 2 13 1 14
REMARK SMILES IDX 15 15 14 16
REMARK H PARENT
REMARK Flexibility Score: 70.00
ROOT
ATOM      1  C   UNL     1     137.424 150.806 161.434  1.00  0.00    -0.001 C 
ATOM      2  C   UNL     1     138.218 151.683 160.785  1.00  0.00    -0.023 C 
ENDROOT
BRANCH   2   3
ATOM      3  C   UNL     1     138.627 153.114 161.138  1.00  0.00     0.014 C 
BRANCH   3   4
ATOM      4  C   UNL     1     137.480 154.114 161.410  1.00  0.00     0.012 C 
BRANCH   4   5
ATOM      5  C   UNL     1     137.574 154.737 162.815  1.00  0.00     0.031 C 
BRANCH   5   6
ATOM      6  C   UNL     1     136.406 154.314 163.682  1.00  0.00    -0.077 C 
ATOM      7  C   UNL     1     135.138 155.125 163.612  1.00  0.00     0.039 C 
ATOM      8  C   UNL     1     136.423 153.217 164.473  1.00  0.00    -0.028 CG0
ATOM      9  G   UNL     1     137.579 152.256 164.639  1.00  0.00     0.000 G0
ENDBRANCH   5   6
ENDBRANCH   4   5
ENDBRANCH   3   4
BRANCH   3  10
ATOM     10  C   UNL     1     139.724 153.693 160.193  1.00  0.00    -0.010 C 
ATOM     11  C   UNL     1     139.189 154.124 158.824  1.00  0.00     0.008 C 
ATOM     12  C   UNL     1     140.898 152.718 160.013  1.00  0.00     0.008 C 
ENDBRANCH   3  10
ENDBRANCH   2   3
BRANCH   1  13
ATOM     13  C   UNL     1     136.618 151.022 162.656  1.00  0.00    -0.055 C 
ATOM     14  C   UNL     1     135.284 150.948 162.595  1.00  0.00     0.012 C 
BRANCH  13  15
ATOM     15  C   UNL     1     137.294 150.903 164.004  1.00  0.00     0.039 C 
BRANCH  15  16
ATOM     16  C   UNL     1     137.559 152.253 164.676  1.00  0.00     0.032 CG0
ATOM     17  G   UNL     1     136.418 153.222 164.462  1.00  0.00     0.000 G0
ENDBRANCH  15  16
ENDBRANCH  13  15
ENDBRANCH   1  13
TORSDOF 1
ENDMDL
MODEL 5
REMARK VINA RESULT:     4.499     20.829     22.925
REMARK INTER + INTRA:           8.174
REMARK INTER:                   4.614
REMARK INTRA:                   3.560
REMARK UNBOUND:                 1.572
REMARK SMILES C=C1C=C[C@@H](C(C)C)CCC(C)=CCC1
REMARK SMILES IDX 3 1 4 2 5 3 9 4 10 5 11 6 12 7 13 8 6 10 7 11 8 12 2 13 1 14
REMARK SMILES IDX 15 15 14 16
REMARK H PARENT
REMARK Flexibility Score: 70.00
ROOT
ATOM      1  C   UNL     1     139.066 155.024 162.644  1.00  0.00    -0.001 C 
ATOM      2  C   UNL     1     139.372 154.930 161.332  1.00  0.00    -0.023 C 
ENDROOT
BRANCH   2   3
ATOM      3  C   UNL     1     138.647 154.225 160.184  1.00  0.00     0.014 C 
BRANCH   3   4
ATOM      4  C   UNL     1     137.338 153.485 160.543  1.00  0.00     0.012 C 
BRANCH   4   5
ATOM      5  C   UNL     1     137.599 152.215 161.375  1.00  0.00     0.031 C 
BRANCH   5   6
ATOM      6  C   UNL     1     136.408 151.876 162.247  1.00  0.00    -0.077 C 
ATOM      7  C   UNL     1     136.207 150.438 162.651  1.00  0.00     0.039 C 
ATOM      8  C   UNL     1     135.547 152.803 162.727  1.00  0.00    -0.028 CG0
ATOM      9  G   UNL     1     135.610 154.293 162.474  1.00  0.00     0.000 G0
ENDBRANCH   5   6
ENDBRANCH   4   5
ENDBRANCH   3   4
BRANCH   3  10
ATOM     10  C   UNL     1     139.596 153.373 159.288  1.00  0.00    -0.010 C 
ATOM     11  C   UNL     1     140.871 152.914 160.004  1.00  0.00     0.008 C 
ATOM     12  C   UNL     1     139.963 154.104 157.986  1.00  0.00     0.008 C 
ENDBRANCH   3  10
ENDBRANCH   2   3
BRANCH   1  13
ATOM     13  C   UNL     1     137.965 154.367 163.382  1.00  0.00    -0.055 C 
ATOM     14  C   UNL     1     138.243 153.451 164.315  1.00  0.00     0.012 C 
BRANCH  13  15
ATOM     15  C   UNL     1     136.600 155.020 163.388  1.00  0.00     0.039 C 
BRANCH  15  16
ATOM     16  C   UNL     1     135.580 154.309 162.493  1.00  0.00     0.032 CG0
ATOM     17  G   UNL     1     135.552 152.818 162.745  1.00  0.00     0.000 G0
ENDBRANCH  15  16
ENDBRANCH  13  15
ENDBRANCH   1  13
TORSDOF 1
ENDMDL
MODEL 6
REMARK VINA RESULT:     4.602      1.367      2.055
REMARK INTER + INTRA:           8.326
REMARK INTER:                   5.790
REMARK INTRA:                   2.536
REMARK UNBOUND:                 1.572
REMARK SMILES C=C1C=C[C@@H](C(C)C)CCC(C)=CCC1
REMARK SMILES IDX 3 1 4 2 5 3 9 4 10 5 11 6 12 7 13 8 6 10 7 11 8 12 2 13 1 14
REMARK SMILES IDX 15 15 14 16
REMARK H PARENT
REMARK Flexibility Score: 70.00
ROOT
ATOM      1  C   UNL     1     152.645 139.485 160.807  1.00  0.00    -0.001 C 
ATOM      2  C   UNL     1     151.854 138.455 160.440  1.00  0.00    -0.023 C 
ENDROOT
BRANCH   2   3
ATOM      3  C   UNL     1     151.361 137.242 161.231  1.00  0.00     0.014 C 
BRANCH   3   4
ATOM      4  C   UNL     1     152.188 136.844 162.476  1.00  0.00     0.012 C 
BRANCH   4   5
ATOM      5  C   UNL     1     153.660 136.556 162.125  1.00  0.00     0.031 C 
BRANCH   5   6
ATOM      6  C   UNL     1     154.482 136.304 163.372  1.00  0.00    -0.077 C 
ATOM      7  C   UNL     1     154.685 134.878 163.815  1.00  0.00     0.039 C 
ATOM      8  C   UNL     1     155.087 137.287 164.077  1.00  0.00    -0.028 CG0
ATOM      9  G   UNL     1     155.040 138.766 163.764  1.00  0.00     0.000 G0
ENDBRANCH   5   6
ENDBRANCH   4   5
ENDBRANCH   3   4
BRANCH   3  10
ATOM     10  C   UNL     1     151.001 136.022 160.329  1.00  0.00    -0.010 C 
ATOM     11  C   UNL     1     152.014 134.876 160.414  1.00  0.00     0.008 C 
ATOM     12  C   UNL     1     150.800 136.434 158.862  1.00  0.00     0.008 C 
ENDBRANCH   3  10
ENDBRANCH   2   3
BRANCH   1  13
ATOM     13  C   UNL     1     153.363 139.686 162.085  1.00  0.00    -0.055 C 
ATOM     14  C   UNL     1     152.699 140.128 163.158  1.00  0.00     0.012 C 
BRANCH  13  15
ATOM     15  C   UNL     1     154.700 139.007 162.284  1.00  0.00     0.039 C 
BRANCH  15  16
ATOM     16  C   UNL     1     155.044 138.758 163.755  1.00  0.00     0.032 CG0
ATOM     17  G   UNL     1     155.110 137.282 164.077  1.00  0.00     0.000 G0
ENDBRANCH  15  16
ENDBRANCH  13  15
ENDBRANCH   1  13
TORSDOF 1
ENDMDL
