MODEL 1
REMARK VINA RESULT:    -3.895      0.000      0.000
REMARK INTER + INTRA:          -8.322
REMARK INTER:                  -6.173
REMARK INTRA:                  -2.149
REMARK UNBOUND:                -2.149
REMARK SMILES COc1ccc(C(C)=O)c(O[C@@H]2O[C@@H](CO[C@@H]3OC[C@H](O)[C@H](O)[C@@H]3O)[C@@H](O)[C@H](O)[C@H]2O)c1
REMARK SMILES IDX 12 1 30 2 28 3 26 4 14 5 13 6 11 7 10 8 6 9 5 10 32 11 4 12
REMARK SMILES IDX 3 13 7 14 8 15 9 16 2 17 1 18 31 19 29 21 15 23 16 24 17 25
REMARK SMILES IDX 24 26 18 27 22 28 19 29 20 30 25 31 23 33 21 35 27 37
REMARK H PARENT 31 20 29 22 25 32 23 34 21 36 27 38
REMARK Flexibility Score: inf
ROOT
ATOM      1  C   UNL     1      17.082  34.960  41.288  1.00  0.00     0.339 C 
ATOM      2  C   UNL     1      17.208  35.228  42.796  1.00  0.00     0.214 C 
ATOM      3  C   UNL     1      16.785  34.002  43.648  1.00  0.00     0.180 C 
ATOM      4  C   UNL     1      16.529  32.747  42.795  1.00  0.00     0.177 C 
ATOM      5  C   UNL     1      17.525  32.619  41.597  1.00  0.00     0.180 C 
ATOM      6  O   UNL     1      17.820  33.821  40.888  1.00  0.00    -0.332 OA
ENDROOT
BRANCH   1   7
ATOM      7  O   UNL     1      15.710  34.859  40.902  1.00  0.00    -0.461 OA
BRANCH   7   8
ATOM      8  C   UNL     1      14.858  35.968  40.881  1.00  0.00     0.137 A 
ATOM      9  C   UNL     1      14.831  36.816  39.752  1.00  0.00     0.060 A 
ATOM     10  C   UNL     1      13.913  37.881  39.725  1.00  0.00     0.019 A 
ATOM     11  C   UNL     1      14.011  36.224  41.971  1.00  0.00     0.093 A 
ATOM     12  C   UNL     1      13.051  38.109  40.801  1.00  0.00     0.047 A 
ATOM     13  C   UNL     1      13.098  37.281  41.936  1.00  0.00     0.122 A 
BRANCH   9  14
ATOM     14  C   UNL     1      15.726  36.563  38.590  1.00  0.00     0.163 C 
ATOM     15  C   UNL     1      15.314  35.670  37.458  1.00  0.00     0.093 C 
ATOM     16  O   UNL     1      16.857  37.117  38.535  1.00  0.00    -0.294 OA
ENDBRANCH   9  14
BRANCH  13  17
ATOM     17  O   UNL     1      12.264  37.475  43.047  1.00  0.00    -0.497 OA
ATOM     18  C   UNL     1      12.255  36.646  44.204  1.00  0.00     0.278 C 
ENDBRANCH  13  17
ENDBRANCH   7   8
ENDBRANCH   1   7
BRANCH   2  19
ATOM     19  O   UNL     1      18.541  35.569  43.081  1.00  0.00    -0.384 OA
ATOM     20  H   UNL     1      19.086  34.748  42.950  1.00  0.00     0.211 HD
ENDBRANCH   2  19
BRANCH   3  21
ATOM     21  O   UNL     1      15.619  34.299  44.377  1.00  0.00    -0.387 OA
ATOM     22  H   UNL     1      15.852  34.227  45.338  1.00  0.00     0.211 HD
ENDBRANCH   3  21
BRANCH   5  23
ATOM     23  C   UNL     1      18.864  31.965  41.979  1.00  0.00     0.198 C 
BRANCH  23  24
ATOM     24  O   UNL     1      19.840  32.964  42.207  1.00  0.00    -0.347 OA
BRANCH  24  25
ATOM     25  C   UNL     1      20.932  32.831  41.310  1.00  0.00     0.281 C 
ATOM     26  C   UNL     1      21.513  34.226  40.967  1.00  0.00     0.202 C 
ATOM     27  O   UNL     1      21.945  31.973  41.827  1.00  0.00    -0.347 OA
ATOM     28  C   UNL     1      22.188  34.860  42.195  1.00  0.00     0.179 C 
ATOM     29  C   UNL     1      22.498  32.487  43.028  1.00  0.00     0.198 C 
ATOM     30  C   UNL     1      23.186  33.850  42.794  1.00  0.00     0.171 C 
BRANCH  26  31
ATOM     31  O   UNL     1      20.509  35.079  40.485  1.00  0.00    -0.385 OA
ATOM     32  H   UNL     1      20.859  35.490  39.651  1.00  0.00     0.211 HD
ENDBRANCH  26  31
BRANCH  28  33
ATOM     33  O   UNL     1      21.213  35.229  43.140  1.00  0.00    -0.387 OA
ATOM     34  H   UNL     1      21.580  35.014  44.034  1.00  0.00     0.211 HD
ENDBRANCH  28  33
BRANCH  30  35
ATOM     35  O   UNL     1      23.784  34.352  43.962  1.00  0.00    -0.388 OA
ATOM     36  H   UNL     1      23.697  35.339  43.962  1.00  0.00     0.211 HD
ENDBRANCH  30  35
ENDBRANCH  24  25
ENDBRANCH  23  24
ENDBRANCH   5  23
BRANCH   4  37
ATOM     37  O   UNL     1      16.576  31.609  43.623  1.00  0.00    -0.387 OA
ATOM     38  H   UNL     1      17.345  31.726  44.237  1.00  0.00     0.211 HD
ENDBRANCH   4  37
TORSDOF 13
ENDMDL
MODEL 2
REMARK VINA RESULT:    -3.857      2.725      7.360
REMARK INTER + INTRA:          -8.261
REMARK INTER:                  -5.654
REMARK INTRA:                  -2.606
REMARK UNBOUND:                -2.149
REMARK SMILES COc1ccc(C(C)=O)c(O[C@@H]2O[C@@H](CO[C@@H]3OC[C@H](O)[C@H](O)[C@@H]3O)[C@@H](O)[C@H](O)[C@H]2O)c1
REMARK SMILES IDX 12 1 30 2 28 3 26 4 14 5 13 6 11 7 10 8 6 9 5 10 32 11 4 12
REMARK SMILES IDX 3 13 7 14 8 15 9 16 2 17 1 18 31 19 29 21 15 23 16 24 17 25
REMARK SMILES IDX 24 26 18 27 22 28 19 29 20 30 25 31 23 33 21 35 27 37
REMARK H PARENT 31 20 29 22 25 32 23 34 21 36 27 38
REMARK Flexibility Score: inf
ROOT
ATOM      1  C   UNL     1      20.295  34.006  41.893  1.00  0.00     0.339 C 
ATOM      2  C   UNL     1      21.271  34.248  40.730  1.00  0.00     0.214 C 
ATOM      3  C   UNL     1      21.668  32.931  40.014  1.00  0.00     0.180 C 
ATOM      4  C   UNL     1      20.851  31.721  40.500  1.00  0.00     0.177 C 
ATOM      5  C   UNL     1      19.360  32.082  40.799  1.00  0.00     0.180 C 
ATOM      6  O   UNL     1      19.131  33.317  41.475  1.00  0.00    -0.332 OA
ENDROOT
BRANCH   1   7
ATOM      7  O   UNL     1      20.945  33.333  42.972  1.00  0.00    -0.461 OA
BRANCH   7   8
ATOM      8  C   UNL     1      21.534  34.024  44.037  1.00  0.00     0.137 A 
ATOM      9  C   UNL     1      22.796  33.623  44.526  1.00  0.00     0.060 A 
ATOM     10  C   UNL     1      23.399  34.379  45.547  1.00  0.00     0.019 A 
ATOM     11  C   UNL     1      20.880  35.131  44.602  1.00  0.00     0.093 A 
ATOM     12  C   UNL     1      22.756  35.499  46.082  1.00  0.00     0.047 A 
ATOM     13  C   UNL     1      21.486  35.881  45.613  1.00  0.00     0.122 A 
BRANCH   9  14
ATOM     14  C   UNL     1      23.499  32.449  43.943  1.00  0.00     0.163 C 
ATOM     15  C   UNL     1      23.427  31.092  44.578  1.00  0.00     0.093 C 
ATOM     16  O   UNL     1      24.165  32.578  42.881  1.00  0.00    -0.294 OA
ENDBRANCH   9  14
BRANCH  13  17
ATOM     17  O   UNL     1      20.795  36.988  46.125  1.00  0.00    -0.497 OA
ATOM     18  C   UNL     1      19.888  37.790  45.374  1.00  0.00     0.278 C 
ENDBRANCH  13  17
ENDBRANCH   7   8
ENDBRANCH   1   7
BRANCH   2  19
ATOM     19  O   UNL     1      20.666  35.125  39.813  1.00  0.00    -0.384 OA
ATOM     20  H   UNL     1      21.045  36.028  39.981  1.00  0.00     0.211 HD
ENDBRANCH   2  19
BRANCH   3  21
ATOM     21  O   UNL     1      23.035  32.664  40.218  1.00  0.00    -0.387 OA
ATOM     22  H   UNL     1      23.542  33.356  39.720  1.00  0.00     0.211 HD
ENDBRANCH   3  21
BRANCH   5  23
ATOM     23  C   UNL     1      18.461  32.063  39.551  1.00  0.00     0.198 C 
BRANCH  23  24
ATOM     24  O   UNL     1      18.169  33.388  39.148  1.00  0.00    -0.347 OA
BRANCH  24  25
ATOM     25  C   UNL     1      16.809  33.521  38.766  1.00  0.00     0.281 C 
ATOM     26  C   UNL     1      16.013  34.257  39.874  1.00  0.00     0.202 C 
ATOM     27  O   UNL     1      16.669  34.187  37.515  1.00  0.00    -0.347 OA
ATOM     28  C   UNL     1      16.456  35.726  39.988  1.00  0.00     0.179 C 
ATOM     29  C   UNL     1      17.181  35.509  37.571  1.00  0.00     0.198 C 
ATOM     30  C   UNL     1      16.407  36.372  38.590  1.00  0.00     0.171 C 
BRANCH  26  31
ATOM     31  O   UNL     1      16.174  33.616  41.112  1.00  0.00    -0.385 OA
ATOM     32  H   UNL     1      17.053  33.155  41.083  1.00  0.00     0.211 HD
ENDBRANCH  26  31
BRANCH  28  33
ATOM     33  O   UNL     1      17.751  35.795  40.533  1.00  0.00    -0.387 OA
ATOM     34  H   UNL     1      17.786  35.144  41.278  1.00  0.00     0.211 HD
ENDBRANCH  28  33
BRANCH  30  35
ATOM     35  O   UNL     1      16.867  37.699  38.623  1.00  0.00    -0.388 OA
ATOM     36  H   UNL     1      16.275  38.224  39.220  1.00  0.00     0.211 HD
ENDBRANCH  30  35
ENDBRANCH  24  25
ENDBRANCH  23  24
ENDBRANCH   5  23
BRANCH   4  37
ATOM     37  O   UNL     1      20.946  30.688  39.548  1.00  0.00    -0.387 OA
ATOM     38  H   UNL     1      21.078  31.116  38.664  1.00  0.00     0.211 HD
ENDBRANCH   4  37
TORSDOF 13
ENDMDL
MODEL 3
REMARK VINA RESULT:    -3.830      4.023      7.699
REMARK INTER + INTRA:          -8.217
REMARK INTER:                  -5.631
REMARK INTRA:                  -2.586
REMARK UNBOUND:                -2.149
REMARK SMILES COc1ccc(C(C)=O)c(O[C@@H]2O[C@@H](CO[C@@H]3OC[C@H](O)[C@H](O)[C@@H]3O)[C@@H](O)[C@H](O)[C@H]2O)c1
REMARK SMILES IDX 12 1 30 2 28 3 26 4 14 5 13 6 11 7 10 8 6 9 5 10 32 11 4 12
REMARK SMILES IDX 3 13 7 14 8 15 9 16 2 17 1 18 31 19 29 21 15 23 16 24 17 25
REMARK SMILES IDX 24 26 18 27 22 28 19 29 20 30 25 31 23 33 21 35 27 37
REMARK H PARENT 31 20 29 22 25 32 23 34 21 36 27 38
REMARK Flexibility Score: inf
ROOT
ATOM      1  C   UNL     1      21.929  33.029  41.096  1.00  0.00     0.339 C 
ATOM      2  C   UNL     1      21.632  34.424  40.524  1.00  0.00     0.214 C 
ATOM      3  C   UNL     1      20.187  34.536  39.971  1.00  0.00     0.180 C 
ATOM      4  C   UNL     1      19.328  33.301  40.297  1.00  0.00     0.177 C 
ATOM      5  C   UNL     1      19.628  32.717  41.716  1.00  0.00     0.180 C 
ATOM      6  O   UNL     1      21.001  32.657  42.098  1.00  0.00    -0.332 OA
ENDROOT
BRANCH   1   7
ATOM      7  O   UNL     1      21.994  32.054  40.053  1.00  0.00    -0.461 OA
BRANCH   7   8
ATOM      8  C   UNL     1      22.964  32.103  39.046  1.00  0.00     0.137 A 
ATOM      9  C   UNL     1      22.582  31.974  37.693  1.00  0.00     0.060 A 
ATOM     10  C   UNL     1      23.565  32.100  36.695  1.00  0.00     0.019 A 
ATOM     11  C   UNL     1      24.312  32.307  39.379  1.00  0.00     0.093 A 
ATOM     12  C   UNL     1      24.901  32.335  37.034  1.00  0.00     0.047 A 
ATOM     13  C   UNL     1      25.284  32.436  38.383  1.00  0.00     0.122 A 
BRANCH   9  14
ATOM     14  C   UNL     1      21.158  31.751  37.323  1.00  0.00     0.163 C 
ATOM     15  C   UNL     1      20.441  30.482  37.676  1.00  0.00     0.093 C 
ATOM     16  O   UNL     1      20.520  32.648  36.709  1.00  0.00    -0.294 OA
ENDBRANCH   9  14
BRANCH  13  17
ATOM     17  O   UNL     1      26.612  32.659  38.775  1.00  0.00    -0.497 OA
ATOM     18  C   UNL     1      27.103  32.479  40.100  1.00  0.00     0.278 C 
ENDBRANCH  13  17
ENDBRANCH   7   8
ENDBRANCH   1   7
BRANCH   2  19
ATOM     19  O   UNL     1      21.828  35.376  41.540  1.00  0.00    -0.384 OA
ATOM     20  H   UNL     1      22.611  35.927  41.274  1.00  0.00     0.211 HD
ENDBRANCH   2  19
BRANCH   3  21
ATOM     21  O   UNL     1      20.216  34.710  38.575  1.00  0.00    -0.387 OA
ATOM     22  H   UNL     1      20.855  35.446  38.389  1.00  0.00     0.211 HD
ENDBRANCH   3  21
BRANCH   5  23
ATOM     23  C   UNL     1      18.862  33.425  42.846  1.00  0.00     0.198 C 
BRANCH  23  24
ATOM     24  O   UNL     1      19.681  34.416  43.436  1.00  0.00    -0.347 OA
BRANCH  24  25
ATOM     25  C   UNL     1      19.961  34.113  44.793  1.00  0.00     0.281 C 
ATOM     26  C   UNL     1      21.330  34.712  45.202  1.00  0.00     0.202 C 
ATOM     27  O   UNL     1      18.930  34.565  45.665  1.00  0.00    -0.347 OA
ATOM     28  C   UNL     1      21.275  36.249  45.227  1.00  0.00     0.179 C 
ATOM     29  C   UNL     1      18.786  35.975  45.611  1.00  0.00     0.198 C 
ATOM     30  C   UNL     1      20.070  36.691  46.080  1.00  0.00     0.171 C 
BRANCH  26  31
ATOM     31  O   UNL     1      22.342  34.289  44.326  1.00  0.00    -0.385 OA
ATOM     32  H   UNL     1      23.046  33.866  44.885  1.00  0.00     0.211 HD
ENDBRANCH  26  31
BRANCH  28  33
ATOM     33  O   UNL     1      21.175  36.746  43.915  1.00  0.00    -0.387 OA
ATOM     34  H   UNL     1      22.066  36.639  43.496  1.00  0.00     0.211 HD
ENDBRANCH  28  33
BRANCH  30  35
ATOM     35  O   UNL     1      19.930  38.089  46.082  1.00  0.00    -0.388 OA
ATOM     36  H   UNL     1      20.638  38.477  46.657  1.00  0.00     0.211 HD
ENDBRANCH  30  35
ENDBRANCH  24  25
ENDBRANCH  23  24
ENDBRANCH   5  23
BRANCH   4  37
ATOM     37  O   UNL     1      17.968  33.636  40.159  1.00  0.00    -0.387 OA
ATOM     38  H   UNL     1      17.897  34.619  40.259  1.00  0.00     0.211 HD
ENDBRANCH   4  37
TORSDOF 13
ENDMDL
MODEL 4
REMARK VINA RESULT:    -3.824      0.996      2.812
REMARK INTER + INTRA:          -8.209
REMARK INTER:                  -5.756
REMARK INTRA:                  -2.453
REMARK UNBOUND:                -2.149
REMARK SMILES COc1ccc(C(C)=O)c(O[C@@H]2O[C@@H](CO[C@@H]3OC[C@H](O)[C@H](O)[C@@H]3O)[C@@H](O)[C@H](O)[C@H]2O)c1
REMARK SMILES IDX 12 1 30 2 28 3 26 4 14 5 13 6 11 7 10 8 6 9 5 10 32 11 4 12
REMARK SMILES IDX 3 13 7 14 8 15 9 16 2 17 1 18 31 19 29 21 15 23 16 24 17 25
REMARK SMILES IDX 24 26 18 27 22 28 19 29 20 30 25 31 23 33 21 35 27 37
REMARK H PARENT 31 20 29 22 25 32 23 34 21 36 27 38
REMARK Flexibility Score: inf
ROOT
ATOM      1  C   UNL     1      17.372  34.945  41.384  1.00  0.00     0.339 C 
ATOM      2  C   UNL     1      17.204  35.136  42.900  1.00  0.00     0.214 C 
ATOM      3  C   UNL     1      16.673  33.856  43.597  1.00  0.00     0.180 C 
ATOM      4  C   UNL     1      16.623  32.642  42.653  1.00  0.00     0.177 C 
ATOM      5  C   UNL     1      17.829  32.603  41.659  1.00  0.00     0.180 C 
ATOM      6  O   UNL     1      18.210  33.848  41.076  1.00  0.00    -0.332 OA
ENDROOT
BRANCH   1   7
ATOM      7  O   UNL     1      16.101  34.832  40.742  1.00  0.00    -0.461 OA
BRANCH   7   8
ATOM      8  C   UNL     1      15.512  35.901  40.057  1.00  0.00     0.137 A 
ATOM      9  C   UNL     1      14.276  36.423  40.496  1.00  0.00     0.060 A 
ATOM     10  C   UNL     1      13.742  37.545  39.836  1.00  0.00     0.019 A 
ATOM     11  C   UNL     1      16.163  36.470  38.951  1.00  0.00     0.093 A 
ATOM     12  C   UNL     1      14.413  38.125  38.755  1.00  0.00     0.047 A 
ATOM     13  C   UNL     1      15.630  37.587  38.303  1.00  0.00     0.122 A 
BRANCH   9  14
ATOM     14  C   UNL     1      13.570  35.828  41.662  1.00  0.00     0.163 C 
ATOM     15  C   UNL     1      12.654  34.650  41.511  1.00  0.00     0.093 C 
ATOM     16  O   UNL     1      13.746  36.306  42.815  1.00  0.00    -0.294 OA
ENDBRANCH   9  14
BRANCH  13  17
ATOM     17  O   UNL     1      16.335  38.124  37.216  1.00  0.00    -0.497 OA
ATOM     18  C   UNL     1      16.412  37.523  35.928  1.00  0.00     0.278 C 
ENDBRANCH  13  17
ENDBRANCH   7   8
ENDBRANCH   1   7
BRANCH   2  19
ATOM     19  O   UNL     1      18.449  35.494  43.447  1.00  0.00    -0.384 OA
ATOM     20  H   UNL     1      19.141  35.258  42.774  1.00  0.00     0.211 HD
ENDBRANCH   2  19
BRANCH   3  21
ATOM     21  O   UNL     1      15.381  34.085  44.107  1.00  0.00    -0.387 OA
ATOM     22  H   UNL     1      15.236  33.427  44.834  1.00  0.00     0.211 HD
ENDBRANCH   3  21
BRANCH   5  23
ATOM     23  C   UNL     1      19.095  31.963  42.255  1.00  0.00     0.198 C 
BRANCH  23  24
ATOM     24  O   UNL     1      20.054  32.964  42.537  1.00  0.00    -0.347 OA
BRANCH  24  25
ATOM     25  C   UNL     1      21.285  32.695  41.885  1.00  0.00     0.281 C 
ATOM     26  C   UNL     1      21.949  34.020  41.431  1.00  0.00     0.202 C 
ATOM     27  O   UNL     1      22.171  31.941  42.707  1.00  0.00    -0.347 OA
ATOM     28  C   UNL     1      22.407  34.851  42.642  1.00  0.00     0.179 C 
ATOM     29  C   UNL     1      22.511  32.648  43.889  1.00  0.00     0.198 C 
ATOM     30  C   UNL     1      23.259  33.959  43.566  1.00  0.00     0.171 C 
BRANCH  26  31
ATOM     31  O   UNL     1      21.066  34.776  40.644  1.00  0.00    -0.385 OA
ATOM     32  H   UNL     1      20.154  34.614  41.002  1.00  0.00     0.211 HD
ENDBRANCH  26  31
BRANCH  28  33
ATOM     33  O   UNL     1      21.287  35.362  43.323  1.00  0.00    -0.387 OA
ATOM     34  H   UNL     1      21.379  35.095  44.272  1.00  0.00     0.211 HD
ENDBRANCH  28  33
BRANCH  30  35
ATOM     35  O   UNL     1      23.649  34.650  44.726  1.00  0.00    -0.388 OA
ATOM     36  H   UNL     1      24.610  34.471  44.892  1.00  0.00     0.211 HD
ENDBRANCH  30  35
ENDBRANCH  24  25
ENDBRANCH  23  24
ENDBRANCH   5  23
BRANCH   4  37
ATOM     37  O   UNL     1      16.553  31.464  43.420  1.00  0.00    -0.387 OA
ATOM     38  H   UNL     1      15.988  30.822  42.920  1.00  0.00     0.211 HD
ENDBRANCH   4  37
TORSDOF 13
ENDMDL
MODEL 5
REMARK VINA RESULT:    -3.750      1.096      3.045
REMARK INTER + INTRA:          -8.091
REMARK INTER:                  -5.969
REMARK INTRA:                  -2.122
REMARK UNBOUND:                -2.149
REMARK SMILES COc1ccc(C(C)=O)c(O[C@@H]2O[C@@H](CO[C@@H]3OC[C@H](O)[C@H](O)[C@@H]3O)[C@@H](O)[C@H](O)[C@H]2O)c1
REMARK SMILES IDX 12 1 30 2 28 3 26 4 14 5 13 6 11 7 10 8 6 9 5 10 32 11 4 12
REMARK SMILES IDX 3 13 7 14 8 15 9 16 2 17 1 18 31 19 29 21 15 23 16 24 17 25
REMARK SMILES IDX 24 26 18 27 22 28 19 29 20 30 25 31 23 33 21 35 27 37
REMARK H PARENT 31 20 29 22 25 32 23 34 21 36 27 38
REMARK Flexibility Score: inf
ROOT
ATOM      1  C   UNL     1      17.180  35.224  41.114  1.00  0.00     0.339 C 
ATOM      2  C   UNL     1      17.073  35.297  42.646  1.00  0.00     0.214 C 
ATOM      3  C   UNL     1      16.510  33.988  43.258  1.00  0.00     0.180 C 
ATOM      4  C   UNL     1      16.375  32.858  42.222  1.00  0.00     0.177 C 
ATOM      5  C   UNL     1      17.543  32.850  41.184  1.00  0.00     0.180 C 
ATOM      6  O   UNL     1      17.958  34.122  40.688  1.00  0.00    -0.332 OA
ENDROOT
BRANCH   1   7
ATOM      7  O   UNL     1      15.884  35.215  40.514  1.00  0.00    -0.461 OA
BRANCH   7   8
ATOM      8  C   UNL     1      15.503  36.153  39.548  1.00  0.00     0.137 A 
ATOM      9  C   UNL     1      14.257  36.809  39.655  1.00  0.00     0.060 A 
ATOM     10  C   UNL     1      13.929  37.801  38.713  1.00  0.00     0.019 A 
ATOM     11  C   UNL     1      16.369  36.461  38.487  1.00  0.00     0.093 A 
ATOM     12  C   UNL     1      14.812  38.123  37.678  1.00  0.00     0.047 A 
ATOM     13  C   UNL     1      16.040  37.450  37.557  1.00  0.00     0.122 A 
BRANCH   9  14
ATOM     14  C   UNL     1      13.324  36.491  40.769  1.00  0.00     0.163 C 
ATOM     15  C   UNL     1      13.248  37.343  42.001  1.00  0.00     0.093 C 
ATOM     16  O   UNL     1      12.561  35.491  40.685  1.00  0.00    -0.294 OA
ENDBRANCH   9  14
BRANCH  13  17
ATOM     17  O   UNL     1      16.954  37.728  36.530  1.00  0.00    -0.497 OA
ATOM     18  C   UNL     1      16.814  37.287  35.183  1.00  0.00     0.278 C 
ENDBRANCH  13  17
ENDBRANCH   7   8
ENDBRANCH   1   7
BRANCH   2  19
ATOM     19  O   UNL     1      18.350  35.558  43.172  1.00  0.00    -0.384 OA
ATOM     20  H   UNL     1      18.395  35.113  44.060  1.00  0.00     0.211 HD
ENDBRANCH   2  19
BRANCH   3  21
ATOM     21  O   UNL     1      15.248  34.227  43.833  1.00  0.00    -0.387 OA
ATOM     22  H   UNL     1      14.730  34.765  43.179  1.00  0.00     0.211 HD
ENDBRANCH   3  21
BRANCH   5  23
ATOM     23  C   UNL     1      18.799  32.112  41.678  1.00  0.00     0.198 C 
BRANCH  23  24
ATOM     24  O   UNL     1      19.786  33.049  42.066  1.00  0.00    -0.347 OA
BRANCH  24  25
ATOM     25  C   UNL     1      21.004  32.830  41.373  1.00  0.00     0.281 C 
ATOM     26  C   UNL     1      21.671  34.185  41.026  1.00  0.00     0.202 C 
ATOM     27  O   UNL     1      21.896  32.000  42.109  1.00  0.00    -0.347 OA
ATOM     28  C   UNL     1      22.156  34.903  42.297  1.00  0.00     0.179 C 
ATOM     29  C   UNL     1      22.262  32.598  43.343  1.00  0.00     0.198 C 
ATOM     30  C   UNL     1      23.016  33.927  43.124  1.00  0.00     0.171 C 
BRANCH  26  31
ATOM     31  O   UNL     1      20.782  35.014  40.324  1.00  0.00    -0.385 OA
ATOM     32  H   UNL     1      19.951  34.488  40.186  1.00  0.00     0.211 HD
ENDBRANCH  26  31
BRANCH  28  33
ATOM     33  O   UNL     1      21.052  35.359  43.040  1.00  0.00    -0.387 OA
ATOM     34  H   UNL     1      21.310  36.228  43.438  1.00  0.00     0.211 HD
ENDBRANCH  28  33
BRANCH  30  35
ATOM     35  O   UNL     1      23.431  34.510  44.334  1.00  0.00    -0.388 OA
ATOM     36  H   UNL     1      22.629  34.822  44.825  1.00  0.00     0.211 HD
ENDBRANCH  30  35
ENDBRANCH  24  25
ENDBRANCH  23  24
ENDBRANCH   5  23
BRANCH   4  37
ATOM     37  O   UNL     1      16.280  31.625  42.895  1.00  0.00    -0.387 OA
ATOM     38  H   UNL     1      16.767  31.720  43.752  1.00  0.00     0.211 HD
ENDBRANCH   4  37
TORSDOF 13
ENDMDL
MODEL 6
REMARK VINA RESULT:    -3.747      3.986      8.125
REMARK INTER + INTRA:          -8.087
REMARK INTER:                  -5.407
REMARK INTRA:                  -2.680
REMARK UNBOUND:                -2.149
REMARK SMILES COc1ccc(C(C)=O)c(O[C@@H]2O[C@@H](CO[C@@H]3OC[C@H](O)[C@H](O)[C@@H]3O)[C@@H](O)[C@H](O)[C@H]2O)c1
REMARK SMILES IDX 12 1 30 2 28 3 26 4 14 5 13 6 11 7 10 8 6 9 5 10 32 11 4 12
REMARK SMILES IDX 3 13 7 14 8 15 9 16 2 17 1 18 31 19 29 21 15 23 16 24 17 25
REMARK SMILES IDX 24 26 18 27 22 28 19 29 20 30 25 31 23 33 21 35 27 37
REMARK H PARENT 31 20 29 22 25 32 23 34 21 36 27 38
REMARK Flexibility Score: inf
ROOT
ATOM      1  C   UNL     1      22.066  33.189  41.590  1.00  0.00     0.339 C 
ATOM      2  C   UNL     1      21.897  34.516  40.832  1.00  0.00     0.214 C 
ATOM      3  C   UNL     1      20.561  34.578  40.047  1.00  0.00     0.180 C 
ATOM      4  C   UNL     1      19.631  33.393  40.363  1.00  0.00     0.177 C 
ATOM      5  C   UNL     1      19.689  32.966  41.866  1.00  0.00     0.180 C 
ATOM      6  O   UNL     1      20.983  32.937  42.466  1.00  0.00    -0.332 OA
ENDROOT
BRANCH   1   7
ATOM      7  O   UNL     1      22.269  32.106  40.682  1.00  0.00    -0.461 OA
BRANCH   7   8
ATOM      8  C   UNL     1      23.531  31.541  40.465  1.00  0.00     0.137 A 
ATOM      9  C   UNL     1      24.176  31.711  39.221  1.00  0.00     0.060 A 
ATOM     10  C   UNL     1      25.474  31.196  39.054  1.00  0.00     0.019 A 
ATOM     11  C   UNL     1      24.166  30.825  41.493  1.00  0.00     0.093 A 
ATOM     12  C   UNL     1      26.111  30.513  40.094  1.00  0.00     0.047 A 
ATOM     13  C   UNL     1      25.457  30.320  41.323  1.00  0.00     0.122 A 
BRANCH   9  14
ATOM     14  C   UNL     1      23.515  32.460  38.119  1.00  0.00     0.163 C 
ATOM     15  C   UNL     1      22.710  31.762  37.063  1.00  0.00     0.093 C 
ATOM     16  O   UNL     1      23.613  33.716  38.064  1.00  0.00    -0.294 OA
ENDBRANCH   9  14
BRANCH  13  17
ATOM     17  O   UNL     1      26.048  29.632  42.392  1.00  0.00    -0.497 OA
ATOM     18  C   UNL     1      26.164  30.145  43.716  1.00  0.00     0.278 C 
ENDBRANCH  13  17
ENDBRANCH   7   8
ENDBRANCH   1   7
BRANCH   2  19
ATOM     19  O   UNL     1      21.956  35.572  41.758  1.00  0.00    -0.384 OA
ATOM     20  H   UNL     1      22.349  36.352  41.284  1.00  0.00     0.211 HD
ENDBRANCH   2  19
BRANCH   3  21
ATOM     21  O   UNL     1      20.814  34.597  38.663  1.00  0.00    -0.387 OA
ATOM     22  H   UNL     1      21.139  33.693  38.416  1.00  0.00     0.211 HD
ENDBRANCH   3  21
BRANCH   5  23
ATOM     23  C   UNL     1      18.773  33.800  42.777  1.00  0.00     0.198 C 
BRANCH  23  24
ATOM     24  O   UNL     1      19.544  34.728  43.516  1.00  0.00    -0.347 OA
BRANCH  24  25
ATOM     25  C   UNL     1      19.142  34.764  44.877  1.00  0.00     0.281 C 
ATOM     26  C   UNL     1      20.261  34.184  45.779  1.00  0.00     0.202 C 
ATOM     27  O   UNL     1      18.785  36.078  45.293  1.00  0.00    -0.347 OA
ATOM     28  C   UNL     1      21.494  35.105  45.789  1.00  0.00     0.179 C 
ATOM     29  C   UNL     1      19.885  36.970  45.196  1.00  0.00     0.198 C 
ATOM     30  C   UNL     1      21.042  36.540  46.123  1.00  0.00     0.171 C 
BRANCH  26  31
ATOM     31  O   UNL     1      20.632  32.900  45.351  1.00  0.00    -0.385 OA
ATOM     32  H   UNL     1      21.624  32.890  45.307  1.00  0.00     0.211 HD
ENDBRANCH  26  31
BRANCH  28  33
ATOM     33  O   UNL     1      22.139  35.054  44.540  1.00  0.00    -0.387 OA
ATOM     34  H   UNL     1      23.110  35.146  44.712  1.00  0.00     0.211 HD
ENDBRANCH  28  33
BRANCH  30  35
ATOM     35  O   UNL     1      22.122  37.439  46.079  1.00  0.00    -0.388 OA
ATOM     36  H   UNL     1      22.745  37.149  45.366  1.00  0.00     0.211 HD
ENDBRANCH  30  35
ENDBRANCH  24  25
ENDBRANCH  23  24
ENDBRANCH   5  23
BRANCH   4  37
ATOM     37  O   UNL     1      18.318  33.721  39.975  1.00  0.00    -0.387 OA
ATOM     38  H   UNL     1      17.776  32.895  40.050  1.00  0.00     0.211 HD
ENDBRANCH   4  37
TORSDOF 13
ENDMDL
MODEL 7
REMARK VINA RESULT:    -3.742      4.519      6.824
REMARK INTER + INTRA:          -8.079
REMARK INTER:                  -5.723
REMARK INTRA:                  -2.355
REMARK UNBOUND:                -2.149
REMARK SMILES COc1ccc(C(C)=O)c(O[C@@H]2O[C@@H](CO[C@@H]3OC[C@H](O)[C@H](O)[C@@H]3O)[C@@H](O)[C@H](O)[C@H]2O)c1
REMARK SMILES IDX 12 1 30 2 28 3 26 4 14 5 13 6 11 7 10 8 6 9 5 10 32 11 4 12
REMARK SMILES IDX 3 13 7 14 8 15 9 16 2 17 1 18 31 19 29 21 15 23 16 24 17 25
REMARK SMILES IDX 24 26 18 27 22 28 19 29 20 30 25 31 23 33 21 35 27 37
REMARK H PARENT 31 20 29 22 25 32 23 34 21 36 27 38
REMARK Flexibility Score: inf
ROOT
ATOM      1  C   UNL     1      22.587  33.821  39.554  1.00  0.00     0.339 C 
ATOM      2  C   UNL     1      21.251  34.326  40.123  1.00  0.00     0.214 C 
ATOM      3  C   UNL     1      20.465  33.208  40.856  1.00  0.00     0.180 C 
ATOM      4  C   UNL     1      21.283  31.914  41.016  1.00  0.00     0.177 C 
ATOM      5  C   UNL     1      22.795  32.189  41.305  1.00  0.00     0.180 C 
ATOM      6  O   UNL     1      23.402  33.237  40.553  1.00  0.00    -0.332 OA
ENDROOT
BRANCH   1   7
ATOM      7  O   UNL     1      22.370  32.925  38.463  1.00  0.00    -0.461 OA
BRANCH   7   8
ATOM      8  C   UNL     1      21.758  33.333  37.273  1.00  0.00     0.137 A 
ATOM      9  C   UNL     1      20.792  32.507  36.657  1.00  0.00     0.060 A 
ATOM     10  C   UNL     1      20.139  32.972  35.502  1.00  0.00     0.019 A 
ATOM     11  C   UNL     1      22.086  34.574  36.704  1.00  0.00     0.093 A 
ATOM     12  C   UNL     1      20.448  34.223  34.961  1.00  0.00     0.047 A 
ATOM     13  C   UNL     1      21.430  35.033  35.559  1.00  0.00     0.122 A 
BRANCH   9  14
ATOM     14  C   UNL     1      20.438  31.186  37.243  1.00  0.00     0.163 C 
ATOM     15  C   UNL     1      21.205  29.942  36.904  1.00  0.00     0.093 C 
ATOM     16  O   UNL     1      19.480  31.095  38.057  1.00  0.00    -0.294 OA
ENDBRANCH   9  14
BRANCH  13  17
ATOM     17  O   UNL     1      21.785  36.290  35.048  1.00  0.00    -0.497 OA
ATOM     18  C   UNL     1      22.857  37.087  35.542  1.00  0.00     0.278 C 
ENDBRANCH  13  17
ENDBRANCH   7   8
ENDBRANCH   1   7
BRANCH   2  19
ATOM     19  O   UNL     1      21.513  35.384  41.010  1.00  0.00    -0.384 OA
ATOM     20  H   UNL     1      20.782  35.387  41.683  1.00  0.00     0.211 HD
ENDBRANCH   2  19
BRANCH   3  21
ATOM     21  O   UNL     1      19.282  32.910  40.155  1.00  0.00    -0.387 OA
ATOM     22  H   UNL     1      19.063  31.962  40.346  1.00  0.00     0.211 HD
ENDBRANCH   3  21
BRANCH   5  23
ATOM     23  C   UNL     1      23.098  32.447  42.790  1.00  0.00     0.198 C 
BRANCH  23  24
ATOM     24  O   UNL     1      22.385  33.585  43.237  1.00  0.00    -0.347 OA
BRANCH  24  25
ATOM     25  C   UNL     1      21.908  33.407  44.561  1.00  0.00     0.281 C 
ATOM     26  C   UNL     1      22.085  34.714  45.373  1.00  0.00     0.202 C 
ATOM     27  O   UNL     1      20.551  32.975  44.585  1.00  0.00    -0.347 OA
ATOM     28  C   UNL     1      21.154  35.821  44.847  1.00  0.00     0.179 C 
ATOM     29  C   UNL     1      19.690  33.937  43.995  1.00  0.00     0.198 C 
ATOM     30  C   UNL     1      19.717  35.270  44.774  1.00  0.00     0.171 C 
BRANCH  26  31
ATOM     31  O   UNL     1      23.417  35.154  45.325  1.00  0.00    -0.385 OA
ATOM     32  H   UNL     1      23.710  35.280  46.266  1.00  0.00     0.211 HD
ENDBRANCH  26  31
BRANCH  28  33
ATOM     33  O   UNL     1      21.595  36.257  43.585  1.00  0.00    -0.387 OA
ATOM     34  H   UNL     1      22.582  36.312  43.626  1.00  0.00     0.211 HD
ENDBRANCH  28  33
BRANCH  30  35
ATOM     35  O   UNL     1      18.832  36.219  44.234  1.00  0.00    -0.388 OA
ATOM     36  H   UNL     1      18.565  35.923  43.327  1.00  0.00     0.211 HD
ENDBRANCH  30  35
ENDBRANCH  24  25
ENDBRANCH  23  24
ENDBRANCH   5  23
BRANCH   4  37
ATOM     37  O   UNL     1      20.704  31.124  42.027  1.00  0.00    -0.387 OA
ATOM     38  H   UNL     1      21.397  30.985  42.722  1.00  0.00     0.211 HD
ENDBRANCH   4  37
TORSDOF 13
ENDMDL
MODEL 8
REMARK VINA RESULT:    -3.705      4.075      6.376
REMARK INTER + INTRA:          -8.020
REMARK INTER:                  -5.333
REMARK INTRA:                  -2.686
REMARK UNBOUND:                -2.149
REMARK SMILES COc1ccc(C(C)=O)c(O[C@@H]2O[C@@H](CO[C@@H]3OC[C@H](O)[C@H](O)[C@@H]3O)[C@@H](O)[C@H](O)[C@H]2O)c1
REMARK SMILES IDX 12 1 30 2 28 3 26 4 14 5 13 6 11 7 10 8 6 9 5 10 32 11 4 12
REMARK SMILES IDX 3 13 7 14 8 15 9 16 2 17 1 18 31 19 29 21 15 23 16 24 17 25
REMARK SMILES IDX 24 26 18 27 22 28 19 29 20 30 25 31 23 33 21 35 27 37
REMARK H PARENT 31 20 29 22 25 32 23 34 21 36 27 38
REMARK Flexibility Score: inf
ROOT
ATOM      1  C   UNL     1      20.265  34.522  38.217  1.00  0.00     0.339 C 
ATOM      2  C   UNL     1      18.828  34.755  38.710  1.00  0.00     0.214 C 
ATOM      3  C   UNL     1      17.958  33.475  38.611  1.00  0.00     0.180 C 
ATOM      4  C   UNL     1      18.776  32.229  38.233  1.00  0.00     0.177 C 
ATOM      5  C   UNL     1      20.194  32.216  38.891  1.00  0.00     0.180 C 
ATOM      6  O   UNL     1      20.896  33.458  38.905  1.00  0.00    -0.332 OA
ENDROOT
BRANCH   1   7
ATOM      7  O   UNL     1      20.291  34.321  36.803  1.00  0.00    -0.461 OA
BRANCH   7   8
ATOM      8  C   UNL     1      20.663  35.334  35.912  1.00  0.00     0.137 A 
ATOM      9  C   UNL     1      19.734  35.817  34.965  1.00  0.00     0.060 A 
ATOM     10  C   UNL     1      20.108  36.885  34.131  1.00  0.00     0.019 A 
ATOM     11  C   UNL     1      21.952  35.888  35.977  1.00  0.00     0.093 A 
ATOM     12  C   UNL     1      21.383  37.452  34.224  1.00  0.00     0.047 A 
ATOM     13  C   UNL     1      22.316  36.952  35.149  1.00  0.00     0.122 A 
BRANCH   9  14
ATOM     14  C   UNL     1      18.366  35.237  34.879  1.00  0.00     0.163 C 
ATOM     15  C   UNL     1      18.057  34.080  33.976  1.00  0.00     0.093 C 
ATOM     16  O   UNL     1      17.437  35.710  35.586  1.00  0.00    -0.294 OA
ENDBRANCH   9  14
BRANCH  13  17
ATOM     17  O   UNL     1      23.611  37.478  35.273  1.00  0.00    -0.497 OA
ATOM     18  C   UNL     1      24.805  36.704  35.216  1.00  0.00     0.278 C 
ENDBRANCH  13  17
ENDBRANCH   7   8
ENDBRANCH   1   7
BRANCH   2  19
ATOM     19  O   UNL     1      18.878  35.196  40.044  1.00  0.00    -0.384 OA
ATOM     20  H   UNL     1      19.307  36.092  40.039  1.00  0.00     0.211 HD
ENDBRANCH   2  19
BRANCH   3  21
ATOM     21  O   UNL     1      16.941  33.656  37.656  1.00  0.00    -0.387 OA
ATOM     22  H   UNL     1      17.072  32.962  36.959  1.00  0.00     0.211 HD
ENDBRANCH   3  21
BRANCH   5  23
ATOM     23  C   UNL     1      20.201  31.663  40.325  1.00  0.00     0.198 C 
BRANCH  23  24
ATOM     24  O   UNL     1      20.277  32.729  41.253  1.00  0.00    -0.347 OA
BRANCH  24  25
ATOM     25  C   UNL     1      21.161  32.422  42.319  1.00  0.00     0.281 C 
ATOM     26  C   UNL     1      22.487  33.206  42.155  1.00  0.00     0.202 C 
ATOM     27  O   UNL     1      20.573  32.680  43.590  1.00  0.00    -0.347 OA
ATOM     28  C   UNL     1      22.264  34.716  42.354  1.00  0.00     0.179 C 
ATOM     29  C   UNL     1      20.252  34.054  43.745  1.00  0.00     0.198 C 
ATOM     30  C   UNL     1      21.515  34.938  43.683  1.00  0.00     0.171 C 
BRANCH  26  31
ATOM     31  O   UNL     1      23.051  32.974  40.892  1.00  0.00    -0.385 OA
ATOM     32  H   UNL     1      23.185  33.863  40.470  1.00  0.00     0.211 HD
ENDBRANCH  26  31
BRANCH  28  33
ATOM     33  O   UNL     1      21.537  35.239  41.269  1.00  0.00    -0.387 OA
ATOM     34  H   UNL     1      22.195  35.491  40.574  1.00  0.00     0.211 HD
ENDBRANCH  28  33
BRANCH  30  35
ATOM     35  O   UNL     1      21.224  36.298  43.884  1.00  0.00    -0.388 OA
ATOM     36  H   UNL     1      21.754  36.834  43.241  1.00  0.00     0.211 HD
ENDBRANCH  30  35
ENDBRANCH  24  25
ENDBRANCH  23  24
ENDBRANCH   5  23
BRANCH   4  37
ATOM     37  O   UNL     1      18.045  31.075  38.573  1.00  0.00    -0.387 OA
ATOM     38  H   UNL     1      18.546  30.612  39.292  1.00  0.00     0.211 HD
ENDBRANCH   4  37
TORSDOF 13
ENDMDL
