MODEL 1
REMARK VINA RESULT:    -2.262      0.000      0.000
REMARK INTER + INTRA:          -1.820
REMARK INTER:                  -3.056
REMARK INTRA:                   1.235
REMARK UNBOUND:                 1.235
REMARK SMILES C=C(C)[C@H]1CC[C@@H](C)C2=C(C1)[C@@H](C)CC2
REMARK SMILES IDX 10 1 9 2 15 3 14 4 12 5 13 6 7 7 8 8 6 9 11 11 4 12 5 13
REMARK SMILES IDX 2 15 1 16 3 17
REMARK H PARENT
REMARK Flexibility Score: 80.00
ROOT
ATOM      1  C   UNL     1       5.963   6.955  12.425  1.00  0.00    -0.067 C 
ATOM      2  C   UNL     1       5.402   5.865  12.955  1.00  0.00    -0.068 C 
ATOM      3  C   UNL     1       6.429   4.875  13.390  1.00  0.00     0.032 C 
ATOM      4  C   UNL     1       7.747   5.421  12.842  1.00  0.00     0.012 C 
ATOM      5  C   UNL     1       7.459   6.873  12.433  1.00  0.00     0.012 C 
ATOM      6  C   UNL     1       8.054   7.872  13.432  1.00  0.00     0.012 C 
ENDROOT
BRANCH   2   7
ATOM      7  C   UNL     1       3.924   5.634  13.196  1.00  0.00     0.012 C 
ATOM      8  C   UNL     1       3.261   4.882  12.033  1.00  0.00     0.012 C 
BRANCH   7   9
ATOM      9  C   UNL     1       3.177   6.917  13.619  1.00  0.00     0.008 CG0
ATOM     10  G   UNL     1       4.059   8.062  14.143  1.00  0.00     0.000 G0
ENDBRANCH   7   9
ENDBRANCH   2   7
BRANCH   1  11
ATOM     11  C   UNL     1       5.223   8.162  11.901  1.00  0.00     0.039 C 
BRANCH  11  12
ATOM     12  C   UNL     1       4.573   8.981  13.035  1.00  0.00     0.018 C 
BRANCH  12  13
ATOM     13  C   UNL     1       4.019   8.081  14.160  1.00  0.00     0.009 CG0
ATOM     14  G   UNL     1       3.161   6.912  13.649  1.00  0.00     0.000 G0
ENDBRANCH  12  13
BRANCH  12  15
ATOM     15  C   UNL     1       3.466   9.868  12.478  1.00  0.00    -0.077 C 
ATOM     16  C   UNL     1       2.399  10.198  13.226  1.00  0.00     0.008 C 
ATOM     17  C   UNL     1       3.547  10.386  11.065  1.00  0.00     0.039 C 
ENDBRANCH  12  15
ENDBRANCH  11  12
ENDBRANCH   1  11
TORSDOF 1
ENDMDL
MODEL 2
REMARK VINA RESULT:    -2.096      1.495      4.729
REMARK INTER + INTRA:          -1.595
REMARK INTER:                  -1.688
REMARK INTRA:                   0.093
REMARK UNBOUND:                 1.235
REMARK SMILES C=C(C)[C@H]1CC[C@@H](C)C2=C(C1)[C@@H](C)CC2
REMARK SMILES IDX 10 1 9 2 15 3 14 4 12 5 13 6 7 7 8 8 6 9 11 11 4 12 5 13
REMARK SMILES IDX 2 15 1 16 3 17
REMARK H PARENT
REMARK Flexibility Score: 80.00
ROOT
ATOM      1  C   UNL     1       4.060   9.327  12.510  1.00  0.00    -0.067 C 
ATOM      2  C   UNL     1       3.908   9.627  13.803  1.00  0.00    -0.068 C 
ATOM      3  C   UNL     1       3.321  10.985  13.987  1.00  0.00     0.032 C 
ATOM      4  C   UNL     1       3.329  11.601  12.588  1.00  0.00     0.012 C 
ATOM      5  C   UNL     1       3.586  10.436  11.622  1.00  0.00     0.012 C 
ATOM      6  C   UNL     1       2.311  10.028  10.875  1.00  0.00     0.012 C 
ENDROOT
BRANCH   2   7
ATOM      7  C   UNL     1       4.190   8.718  14.982  1.00  0.00     0.012 C 
ATOM      8  C   UNL     1       3.658   9.299  16.300  1.00  0.00     0.012 C 
BRANCH   7   9
ATOM      9  C   UNL     1       5.664   8.262  15.049  1.00  0.00     0.008 CG0
ATOM     10  G   UNL     1       6.098   7.246  13.979  1.00  0.00     0.000 G0
ENDBRANCH   7   9
ENDBRANCH   2   7
BRANCH   1  11
ATOM     11  C   UNL     1       4.606   8.030  11.964  1.00  0.00     0.039 C 
BRANCH  11  12
ATOM     12  C   UNL     1       4.798   6.971  13.068  1.00  0.00     0.018 C 
BRANCH  12  13
ATOM     13  C   UNL     1       6.018   7.277  13.963  1.00  0.00     0.009 CG0
ATOM     14  G   UNL     1       5.717   8.267  15.100  1.00  0.00     0.000 G0
ENDBRANCH  12  13
BRANCH  12  15
ATOM     15  C   UNL     1       4.933   5.584  12.450  1.00  0.00    -0.077 C 
ATOM     16  C   UNL     1       3.859   4.924  11.985  1.00  0.00     0.008 C 
ATOM     17  C   UNL     1       6.284   4.923  12.357  1.00  0.00     0.039 C 
ENDBRANCH  12  15
ENDBRANCH  11  12
ENDBRANCH   1  11
TORSDOF 1
ENDMDL
MODEL 3
REMARK VINA RESULT:    -1.471      1.597      2.497
REMARK INTER + INTRA:          -0.752
REMARK INTER:                  -0.869
REMARK INTRA:                   0.118
REMARK UNBOUND:                 1.235
REMARK SMILES C=C(C)[C@H]1CC[C@@H](C)C2=C(C1)[C@@H](C)CC2
REMARK SMILES IDX 10 1 9 2 15 3 14 4 12 5 13 6 7 7 8 8 6 9 11 11 4 12 5 13
REMARK SMILES IDX 2 15 1 16 3 17
REMARK H PARENT
REMARK Flexibility Score: 80.00
ROOT
ATOM      1  C   UNL     1       5.387   7.433  12.614  1.00  0.00    -0.067 C 
ATOM      2  C   UNL     1       5.776   7.656  13.872  1.00  0.00    -0.068 C 
ATOM      3  C   UNL     1       6.879   6.737  14.278  1.00  0.00     0.032 C 
ATOM      4  C   UNL     1       6.981   5.730  13.134  1.00  0.00     0.012 C 
ATOM      5  C   UNL     1       6.179   6.335  11.973  1.00  0.00     0.012 C 
ATOM      6  C   UNL     1       7.098   6.893  10.880  1.00  0.00     0.012 C 
ENDROOT
BRANCH   2   7
ATOM      7  C   UNL     1       5.269   8.744  14.797  1.00  0.00     0.012 C 
ATOM      8  C   UNL     1       6.057   8.796  16.114  1.00  0.00     0.012 C 
BRANCH   7   9
ATOM      9  C   UNL     1       3.737   8.705  14.986  1.00  0.00     0.008 CG0
ATOM     10  G   UNL     1       2.906   9.238  13.807  1.00  0.00     0.000 G0
ENDBRANCH   7   9
ENDBRANCH   2   7
BRANCH   1  11
ATOM     11  C   UNL     1       4.312   8.192  11.876  1.00  0.00     0.039 C 
BRANCH  11  12
ATOM     12  C   UNL     1       3.918   9.494  12.603  1.00  0.00     0.018 C 
BRANCH  12  13
ATOM     13  C   UNL     1       2.984   9.232  13.803  1.00  0.00     0.009 CG0
ATOM     14  G   UNL     1       3.710   8.688  15.044  1.00  0.00     0.000 G0
ENDBRANCH  12  13
BRANCH  12  15
ATOM     15  C   UNL     1       3.261  10.464  11.627  1.00  0.00    -0.077 C 
ATOM     16  C   UNL     1       4.000  11.304  10.881  1.00  0.00     0.008 C 
ATOM     17  C   UNL     1       1.761  10.502  11.488  1.00  0.00     0.039 C 
ENDBRANCH  12  15
ENDBRANCH  11  12
ENDBRANCH   1  11
TORSDOF 1
ENDMDL
MODEL 4
REMARK VINA RESULT:    -0.510      1.595      2.536
REMARK INTER + INTRA:           0.547
REMARK INTER:                  -0.075
REMARK INTRA:                   0.622
REMARK UNBOUND:                 1.235
REMARK SMILES C=C(C)[C@H]1CC[C@@H](C)C2=C(C1)[C@@H](C)CC2
REMARK SMILES IDX 10 1 9 2 15 3 14 4 12 5 13 6 7 7 8 8 6 9 11 11 4 12 5 13
REMARK SMILES IDX 2 15 1 16 3 17
REMARK H PARENT
REMARK Flexibility Score: 80.00
ROOT
ATOM      1  C   UNL     1       5.428   8.101  14.177  1.00  0.00    -0.067 C 
ATOM      2  C   UNL     1       6.064   7.034  13.687  1.00  0.00    -0.068 C 
ATOM      3  C   UNL     1       7.515   7.053  14.031  1.00  0.00     0.032 C 
ATOM      4  C   UNL     1       7.748   8.437  14.637  1.00  0.00     0.012 C 
ATOM      5  C   UNL     1       6.352   9.000  14.938  1.00  0.00     0.012 C 
ATOM      6  C   UNL     1       6.037   8.961  16.438  1.00  0.00     0.012 C 
ENDROOT
BRANCH   2   7
ATOM      7  C   UNL     1       5.440   5.869  12.946  1.00  0.00     0.012 C 
ATOM      8  C   UNL     1       6.496   4.882  12.428  1.00  0.00     0.012 C 
BRANCH   7   9
ATOM      9  C   UNL     1       4.422   6.315  11.874  1.00  0.00     0.008 CG0
ATOM     10  G   UNL     1       4.383   7.823  11.578  1.00  0.00     0.000 G0
ENDBRANCH   7   9
ENDBRANCH   2   7
BRANCH   1  11
ATOM     11  C   UNL     1       3.953   8.389  14.036  1.00  0.00     0.039 C 
BRANCH  11  12
ATOM     12  C   UNL     1       3.550   8.646  12.570  1.00  0.00     0.018 C 
BRANCH  12  13
ATOM     13  C   UNL     1       4.407   7.831  11.578  1.00  0.00     0.009 CG0
ATOM     14  G   UNL     1       4.421   6.321  11.870  1.00  0.00     0.000 G0
ENDBRANCH  12  13
BRANCH  12  15
ATOM     15  C   UNL     1       3.647  10.133  12.249  1.00  0.00    -0.077 C 
ATOM     16  C   UNL     1       3.762  10.563  10.980  1.00  0.00     0.008 C 
ATOM     17  C   UNL     1       3.621  11.153  13.358  1.00  0.00     0.039 C 
ENDBRANCH  12  15
ENDBRANCH  11  12
ENDBRANCH   1  11
TORSDOF 1
ENDMDL
MODEL 5
REMARK VINA RESULT:    -0.301      1.447      2.884
REMARK INTER + INTRA:           0.829
REMARK INTER:                   0.522
REMARK INTRA:                   0.307
REMARK UNBOUND:                 1.235
REMARK SMILES C=C(C)[C@H]1CC[C@@H](C)C2=C(C1)[C@@H](C)CC2
REMARK SMILES IDX 10 1 9 2 15 3 14 4 12 5 13 6 7 7 8 8 6 9 11 11 4 12 5 13
REMARK SMILES IDX 2 15 1 16 3 17
REMARK H PARENT
REMARK Flexibility Score: 80.00
ROOT
ATOM      1  C   UNL     1       4.402   6.891  13.166  1.00  0.00    -0.067 C 
ATOM      2  C   UNL     1       5.660   7.130  13.545  1.00  0.00    -0.068 C 
ATOM      3  C   UNL     1       6.561   5.988  13.216  1.00  0.00     0.032 C 
ATOM      4  C   UNL     1       5.619   4.875  12.759  1.00  0.00     0.012 C 
ATOM      5  C   UNL     1       4.264   5.552  12.509  1.00  0.00     0.012 C 
ATOM      6  C   UNL     1       3.976   5.708  11.011  1.00  0.00     0.012 C 
ENDROOT
BRANCH   2   7
ATOM      7  C   UNL     1       6.193   8.410  14.157  1.00  0.00     0.012 C 
ATOM      8  C   UNL     1       7.628   8.248  14.676  1.00  0.00     0.012 C 
BRANCH   7   9
ATOM      9  C   UNL     1       5.222   9.035  15.183  1.00  0.00     0.008 CG0
ATOM     10  G   UNL     1       4.105   9.914  14.596  1.00  0.00     0.000 G0
ENDBRANCH   7   9
ENDBRANCH   2   7
BRANCH   1  11
ATOM     11  C   UNL     1       3.237   7.837  13.327  1.00  0.00     0.039 C 
BRANCH  11  12
ATOM     12  C   UNL     1       3.669   9.313  13.212  1.00  0.00     0.018 C 
BRANCH  12  13
ATOM     13  C   UNL     1       4.132   9.892  14.566  1.00  0.00     0.009 CG0
ATOM     14  G   UNL     1       5.246   9.073  15.239  1.00  0.00     0.000 G0
ENDBRANCH  12  13
BRANCH  12  15
ATOM     15  C   UNL     1       2.530  10.153  12.643  1.00  0.00    -0.077 C 
ATOM     16  C   UNL     1       1.350  10.242  13.279  1.00  0.00     0.008 C 
ATOM     17  C   UNL     1       2.711  10.897  11.345  1.00  0.00     0.039 C 
ENDBRANCH  12  15
ENDBRANCH  11  12
ENDBRANCH   1  11
TORSDOF 1
ENDMDL
MODEL 6
REMARK VINA RESULT:     0.327      1.445      3.909
REMARK INTER + INTRA:           1.677
REMARK INTER:                   1.009
REMARK INTRA:                   0.668
REMARK UNBOUND:                 1.235
REMARK SMILES C=C(C)[C@H]1CC[C@@H](C)C2=C(C1)[C@@H](C)CC2
REMARK SMILES IDX 10 1 9 2 15 3 14 4 12 5 13 6 7 7 8 8 6 9 11 11 4 12 5 13
REMARK SMILES IDX 2 15 1 16 3 17
REMARK H PARENT
REMARK Flexibility Score: 80.00
ROOT
ATOM      1  C   UNL     1       4.757   8.125  12.808  1.00  0.00    -0.067 C 
ATOM      2  C   UNL     1       3.857   7.159  13.006  1.00  0.00    -0.068 C 
ATOM      3  C   UNL     1       2.647   7.670  13.711  1.00  0.00     0.032 C 
ATOM      4  C   UNL     1       3.020   9.091  14.134  1.00  0.00     0.012 C 
ATOM      5  C   UNL     1       4.285   9.444  13.339  1.00  0.00     0.012 C 
ATOM      6  C   UNL     1       3.980  10.415  12.192  1.00  0.00     0.012 C 
ENDROOT
BRANCH   2   7
ATOM      7  C   UNL     1       3.949   5.725  12.526  1.00  0.00     0.012 C 
ATOM      8  C   UNL     1       2.768   4.875  13.015  1.00  0.00     0.012 C 
BRANCH   7   9
ATOM      9  C   UNL     1       5.330   5.089  12.792  1.00  0.00     0.008 CG0
ATOM     10  G   UNL     1       6.295   5.924  13.650  1.00  0.00     0.000 G0
ENDBRANCH   7   9
ENDBRANCH   2   7
BRANCH   1  11
ATOM     11  C   UNL     1       6.085   7.964  12.108  1.00  0.00     0.039 C 
BRANCH  11  12
ATOM     12  C   UNL     1       7.045   7.045  12.890  1.00  0.00     0.018 C 
BRANCH  12  13
ATOM     13  C   UNL     1       6.294   5.935  13.657  1.00  0.00     0.009 CG0
ATOM     14  G   UNL     1       5.340   5.112  12.775  1.00  0.00     0.000 G0
ENDBRANCH  12  13
BRANCH  12  15
ATOM     15  C   UNL     1       7.895   7.866  13.852  1.00  0.00    -0.077 C 
ATOM     16  C   UNL     1       7.400   8.285  15.030  1.00  0.00     0.008 C 
ATOM     17  C   UNL     1       9.313   8.229  13.493  1.00  0.00     0.039 C 
ENDBRANCH  12  15
ENDBRANCH  11  12
ENDBRANCH   1  11
TORSDOF 1
ENDMDL
MODEL 7
REMARK VINA RESULT:     0.732      1.600      4.395
REMARK INTER + INTRA:           2.224
REMARK INTER:                   1.507
REMARK INTRA:                   0.716
REMARK UNBOUND:                 1.235
REMARK SMILES C=C(C)[C@H]1CC[C@@H](C)C2=C(C1)[C@@H](C)CC2
REMARK SMILES IDX 10 1 9 2 15 3 14 4 12 5 13 6 7 7 8 8 6 9 11 11 4 12 5 13
REMARK SMILES IDX 2 15 1 16 3 17
REMARK H PARENT
REMARK Flexibility Score: 80.00
ROOT
ATOM      1  C   UNL     1       4.877   7.529  12.810  1.00  0.00    -0.067 C 
ATOM      2  C   UNL     1       4.166   8.558  13.280  1.00  0.00    -0.068 C 
ATOM      3  C   UNL     1       3.524   9.331  12.178  1.00  0.00     0.032 C 
ATOM      4  C   UNL     1       4.129   8.754  10.899  1.00  0.00     0.012 C 
ATOM      5  C   UNL     1       4.812   7.444  11.316  1.00  0.00     0.012 C 
ATOM      6  C   UNL     1       4.003   6.218  10.875  1.00  0.00     0.012 C 
ENDROOT
BRANCH   2   7
ATOM      7  C   UNL     1       3.926   8.902  14.736  1.00  0.00     0.012 C 
ATOM      8  C   UNL     1       3.219  10.255  14.900  1.00  0.00     0.012 C 
BRANCH   7   9
ATOM      9  C   UNL     1       5.192   8.748  15.606  1.00  0.00     0.008 CG0
ATOM     10  G   UNL     1       6.519   8.622  14.839  1.00  0.00     0.000 G0
ENDBRANCH   7   9
ENDBRANCH   2   7
BRANCH   1  11
ATOM     11  C   UNL     1       5.638   6.529  13.645  1.00  0.00     0.039 C 
BRANCH  11  12
ATOM     12  C   UNL     1       6.836   7.173  14.373  1.00  0.00     0.018 C 
BRANCH  12  13
ATOM     13  C   UNL     1       6.530   8.612  14.839  1.00  0.00     0.009 CG0
ATOM     14  G   UNL     1       5.207   8.741  15.613  1.00  0.00     0.000 G0
ENDBRANCH  12  13
BRANCH  12  15
ATOM     15  C   UNL     1       8.066   7.163  13.473  1.00  0.00    -0.077 C 
ATOM     16  C   UNL     1       8.128   6.367  12.391  1.00  0.00     0.008 C 
ATOM     17  C   UNL     1       9.245   8.047  13.788  1.00  0.00     0.039 C 
ENDBRANCH  12  15
ENDBRANCH  11  12
ENDBRANCH   1  11
TORSDOF 1
ENDMDL
