MODEL 1
REMARK VINA RESULT:    -5.440      0.000      0.000
REMARK INTER + INTRA:          -6.469
REMARK INTER:                  -6.554
REMARK INTRA:                   0.085
REMARK UNBOUND:                 0.085
REMARK SMILES O=c1ccn([C@@H]2O[C@@H](CO)[C@H](O)[C@@H]2O)c(=O)[nH]1
REMARK SMILES IDX 6 1 13 2 11 3 8 4 7 5 5 6 3 7 4 8 2 9 17 10 1 11 15 12 16 14
REMARK SMILES IDX 14 15 12 17 9 19 10 20
REMARK H PARENT 17 13 14 16 12 18 10 21
REMARK Flexibility Score: inf
ROOT
ATOM      1  C   UNL     1      30.915  10.006   6.556  1.00  0.00     0.255 C 
ATOM      2  C   UNL     1      29.963  10.886   7.368  1.00  0.00     0.196 C 
ATOM      3  C   UNL     1      30.264  10.447   8.782  1.00  0.00     0.179 C 
ATOM      4  C   UNL     1      30.694   8.990   8.594  1.00  0.00     0.178 C 
ATOM      5  O   UNL     1      31.158   8.811   7.271  1.00  0.00    -0.347 OA
ENDROOT
BRANCH   1   6
ATOM      6  N   UNL     1      30.396   9.732   5.197  1.00  0.00    -0.271 N 
ATOM      7  C   UNL     1      29.545   8.196   3.562  1.00  0.00     0.090 A 
ATOM      8  C   UNL     1      30.055   8.457   4.830  1.00  0.00     0.099 A 
ATOM      9  C   UNL     1      29.376   9.255   2.679  1.00  0.00     0.253 A 
ATOM     10  N   UNL     1      29.705  10.516   3.066  1.00  0.00    -0.274 N 
ATOM     11  O   UNL     1      28.917   9.048   1.524  1.00  0.00    -0.269 OA
ATOM     12  C   UNL     1      30.203  10.763   4.310  1.00  0.00     0.330 A 
ATOM     13  H   UNL     1      29.569  11.309   2.399  1.00  0.00     0.175 HD
ATOM     14  O   UNL     1      30.479  11.950   4.636  1.00  0.00    -0.248 OA
ENDBRANCH   1   6
BRANCH   2  15
ATOM     15  O   UNL     1      28.610  10.681   7.020  1.00  0.00    -0.386 OA
ATOM     16  H   UNL     1      28.046  10.941   7.794  1.00  0.00     0.211 HD
ENDBRANCH   2  15
BRANCH   3  17
ATOM     17  O   UNL     1      29.140  10.539   9.620  1.00  0.00    -0.387 OA
ATOM     18  H   UNL     1      29.083   9.676  10.107  1.00  0.00     0.211 HD
ENDBRANCH   3  17
BRANCH   4  19
ATOM     19  C   UNL     1      31.788   8.569   9.583  1.00  0.00     0.191 C 
BRANCH  19  20
ATOM     20  O   UNL     1      31.598   7.243   9.999  1.00  0.00    -0.394 OA
ATOM     21  H   UNL     1      31.953   6.661   9.277  1.00  0.00     0.210 HD
ENDBRANCH  19  20
ENDBRANCH   4  19
TORSDOF 5
ENDMDL
MODEL 2
REMARK VINA RESULT:    -5.406     12.547     13.389
REMARK INTER + INTRA:          -6.427
REMARK INTER:                  -6.144
REMARK INTRA:                  -0.283
REMARK UNBOUND:                 0.085
REMARK SMILES O=c1ccn([C@@H]2O[C@@H](CO)[C@H](O)[C@@H]2O)c(=O)[nH]1
REMARK SMILES IDX 6 1 13 2 11 3 8 4 7 5 5 6 3 7 4 8 2 9 17 10 1 11 15 12 16 14
REMARK SMILES IDX 14 15 12 17 9 19 10 20
REMARK H PARENT 17 13 14 16 12 18 10 21
REMARK Flexibility Score: inf
ROOT
ATOM      1  C   UNL     1      20.154   1.683   6.902  1.00  0.00     0.255 C 
ATOM      2  C   UNL     1      20.827   2.976   6.439  1.00  0.00     0.196 C 
ATOM      3  C   UNL     1      20.455   3.934   7.546  1.00  0.00     0.179 C 
ATOM      4  C   UNL     1      19.113   3.381   8.029  1.00  0.00     0.178 C 
ATOM      5  O   UNL     1      19.029   2.010   7.695  1.00  0.00    -0.347 OA
ENDROOT
BRANCH   1   6
ATOM      6  N   UNL     1      19.783   0.811   5.766  1.00  0.00    -0.271 N 
ATOM      7  C   UNL     1      18.142  -0.019   4.224  1.00  0.00     0.090 A 
ATOM      8  C   UNL     1      18.492   0.781   5.307  1.00  0.00     0.099 A 
ATOM      9  C   UNL     1      19.129  -0.779   3.609  1.00  0.00     0.253 A 
ATOM     10  N   UNL     1      20.407  -0.725   4.067  1.00  0.00    -0.274 N 
ATOM     11  O   UNL     1      18.840  -1.514   2.627  1.00  0.00    -0.269 OA
ATOM     12  C   UNL     1      20.742   0.063   5.127  1.00  0.00     0.330 A 
ATOM     13  H   UNL     1      21.146  -1.293   3.594  1.00  0.00     0.175 HD
ATOM     14  O   UNL     1      21.943   0.098   5.511  1.00  0.00    -0.248 OA
ENDBRANCH   1   6
BRANCH   2  15
ATOM     15  O   UNL     1      20.359   3.406   5.179  1.00  0.00    -0.386 OA
ATOM     16  H   UNL     1      20.793   4.273   4.963  1.00  0.00     0.211 HD
ENDBRANCH   2  15
BRANCH   3  17
ATOM     17  O   UNL     1      20.324   5.256   7.087  1.00  0.00    -0.387 OA
ATOM     18  H   UNL     1      20.900   5.330   6.282  1.00  0.00     0.211 HD
ENDBRANCH   3  17
BRANCH   4  19
ATOM     19  C   UNL     1      18.916   3.555   9.540  1.00  0.00     0.191 C 
BRANCH  19  20
ATOM     20  O   UNL     1      19.541   4.727   9.991  1.00  0.00    -0.394 OA
ATOM     21  H   UNL     1      19.334   4.809  10.959  1.00  0.00     0.210 HD
ENDBRANCH  19  20
ENDBRANCH   4  19
TORSDOF 5
ENDMDL
MODEL 3
REMARK VINA RESULT:    -5.269      1.890      5.386
REMARK INTER + INTRA:          -6.263
REMARK INTER:                  -6.145
REMARK INTRA:                  -0.118
REMARK UNBOUND:                 0.085
REMARK SMILES O=c1ccn([C@@H]2O[C@@H](CO)[C@H](O)[C@@H]2O)c(=O)[nH]1
REMARK SMILES IDX 6 1 13 2 11 3 8 4 7 5 5 6 3 7 4 8 2 9 17 10 1 11 15 12 16 14
REMARK SMILES IDX 14 15 12 17 9 19 10 20
REMARK H PARENT 17 13 14 16 12 18 10 21
REMARK Flexibility Score: inf
ROOT
ATOM      1  C   UNL     1      29.890   9.626   5.835  1.00  0.00     0.255 C 
ATOM      2  C   UNL     1      30.008  11.001   5.176  1.00  0.00     0.196 C 
ATOM      3  C   UNL     1      29.631  10.694   3.746  1.00  0.00     0.179 C 
ATOM      4  C   UNL     1      30.080   9.239   3.588  1.00  0.00     0.178 C 
ATOM      5  O   UNL     1      30.129   8.629   4.862  1.00  0.00    -0.347 OA
ENDROOT
BRANCH   1   6
ATOM      6  N   UNL     1      30.800   9.485   6.994  1.00  0.00    -0.271 N 
ATOM      7  C   UNL     1      32.877   8.735   7.934  1.00  0.00     0.090 A 
ATOM      8  C   UNL     1      32.006   8.850   6.855  1.00  0.00     0.099 A 
ATOM      9  C   UNL     1      32.504   9.287   9.154  1.00  0.00     0.253 A 
ATOM     10  N   UNL     1      31.310   9.927   9.269  1.00  0.00    -0.274 N 
ATOM     11  O   UNL     1      33.272   9.196  10.149  1.00  0.00    -0.269 OA
ATOM     12  C   UNL     1      30.465  10.036   8.207  1.00  0.00     0.330 A 
ATOM     13  H   UNL     1      31.040  10.346  10.188  1.00  0.00     0.175 HD
ATOM     14  O   UNL     1      29.374  10.653   8.351  1.00  0.00    -0.248 OA
ENDBRANCH   1   6
BRANCH   2  15
ATOM     15  O   UNL     1      31.307  11.542   5.283  1.00  0.00    -0.386 OA
ATOM     16  H   UNL     1      31.379  12.310   4.659  1.00  0.00     0.211 HD
ENDBRANCH   2  15
BRANCH   3  17
ATOM     17  O   UNL     1      30.289  11.530   2.828  1.00  0.00    -0.387 OA
ATOM     18  H   UNL     1      30.081  11.173   1.926  1.00  0.00     0.211 HD
ENDBRANCH   3  17
BRANCH   4  19
ATOM     19  C   UNL     1      29.153   8.435   2.668  1.00  0.00     0.191 C 
BRANCH  19  20
ATOM     20  O   UNL     1      28.561   7.372   3.366  1.00  0.00    -0.394 OA
ATOM     21  H   UNL     1      29.246   6.657   3.436  1.00  0.00     0.210 HD
ENDBRANCH  19  20
ENDBRANCH   4  19
TORSDOF 5
ENDMDL
MODEL 4
REMARK VINA RESULT:    -5.252      8.108     10.400
REMARK INTER + INTRA:          -6.241
REMARK INTER:                  -6.027
REMARK INTRA:                  -0.214
REMARK UNBOUND:                 0.085
REMARK SMILES O=c1ccn([C@@H]2O[C@@H](CO)[C@H](O)[C@@H]2O)c(=O)[nH]1
REMARK SMILES IDX 6 1 13 2 11 3 8 4 7 5 5 6 3 7 4 8 2 9 17 10 1 11 15 12 16 14
REMARK SMILES IDX 14 15 12 17 9 19 10 20
REMARK H PARENT 17 13 14 16 12 18 10 21
REMARK Flexibility Score: inf
ROOT
ATOM      1  C   UNL     1      28.270   1.469   7.276  1.00  0.00     0.255 C 
ATOM      2  C   UNL     1      29.041   1.586   5.960  1.00  0.00     0.196 C 
ATOM      3  C   UNL     1      28.040   1.047   4.965  1.00  0.00     0.179 C 
ATOM      4  C   UNL     1      27.235   0.054   5.806  1.00  0.00     0.178 C 
ATOM      5  O   UNL     1      27.338   0.411   7.170  1.00  0.00    -0.347 OA
ENDROOT
BRANCH   1   6
ATOM      6  N   UNL     1      29.172   1.283   8.435  1.00  0.00    -0.271 N 
ATOM      7  C   UNL     1      30.518  -0.138   9.823  1.00  0.00     0.090 A 
ATOM      8  C   UNL     1      29.650   0.039   8.750  1.00  0.00     0.099 A 
ATOM      9  C   UNL     1      30.900   0.974  10.563  1.00  0.00     0.253 A 
ATOM     10  N   UNL     1      30.429   2.204  10.226  1.00  0.00    -0.274 N 
ATOM     11  O   UNL     1      31.683   0.843  11.541  1.00  0.00    -0.269 OA
ATOM     12  C   UNL     1      29.581   2.368   9.173  1.00  0.00     0.330 A 
ATOM     13  H   UNL     1      30.726   3.037  10.783  1.00  0.00     0.175 HD
ATOM     14  O   UNL     1      29.180   3.529   8.883  1.00  0.00    -0.248 OA
ENDBRANCH   1   6
BRANCH   2  15
ATOM     15  O   UNL     1      30.240   0.841   5.969  1.00  0.00    -0.386 OA
ATOM     16  H   UNL     1      30.787   1.121   5.189  1.00  0.00     0.211 HD
ENDBRANCH   2  15
BRANCH   3  17
ATOM     17  O   UNL     1      28.658   0.407   3.878  1.00  0.00    -0.387 OA
ATOM     18  H   UNL     1      27.932  -0.026   3.359  1.00  0.00     0.211 HD
ENDBRANCH   3  17
BRANCH   4  19
ATOM     19  C   UNL     1      25.757   0.002   5.399  1.00  0.00     0.191 C 
BRANCH  19  20
ATOM     20  O   UNL     1      25.601   0.350   4.049  1.00  0.00    -0.394 OA
ATOM     21  H   UNL     1      25.589   1.342   4.007  1.00  0.00     0.210 HD
ENDBRANCH  19  20
ENDBRANCH   4  19
TORSDOF 5
ENDMDL
MODEL 5
REMARK VINA RESULT:    -5.240      8.438      9.858
REMARK INTER + INTRA:          -6.227
REMARK INTER:                  -5.937
REMARK INTRA:                  -0.290
REMARK UNBOUND:                 0.085
REMARK SMILES O=c1ccn([C@@H]2O[C@@H](CO)[C@H](O)[C@@H]2O)c(=O)[nH]1
REMARK SMILES IDX 6 1 13 2 11 3 8 4 7 5 5 6 3 7 4 8 2 9 17 10 1 11 15 12 16 14
REMARK SMILES IDX 14 15 12 17 9 19 10 20
REMARK H PARENT 17 13 14 16 12 18 10 21
REMARK Flexibility Score: inf
ROOT
ATOM      1  C   UNL     1      30.158   1.021   7.487  1.00  0.00     0.255 C 
ATOM      2  C   UNL     1      30.086   0.603   8.957  1.00  0.00     0.196 C 
ATOM      3  C   UNL     1      30.241   1.928   9.665  1.00  0.00     0.179 C 
ATOM      4  C   UNL     1      31.092   2.734   8.682  1.00  0.00     0.178 C 
ATOM      5  O   UNL     1      30.931   2.200   7.383  1.00  0.00    -0.347 OA
ENDROOT
BRANCH   1   6
ATOM      6  N   UNL     1      30.693  -0.058   6.627  1.00  0.00    -0.271 N 
ATOM      7  C   UNL     1      32.551  -1.173   5.595  1.00  0.00     0.090 A 
ATOM      8  C   UNL     1      32.038  -0.147   6.384  1.00  0.00     0.099 A 
ATOM      9  C   UNL     1      31.672  -2.112   5.068  1.00  0.00     0.253 A 
ATOM     10  N   UNL     1      30.343  -2.017   5.334  1.00  0.00    -0.274 N 
ATOM     11  O   UNL     1      32.108  -3.051   4.350  1.00  0.00    -0.269 OA
ATOM     12  C   UNL     1      29.850  -1.010   6.108  1.00  0.00     0.330 A 
ATOM     13  H   UNL     1      29.689  -2.732   4.941  1.00  0.00     0.175 HD
ATOM     14  O   UNL     1      28.611  -0.968   6.345  1.00  0.00    -0.248 OA
ENDBRANCH   1   6
BRANCH   2  15
ATOM     15  O   UNL     1      31.101  -0.313   9.307  1.00  0.00    -0.386 OA
ATOM     16  H   UNL     1      31.778  -0.323   8.582  1.00  0.00     0.211 HD
ENDBRANCH   2  15
BRANCH   3  17
ATOM     17  O   UNL     1      30.886   1.798  10.907  1.00  0.00    -0.387 OA
ATOM     18  H   UNL     1      31.238   0.871  10.942  1.00  0.00     0.211 HD
ENDBRANCH   3  17
BRANCH   4  19
ATOM     19  C   UNL     1      30.728   4.224   8.674  1.00  0.00     0.191 C 
BRANCH  19  20
ATOM     20  O   UNL     1      30.165   4.604   9.902  1.00  0.00    -0.394 OA
ATOM     21  H   UNL     1      29.974   3.768  10.402  1.00  0.00     0.210 HD
ENDBRANCH  19  20
ENDBRANCH   4  19
TORSDOF 5
ENDMDL
MODEL 6
REMARK VINA RESULT:    -5.171      2.701      4.250
REMARK INTER + INTRA:          -6.144
REMARK INTER:                  -5.900
REMARK INTRA:                  -0.244
REMARK UNBOUND:                 0.085
REMARK SMILES O=c1ccn([C@@H]2O[C@@H](CO)[C@H](O)[C@@H]2O)c(=O)[nH]1
REMARK SMILES IDX 6 1 13 2 11 3 8 4 7 5 5 6 3 7 4 8 2 9 17 10 1 11 15 12 16 14
REMARK SMILES IDX 14 15 12 17 9 19 10 20
REMARK H PARENT 17 13 14 16 12 18 10 21
REMARK Flexibility Score: inf
ROOT
ATOM      1  C   UNL     1      30.848   8.295   4.522  1.00  0.00     0.255 C 
ATOM      2  C   UNL     1      31.894   7.659   3.605  1.00  0.00     0.196 C 
ATOM      3  C   UNL     1      32.403   6.521   4.457  1.00  0.00     0.179 C 
ATOM      4  C   UNL     1      32.211   7.056   5.878  1.00  0.00     0.178 C 
ATOM      5  O   UNL     1      31.206   8.050   5.867  1.00  0.00    -0.347 OA
ENDROOT
BRANCH   1   6
ATOM      6  N   UNL     1      30.683   9.742   4.258  1.00  0.00    -0.271 N 
ATOM      7  C   UNL     1      31.170  12.029   4.799  1.00  0.00     0.090 A 
ATOM      8  C   UNL     1      31.302  10.667   5.056  1.00  0.00     0.099 A 
ATOM      9  C   UNL     1      30.407  12.431   3.709  1.00  0.00     0.253 A 
ATOM     10  N   UNL     1      29.813  11.499   2.919  1.00  0.00    -0.274 N 
ATOM     11  O   UNL     1      30.270  13.657   3.454  1.00  0.00    -0.269 OA
ATOM     12  C   UNL     1      29.949  10.168   3.177  1.00  0.00     0.330 A 
ATOM     13  H   UNL     1      29.247  11.809   2.097  1.00  0.00     0.175 HD
ATOM     14  O   UNL     1      29.396   9.334   2.409  1.00  0.00    -0.248 OA
ENDBRANCH   1   6
BRANCH   2  15
ATOM     15  O   UNL     1      32.919   8.561   3.249  1.00  0.00    -0.386 OA
ATOM     16  H   UNL     1      33.724   8.350   3.791  1.00  0.00     0.211 HD
ENDBRANCH   2  15
BRANCH   3  17
ATOM     17  O   UNL     1      33.753   6.226   4.205  1.00  0.00    -0.387 OA
ATOM     18  H   UNL     1      33.758   5.459   3.574  1.00  0.00     0.211 HD
ENDBRANCH   3  17
BRANCH   4  19
ATOM     19  C   UNL     1      31.833   5.954   6.875  1.00  0.00     0.191 C 
BRANCH  19  20
ATOM     20  O   UNL     1      32.883   5.036   7.023  1.00  0.00    -0.394 OA
ATOM     21  H   UNL     1      33.724   5.563   7.049  1.00  0.00     0.210 HD
ENDBRANCH  19  20
ENDBRANCH   4  19
TORSDOF 5
ENDMDL
MODEL 7
REMARK VINA RESULT:    -5.160      2.229      5.583
REMARK INTER + INTRA:          -6.131
REMARK INTER:                  -5.863
REMARK INTRA:                  -0.268
REMARK UNBOUND:                 0.085
REMARK SMILES O=c1ccn([C@@H]2O[C@@H](CO)[C@H](O)[C@@H]2O)c(=O)[nH]1
REMARK SMILES IDX 6 1 13 2 11 3 8 4 7 5 5 6 3 7 4 8 2 9 17 10 1 11 15 12 16 14
REMARK SMILES IDX 14 15 12 17 9 19 10 20
REMARK H PARENT 17 13 14 16 12 18 10 21
REMARK Flexibility Score: inf
ROOT
ATOM      1  C   UNL     1      31.429  10.558   4.913  1.00  0.00     0.255 C 
ATOM      2  C   UNL     1      29.978  10.741   4.464  1.00  0.00     0.196 C 
ATOM      3  C   UNL     1      30.069  11.990   3.620  1.00  0.00     0.179 C 
ATOM      4  C   UNL     1      31.235  12.743   4.263  1.00  0.00     0.178 C 
ATOM      5  O   UNL     1      32.062  11.822   4.946  1.00  0.00    -0.347 OA
ENDROOT
BRANCH   1   6
ATOM      6  N   UNL     1      31.524   9.868   6.219  1.00  0.00    -0.271 N 
ATOM      7  C   UNL     1      31.697   9.947   8.612  1.00  0.00     0.090 A 
ATOM      8  C   UNL     1      31.631  10.589   7.378  1.00  0.00     0.099 A 
ATOM      9  C   UNL     1      31.642   8.559   8.645  1.00  0.00     0.253 A 
ATOM     10  N   UNL     1      31.520   7.860   7.485  1.00  0.00    -0.274 N 
ATOM     11  O   UNL     1      31.701   7.952   9.746  1.00  0.00    -0.269 OA
ATOM     12  C   UNL     1      31.454   8.497   6.283  1.00  0.00     0.330 A 
ATOM     13  H   UNL     1      31.472   6.817   7.519  1.00  0.00     0.175 HD
ATOM     14  O   UNL     1      31.324   7.812   5.232  1.00  0.00    -0.248 OA
ENDBRANCH   1   6
BRANCH   2  15
ATOM     15  O   UNL     1      29.092  10.893   5.552  1.00  0.00    -0.386 OA
ATOM     16  H   UNL     1      28.790   9.992   5.839  1.00  0.00     0.211 HD
ENDBRANCH   2  15
BRANCH   3  17
ATOM     17  O   UNL     1      28.888  12.751   3.663  1.00  0.00    -0.387 OA
ATOM     18  H   UNL     1      28.594  12.755   4.610  1.00  0.00     0.211 HD
ENDBRANCH   3  17
BRANCH   4  19
ATOM     19  C   UNL     1      32.070  13.520   3.237  1.00  0.00     0.191 C 
BRANCH  19  20
ATOM     20  O   UNL     1      31.289  14.492   2.595  1.00  0.00    -0.394 OA
ATOM     21  H   UNL     1      30.879  14.055   1.803  1.00  0.00     0.210 HD
ENDBRANCH  19  20
ENDBRANCH   4  19
TORSDOF 5
ENDMDL
MODEL 8
REMARK VINA RESULT:    -5.084      2.059      2.778
REMARK INTER + INTRA:          -6.039
REMARK INTER:                  -5.769
REMARK INTRA:                  -0.270
REMARK UNBOUND:                 0.085
REMARK SMILES O=c1ccn([C@@H]2O[C@@H](CO)[C@H](O)[C@@H]2O)c(=O)[nH]1
REMARK SMILES IDX 6 1 13 2 11 3 8 4 7 5 5 6 3 7 4 8 2 9 17 10 1 11 15 12 16 14
REMARK SMILES IDX 14 15 12 17 9 19 10 20
REMARK H PARENT 17 13 14 16 12 18 10 21
REMARK Flexibility Score: inf
ROOT
ATOM      1  C   UNL     1      31.864   9.726   7.266  1.00  0.00     0.255 C 
ATOM      2  C   UNL     1      31.367   9.126   8.583  1.00  0.00     0.196 C 
ATOM      3  C   UNL     1      32.563   9.322   9.484  1.00  0.00     0.179 C 
ATOM      4  C   UNL     1      33.734   9.268   8.501  1.00  0.00     0.178 C 
ATOM      5  O   UNL     1      33.271   9.606   7.209  1.00  0.00    -0.347 OA
ENDROOT
BRANCH   1   6
ATOM      6  N   UNL     1      31.217   9.101   6.091  1.00  0.00    -0.271 N 
ATOM      7  C   UNL     1      31.201   7.444   4.355  1.00  0.00     0.090 A 
ATOM      8  C   UNL     1      31.815   8.051   5.447  1.00  0.00     0.099 A 
ATOM      9  C   UNL     1      29.963   7.916   3.939  1.00  0.00     0.253 A 
ATOM     10  N   UNL     1      29.376   8.948   4.600  1.00  0.00    -0.274 N 
ATOM     11  O   UNL     1      29.384   7.386   2.953  1.00  0.00    -0.269 OA
ATOM     12  C   UNL     1      29.984   9.536   5.668  1.00  0.00     0.330 A 
ATOM     13  H   UNL     1      28.441   9.293   4.285  1.00  0.00     0.175 HD
ATOM     14  O   UNL     1      29.398  10.480   6.265  1.00  0.00    -0.248 OA
ENDBRANCH   1   6
BRANCH   2  15
ATOM     15  O   UNL     1      31.010   7.766   8.455  1.00  0.00    -0.386 OA
ATOM     16  H   UNL     1      30.119   7.636   8.872  1.00  0.00     0.211 HD
ENDBRANCH   2  15
BRANCH   3  17
ATOM     17  O   UNL     1      32.669   8.314  10.457  1.00  0.00    -0.387 OA
ATOM     18  H   UNL     1      32.804   7.463   9.964  1.00  0.00     0.211 HD
ENDBRANCH   3  17
BRANCH   4  19
ATOM     19  C   UNL     1      34.879  10.208   8.900  1.00  0.00     0.191 C 
BRANCH  19  20
ATOM     20  O   UNL     1      34.587  10.864  10.105  1.00  0.00    -0.394 OA
ATOM     21  H   UNL     1      34.022  11.647   9.876  1.00  0.00     0.210 HD
ENDBRANCH  19  20
ENDBRANCH   4  19
TORSDOF 5
ENDMDL
MODEL 9
REMARK VINA RESULT:    -5.074      7.805      8.785
REMARK INTER + INTRA:          -6.027
REMARK INTER:                  -5.928
REMARK INTRA:                  -0.099
REMARK UNBOUND:                 0.085
REMARK SMILES O=c1ccn([C@@H]2O[C@@H](CO)[C@H](O)[C@@H]2O)c(=O)[nH]1
REMARK SMILES IDX 6 1 13 2 11 3 8 4 7 5 5 6 3 7 4 8 2 9 17 10 1 11 15 12 16 14
REMARK SMILES IDX 14 15 12 17 9 19 10 20
REMARK H PARENT 17 13 14 16 12 18 10 21
REMARK Flexibility Score: inf
ROOT
ATOM      1  C   UNL     1      29.407   1.408   7.665  1.00  0.00     0.255 C 
ATOM      2  C   UNL     1      29.495   2.920   7.877  1.00  0.00     0.196 C 
ATOM      3  C   UNL     1      30.441   3.016   9.050  1.00  0.00     0.179 C 
ATOM      4  C   UNL     1      30.178   1.707   9.798  1.00  0.00     0.178 C 
ATOM      5  O   UNL     1      29.644   0.758   8.898  1.00  0.00    -0.347 OA
ENDROOT
BRANCH   1   6
ATOM      6  N   UNL     1      28.111   1.003   7.077  1.00  0.00    -0.271 N 
ATOM      7  C   UNL     1      25.852   0.234   7.337  1.00  0.00     0.090 A 
ATOM      8  C   UNL     1      27.081   0.594   7.882  1.00  0.00     0.099 A 
ATOM      9  C   UNL     1      25.686   0.309   5.959  1.00  0.00     0.253 A 
ATOM     10  N   UNL     1      26.714   0.732   5.177  1.00  0.00    -0.274 N 
ATOM     11  O   UNL     1      24.585  -0.012   5.439  1.00  0.00    -0.269 OA
ATOM     12  C   UNL     1      27.912   1.084   5.720  1.00  0.00     0.330 A 
ATOM     13  H   UNL     1      26.578   0.793   4.142  1.00  0.00     0.175 HD
ATOM     14  O   UNL     1      28.835   1.488   4.960  1.00  0.00    -0.248 OA
ENDBRANCH   1   6
BRANCH   2  15
ATOM     15  O   UNL     1      28.238   3.500   8.154  1.00  0.00    -0.386 OA
ATOM     16  H   UNL     1      27.717   2.865   8.712  1.00  0.00     0.211 HD
ENDBRANCH   2  15
BRANCH   3  17
ATOM     17  O   UNL     1      30.173   4.129   9.864  1.00  0.00    -0.387 OA
ATOM     18  H   UNL     1      29.199   4.303   9.786  1.00  0.00     0.211 HD
ENDBRANCH   3  17
BRANCH   4  19
ATOM     19  C   UNL     1      31.443   1.140  10.453  1.00  0.00     0.191 C 
BRANCH  19  20
ATOM     20  O   UNL     1      31.331   1.160  11.851  1.00  0.00    -0.394 OA
ATOM     21  H   UNL     1      32.050   0.575  12.206  1.00  0.00     0.210 HD
ENDBRANCH  19  20
ENDBRANCH   4  19
TORSDOF 5
ENDMDL
