MODEL 1
REMARK VINA RESULT:    -5.379      0.000      0.000
REMARK INTER + INTRA:          -6.506
REMARK INTER:                  -6.480
REMARK INTRA:                  -0.027
REMARK UNBOUND:                -0.027
REMARK SMILES Oc1cc(O)c2c(c1)O[C@H](c1ccc(O)c(O)c1)[C@H](O)C2
REMARK SMILES IDX 21 1 19 2 10 3 9 4 7 5 8 6 2 7 3 8 4 9 6 10 20 11 11 13
REMARK SMILES IDX 18 14 12 15 16 16 13 17 14 18 17 19 15 21 5 23 1 25
REMARK H PARENT 20 12 17 20 15 22 5 24 1 26
REMARK Flexibility Score: inf
ROOT
ATOM      1  C   UNL     1      13.859  -5.346   8.440  1.00  0.00     0.079 C 
ATOM      2  C   UNL     1      13.590  -6.280   7.252  1.00  0.00     0.164 C 
ATOM      3  C   UNL     1      14.822  -7.164   6.946  1.00  0.00     0.232 C 
ATOM      4  O   UNL     1      15.268  -7.835   8.130  1.00  0.00    -0.482 OA
ATOM      5  C   UNL     1      15.111  -7.308   9.419  1.00  0.00     0.131 A 
ATOM      6  C   UNL     1      15.653  -7.998  10.508  1.00  0.00     0.093 A 
ATOM      7  C   UNL     1      15.522  -7.486  11.804  1.00  0.00     0.122 A 
ATOM      8  C   UNL     1      14.849  -6.280  12.010  1.00  0.00     0.092 A 
ATOM      9  C   UNL     1      14.299  -5.579  10.927  1.00  0.00     0.126 A 
ATOM     10  C   UNL     1      14.410  -6.102   9.625  1.00  0.00     0.039 A 
ENDROOT
BRANCH   2  11
ATOM     11  O   UNL     1      13.224  -5.517   6.132  1.00  0.00    -0.389 OA
ATOM     12  H   UNL     1      14.044  -5.049   5.824  1.00  0.00     0.211 HD
ENDBRANCH   2  11
BRANCH   3  13
ATOM     13  C   UNL     1      15.956  -6.388   6.296  1.00  0.00    -0.001 A 
ATOM     14  C   UNL     1      17.134  -6.148   7.024  1.00  0.00     0.057 A 
ATOM     15  C   UNL     1      15.878  -5.936   4.966  1.00  0.00     0.012 A 
ATOM     16  C   UNL     1      18.207  -5.460   6.447  1.00  0.00     0.157 A 
ATOM     17  C   UNL     1      16.947  -5.249   4.386  1.00  0.00     0.050 A 
ATOM     18  C   UNL     1      18.114  -5.006   5.121  1.00  0.00     0.157 A 
BRANCH  16  19
ATOM     19  O   UNL     1      19.357  -5.238   7.205  1.00  0.00    -0.504 OA
ATOM     20  H   UNL     1      20.176  -4.782   6.821  1.00  0.00     0.293 HD
ENDBRANCH  16  19
BRANCH  18  21
ATOM     21  O   UNL     1      19.179  -4.321   4.539  1.00  0.00    -0.504 OA
ATOM     22  H   UNL     1      19.276  -4.246   3.533  1.00  0.00     0.293 HD
ENDBRANCH  18  21
ENDBRANCH   3  13
BRANCH   9  23
ATOM     23  O   UNL     1      13.644  -4.366  11.142  1.00  0.00    -0.507 OA
ATOM     24  H   UNL     1      13.384  -3.759  10.374  1.00  0.00     0.293 HD
ENDBRANCH   9  23
BRANCH   7  25
ATOM     25  O   UNL     1      16.061  -8.168  12.894  1.00  0.00    -0.508 OA
ATOM     26  H   UNL     1      17.022  -8.028  13.183  1.00  0.00     0.293 HD
ENDBRANCH   7  25
TORSDOF 6
ENDMDL
MODEL 2
REMARK VINA RESULT:    -5.054      1.567      1.972
REMARK INTER + INTRA:          -6.115
REMARK INTER:                  -6.153
REMARK INTRA:                   0.039
REMARK UNBOUND:                -0.027
REMARK SMILES Oc1cc(O)c2c(c1)O[C@H](c1ccc(O)c(O)c1)[C@H](O)C2
REMARK SMILES IDX 21 1 19 2 10 3 9 4 7 5 8 6 2 7 3 8 4 9 6 10 20 11 11 13
REMARK SMILES IDX 18 14 12 15 16 16 13 17 14 18 17 19 15 21 5 23 1 25
REMARK H PARENT 20 12 17 20 15 22 5 24 1 26
REMARK Flexibility Score: inf
ROOT
ATOM      1  C   UNL     1      13.875  -5.104  10.704  1.00  0.00     0.079 C 
ATOM      2  C   UNL     1      13.024  -5.657   9.552  1.00  0.00     0.164 C 
ATOM      3  C   UNL     1      13.770  -6.781   8.795  1.00  0.00     0.232 C 
ATOM      4  O   UNL     1      14.241  -7.779   9.709  1.00  0.00    -0.482 OA
ATOM      5  C   UNL     1      14.592  -7.502  11.037  1.00  0.00     0.131 A 
ATOM      6  C   UNL     1      15.121  -8.527  11.830  1.00  0.00     0.093 A 
ATOM      7  C   UNL     1      15.493  -8.273  13.154  1.00  0.00     0.122 A 
ATOM      8  C   UNL     1      15.339  -6.991  13.687  1.00  0.00     0.092 A 
ATOM      9  C   UNL     1      14.809  -5.955  12.903  1.00  0.00     0.126 A 
ATOM     10  C   UNL     1      14.413  -6.213  11.577  1.00  0.00     0.039 A 
ENDROOT
BRANCH   2  11
ATOM     11  O   UNL     1      12.673  -4.610   8.686  1.00  0.00    -0.389 OA
ATOM     12  H   UNL     1      12.402  -3.844   9.259  1.00  0.00     0.211 HD
ENDBRANCH   2  11
BRANCH   3  13
ATOM     13  C   UNL     1      14.902  -6.255   7.929  1.00  0.00    -0.001 A 
ATOM     14  C   UNL     1      16.219  -6.678   8.181  1.00  0.00     0.057 A 
ATOM     15  C   UNL     1      14.666  -5.384   6.849  1.00  0.00     0.012 A 
ATOM     16  C   UNL     1      17.281  -6.234   7.385  1.00  0.00     0.157 A 
ATOM     17  C   UNL     1      15.723  -4.938   6.053  1.00  0.00     0.050 A 
ATOM     18  C   UNL     1      17.033  -5.358   6.315  1.00  0.00     0.157 A 
BRANCH  16  19
ATOM     19  O   UNL     1      18.573  -6.675   7.671  1.00  0.00    -0.504 OA
ATOM     20  H   UNL     1      19.301  -6.042   7.980  1.00  0.00     0.293 HD
ENDBRANCH  16  19
BRANCH  18  21
ATOM     21  O   UNL     1      18.086  -4.912   5.518  1.00  0.00    -0.504 OA
ATOM     22  H   UNL     1      18.224  -3.927   5.324  1.00  0.00     0.293 HD
ENDBRANCH  18  21
ENDBRANCH   3  13
BRANCH   9  23
ATOM     23  O   UNL     1      14.676  -4.674  13.439  1.00  0.00    -0.507 OA
ATOM     24  H   UNL     1      15.473  -4.167  13.807  1.00  0.00     0.293 HD
ENDBRANCH   9  23
BRANCH   7  25
ATOM     25  O   UNL     1      16.021  -9.289  13.949  1.00  0.00    -0.508 OA
ATOM     26  H   UNL     1      16.839  -9.813  13.664  1.00  0.00     0.293 HD
ENDBRANCH   7  25
TORSDOF 6
ENDMDL
MODEL 3
REMARK VINA RESULT:    -5.037      3.075      7.430
REMARK INTER + INTRA:          -6.094
REMARK INTER:                  -6.066
REMARK INTRA:                  -0.028
REMARK UNBOUND:                -0.027
REMARK SMILES Oc1cc(O)c2c(c1)O[C@H](c1ccc(O)c(O)c1)[C@H](O)C2
REMARK SMILES IDX 21 1 19 2 10 3 9 4 7 5 8 6 2 7 3 8 4 9 6 10 20 11 11 13
REMARK SMILES IDX 18 14 12 15 16 16 13 17 14 18 17 19 15 21 5 23 1 25
REMARK H PARENT 20 12 17 20 15 22 5 24 1 26
REMARK Flexibility Score: inf
ROOT
ATOM      1  C   UNL     1      15.629  -7.159  12.136  1.00  0.00     0.079 C 
ATOM      2  C   UNL     1      14.620  -7.357  13.276  1.00  0.00     0.164 C 
ATOM      3  C   UNL     1      13.766  -6.085  13.493  1.00  0.00     0.232 C 
ATOM      4  O   UNL     1      13.181  -5.652  12.260  1.00  0.00    -0.482 OA
ATOM      5  C   UNL     1      13.775  -5.869  11.009  1.00  0.00     0.131 A 
ATOM      6  C   UNL     1      13.169  -5.336   9.866  1.00  0.00     0.093 A 
ATOM      7  C   UNL     1      13.750  -5.525   8.607  1.00  0.00     0.122 A 
ATOM      8  C   UNL     1      14.940  -6.247   8.491  1.00  0.00     0.092 A 
ATOM      9  C   UNL     1      15.556  -6.788   9.629  1.00  0.00     0.126 A 
ATOM     10  C   UNL     1      14.964  -6.618  10.894  1.00  0.00     0.039 A 
ENDROOT
BRANCH   2  11
ATOM     11  O   UNL     1      15.302  -7.716  14.449  1.00  0.00    -0.389 OA
ATOM     12  H   UNL     1      16.273  -7.639  14.249  1.00  0.00     0.211 HD
ENDBRANCH   2  11
BRANCH   3  13
ATOM     13  C   UNL     1      14.545  -4.960  14.155  1.00  0.00    -0.001 A 
ATOM     14  C   UNL     1      14.159  -4.510  15.429  1.00  0.00     0.057 A 
ATOM     15  C   UNL     1      15.672  -4.380  13.543  1.00  0.00     0.012 A 
ATOM     16  C   UNL     1      14.871  -3.494  16.077  1.00  0.00     0.157 A 
ATOM     17  C   UNL     1      16.385  -3.366  14.187  1.00  0.00     0.050 A 
ATOM     18  C   UNL     1      15.989  -2.917  15.454  1.00  0.00     0.157 A 
BRANCH  16  19
ATOM     19  O   UNL     1      14.453  -3.073  17.340  1.00  0.00    -0.504 OA
ATOM     20  H   UNL     1      13.626  -2.502  17.470  1.00  0.00     0.293 HD
ENDBRANCH  16  19
BRANCH  18  21
ATOM     21  O   UNL     1      16.703  -1.905  16.093  1.00  0.00    -0.504 OA
ATOM     22  H   UNL     1      17.131  -1.148  15.574  1.00  0.00     0.293 HD
ENDBRANCH  18  21
ENDBRANCH   3  13
BRANCH   9  23
ATOM     23  O   UNL     1      16.754  -7.491   9.504  1.00  0.00    -0.507 OA
ATOM     24  H   UNL     1      16.785  -8.503   9.558  1.00  0.00     0.293 HD
ENDBRANCH   9  23
BRANCH   7  25
ATOM     25  O   UNL     1      13.153  -4.996   7.464  1.00  0.00    -0.508 OA
ATOM     26  H   UNL     1      12.182  -5.180   7.240  1.00  0.00     0.293 HD
ENDBRANCH   7  25
TORSDOF 6
ENDMDL
MODEL 4
REMARK VINA RESULT:    -5.020      4.639      7.865
REMARK INTER + INTRA:          -6.074
REMARK INTER:                  -5.986
REMARK INTRA:                  -0.088
REMARK UNBOUND:                -0.027
REMARK SMILES Oc1cc(O)c2c(c1)O[C@H](c1ccc(O)c(O)c1)[C@H](O)C2
REMARK SMILES IDX 21 1 19 2 10 3 9 4 7 5 8 6 2 7 3 8 4 9 6 10 20 11 11 13
REMARK SMILES IDX 18 14 12 15 16 16 13 17 14 18 17 19 15 21 5 23 1 25
REMARK H PARENT 20 12 17 20 15 22 5 24 1 26
REMARK Flexibility Score: inf
ROOT
ATOM      1  C   UNL     1      13.652 -10.213   9.498  1.00  0.00     0.079 C 
ATOM      2  C   UNL     1      12.416 -10.795  10.198  1.00  0.00     0.164 C 
ATOM      3  C   UNL     1      12.718 -11.132  11.677  1.00  0.00     0.232 C 
ATOM      4  O   UNL     1      13.293 -10.003  12.344  1.00  0.00    -0.482 OA
ATOM      5  C   UNL     1      14.073  -9.038  11.693  1.00  0.00     0.131 A 
ATOM      6  C   UNL     1      14.662  -8.016  12.444  1.00  0.00     0.093 A 
ATOM      7  C   UNL     1      15.458  -7.049  11.819  1.00  0.00     0.122 A 
ATOM      8  C   UNL     1      15.666  -7.107  10.439  1.00  0.00     0.092 A 
ATOM      9  C   UNL     1      15.080  -8.125   9.674  1.00  0.00     0.126 A 
ATOM     10  C   UNL     1      14.262  -9.087  10.296  1.00  0.00     0.039 A 
ENDROOT
BRANCH   2  11
ATOM     11  O   UNL     1      11.974 -11.930   9.499  1.00  0.00    -0.389 OA
ATOM     12  H   UNL     1      11.215 -12.306  10.018  1.00  0.00     0.211 HD
ENDBRANCH   2  11
BRANCH   3  13
ATOM     13  C   UNL     1      13.592 -12.364  11.832  1.00  0.00    -0.001 A 
ATOM     14  C   UNL     1      12.990 -13.614  12.060  1.00  0.00     0.057 A 
ATOM     15  C   UNL     1      14.993 -12.299  11.714  1.00  0.00     0.012 A 
ATOM     16  C   UNL     1      13.765 -14.773  12.181  1.00  0.00     0.157 A 
ATOM     17  C   UNL     1      15.770 -13.453  11.835  1.00  0.00     0.050 A 
ATOM     18  C   UNL     1      15.163 -14.694  12.070  1.00  0.00     0.157 A 
BRANCH  16  19
ATOM     19  O   UNL     1      13.129 -15.993  12.411  1.00  0.00    -0.504 OA
ATOM     20  H   UNL     1      12.941 -16.334  13.346  1.00  0.00     0.293 HD
ENDBRANCH  16  19
BRANCH  18  21
ATOM     21  O   UNL     1      15.941 -15.844  12.189  1.00  0.00    -0.504 OA
ATOM     22  H   UNL     1      15.641 -16.632  12.750  1.00  0.00     0.293 HD
ENDBRANCH  18  21
ENDBRANCH   3  13
BRANCH   9  23
ATOM     23  O   UNL     1      15.310  -8.183   8.299  1.00  0.00    -0.507 OA
ATOM     24  H   UNL     1      14.653  -7.795   7.633  1.00  0.00     0.293 HD
ENDBRANCH   9  23
BRANCH   7  25
ATOM     25  O   UNL     1      16.049  -6.029  12.562  1.00  0.00    -0.508 OA
ATOM     26  H   UNL     1      17.026  -6.063  12.825  1.00  0.00     0.293 HD
ENDBRANCH   7  25
TORSDOF 6
ENDMDL
MODEL 5
REMARK VINA RESULT:    -4.869     13.497     16.203
REMARK INTER + INTRA:          -5.892
REMARK INTER:                  -5.837
REMARK INTRA:                  -0.055
REMARK UNBOUND:                -0.027
REMARK SMILES Oc1cc(O)c2c(c1)O[C@H](c1ccc(O)c(O)c1)[C@H](O)C2
REMARK SMILES IDX 21 1 19 2 10 3 9 4 7 5 8 6 2 7 3 8 4 9 6 10 20 11 11 13
REMARK SMILES IDX 18 14 12 15 16 16 13 17 14 18 17 19 15 21 5 23 1 25
REMARK H PARENT 20 12 17 20 15 22 5 24 1 26
REMARK Flexibility Score: inf
ROOT
ATOM      1  C   UNL     1      13.967 -17.974  18.934  1.00  0.00     0.079 C 
ATOM      2  C   UNL     1      15.244 -18.269  19.732  1.00  0.00     0.164 C 
ATOM      3  C   UNL     1      15.440 -17.243  20.873  1.00  0.00     0.232 C 
ATOM      4  O   UNL     1      14.257 -17.146  21.674  1.00  0.00    -0.482 OA
ATOM      5  C   UNL     1      12.968 -17.369  21.172  1.00  0.00     0.131 A 
ATOM      6  C   UNL     1      11.866 -17.169  22.011  1.00  0.00     0.093 A 
ATOM      7  C   UNL     1      10.567 -17.371  21.531  1.00  0.00     0.122 A 
ATOM      8  C   UNL     1      10.370 -17.771  20.207  1.00  0.00     0.092 A 
ATOM      9  C   UNL     1      11.466 -17.976  19.356  1.00  0.00     0.126 A 
ATOM     10  C   UNL     1      12.774 -17.795  19.843  1.00  0.00     0.039 A 
ENDROOT
BRANCH   2  11
ATOM     11  O   UNL     1      16.347 -18.279  18.864  1.00  0.00    -0.389 OA
ATOM     12  H   UNL     1      16.276 -19.108  18.322  1.00  0.00     0.211 HD
ENDBRANCH   2  11
BRANCH   3  13
ATOM     13  C   UNL     1      15.873 -15.877  20.367  1.00  0.00    -0.001 A 
ATOM     14  C   UNL     1      17.221 -15.658  20.035  1.00  0.00     0.057 A 
ATOM     15  C   UNL     1      14.951 -14.830  20.180  1.00  0.00     0.012 A 
ATOM     16  C   UNL     1      17.647 -14.420  19.541  1.00  0.00     0.157 A 
ATOM     17  C   UNL     1      15.372 -13.593  19.687  1.00  0.00     0.050 A 
ATOM     18  C   UNL     1      16.719 -13.380  19.367  1.00  0.00     0.157 A 
BRANCH  16  19
ATOM     19  O   UNL     1      18.995 -14.243  19.228  1.00  0.00    -0.504 OA
ATOM     20  H   UNL     1      19.735 -14.669  19.774  1.00  0.00     0.293 HD
ENDBRANCH  16  19
BRANCH  18  21
ATOM     21  O   UNL     1      17.137 -12.145  18.875  1.00  0.00    -0.504 OA
ATOM     22  H   UNL     1      16.933 -11.855  17.926  1.00  0.00     0.293 HD
ENDBRANCH  18  21
ENDBRANCH   3  13
BRANCH   9  23
ATOM     23  O   UNL     1      11.257 -18.358  18.030  1.00  0.00    -0.507 OA
ATOM     24  H   UNL     1      10.386 -18.781  17.730  1.00  0.00     0.293 HD
ENDBRANCH   9  23
BRANCH   7  25
ATOM     25  O   UNL     1       9.465 -17.173  22.360  1.00  0.00    -0.508 OA
ATOM     26  H   UNL     1       8.556 -17.555  22.132  1.00  0.00     0.293 HD
ENDBRANCH   7  25
TORSDOF 6
ENDMDL
MODEL 6
REMARK VINA RESULT:    -4.848     15.753     17.484
REMARK INTER + INTRA:          -5.867
REMARK INTER:                  -5.863
REMARK INTRA:                  -0.004
REMARK UNBOUND:                -0.027
REMARK SMILES Oc1cc(O)c2c(c1)O[C@H](c1ccc(O)c(O)c1)[C@H](O)C2
REMARK SMILES IDX 21 1 19 2 10 3 9 4 7 5 8 6 2 7 3 8 4 9 6 10 20 11 11 13
REMARK SMILES IDX 18 14 12 15 16 16 13 17 14 18 17 19 15 21 5 23 1 25
REMARK H PARENT 20 12 17 20 15 22 5 24 1 26
REMARK Flexibility Score: inf
ROOT
ATOM      1  C   UNL     1      11.194 -17.771  21.409  1.00  0.00     0.079 C 
ATOM      2  C   UNL     1      11.651 -16.324  21.642  1.00  0.00     0.164 C 
ATOM      3  C   UNL     1      12.738 -15.910  20.623  1.00  0.00     0.232 C 
ATOM      4  O   UNL     1      12.306 -16.180  19.285  1.00  0.00    -0.482 OA
ATOM      5  C   UNL     1      11.424 -17.218  18.955  1.00  0.00     0.131 A 
ATOM      6  C   UNL     1      11.124 -17.457  17.610  1.00  0.00     0.093 A 
ATOM      7  C   UNL     1      10.258 -18.497  17.254  1.00  0.00     0.122 A 
ATOM      8  C   UNL     1       9.692 -19.301  18.246  1.00  0.00     0.092 A 
ATOM      9  C   UNL     1       9.983 -19.071  19.599  1.00  0.00     0.126 A 
ATOM     10  C   UNL     1      10.837 -18.012  19.962  1.00  0.00     0.039 A 
ENDROOT
BRANCH   2  11
ATOM     11  O   UNL     1      12.112 -16.186  22.960  1.00  0.00    -0.389 OA
ATOM     12  H   UNL     1      12.288 -15.218  23.101  1.00  0.00     0.211 HD
ENDBRANCH   2  11
BRANCH   3  13
ATOM     13  C   UNL     1      14.084 -16.557  20.904  1.00  0.00    -0.001 A 
ATOM     14  C   UNL     1      14.613 -17.480  19.985  1.00  0.00     0.057 A 
ATOM     15  C   UNL     1      14.841 -16.228  22.044  1.00  0.00     0.012 A 
ATOM     16  C   UNL     1      15.862 -18.073  20.200  1.00  0.00     0.157 A 
ATOM     17  C   UNL     1      16.087 -16.819  22.263  1.00  0.00     0.050 A 
ATOM     18  C   UNL     1      16.604 -17.743  21.346  1.00  0.00     0.157 A 
BRANCH  16  19
ATOM     19  O   UNL     1      16.348 -18.987  19.265  1.00  0.00    -0.504 OA
ATOM     20  H   UNL     1      16.263 -19.988  19.396  1.00  0.00     0.293 HD
ENDBRANCH  16  19
BRANCH  18  21
ATOM     21  O   UNL     1      17.848 -18.331  21.567  1.00  0.00    -0.504 OA
ATOM     22  H   UNL     1      18.610 -17.815  21.991  1.00  0.00     0.293 HD
ENDBRANCH  18  21
ENDBRANCH   3  13
BRANCH   9  23
ATOM     23  O   UNL     1       9.427 -19.892  20.580  1.00  0.00    -0.507 OA
ATOM     24  H   UNL     1       9.898 -20.729  20.902  1.00  0.00     0.293 HD
ENDBRANCH   9  23
BRANCH   7  25
ATOM     25  O   UNL     1       9.956 -18.741  15.916  1.00  0.00    -0.508 OA
ATOM     26  H   UNL     1      10.304 -18.144  15.176  1.00  0.00     0.293 HD
ENDBRANCH   7  25
TORSDOF 6
ENDMDL
MODEL 7
REMARK VINA RESULT:    -4.716      2.285      6.506
REMARK INTER + INTRA:          -5.708
REMARK INTER:                  -5.884
REMARK INTRA:                   0.176
REMARK UNBOUND:                -0.027
REMARK SMILES Oc1cc(O)c2c(c1)O[C@H](c1ccc(O)c(O)c1)[C@H](O)C2
REMARK SMILES IDX 21 1 19 2 10 3 9 4 7 5 8 6 2 7 3 8 4 9 6 10 20 11 11 13
REMARK SMILES IDX 18 14 12 15 16 16 13 17 14 18 17 19 15 21 5 23 1 25
REMARK H PARENT 20 12 17 20 15 22 5 24 1 26
REMARK Flexibility Score: inf
ROOT
ATOM      1  C   UNL     1      16.000  -7.134  10.200  1.00  0.00     0.079 C 
ATOM      2  C   UNL     1      15.375  -7.698  11.484  1.00  0.00     0.164 C 
ATOM      3  C   UNL     1      14.250  -6.776  12.010  1.00  0.00     0.232 C 
ATOM      4  O   UNL     1      13.304  -6.492  10.973  1.00  0.00    -0.482 OA
ATOM      5  C   UNL     1      13.642  -6.447   9.613  1.00  0.00     0.131 A 
ATOM      6  C   UNL     1      12.667  -6.079   8.680  1.00  0.00     0.093 A 
ATOM      7  C   UNL     1      12.983  -6.012   7.318  1.00  0.00     0.122 A 
ATOM      8  C   UNL     1      14.279  -6.312   6.890  1.00  0.00     0.092 A 
ATOM      9  C   UNL     1      15.265  -6.684   7.815  1.00  0.00     0.126 A 
ATOM     10  C   UNL     1      14.945  -6.773   9.183  1.00  0.00     0.039 A 
ENDROOT
BRANCH   2  11
ATOM     11  O   UNL     1      16.376  -7.878  12.451  1.00  0.00    -0.389 OA
ATOM     12  H   UNL     1      15.933  -8.264  13.252  1.00  0.00     0.211 HD
ENDBRANCH   2  11
BRANCH   3  13
ATOM     13  C   UNL     1      14.781  -5.495  12.632  1.00  0.00    -0.001 A 
ATOM     14  C   UNL     1      14.175  -4.268  12.311  1.00  0.00     0.057 A 
ATOM     15  C   UNL     1      15.842  -5.505  13.556  1.00  0.00     0.012 A 
ATOM     16  C   UNL     1      14.622  -3.074  12.886  1.00  0.00     0.157 A 
ATOM     17  C   UNL     1      16.291  -4.315  14.133  1.00  0.00     0.050 A 
ATOM     18  C   UNL     1      15.687  -3.095  13.801  1.00  0.00     0.157 A 
BRANCH  16  19
ATOM     19  O   UNL     1      13.996  -1.877  12.537  1.00  0.00    -0.504 OA
ATOM     20  H   UNL     1      13.724  -1.670  11.584  1.00  0.00     0.293 HD
ENDBRANCH  16  19
BRANCH  18  21
ATOM     21  O   UNL     1      16.138  -1.910  14.379  1.00  0.00    -0.504 OA
ATOM     22  H   UNL     1      15.714  -1.534  15.219  1.00  0.00     0.293 HD
ENDBRANCH  18  21
ENDBRANCH   3  13
BRANCH   9  23
ATOM     23  O   UNL     1      16.560  -6.963   7.378  1.00  0.00    -0.507 OA
ATOM     24  H   UNL     1      16.888  -6.669   6.465  1.00  0.00     0.293 HD
ENDBRANCH   9  23
BRANCH   7  25
ATOM     25  O   UNL     1      12.018  -5.646   6.383  1.00  0.00    -0.508 OA
ATOM     26  H   UNL     1      11.029  -5.681   6.601  1.00  0.00     0.293 HD
ENDBRANCH   7  25
TORSDOF 6
ENDMDL
MODEL 8
REMARK VINA RESULT:    -4.643     15.807     17.457
REMARK INTER + INTRA:          -5.620
REMARK INTER:                  -5.542
REMARK INTRA:                  -0.078
REMARK UNBOUND:                -0.027
REMARK SMILES Oc1cc(O)c2c(c1)O[C@H](c1ccc(O)c(O)c1)[C@H](O)C2
REMARK SMILES IDX 21 1 19 2 10 3 9 4 7 5 8 6 2 7 3 8 4 9 6 10 20 11 11 13
REMARK SMILES IDX 18 14 12 15 16 16 13 17 14 18 17 19 15 21 5 23 1 25
REMARK H PARENT 20 12 17 20 15 22 5 24 1 26
REMARK Flexibility Score: inf
ROOT
ATOM      1  C   UNL     1      13.628 -15.311  21.575  1.00  0.00     0.079 C 
ATOM      2  C   UNL     1      12.494 -16.084  22.263  1.00  0.00     0.164 C 
ATOM      3  C   UNL     1      12.544 -17.587  21.903  1.00  0.00     0.232 C 
ATOM      4  O   UNL     1      13.850 -18.122  22.146  1.00  0.00    -0.482 OA
ATOM      5  C   UNL     1      15.023 -17.360  22.055  1.00  0.00     0.131 A 
ATOM      6  C   UNL     1      16.260 -17.989  22.229  1.00  0.00     0.093 A 
ATOM      7  C   UNL     1      17.446 -17.254  22.128  1.00  0.00     0.122 A 
ATOM      8  C   UNL     1      17.395 -15.886  21.850  1.00  0.00     0.092 A 
ATOM      9  C   UNL     1      16.161 -15.242  21.675  1.00  0.00     0.126 A 
ATOM     10  C   UNL     1      14.965 -15.975  21.797  1.00  0.00     0.039 A 
ENDROOT
BRANCH   2  11
ATOM     11  O   UNL     1      11.260 -15.518  21.907  1.00  0.00    -0.389 OA
ATOM     12  H   UNL     1      11.196 -15.572  20.917  1.00  0.00     0.211 HD
ENDBRANCH   2  11
BRANCH   3  13
ATOM     13  C   UNL     1      12.096 -17.866  20.478  1.00  0.00    -0.001 A 
ATOM     14  C   UNL     1      10.819 -18.407  20.249  1.00  0.00     0.057 A 
ATOM     15  C   UNL     1      12.909 -17.558  19.371  1.00  0.00     0.012 A 
ATOM     16  C   UNL     1      10.364 -18.651  18.948  1.00  0.00     0.157 A 
ATOM     17  C   UNL     1      12.459 -17.800  18.072  1.00  0.00     0.050 A 
ATOM     18  C   UNL     1      11.189 -18.348  17.852  1.00  0.00     0.157 A 
BRANCH  16  19
ATOM     19  O   UNL     1       9.092 -19.194  18.765  1.00  0.00    -0.504 OA
ATOM     20  H   UNL     1       8.922 -20.191  18.803  1.00  0.00     0.293 HD
ENDBRANCH  16  19
BRANCH  18  21
ATOM     21  O   UNL     1      10.743 -18.587  16.554  1.00  0.00    -0.504 OA
ATOM     22  H   UNL     1       9.867 -18.208  16.215  1.00  0.00     0.293 HD
ENDBRANCH  18  21
ENDBRANCH   3  13
BRANCH   9  23
ATOM     23  O   UNL     1      16.122 -13.880  21.380  1.00  0.00    -0.507 OA
ATOM     24  H   UNL     1      16.288 -13.534  20.442  1.00  0.00     0.293 HD
ENDBRANCH   9  23
BRANCH   7  25
ATOM     25  O   UNL     1      18.682 -17.875  22.300  1.00  0.00    -0.508 OA
ATOM     26  H   UNL     1      18.983 -18.214  23.205  1.00  0.00     0.293 HD
ENDBRANCH   7  25
TORSDOF 6
ENDMDL
MODEL 9
REMARK VINA RESULT:    -4.604      3.425      5.681
REMARK INTER + INTRA:          -5.573
REMARK INTER:                  -5.552
REMARK INTRA:                  -0.021
REMARK UNBOUND:                -0.027
REMARK SMILES Oc1cc(O)c2c(c1)O[C@H](c1ccc(O)c(O)c1)[C@H](O)C2
REMARK SMILES IDX 21 1 19 2 10 3 9 4 7 5 8 6 2 7 3 8 4 9 6 10 20 11 11 13
REMARK SMILES IDX 18 14 12 15 16 16 13 17 14 18 17 19 15 21 5 23 1 25
REMARK H PARENT 20 12 17 20 15 22 5 24 1 26
REMARK Flexibility Score: inf
ROOT
ATOM      1  C   UNL     1      13.115  -6.197  13.555  1.00  0.00     0.079 C 
ATOM      2  C   UNL     1      13.715  -7.542  13.990  1.00  0.00     0.164 C 
ATOM      3  C   UNL     1      15.104  -7.767  13.348  1.00  0.00     0.232 C 
ATOM      4  O   UNL     1      15.958  -6.642  13.584  1.00  0.00    -0.482 OA
ATOM      5  C   UNL     1      15.481  -5.332  13.734  1.00  0.00     0.131 A 
ATOM      6  C   UNL     1      16.398  -4.285  13.877  1.00  0.00     0.093 A 
ATOM      7  C   UNL     1      15.948  -2.967  14.013  1.00  0.00     0.122 A 
ATOM      8  C   UNL     1      14.578  -2.696  14.004  1.00  0.00     0.092 A 
ATOM      9  C   UNL     1      13.648  -3.736  13.863  1.00  0.00     0.126 A 
ATOM     10  C   UNL     1      14.097  -5.066  13.747  1.00  0.00     0.039 A 
ENDROOT
BRANCH   2  11
ATOM     11  O   UNL     1      12.828  -8.578  13.656  1.00  0.00    -0.389 OA
ATOM     12  H   UNL     1      13.213  -9.039  12.864  1.00  0.00     0.211 HD
ENDBRANCH   2  11
BRANCH   3  13
ATOM     13  C   UNL     1      15.022  -8.092  11.866  1.00  0.00    -0.001 A 
ATOM     14  C   UNL     1      15.478  -7.151  10.927  1.00  0.00     0.057 A 
ATOM     15  C   UNL     1      14.539  -9.330  11.404  1.00  0.00     0.012 A 
ATOM     16  C   UNL     1      15.442  -7.429   9.556  1.00  0.00     0.157 A 
ATOM     17  C   UNL     1      14.501  -9.611  10.037  1.00  0.00     0.050 A 
ATOM     18  C   UNL     1      14.949  -8.665   9.106  1.00  0.00     0.157 A 
BRANCH  16  19
ATOM     19  O   UNL     1      15.900  -6.466   8.657  1.00  0.00    -0.504 OA
ATOM     20  H   UNL     1      15.544  -6.399   7.711  1.00  0.00     0.293 HD
ENDBRANCH  16  19
BRANCH  18  21
ATOM     21  O   UNL     1      14.910  -8.949   7.743  1.00  0.00    -0.504 OA
ATOM     22  H   UNL     1      14.777  -9.893   7.401  1.00  0.00     0.293 HD
ENDBRANCH  18  21
ENDBRANCH   3  13
BRANCH   9  23
ATOM     23  O   UNL     1      12.283  -3.452  13.836  1.00  0.00    -0.507 OA
ATOM     24  H   UNL     1      11.859  -2.817  14.502  1.00  0.00     0.293 HD
ENDBRANCH   9  23
BRANCH   7  25
ATOM     25  O   UNL     1      16.855  -1.919  14.156  1.00  0.00    -0.508 OA
ATOM     26  H   UNL     1      16.895  -1.365  15.002  1.00  0.00     0.293 HD
ENDBRANCH   7  25
TORSDOF 6
ENDMDL
