MODEL 1
REMARK VINA RESULT:    -7.903      0.000      0.000
REMARK INTER + INTRA:          -7.903
REMARK INTER:                  -7.903
REMARK INTRA:                   0.000
REMARK UNBOUND:                 0.000
REMARK SMILES C=C1CCC[C@]2(C)CC(=O)C(=C(C)C)C[C@H]12
REMARK SMILES IDX 13 1 12 2 11 3 15 4 16 5 2 6 1 7 3 8 4 9 5 10 6 11 8 12 9 13
REMARK SMILES IDX 10 14 7 15 14 16
REMARK H PARENT
REMARK Flexibility Score: inf
ROOT
ATOM      1  C   UNL     1     -11.408 -17.375  26.125  1.00  0.00     0.039 C 
ATOM      2  C   UNL     1     -12.423 -16.459  26.769  1.00  0.00    -0.070 C 
ATOM      3  C   UNL     1     -12.217 -15.930  28.010  1.00  0.00    -0.006 C 
ATOM      4  C   UNL     1     -13.245 -15.083  28.736  1.00  0.00     0.047 C 
ATOM      5  C   UNL     1     -13.648 -15.683  30.121  1.00  0.00     0.025 C 
ATOM      6  C   UNL     1     -14.371 -14.653  31.017  1.00  0.00    -0.073 C 
ATOM      7  C   UNL     1     -15.044 -13.601  30.509  1.00  0.00     0.008 C 
ATOM      8  C   UNL     1     -14.510 -14.877  32.508  1.00  0.00     0.031 C 
ATOM      9  C   UNL     1     -13.822 -16.149  32.980  1.00  0.00     0.005 C 
ATOM     10  C   UNL     1     -12.421 -16.223  32.386  1.00  0.00     0.008 C 
ATOM     11  C   UNL     1     -12.448 -16.451  30.845  1.00  0.00    -0.018 C 
ATOM     12  C   UNL     1     -11.064 -15.996  30.292  1.00  0.00     0.088 C 
ATOM     13  C   UNL     1     -10.988 -16.159  28.804  1.00  0.00     0.159 C 
ATOM     14  O   UNL     1      -9.875 -16.402  28.264  1.00  0.00    -0.295 OA
ATOM     15  C   UNL     1     -12.596 -17.979  30.594  1.00  0.00     0.012 C 
ATOM     16  C   UNL     1     -13.694 -16.188  26.000  1.00  0.00     0.039 C 
ENDROOT
TORSDOF 0
ENDMDL
MODEL 2
REMARK VINA RESULT:    -7.357      1.904      4.469
REMARK INTER + INTRA:          -7.357
REMARK INTER:                  -7.357
REMARK INTRA:                   0.000
REMARK UNBOUND:                 0.000
REMARK SMILES C=C1CCC[C@]2(C)CC(=O)C(=C(C)C)C[C@H]12
REMARK SMILES IDX 13 1 12 2 11 3 15 4 16 5 2 6 1 7 3 8 4 9 5 10 6 11 8 12 9 13
REMARK SMILES IDX 10 14 7 15 14 16
REMARK H PARENT
REMARK Flexibility Score: inf
ROOT
ATOM      1  C   UNL     1      -9.875 -18.212  32.748  1.00  0.00     0.039 C 
ATOM      2  C   UNL     1     -10.718 -17.011  32.385  1.00  0.00    -0.070 C 
ATOM      3  C   UNL     1     -11.749 -17.109  31.495  1.00  0.00    -0.006 C 
ATOM      4  C   UNL     1     -12.562 -15.917  31.029  1.00  0.00     0.047 C 
ATOM      5  C   UNL     1     -12.522 -15.732  29.478  1.00  0.00     0.025 C 
ATOM      6  C   UNL     1     -13.636 -14.790  28.972  1.00  0.00    -0.073 C 
ATOM      7  C   UNL     1     -14.196 -13.846  29.755  1.00  0.00     0.008 C 
ATOM      8  C   UNL     1     -14.031 -14.763  27.510  1.00  0.00     0.031 C 
ATOM      9  C   UNL     1     -13.267 -15.779  26.673  1.00  0.00     0.005 C 
ATOM     10  C   UNL     1     -13.274 -17.130  27.379  1.00  0.00     0.008 C 
ATOM     11  C   UNL     1     -12.423 -17.115  28.683  1.00  0.00    -0.018 C 
ATOM     12  C   UNL     1     -12.908 -18.310  29.558  1.00  0.00     0.088 C 
ATOM     13  C   UNL     1     -12.160 -18.379  30.855  1.00  0.00     0.159 C 
ATOM     14  O   UNL     1     -11.975 -19.499  31.404  1.00  0.00    -0.295 OA
ATOM     15  C   UNL     1     -10.940 -17.370  28.286  1.00  0.00     0.012 C 
ATOM     16  C   UNL     1     -10.345 -15.689  33.013  1.00  0.00     0.039 C 
ENDROOT
TORSDOF 0
ENDMDL
MODEL 3
REMARK VINA RESULT:    -6.474      2.081      3.376
REMARK INTER + INTRA:          -6.474
REMARK INTER:                  -6.474
REMARK INTRA:                   0.000
REMARK UNBOUND:                 0.000
REMARK SMILES C=C1CCC[C@]2(C)CC(=O)C(=C(C)C)C[C@H]12
REMARK SMILES IDX 13 1 12 2 11 3 15 4 16 5 2 6 1 7 3 8 4 9 5 10 6 11 8 12 9 13
REMARK SMILES IDX 10 14 7 15 14 16
REMARK H PARENT
REMARK Flexibility Score: inf
ROOT
ATOM      1  C   UNL     1     -14.000 -15.471  26.610  1.00  0.00     0.039 C 
ATOM      2  C   UNL     1     -13.225 -15.096  27.852  1.00  0.00    -0.070 C 
ATOM      3  C   UNL     1     -12.163 -15.840  28.279  1.00  0.00    -0.006 C 
ATOM      4  C   UNL     1     -11.413 -15.559  29.567  1.00  0.00     0.047 C 
ATOM      5  C   UNL     1     -11.418 -16.778  30.544  1.00  0.00     0.025 C 
ATOM      6  C   UNL     1     -10.350 -16.645  31.652  1.00  0.00    -0.073 C 
ATOM      7  C   UNL     1      -9.875 -15.450  32.058  1.00  0.00     0.008 C 
ATOM      8  C   UNL     1      -9.914 -17.847  32.464  1.00  0.00     0.031 C 
ATOM      9  C   UNL     1     -10.587 -19.136  32.018  1.00  0.00     0.005 C 
ATOM     10  C   UNL     1     -10.516 -19.250  30.500  1.00  0.00     0.008 C 
ATOM     11  C   UNL     1     -11.405 -18.187  29.789  1.00  0.00    -0.018 C 
ATOM     12  C   UNL     1     -10.872 -18.047  28.332  1.00  0.00     0.088 C 
ATOM     13  C   UNL     1     -11.653 -17.029  27.558  1.00  0.00     0.159 C 
ATOM     14  O   UNL     1     -11.784 -17.165  26.311  1.00  0.00    -0.295 OA
ATOM     15  C   UNL     1     -12.856 -18.746  29.728  1.00  0.00     0.012 C 
ATOM     16  C   UNL     1     -13.699 -13.889  28.625  1.00  0.00     0.039 C 
ENDROOT
TORSDOF 0
ENDMDL
MODEL 4
REMARK VINA RESULT:    -6.437      1.859      3.981
REMARK INTER + INTRA:          -6.437
REMARK INTER:                  -6.437
REMARK INTRA:                   0.000
REMARK UNBOUND:                 0.000
REMARK SMILES C=C1CCC[C@]2(C)CC(=O)C(=C(C)C)C[C@H]12
REMARK SMILES IDX 13 1 12 2 11 3 15 4 16 5 2 6 1 7 3 8 4 9 5 10 6 11 8 12 9 13
REMARK SMILES IDX 10 14 7 15 14 16
REMARK H PARENT
REMARK Flexibility Score: inf
ROOT
ATOM      1  C   UNL     1     -12.123 -20.517  31.249  1.00  0.00     0.039 C 
ATOM      2  C   UNL     1     -12.600 -19.980  29.920  1.00  0.00    -0.070 C 
ATOM      3  C   UNL     1     -12.210 -18.752  29.466  1.00  0.00    -0.006 C 
ATOM      4  C   UNL     1     -12.735 -18.132  28.186  1.00  0.00     0.047 C 
ATOM      5  C   UNL     1     -13.421 -16.749  28.426  1.00  0.00     0.025 C 
ATOM      6  C   UNL     1     -13.597 -15.948  27.117  1.00  0.00    -0.073 C 
ATOM      7  C   UNL     1     -13.670 -16.543  25.910  1.00  0.00     0.008 C 
ATOM      8  C   UNL     1     -13.876 -14.460  27.145  1.00  0.00     0.031 C 
ATOM      9  C   UNL     1     -13.893 -13.888  28.555  1.00  0.00     0.005 C 
ATOM     10  C   UNL     1     -12.676 -14.390  29.323  1.00  0.00     0.008 C 
ATOM     11  C   UNL     1     -12.757 -15.917  29.618  1.00  0.00    -0.018 C 
ATOM     12  C   UNL     1     -11.305 -16.402  29.911  1.00  0.00     0.088 C 
ATOM     13  C   UNL     1     -11.265 -17.873  30.194  1.00  0.00     0.159 C 
ATOM     14  O   UNL     1     -10.385 -18.331  30.971  1.00  0.00    -0.295 OA
ATOM     15  C   UNL     1     -13.606 -16.108  30.908  1.00  0.00     0.012 C 
ATOM     16  C   UNL     1     -13.563 -20.837  29.133  1.00  0.00     0.039 C 
ENDROOT
TORSDOF 0
ENDMDL
MODEL 5
REMARK VINA RESULT:    -6.322      1.565      4.836
REMARK INTER + INTRA:          -6.322
REMARK INTER:                  -6.322
REMARK INTRA:                   0.000
REMARK UNBOUND:                 0.000
REMARK SMILES C=C1CCC[C@]2(C)CC(=O)C(=C(C)C)C[C@H]12
REMARK SMILES IDX 13 1 12 2 11 3 15 4 16 5 2 6 1 7 3 8 4 9 5 10 6 11 8 12 9 13
REMARK SMILES IDX 10 14 7 15 14 16
REMARK H PARENT
REMARK Flexibility Score: inf
ROOT
ATOM      1  C   UNL     1     -13.172 -15.487  33.068  1.00  0.00     0.039 C 
ATOM      2  C   UNL     1     -13.652 -15.444  31.636  1.00  0.00    -0.070 C 
ATOM      3  C   UNL     1     -13.246 -16.373  30.722  1.00  0.00    -0.006 C 
ATOM      4  C   UNL     1     -13.625 -16.319  29.254  1.00  0.00     0.047 C 
ATOM      5  C   UNL     1     -12.378 -16.270  28.314  1.00  0.00     0.025 C 
ATOM      6  C   UNL     1     -12.736 -16.609  26.850  1.00  0.00    -0.073 C 
ATOM      7  C   UNL     1     -13.974 -16.427  26.348  1.00  0.00     0.008 C 
ATOM      8  C   UNL     1     -11.663 -16.995  25.854  1.00  0.00     0.031 C 
ATOM      9  C   UNL     1     -10.276 -17.062  26.476  1.00  0.00     0.005 C 
ATOM     10  C   UNL     1     -10.340 -17.847  27.780  1.00  0.00     0.008 C 
ATOM     11  C   UNL     1     -11.128 -17.085  28.886  1.00  0.00    -0.018 C 
ATOM     12  C   UNL     1     -11.572 -18.142  29.941  1.00  0.00     0.088 C 
ATOM     13  C   UNL     1     -12.359 -17.513  31.051  1.00  0.00     0.159 C 
ATOM     14  O   UNL     1     -12.311 -18.015  32.206  1.00  0.00    -0.295 OA
ATOM     15  C   UNL     1     -10.145 -16.093  29.572  1.00  0.00     0.012 C 
ATOM     16  C   UNL     1     -14.563 -14.305  31.246  1.00  0.00     0.039 C 
ENDROOT
TORSDOF 0
ENDMDL
MODEL 6
REMARK VINA RESULT:    -6.186      2.116      3.947
REMARK INTER + INTRA:          -6.186
REMARK INTER:                  -6.186
REMARK INTRA:                   0.000
REMARK UNBOUND:                 0.000
REMARK SMILES C=C1CCC[C@]2(C)CC(=O)C(=C(C)C)C[C@H]12
REMARK SMILES IDX 13 1 12 2 11 3 15 4 16 5 2 6 1 7 3 8 4 9 5 10 6 11 8 12 9 13
REMARK SMILES IDX 10 14 7 15 14 16
REMARK H PARENT
REMARK Flexibility Score: inf
ROOT
ATOM      1  C   UNL     1     -13.998 -13.432  28.248  1.00  0.00     0.039 C 
ATOM      2  C   UNL     1     -13.775 -14.920  28.108  1.00  0.00    -0.070 C 
ATOM      3  C   UNL     1     -13.546 -15.711  29.197  1.00  0.00    -0.006 C 
ATOM      4  C   UNL     1     -13.226 -17.190  29.100  1.00  0.00     0.047 C 
ATOM      5  C   UNL     1     -11.858 -17.553  29.762  1.00  0.00     0.025 C 
ATOM      6  C   UNL     1     -11.714 -19.070  30.015  1.00  0.00    -0.073 C 
ATOM      7  C   UNL     1     -12.385 -19.990  29.294  1.00  0.00     0.008 C 
ATOM      8  C   UNL     1     -10.670 -19.605  30.972  1.00  0.00     0.031 C 
ATOM      9  C   UNL     1      -9.876 -18.503  31.657  1.00  0.00     0.005 C 
ATOM     10  C   UNL     1     -10.830 -17.438  32.182  1.00  0.00     0.008 C 
ATOM     11  C   UNL     1     -11.513 -16.643  31.030  1.00  0.00    -0.018 C 
ATOM     12  C   UNL     1     -12.795 -15.988  31.626  1.00  0.00     0.088 C 
ATOM     13  C   UNL     1     -13.544 -15.206  30.590  1.00  0.00     0.159 C 
ATOM     14  O   UNL     1     -14.215 -14.197  30.939  1.00  0.00    -0.295 OA
ATOM     15  C   UNL     1     -10.542 -15.508  30.594  1.00  0.00     0.012 C 
ATOM     16  C   UNL     1     -13.771 -15.490  26.709  1.00  0.00     0.039 C 
ENDROOT
TORSDOF 0
ENDMDL
MODEL 7
REMARK VINA RESULT:    -6.034      1.927      5.085
REMARK INTER + INTRA:          -6.034
REMARK INTER:                  -6.034
REMARK INTRA:                   0.000
REMARK UNBOUND:                 0.000
REMARK SMILES C=C1CCC[C@]2(C)CC(=O)C(=C(C)C)C[C@H]12
REMARK SMILES IDX 13 1 12 2 11 3 15 4 16 5 2 6 1 7 3 8 4 9 5 10 6 11 8 12 9 13
REMARK SMILES IDX 10 14 7 15 14 16
REMARK H PARENT
REMARK Flexibility Score: inf
ROOT
ATOM      1  C   UNL     1     -13.075 -15.073  33.806  1.00  0.00     0.039 C 
ATOM      2  C   UNL     1     -13.437 -16.220  32.892  1.00  0.00    -0.070 C 
ATOM      3  C   UNL     1     -12.565 -16.681  31.948  1.00  0.00    -0.006 C 
ATOM      4  C   UNL     1     -12.916 -17.765  30.948  1.00  0.00     0.047 C 
ATOM      5  C   UNL     1     -12.754 -17.292  29.468  1.00  0.00     0.025 C 
ATOM      6  C   UNL     1     -12.724 -18.475  28.475  1.00  0.00    -0.073 C 
ATOM      7  C   UNL     1     -13.297 -19.664  28.750  1.00  0.00     0.008 C 
ATOM      8  C   UNL     1     -12.202 -18.297  27.065  1.00  0.00     0.031 C 
ATOM      9  C   UNL     1     -11.682 -16.891  26.801  1.00  0.00     0.005 C 
ATOM     10  C   UNL     1     -10.775 -16.459  27.946  1.00  0.00     0.008 C 
ATOM     11  C   UNL     1     -11.565 -16.243  29.271  1.00  0.00    -0.018 C 
ATOM     12  C   UNL     1     -10.533 -16.325  30.436  1.00  0.00     0.088 C 
ATOM     13  C   UNL     1     -11.195 -16.145  31.768  1.00  0.00     0.159 C 
ATOM     14  O   UNL     1     -10.549 -15.623  32.716  1.00  0.00    -0.295 OA
ATOM     15  C   UNL     1     -12.155 -14.803  29.242  1.00  0.00     0.012 C 
ATOM     16  C   UNL     1     -14.821 -16.808  33.036  1.00  0.00     0.039 C 
ENDROOT
TORSDOF 0
ENDMDL
MODEL 8
REMARK VINA RESULT:    -5.734      2.029      3.294
REMARK INTER + INTRA:          -5.734
REMARK INTER:                  -5.734
REMARK INTRA:                   0.000
REMARK UNBOUND:                 0.000
REMARK SMILES C=C1CCC[C@]2(C)CC(=O)C(=C(C)C)C[C@H]12
REMARK SMILES IDX 13 1 12 2 11 3 15 4 16 5 2 6 1 7 3 8 4 9 5 10 6 11 8 12 9 13
REMARK SMILES IDX 10 14 7 15 14 16
REMARK H PARENT
REMARK Flexibility Score: inf
ROOT
ATOM      1  C   UNL     1     -12.043 -20.832  30.922  1.00  0.00     0.039 C 
ATOM      2  C   UNL     1     -12.407 -19.714  29.972  1.00  0.00    -0.070 C 
ATOM      3  C   UNL     1     -12.228 -18.404  30.313  1.00  0.00    -0.006 C 
ATOM      4  C   UNL     1     -12.663 -17.248  29.434  1.00  0.00     0.047 C 
ATOM      5  C   UNL     1     -13.666 -16.290  30.154  1.00  0.00     0.025 C 
ATOM      6  C   UNL     1     -13.800 -14.932  29.430  1.00  0.00    -0.073 C 
ATOM      7  C   UNL     1     -13.546 -14.786  28.114  1.00  0.00     0.008 C 
ATOM      8  C   UNL     1     -14.400 -13.731  30.130  1.00  0.00     0.031 C 
ATOM      9  C   UNL     1     -14.769 -14.015  31.579  1.00  0.00     0.005 C 
ATOM     10  C   UNL     1     -13.612 -14.727  32.270  1.00  0.00     0.008 C 
ATOM     11  C   UNL     1     -13.401 -16.170  31.725  1.00  0.00    -0.018 C 
ATOM     12  C   UNL     1     -11.946 -16.588  32.091  1.00  0.00     0.088 C 
ATOM     13  C   UNL     1     -11.629 -17.967  31.595  1.00  0.00     0.159 C 
ATOM     14  O   UNL     1     -10.806 -18.680  32.230  1.00  0.00    -0.295 OA
ATOM     15  C   UNL     1     -14.384 -17.111  32.480  1.00  0.00     0.012 C 
ATOM     16  C   UNL     1     -13.018 -20.104  28.647  1.00  0.00     0.039 C 
ENDROOT
TORSDOF 0
ENDMDL
MODEL 9
REMARK VINA RESULT:    -5.109      1.805      5.249
REMARK INTER + INTRA:          -5.109
REMARK INTER:                  -5.109
REMARK INTRA:                   0.000
REMARK UNBOUND:                 0.000
REMARK SMILES C=C1CCC[C@]2(C)CC(=O)C(=C(C)C)C[C@H]12
REMARK SMILES IDX 13 1 12 2 11 3 15 4 16 5 2 6 1 7 3 8 4 9 5 10 6 11 8 12 9 13
REMARK SMILES IDX 10 14 7 15 14 16
REMARK H PARENT
REMARK Flexibility Score: inf
ROOT
ATOM      1  C   UNL     1     -15.500 -14.779  31.953  1.00  0.00     0.039 C 
ATOM      2  C   UNL     1     -14.220 -15.550  31.727  1.00  0.00    -0.070 C 
ATOM      3  C   UNL     1     -13.432 -15.318  30.636  1.00  0.00    -0.006 C 
ATOM      4  C   UNL     1     -12.190 -16.128  30.318  1.00  0.00     0.047 C 
ATOM      5  C   UNL     1     -12.260 -16.807  28.913  1.00  0.00     0.025 C 
ATOM      6  C   UNL     1     -10.876 -17.290  28.426  1.00  0.00    -0.073 C 
ATOM      7  C   UNL     1      -9.875 -17.591  29.278  1.00  0.00     0.008 C 
ATOM      8  C   UNL     1     -10.632 -17.621  26.969  1.00  0.00     0.031 C 
ATOM      9  C   UNL     1     -11.850 -17.364  26.094  1.00  0.00     0.005 C 
ATOM     10  C   UNL     1     -12.429 -15.993  26.416  1.00  0.00     0.008 C 
ATOM     11  C   UNL     1     -13.065 -15.942  27.836  1.00  0.00    -0.018 C 
ATOM     12  C   UNL     1     -13.139 -14.442  28.251  1.00  0.00     0.088 C 
ATOM     13  C   UNL     1     -13.725 -14.280  29.621  1.00  0.00     0.159 C 
ATOM     14  O   UNL     1     -14.376 -13.236  29.896  1.00  0.00    -0.295 OA
ATOM     15  C   UNL     1     -14.518 -16.491  27.726  1.00  0.00     0.012 C 
ATOM     16  C   UNL     1     -13.870 -16.619  32.734  1.00  0.00     0.039 C 
ENDROOT
TORSDOF 0
ENDMDL
