MODEL 1
REMARK VINA RESULT:     7.516      0.000      0.000
REMARK INTER + INTRA:           9.584
REMARK INTER:                   9.274
REMARK INTRA:                   0.310
REMARK UNBOUND:                 0.310
REMARK SMILES O=c1c(O)c(-c2cc(O)c(O)c(O)c2)oc2cc(O)cc(O)c12
REMARK SMILES IDX 5 1 3 2 2 3 1 4 23 5 21 6 20 7 18 8 17 9 16 10 15 11 6 12
REMARK SMILES IDX 7 13 8 14 14 15 10 16 12 17 9 18 11 20 13 22 4 24 22 26
REMARK SMILES IDX 19 28
REMARK H PARENT 9 19 11 21 13 23 4 25 22 27 19 29
REMARK Flexibility Score: inf
ROOT
ATOM      1  C   UNL     1      13.453  21.695   0.833  1.00  0.00     0.180 A 
ATOM      2  C   UNL     1      14.258  22.699   0.268  1.00  0.00     0.208 A 
ATOM      3  C   UNL     1      14.305  22.829  -1.129  1.00  0.00     0.238 A 
ATOM      4  O   UNL     1      15.069  23.694  -1.631  1.00  0.00    -0.285 OA
ATOM      5  C   UNL     1      13.534  21.965  -1.943  1.00  0.00     0.111 A 
ATOM      6  C   UNL     1      13.474  22.031  -3.368  1.00  0.00     0.134 A 
ATOM      7  C   UNL     1      12.781  21.044  -4.077  1.00  0.00     0.093 A 
ATOM      8  C   UNL     1      12.092  20.027  -3.410  1.00  0.00     0.123 A 
ATOM      9  C   UNL     1      12.095  19.988  -2.019  1.00  0.00     0.094 A 
ATOM     10  C   UNL     1      12.808  20.938  -1.285  1.00  0.00     0.146 A 
ATOM     11  O   UNL     1      12.793  20.857   0.041  1.00  0.00    -0.452 OA
ENDROOT
BRANCH   1  12
ATOM     12  C   UNL     1      13.333  21.513   2.297  1.00  0.00     0.029 A 
ATOM     13  C   UNL     1      13.618  22.560   3.191  1.00  0.00     0.062 A 
ATOM     14  C   UNL     1      13.475  22.375   4.574  1.00  0.00     0.162 A 
ATOM     15  C   UNL     1      12.871  20.289   2.805  1.00  0.00     0.062 A 
ATOM     16  C   UNL     1      13.034  21.138   5.073  1.00  0.00     0.200 A 
ATOM     17  C   UNL     1      12.729  20.098   4.186  1.00  0.00     0.162 A 
BRANCH  14  18
ATOM     18  O   UNL     1      13.767  23.418   5.451  1.00  0.00    -0.504 OA
ATOM     19  H   UNL     1      13.060  24.085   5.738  1.00  0.00     0.293 HD
ENDBRANCH  14  18
BRANCH  16  20
ATOM     20  O   UNL     1      12.889  20.930   6.444  1.00  0.00    -0.502 OA
ATOM     21  H   UNL     1      12.815  20.002   6.844  1.00  0.00     0.293 HD
ENDBRANCH  16  20
BRANCH  17  22
ATOM     22  O   UNL     1      12.283  18.875   4.686  1.00  0.00    -0.504 OA
ATOM     23  H   UNL     1      12.818  18.024   4.561  1.00  0.00     0.293 HD
ENDBRANCH  17  22
ENDBRANCH   1  12
BRANCH   2  24
ATOM     24  O   UNL     1      15.027  23.527   1.089  1.00  0.00    -0.502 OA
ATOM     25  H   UNL     1      15.260  23.282   2.044  1.00  0.00     0.293 HD
ENDBRANCH   2  24
BRANCH   6  26
ATOM     26  O   UNL     1      14.050  23.056  -4.125  1.00  0.00    -0.507 OA
ATOM     27  H   UNL     1      14.958  23.459  -3.951  1.00  0.00     0.293 HD
ENDBRANCH   6  26
BRANCH   8  28
ATOM     28  O   UNL     1      11.392  19.057  -4.125  1.00  0.00    -0.508 OA
ATOM     29  H   UNL     1      11.730  18.706  -5.013  1.00  0.00     0.293 HD
ENDBRANCH   8  28
TORSDOF 7
ENDMDL
MODEL 2
REMARK VINA RESULT:     7.921      0.115      1.752
REMARK INTER + INTRA:          10.083
REMARK INTER:                   9.693
REMARK INTRA:                   0.390
REMARK UNBOUND:                 0.310
REMARK SMILES O=c1c(O)c(-c2cc(O)c(O)c(O)c2)oc2cc(O)cc(O)c12
REMARK SMILES IDX 5 1 3 2 2 3 1 4 23 5 21 6 20 7 18 8 17 9 16 10 15 11 6 12
REMARK SMILES IDX 7 13 8 14 14 15 10 16 12 17 9 18 11 20 13 22 4 24 22 26
REMARK SMILES IDX 19 28
REMARK H PARENT 9 19 11 21 13 23 4 25 22 27 19 29
REMARK Flexibility Score: inf
ROOT
ATOM      1  C   UNL     1      13.393  21.628   0.847  1.00  0.00     0.180 A 
ATOM      2  C   UNL     1      14.213  22.613   0.273  1.00  0.00     0.208 A 
ATOM      3  C   UNL     1      14.259  22.731  -1.125  1.00  0.00     0.238 A 
ATOM      4  O   UNL     1      15.037  23.578  -1.636  1.00  0.00    -0.285 OA
ATOM      5  C   UNL     1      13.470  21.874  -1.930  1.00  0.00     0.111 A 
ATOM      6  C   UNL     1      13.409  21.931  -3.356  1.00  0.00     0.134 A 
ATOM      7  C   UNL     1      12.696  20.950  -4.056  1.00  0.00     0.093 A 
ATOM      8  C   UNL     1      11.991  19.952  -3.379  1.00  0.00     0.123 A 
ATOM      9  C   UNL     1      11.997  19.923  -1.987  1.00  0.00     0.094 A 
ATOM     10  C   UNL     1      12.728  20.866  -1.262  1.00  0.00     0.146 A 
ATOM     11  O   UNL     1      12.715  20.796   0.064  1.00  0.00    -0.452 OA
ENDROOT
BRANCH   1  12
ATOM     12  C   UNL     1      13.272  21.459   2.314  1.00  0.00     0.029 A 
ATOM     13  C   UNL     1      12.866  20.237   2.878  1.00  0.00     0.062 A 
ATOM     14  C   UNL     1      12.780  20.089   4.270  1.00  0.00     0.162 A 
ATOM     15  C   UNL     1      13.625  22.519   3.163  1.00  0.00     0.062 A 
ATOM     16  C   UNL     1      13.113  21.164   5.110  1.00  0.00     0.200 A 
ATOM     17  C   UNL     1      13.539  22.377   4.554  1.00  0.00     0.162 A 
BRANCH  14  18
ATOM     18  O   UNL     1      12.369  18.875   4.819  1.00  0.00    -0.504 OA
ATOM     19  H   UNL     1      12.715  17.989   4.468  1.00  0.00     0.293 HD
ENDBRANCH  14  18
BRANCH  16  20
ATOM     20  O   UNL     1      13.032  21.041   6.497  1.00  0.00    -0.502 OA
ATOM     21  H   UNL     1      12.146  21.046   6.988  1.00  0.00     0.293 HD
ENDBRANCH  16  20
BRANCH  17  22
ATOM     22  O   UNL     1      13.878  23.438   5.393  1.00  0.00    -0.504 OA
ATOM     23  H   UNL     1      14.522  23.319   6.166  1.00  0.00     0.293 HD
ENDBRANCH  17  22
ENDBRANCH   1  12
BRANCH   2  24
ATOM     24  O   UNL     1      15.000  23.434   1.086  1.00  0.00    -0.502 OA
ATOM     25  H   UNL     1      15.888  23.131   1.467  1.00  0.00     0.293 HD
ENDBRANCH   2  24
BRANCH   6  26
ATOM     26  O   UNL     1      14.000  22.939  -4.122  1.00  0.00    -0.507 OA
ATOM     27  H   UNL     1      14.330  22.824  -5.069  1.00  0.00     0.293 HD
ENDBRANCH   6  26
BRANCH   8  28
ATOM     28  O   UNL     1      11.272  18.988  -4.084  1.00  0.00    -0.508 OA
ATOM     29  H   UNL     1      11.587  18.028  -4.141  1.00  0.00     0.293 HD
ENDBRANCH   8  28
TORSDOF 7
ENDMDL
