MODEL 1
REMARK VINA RESULT:    -2.551      0.000      0.000
REMARK INTER + INTRA:          -3.213
REMARK INTER:                  -3.148
REMARK INTRA:                  -0.065
REMARK UNBOUND:                -0.065
REMARK SMILES CCCCCC(=O)[O-]
REMARK SMILES IDX 4 1 5 2 6 3 7 4 8 5 3 6 2 7 1 8
REMARK H PARENT
REMARK Flexibility Score: inf
ROOT
ATOM      1  C   UNL     1      40.318   7.715  12.441  1.00  0.00     0.006 C 
ENDROOT
BRANCH   1   2
ATOM      2  C   UNL     1      39.249   8.657  13.010  1.00  0.00     0.053 C 
BRANCH   2   3
ATOM      3  C   UNL     1      39.377  10.018  12.401  1.00  0.00     0.041 C 
ATOM      4  O   UNL     1      39.651  11.012  13.125  1.00  0.00    -0.550 OA
ATOM      5  O   UNL     1      39.145  10.198  11.044  1.00  0.00    -0.550 OA
ENDBRANCH   2   3
ENDBRANCH   1   2
BRANCH   1   6
ATOM      6  C   UNL     1      40.273   6.317  13.078  1.00  0.00     0.000 C 
BRANCH   6   7
ATOM      7  C   UNL     1      38.920   5.619  12.880  1.00  0.00    -0.003 C 
ATOM      8  C   UNL     1      39.041   4.113  13.098  1.00  0.00     0.004 C 
ENDBRANCH   6   7
ENDBRANCH   1   6
TORSDOF 4
ENDMDL
MODEL 2
REMARK VINA RESULT:    -2.357     27.542     28.132
REMARK INTER + INTRA:          -2.974
REMARK INTER:                  -3.032
REMARK INTRA:                   0.058
REMARK UNBOUND:                -0.065
REMARK SMILES CCCCCC(=O)[O-]
REMARK SMILES IDX 4 1 5 2 6 3 7 4 8 5 3 6 2 7 1 8
REMARK H PARENT
REMARK Flexibility Score: inf
ROOT
ATOM      1  C   UNL     1      57.786  -1.158  -5.985  1.00  0.00     0.006 C 
ENDROOT
BRANCH   1   2
ATOM      2  C   UNL     1      57.199  -0.311  -7.121  1.00  0.00     0.053 C 
BRANCH   2   3
ATOM      3  C   UNL     1      57.805   1.058  -7.117  1.00  0.00     0.041 C 
ATOM      4  O   UNL     1      59.056   1.196  -7.084  1.00  0.00    -0.550 OA
ATOM      5  O   UNL     1      56.987   2.180  -7.100  1.00  0.00    -0.550 OA
ENDBRANCH   2   3
ENDBRANCH   1   2
BRANCH   1   6
ATOM      6  C   UNL     1      59.039  -1.937  -6.417  1.00  0.00     0.000 C 
BRANCH   6   7
ATOM      7  C   UNL     1      59.032  -3.391  -5.922  1.00  0.00    -0.003 C 
ATOM      8  C   UNL     1      59.120  -3.453  -4.399  1.00  0.00     0.004 C 
ENDBRANCH   6   7
ENDBRANCH   1   6
TORSDOF 4
ENDMDL
MODEL 3
REMARK VINA RESULT:    -2.330     27.933     28.216
REMARK INTER + INTRA:          -2.941
REMARK INTER:                  -2.900
REMARK INTRA:                  -0.041
REMARK UNBOUND:                -0.065
REMARK SMILES CCCCCC(=O)[O-]
REMARK SMILES IDX 4 1 5 2 6 3 7 4 8 5 3 6 2 7 1 8
REMARK H PARENT
REMARK Flexibility Score: inf
ROOT
ATOM      1  C   UNL     1      58.249  -2.756  -5.118  1.00  0.00     0.006 C 
ENDROOT
BRANCH   1   2
ATOM      2  C   UNL     1      58.784  -2.026  -6.357  1.00  0.00     0.053 C 
BRANCH   2   3
ATOM      3  C   UNL     1      58.129  -0.688  -6.497  1.00  0.00     0.041 C 
ATOM      4  O   UNL     1      57.044  -0.576  -7.125  1.00  0.00    -0.550 OA
ATOM      5  O   UNL     1      58.743   0.444  -5.975  1.00  0.00    -0.550 OA
ENDBRANCH   2   3
ENDBRANCH   1   2
BRANCH   1   6
ATOM      6  C   UNL     1      58.960  -4.096  -4.869  1.00  0.00     0.000 C 
BRANCH   6   7
ATOM      7  C   UNL     1      59.125  -4.410  -3.375  1.00  0.00    -0.003 C 
ATOM      8  C   UNL     1      59.125  -5.915  -3.126  1.00  0.00     0.004 C 
ENDBRANCH   6   7
ENDBRANCH   1   6
TORSDOF 4
ENDMDL
MODEL 4
REMARK VINA RESULT:    -2.151      3.154      4.547
REMARK INTER + INTRA:          -2.719
REMARK INTER:                  -2.609
REMARK INTRA:                  -0.110
REMARK UNBOUND:                -0.065
REMARK SMILES CCCCCC(=O)[O-]
REMARK SMILES IDX 4 1 5 2 6 3 7 4 8 5 3 6 2 7 1 8
REMARK H PARENT
REMARK Flexibility Score: inf
ROOT
ATOM      1  C   UNL     1      40.221   7.514  12.001  1.00  0.00     0.006 C 
ENDROOT
BRANCH   1   2
ATOM      2  C   UNL     1      39.174   6.454  12.365  1.00  0.00     0.053 C 
BRANCH   2   3
ATOM      3  C   UNL     1      39.840   5.227  12.907  1.00  0.00     0.041 C 
ATOM      4  O   UNL     1      41.080   5.224  13.125  1.00  0.00    -0.550 OA
ATOM      5  O   UNL     1      39.099   4.073  13.125  1.00  0.00    -0.550 OA
ENDBRANCH   2   3
ENDBRANCH   1   2
BRANCH   1   6
ATOM      6  C   UNL     1      40.371   8.593  13.084  1.00  0.00     0.000 C 
BRANCH   6   7
ATOM      7  C   UNL     1      39.184   9.568  13.116  1.00  0.00    -0.003 C 
ATOM      8  C   UNL     1      38.899  10.133  11.727  1.00  0.00     0.004 C 
ENDBRANCH   6   7
ENDBRANCH   1   6
TORSDOF 4
ENDMDL
MODEL 5
REMARK VINA RESULT:    -2.004     27.780     28.546
REMARK INTER + INTRA:          -2.539
REMARK INTER:                  -2.523
REMARK INTRA:                  -0.015
REMARK UNBOUND:                -0.065
REMARK SMILES CCCCCC(=O)[O-]
REMARK SMILES IDX 4 1 5 2 6 3 7 4 8 5 3 6 2 7 1 8
REMARK H PARENT
REMARK Flexibility Score: inf
ROOT
ATOM      1  C   UNL     1      57.311  -1.130  -5.712  1.00  0.00     0.006 C 
ENDROOT
BRANCH   1   2
ATOM      2  C   UNL     1      58.735  -1.565  -5.344  1.00  0.00     0.053 C 
BRANCH   2   3
ATOM      3  C   UNL     1      58.922  -3.025  -5.616  1.00  0.00     0.041 C 
ATOM      4  O   UNL     1      58.968  -3.448  -6.801  1.00  0.00    -0.550 OA
ATOM      5  O   UNL     1      58.993  -3.925  -4.560  1.00  0.00    -0.550 OA
ENDBRANCH   2   3
ENDBRANCH   1   2
BRANCH   1   6
ATOM      6  C   UNL     1      57.223  -0.531  -7.125  1.00  0.00     0.000 C 
BRANCH   6   7
ATOM      7  C   UNL     1      57.326   1.001  -7.125  1.00  0.00    -0.003 C 
ATOM      8  C   UNL     1      58.783   1.454  -7.123  1.00  0.00     0.004 C 
ENDBRANCH   6   7
ENDBRANCH   1   6
TORSDOF 4
ENDMDL
MODEL 6
REMARK VINA RESULT:    -1.891     27.697     28.437
REMARK INTER + INTRA:          -2.399
REMARK INTER:                  -2.516
REMARK INTRA:                   0.117
REMARK UNBOUND:                -0.065
REMARK SMILES CCCCCC(=O)[O-]
REMARK SMILES IDX 4 1 5 2 6 3 7 4 8 5 3 6 2 7 1 8
REMARK H PARENT
REMARK Flexibility Score: inf
ROOT
ATOM      1  C   UNL     1      58.864  -1.452  -6.784  1.00  0.00     0.006 C 
ENDROOT
BRANCH   1   2
ATOM      2  C   UNL     1      59.125  -2.876  -6.277  1.00  0.00     0.053 C 
BRANCH   2   3
ATOM      3  C   UNL     1      58.761  -2.989  -4.829  1.00  0.00     0.041 C 
ATOM      4  O   UNL     1      59.051  -4.030  -4.182  1.00  0.00    -0.550 OA
ATOM      5  O   UNL     1      58.059  -1.964  -4.207  1.00  0.00    -0.550 OA
ENDBRANCH   2   3
ENDBRANCH   1   2
BRANCH   1   6
ATOM      6  C   UNL     1      57.378  -1.192  -7.077  1.00  0.00     0.000 C 
BRANCH   6   7
ATOM      7  C   UNL     1      57.027   0.303  -7.068  1.00  0.00    -0.003 C 
ATOM      8  C   UNL     1      58.281   1.163  -6.941  1.00  0.00     0.004 C 
ENDBRANCH   6   7
ENDBRANCH   1   6
TORSDOF 4
ENDMDL
MODEL 7
REMARK VINA RESULT:    -1.560     26.505     27.282
REMARK INTER + INTRA:          -1.990
REMARK INTER:                  -1.878
REMARK INTRA:                  -0.112
REMARK UNBOUND:                -0.065
REMARK SMILES CCCCCC(=O)[O-]
REMARK SMILES IDX 4 1 5 2 6 3 7 4 8 5 3 6 2 7 1 8
REMARK H PARENT
REMARK Flexibility Score: inf
ROOT
ATOM      1  C   UNL     1      58.500  -5.488  -0.867  1.00  0.00     0.006 C 
ENDROOT
BRANCH   1   2
ATOM      2  C   UNL     1      59.044  -5.571   0.564  1.00  0.00     0.053 C 
BRANCH   2   3
ATOM      3  C   UNL     1      58.112  -6.357   1.432  1.00  0.00     0.041 C 
ATOM      4  O   UNL     1      58.569  -7.124   2.320  1.00  0.00    -0.550 OA
ATOM      5  O   UNL     1      56.741  -6.280   1.227  1.00  0.00    -0.550 OA
ENDBRANCH   2   3
ENDBRANCH   1   2
BRANCH   1   6
ATOM      6  C   UNL     1      59.115  -6.547  -1.795  1.00  0.00     0.000 C 
BRANCH   6   7
ATOM      7  C   UNL     1      58.868  -6.247  -3.281  1.00  0.00    -0.003 C 
ATOM      8  C   UNL     1      59.125  -4.776  -3.595  1.00  0.00     0.004 C 
ENDBRANCH   6   7
ENDBRANCH   1   6
TORSDOF 4
ENDMDL
MODEL 8
REMARK VINA RESULT:    -1.230     27.764     28.421
REMARK INTER + INTRA:          -1.583
REMARK INTER:                  -1.532
REMARK INTRA:                  -0.050
REMARK UNBOUND:                -0.065
REMARK SMILES CCCCCC(=O)[O-]
REMARK SMILES IDX 4 1 5 2 6 3 7 4 8 5 3 6 2 7 1 8
REMARK H PARENT
REMARK Flexibility Score: inf
ROOT
ATOM      1  C   UNL     1      58.386  -2.683  -4.717  1.00  0.00     0.006 C 
ENDROOT
BRANCH   1   2
ATOM      2  C   UNL     1      59.077  -4.049  -4.818  1.00  0.00     0.053 C 
BRANCH   2   3
ATOM      3  C   UNL     1      59.089  -4.727  -3.483  1.00  0.00     0.041 C 
ATOM      4  O   UNL     1      59.125  -4.044  -2.426  1.00  0.00    -0.550 OA
ATOM      5  O   UNL     1      59.111  -6.114  -3.408  1.00  0.00    -0.550 OA
ENDBRANCH   2   3
ENDBRANCH   1   2
BRANCH   1   6
ATOM      6  C   UNL     1      58.766  -1.743  -5.872  1.00  0.00     0.000 C 
BRANCH   6   7
ATOM      7  C   UNL     1      57.619  -0.803  -6.271  1.00  0.00    -0.003 C 
ATOM      8  C   UNL     1      58.114   0.631  -6.434  1.00  0.00     0.004 C 
ENDBRANCH   6   7
ENDBRANCH   1   6
TORSDOF 4
ENDMDL
