MODEL 1
REMARK VINA RESULT:    -2.885      0.000      0.000
REMARK INTER + INTRA:          -3.137
REMARK INTER:                  -3.137
REMARK INTRA:                   0.000
REMARK UNBOUND:                 0.000
REMARK SMILES [NH3+]CC(=O)[O-]
REMARK SMILES IDX 2 1 1 2 3 6 4 7 5 8
REMARK H PARENT 1 3 1 4 1 5
REMARK Flexibility Score: inf
ROOT
ATOM      1  C   UNL     1     -27.613 -41.567  26.134  1.00  0.00     0.312 C 
ENDROOT
BRANCH   1   2
ATOM      2  N   UNL     1     -27.700 -42.749  25.279  1.00  0.00    -0.353 N 
ATOM      3  H   UNL     1     -26.787 -42.908  24.794  1.00  0.00     0.344 HD
ATOM      4  H   UNL     1     -28.460 -42.625  24.570  1.00  0.00     0.344 HD
ATOM      5  H   UNL     1     -27.920 -43.583  25.870  1.00  0.00     0.344 HD
ENDBRANCH   1   2
BRANCH   1   6
ATOM      6  C   UNL     1     -28.751 -40.632  25.861  1.00  0.00     0.096 C 
ATOM      7  O   UNL     1     -29.838 -41.073  25.405  1.00  0.00    -0.544 OA
ATOM      8  O   UNL     1     -28.591 -39.266  26.062  1.00  0.00    -0.544 OA
ENDBRANCH   1   6
TORSDOF 2
ENDMDL
MODEL 2
REMARK VINA RESULT:    -2.857      0.186      1.461
REMARK INTER + INTRA:          -3.108
REMARK INTER:                  -3.108
REMARK INTRA:                   0.000
REMARK UNBOUND:                 0.000
REMARK SMILES [NH3+]CC(=O)[O-]
REMARK SMILES IDX 2 1 1 2 3 6 4 7 5 8
REMARK H PARENT 1 3 1 4 1 5
REMARK Flexibility Score: inf
ROOT
ATOM      1  C   UNL     1     -27.648 -41.556  26.077  1.00  0.00     0.312 C 
ENDROOT
BRANCH   1   2
ATOM      2  N   UNL     1     -27.673 -42.769  25.262  1.00  0.00    -0.353 N 
ATOM      3  H   UNL     1     -28.492 -43.363  25.528  1.00  0.00     0.344 HD
ATOM      4  H   UNL     1     -26.787 -43.310  25.394  1.00  0.00     0.344 HD
ATOM      5  H   UNL     1     -27.760 -42.503  24.255  1.00  0.00     0.344 HD
ENDBRANCH   1   2
BRANCH   1   6
ATOM      6  C   UNL     1     -28.826 -40.685  25.766  1.00  0.00     0.096 C 
ATOM      7  O   UNL     1     -28.782 -39.450  26.007  1.00  0.00    -0.544 OA
ATOM      8  O   UNL     1     -29.991 -41.248  25.258  1.00  0.00    -0.544 OA
ENDBRANCH   1   6
TORSDOF 2
ENDMDL
MODEL 3
REMARK VINA RESULT:    -2.781      2.247      2.625
REMARK INTER + INTRA:          -3.025
REMARK INTER:                  -3.025
REMARK INTRA:                   0.000
REMARK UNBOUND:                 0.000
REMARK SMILES [NH3+]CC(=O)[O-]
REMARK SMILES IDX 2 1 1 2 3 6 4 7 5 8
REMARK H PARENT 1 3 1 4 1 5
REMARK Flexibility Score: inf
ROOT
ATOM      1  C   UNL     1     -28.891 -41.601  27.310  1.00  0.00     0.312 C 
ENDROOT
BRANCH   1   2
ATOM      2  N   UNL     1     -28.293 -41.351  28.621  1.00  0.00    -0.353 N 
ATOM      3  H   UNL     1     -29.036 -41.091  29.309  1.00  0.00     0.344 HD
ATOM      4  H   UNL     1     -27.589 -40.580  28.553  1.00  0.00     0.344 HD
ATOM      5  H   UNL     1     -27.814 -42.220  28.950  1.00  0.00     0.344 HD
ENDBRANCH   1   2
BRANCH   1   6
ATOM      6  C   UNL     1     -27.941 -41.225  26.215  1.00  0.00     0.096 C 
ATOM      7  O   UNL     1     -27.627 -40.020  26.035  1.00  0.00    -0.544 OA
ATOM      8  O   UNL     1     -27.442 -42.203  25.362  1.00  0.00    -0.544 OA
ENDBRANCH   1   6
TORSDOF 2
ENDMDL
MODEL 4
REMARK VINA RESULT:    -2.772      2.242      2.287
REMARK INTER + INTRA:          -3.015
REMARK INTER:                  -3.015
REMARK INTRA:                   0.000
REMARK UNBOUND:                 0.000
REMARK SMILES [NH3+]CC(=O)[O-]
REMARK SMILES IDX 2 1 1 2 3 6 4 7 5 8
REMARK H PARENT 1 3 1 4 1 5
REMARK Flexibility Score: inf
ROOT
ATOM      1  C   UNL     1     -28.883 -41.617  27.309  1.00  0.00     0.312 C 
ENDROOT
BRANCH   1   2
ATOM      2  N   UNL     1     -28.264 -41.235  28.577  1.00  0.00    -0.353 N 
ATOM      3  H   UNL     1     -27.243 -41.056  28.437  1.00  0.00     0.344 HD
ATOM      4  H   UNL     1     -28.396 -41.995  29.284  1.00  0.00     0.344 HD
ATOM      5  H   UNL     1     -28.717 -40.361  28.929  1.00  0.00     0.344 HD
ENDBRANCH   1   2
BRANCH   1   6
ATOM      6  C   UNL     1     -27.964 -41.327  26.163  1.00  0.00     0.096 C 
ATOM      7  O   UNL     1     -27.520 -42.267  25.453  1.00  0.00    -0.544 OA
ATOM      8  O   UNL     1     -27.557 -40.022  25.912  1.00  0.00    -0.544 OA
ENDBRANCH   1   6
TORSDOF 2
ENDMDL
MODEL 5
REMARK VINA RESULT:    -2.716     14.999     15.334
REMARK INTER + INTRA:          -2.954
REMARK INTER:                  -2.954
REMARK INTRA:                   0.000
REMARK UNBOUND:                 0.000
REMARK SMILES [NH3+]CC(=O)[O-]
REMARK SMILES IDX 2 1 1 2 3 6 4 7 5 8
REMARK H PARENT 1 3 1 4 1 5
REMARK Flexibility Score: inf
ROOT
ATOM      1  C   UNL     1     -29.586 -53.615  34.803  1.00  0.00     0.312 C 
ENDROOT
BRANCH   1   2
ATOM      2  N   UNL     1     -30.765 -53.827  33.966  1.00  0.00    -0.353 N 
ATOM      3  H   UNL     1     -30.475 -54.152  33.015  1.00  0.00     0.344 HD
ATOM      4  H   UNL     1     -31.312 -52.938  33.884  1.00  0.00     0.344 HD
ATOM      5  H   UNL     1     -31.370 -54.558  34.405  1.00  0.00     0.344 HD
ENDBRANCH   1   2
BRANCH   1   6
ATOM      6  C   UNL     1     -29.835 -52.527  35.802  1.00  0.00     0.096 C 
ATOM      7  O   UNL     1     -30.376 -52.793  36.907  1.00  0.00    -0.544 OA
ATOM      8  O   UNL     1     -29.517 -51.211  35.489  1.00  0.00    -0.544 OA
ENDBRANCH   1   6
TORSDOF 2
ENDMDL
MODEL 6
REMARK VINA RESULT:    -2.639      2.671      3.049
REMARK INTER + INTRA:          -2.871
REMARK INTER:                  -2.871
REMARK INTRA:                   0.000
REMARK UNBOUND:                 0.000
REMARK SMILES [NH3+]CC(=O)[O-]
REMARK SMILES IDX 2 1 1 2 3 6 4 7 5 8
REMARK H PARENT 1 3 1 4 1 5
REMARK Flexibility Score: inf
ROOT
ATOM      1  C   UNL     1     -30.924 -42.339  23.278  1.00  0.00     0.312 C 
ENDROOT
BRANCH   1   2
ATOM      2  N   UNL     1     -29.576 -42.848  23.037  1.00  0.00    -0.353 N 
ATOM      3  H   UNL     1     -29.460 -43.784  23.488  1.00  0.00     0.344 HD
ATOM      4  H   UNL     1     -28.866 -42.181  23.421  1.00  0.00     0.344 HD
ATOM      5  H   UNL     1     -29.426 -42.946  22.007  1.00  0.00     0.344 HD
ENDBRANCH   1   2
BRANCH   1   6
ATOM      6  C   UNL     1     -30.922 -41.344  24.398  1.00  0.00     0.096 C 
ATOM      7  O   UNL     1     -31.964 -40.690  24.666  1.00  0.00    -0.544 OA
ATOM      8  O   UNL     1     -29.754 -41.103  25.110  1.00  0.00    -0.544 OA
ENDBRANCH   1   6
TORSDOF 2
ENDMDL
MODEL 7
REMARK VINA RESULT:    -2.597      1.849      2.034
REMARK INTER + INTRA:          -2.825
REMARK INTER:                  -2.825
REMARK INTRA:                   0.000
REMARK UNBOUND:                 0.000
REMARK SMILES [NH3+]CC(=O)[O-]
REMARK SMILES IDX 2 1 1 2 3 6 4 7 5 8
REMARK H PARENT 1 3 1 4 1 5
REMARK Flexibility Score: inf
ROOT
ATOM      1  C   UNL     1     -29.624 -41.188  25.307  1.00  0.00     0.312 C 
ENDROOT
BRANCH   1   2
ATOM      2  N   UNL     1     -29.856 -42.072  24.167  1.00  0.00    -0.353 N 
ATOM      3  H   UNL     1     -29.502 -43.033  24.380  1.00  0.00     0.344 HD
ATOM      4  H   UNL     1     -29.372 -41.698  23.317  1.00  0.00     0.344 HD
ATOM      5  H   UNL     1     -30.883 -42.123  23.977  1.00  0.00     0.344 HD
ENDBRANCH   1   2
BRANCH   1   6
ATOM      6  C   UNL     1     -28.189 -41.240  25.734  1.00  0.00     0.096 C 
ATOM      7  O   UNL     1     -27.503 -42.274  25.521  1.00  0.00    -0.544 OA
ATOM      8  O   UNL     1     -27.627 -40.167  26.413  1.00  0.00    -0.544 OA
ENDBRANCH   1   6
TORSDOF 2
ENDMDL
MODEL 8
REMARK VINA RESULT:    -2.592     14.345     14.643
REMARK INTER + INTRA:          -2.819
REMARK INTER:                  -2.819
REMARK INTRA:                   0.000
REMARK UNBOUND:                 0.000
REMARK SMILES [NH3+]CC(=O)[O-]
REMARK SMILES IDX 2 1 1 2 3 6 4 7 5 8
REMARK H PARENT 1 3 1 4 1 5
REMARK Flexibility Score: inf
ROOT
ATOM      1  C   UNL     1     -29.797 -52.563  36.016  1.00  0.00     0.312 C 
ENDROOT
BRANCH   1   2
ATOM      2  N   UNL     1     -30.229 -52.890  34.659  1.00  0.00    -0.353 N 
ATOM      3  H   UNL     1     -29.423 -52.806  33.997  1.00  0.00     0.344 HD
ATOM      4  H   UNL     1     -30.998 -52.245  34.361  1.00  0.00     0.344 HD
ATOM      5  H   UNL     1     -30.584 -53.873  34.640  1.00  0.00     0.344 HD
ENDBRANCH   1   2
BRANCH   1   6
ATOM      6  C   UNL     1     -29.360 -51.133  36.103  1.00  0.00     0.096 C 
ATOM      7  O   UNL     1     -29.522 -50.360  35.122  1.00  0.00    -0.544 OA
ATOM      8  O   UNL     1     -28.727 -50.669  37.249  1.00  0.00    -0.544 OA
ENDBRANCH   1   6
TORSDOF 2
ENDMDL
MODEL 9
REMARK VINA RESULT:    -2.507      2.429      2.684
REMARK INTER + INTRA:          -2.727
REMARK INTER:                  -2.727
REMARK INTRA:                   0.000
REMARK UNBOUND:                 0.000
REMARK SMILES [NH3+]CC(=O)[O-]
REMARK SMILES IDX 2 1 1 2 3 6 4 7 5 8
REMARK H PARENT 1 3 1 4 1 5
REMARK Flexibility Score: inf
ROOT
ATOM      1  C   UNL     1     -29.054 -39.986  26.016  1.00  0.00     0.312 C 
ENDROOT
BRANCH   1   2
ATOM      2  N   UNL     1     -27.965 -39.013  26.044  1.00  0.00    -0.353 N 
ATOM      3  H   UNL     1     -27.900 -38.575  26.992  1.00  0.00     0.344 HD
ATOM      4  H   UNL     1     -28.127 -38.271  25.324  1.00  0.00     0.344 HD
ATOM      5  H   UNL     1     -27.065 -39.500  25.833  1.00  0.00     0.344 HD
ENDBRANCH   1   2
BRANCH   1   6
ATOM      6  C   UNL     1     -28.571 -41.334  26.456  1.00  0.00     0.096 C 
ATOM      7  O   UNL     1     -27.580 -41.867  25.891  1.00  0.00    -0.544 OA
ATOM      8  O   UNL     1     -29.248 -42.022  27.455  1.00  0.00    -0.544 OA
ENDBRANCH   1   6
TORSDOF 2
ENDMDL
