MODEL 1
REMARK VINA RESULT:    -5.547      0.000      0.000
REMARK INTER + INTRA:          -5.547
REMARK INTER:                  -5.547
REMARK INTRA:                   0.000
REMARK UNBOUND:                 0.000
REMARK SMILES CC1=CC(=O)[C@@H]2C[C@H]1C2(C)C
REMARK SMILES IDX 1 1 2 2 3 3 4 4 5 5 6 6 7 7 8 8 9 9 10 10 11 11
REMARK H PARENT
REMARK Flexibility Score: inf
ROOT
ATOM      1  C   UNL     1      18.380 -13.644  68.005  1.00  0.00     0.040 C 
ATOM      2  C   UNL     1      18.586 -12.163  68.078  1.00  0.00    -0.066 C 
ATOM      3  C   UNL     1      18.954 -11.556  69.240  1.00  0.00     0.047 C 
ATOM      4  C   UNL     1      19.159 -10.073  69.176  1.00  0.00     0.159 C 
ATOM      5  O   UNL     1      19.537  -9.403  70.172  1.00  0.00    -0.295 OA
ATOM      6  C   UNL     1      18.877  -9.431  67.817  1.00  0.00     0.067 C 
ATOM      7  C   UNL     1      17.540 -10.061  67.372  1.00  0.00     0.021 C 
ATOM      8  C   UNL     1      18.375 -11.252  66.851  1.00  0.00     0.022 C 
ATOM      9  C   UNL     1      19.579 -10.276  66.716  1.00  0.00    -0.019 C 
ATOM     10  C   UNL     1      19.603  -9.554  65.345  1.00  0.00     0.012 C 
ATOM     11  C   UNL     1      21.005 -10.825  67.003  1.00  0.00     0.012 C 
ENDROOT
TORSDOF 0
ENDMDL
MODEL 2
REMARK VINA RESULT:    -5.217      1.230      2.981
REMARK INTER + INTRA:          -5.217
REMARK INTER:                  -5.217
REMARK INTRA:                   0.000
REMARK UNBOUND:                 0.000
REMARK SMILES CC1=CC(=O)[C@@H]2C[C@H]1C2(C)C
REMARK SMILES IDX 1 1 2 2 3 3 4 4 5 5 6 6 7 7 8 8 9 9 10 10 11 11
REMARK H PARENT
REMARK Flexibility Score: inf
ROOT
ATOM      1  C   UNL     1      17.213 -10.725  66.014  1.00  0.00     0.040 C 
ATOM      2  C   UNL     1      18.224 -10.849  67.111  1.00  0.00    -0.066 C 
ATOM      3  C   UNL     1      18.272  -9.953  68.134  1.00  0.00     0.047 C 
ATOM      4  C   UNL     1      19.309 -10.203  69.186  1.00  0.00     0.159 C 
ATOM      5  O   UNL     1      19.428  -9.468  70.201  1.00  0.00    -0.295 OA
ATOM      6  C   UNL     1      20.212 -11.413  68.941  1.00  0.00     0.067 C 
ATOM      7  C   UNL     1      20.612 -11.291  67.455  1.00  0.00     0.021 C 
ATOM      8  C   UNL     1      19.269 -11.984  67.127  1.00  0.00     0.022 C 
ATOM      9  C   UNL     1      19.318 -12.623  68.545  1.00  0.00    -0.019 C 
ATOM     10  C   UNL     1      20.100 -13.962  68.562  1.00  0.00     0.012 C 
ATOM     11  C   UNL     1      17.977 -12.832  69.304  1.00  0.00     0.012 C 
ENDROOT
TORSDOF 0
ENDMDL
MODEL 3
REMARK VINA RESULT:    -4.952     16.006     17.300
REMARK INTER + INTRA:          -4.952
REMARK INTER:                  -4.952
REMARK INTRA:                   0.000
REMARK UNBOUND:                 0.000
REMARK SMILES CC1=CC(=O)[C@@H]2C[C@H]1C2(C)C
REMARK SMILES IDX 1 1 2 2 3 3 4 4 5 5 6 6 7 7 8 8 9 9 10 10 11 11
REMARK H PARENT
REMARK Flexibility Score: inf
ROOT
ATOM      1  C   UNL     1      10.311  -8.504  55.025  1.00  0.00     0.040 C 
ATOM      2  C   UNL     1       8.829  -8.698  55.101  1.00  0.00    -0.066 C 
ATOM      3  C   UNL     1       8.230  -9.796  54.566  1.00  0.00     0.047 C 
ATOM      4  C   UNL     1       6.744  -9.889  54.734  1.00  0.00     0.159 C 
ATOM      5  O   UNL     1       6.080 -10.874  54.318  1.00  0.00    -0.295 OA
ATOM      6  C   UNL     1       6.090  -8.704  55.447  1.00  0.00     0.067 C 
ATOM      7  C   UNL     1       6.732  -7.465  54.786  1.00  0.00     0.021 C 
ATOM      8  C   UNL     1       7.908  -7.657  55.772  1.00  0.00     0.022 C 
ATOM      9  C   UNL     1       6.915  -8.381  56.726  1.00  0.00    -0.019 C 
ATOM     10  C   UNL     1       6.178  -7.396  57.669  1.00  0.00     0.012 C 
ATOM     11  C   UNL     1       7.449  -9.567  57.579  1.00  0.00     0.012 C 
ENDROOT
TORSDOF 0
ENDMDL
MODEL 4
REMARK VINA RESULT:    -4.944      4.713      5.916
REMARK INTER + INTRA:          -4.944
REMARK INTER:                  -4.944
REMARK INTRA:                   0.000
REMARK UNBOUND:                 0.000
REMARK SMILES CC1=CC(=O)[C@@H]2C[C@H]1C2(C)C
REMARK SMILES IDX 1 1 2 2 3 3 4 4 5 5 6 6 7 7 8 8 9 9 10 10 11 11
REMARK H PARENT
REMARK Flexibility Score: inf
ROOT
ATOM      1  C   UNL     1      17.282 -10.786  66.490  1.00  0.00     0.040 C 
ATOM      2  C   UNL     1      16.875 -10.875  65.052  1.00  0.00    -0.066 C 
ATOM      3  C   UNL     1      17.208 -11.951  64.288  1.00  0.00     0.047 C 
ATOM      4  C   UNL     1      16.717 -11.936  62.872  1.00  0.00     0.159 C 
ATOM      5  O   UNL     1      16.925 -12.889  62.078  1.00  0.00    -0.295 OA
ATOM      6  C   UNL     1      15.943 -10.682  62.461  1.00  0.00     0.067 C 
ATOM      7  C   UNL     1      16.793  -9.517  63.011  1.00  0.00     0.021 C 
ATOM      8  C   UNL     1      16.078  -9.748  64.362  1.00  0.00     0.022 C 
ATOM      9  C   UNL     1      14.893 -10.366  63.564  1.00  0.00    -0.019 C 
ATOM     10  C   UNL     1      13.866  -9.296  63.110  1.00  0.00     0.012 C 
ATOM     11  C   UNL     1      14.114 -11.549  64.204  1.00  0.00     0.012 C 
ENDROOT
TORSDOF 0
ENDMDL
MODEL 5
REMARK VINA RESULT:    -4.842     15.960     17.071
REMARK INTER + INTRA:          -4.842
REMARK INTER:                  -4.842
REMARK INTRA:                   0.000
REMARK UNBOUND:                 0.000
REMARK SMILES CC1=CC(=O)[C@@H]2C[C@H]1C2(C)C
REMARK SMILES IDX 1 1 2 2 3 3 4 4 5 5 6 6 7 7 8 8 9 9 10 10 11 11
REMARK H PARENT
REMARK Flexibility Score: inf
ROOT
ATOM      1  C   UNL     1       6.017  -8.019  58.318  1.00  0.00     0.040 C 
ATOM      2  C   UNL     1       6.536  -8.854  57.190  1.00  0.00    -0.066 C 
ATOM      3  C   UNL     1       5.701  -9.608  56.424  1.00  0.00     0.047 C 
ATOM      4  C   UNL     1       6.339 -10.376  55.306  1.00  0.00     0.159 C 
ATOM      5  O   UNL     1       5.669 -11.078  54.506  1.00  0.00    -0.295 OA
ATOM      6  C   UNL     1       7.859 -10.246  55.207  1.00  0.00     0.067 C 
ATOM      7  C   UNL     1       8.349 -10.419  56.661  1.00  0.00     0.021 C 
ATOM      8  C   UNL     1       8.040  -8.916  56.852  1.00  0.00     0.022 C 
ATOM      9  C   UNL     1       8.234  -8.740  55.318  1.00  0.00    -0.019 C 
ATOM     10  C   UNL     1       9.713  -8.472  54.937  1.00  0.00     0.012 C 
ATOM     11  C   UNL     1       7.344  -7.701  54.579  1.00  0.00     0.012 C 
ENDROOT
TORSDOF 0
ENDMDL
MODEL 6
REMARK VINA RESULT:    -4.785      4.721      6.032
REMARK INTER + INTRA:          -4.785
REMARK INTER:                  -4.785
REMARK INTRA:                   0.000
REMARK UNBOUND:                 0.000
REMARK SMILES CC1=CC(=O)[C@@H]2C[C@H]1C2(C)C
REMARK SMILES IDX 1 1 2 2 3 3 4 4 5 5 6 6 7 7 8 8 9 9 10 10 11 11
REMARK H PARENT
REMARK Flexibility Score: inf
ROOT
ATOM      1  C   UNL     1      14.323  -8.904  62.868  1.00  0.00     0.040 C 
ATOM      2  C   UNL     1      15.194 -10.085  63.163  1.00  0.00    -0.066 C 
ATOM      3  C   UNL     1      15.539 -10.971  62.189  1.00  0.00     0.047 C 
ATOM      4  C   UNL     1      16.440 -12.094  62.604  1.00  0.00     0.159 C 
ATOM      5  O   UNL     1      16.860 -12.955  61.788  1.00  0.00    -0.295 OA
ATOM      6  C   UNL     1      16.813 -12.121  64.087  1.00  0.00     0.067 C 
ATOM      7  C   UNL     1      15.476 -11.874  64.817  1.00  0.00     0.021 C 
ATOM      8  C   UNL     1      15.727 -10.366  64.584  1.00  0.00     0.022 C 
ATOM      9  C   UNL     1      17.248 -10.689  64.513  1.00  0.00    -0.019 C 
ATOM     10  C   UNL     1      17.921 -10.669  65.909  1.00  0.00     0.012 C 
ATOM     11  C   UNL     1      18.129  -9.862  63.534  1.00  0.00     0.012 C 
ENDROOT
TORSDOF 0
ENDMDL
MODEL 7
REMARK VINA RESULT:    -4.779      1.274      2.977
REMARK INTER + INTRA:          -4.779
REMARK INTER:                  -4.779
REMARK INTRA:                   0.000
REMARK UNBOUND:                 0.000
REMARK SMILES CC1=CC(=O)[C@@H]2C[C@H]1C2(C)C
REMARK SMILES IDX 1 1 2 2 3 3 4 4 5 5 6 6 7 7 8 8 9 9 10 10 11 11
REMARK H PARENT
REMARK Flexibility Score: inf
ROOT
ATOM      1  C   UNL     1      20.908 -10.464  65.308  1.00  0.00     0.040 C 
ATOM      2  C   UNL     1      20.138 -11.057  66.446  1.00  0.00    -0.066 C 
ATOM      3  C   UNL     1      20.642 -11.074  67.710  1.00  0.00     0.047 C 
ATOM      4  C   UNL     1      19.762 -11.668  68.767  1.00  0.00     0.159 C 
ATOM      5  O   UNL     1      20.098 -11.706  69.979  1.00  0.00    -0.295 OA
ATOM      6  C   UNL     1      18.426 -12.224  68.270  1.00  0.00     0.067 C 
ATOM      7  C   UNL     1      18.799 -13.034  67.010  1.00  0.00     0.021 C 
ATOM      8  C   UNL     1      18.747 -11.695  66.240  1.00  0.00     0.022 C 
ATOM      9  C   UNL     1      17.770 -11.170  67.332  1.00  0.00    -0.019 C 
ATOM     10  C   UNL     1      16.292 -11.506  67.012  1.00  0.00     0.012 C 
ATOM     11  C   UNL     1      17.854  -9.670  67.734  1.00  0.00     0.012 C 
ENDROOT
TORSDOF 0
ENDMDL
MODEL 8
REMARK VINA RESULT:    -4.774      3.971      4.981
REMARK INTER + INTRA:          -4.774
REMARK INTER:                  -4.774
REMARK INTRA:                   0.000
REMARK UNBOUND:                 0.000
REMARK SMILES CC1=CC(=O)[C@@H]2C[C@H]1C2(C)C
REMARK SMILES IDX 1 1 2 2 3 3 4 4 5 5 6 6 7 7 8 8 9 9 10 10 11 11
REMARK H PARENT
REMARK Flexibility Score: inf
ROOT
ATOM      1  C   UNL     1      16.337 -11.463  66.678  1.00  0.00     0.040 C 
ATOM      2  C   UNL     1      16.796 -10.853  65.391  1.00  0.00    -0.066 C 
ATOM      3  C   UNL     1      18.117 -10.793  65.068  1.00  0.00     0.047 C 
ATOM      4  C   UNL     1      18.447 -10.185  63.738  1.00  0.00     0.159 C 
ATOM      5  O   UNL     1      19.627 -10.108  63.309  1.00  0.00    -0.295 OA
ATOM      6  C   UNL     1      17.250  -9.667  62.940  1.00  0.00     0.067 C 
ATOM      7  C   UNL     1      16.414  -8.886  63.977  1.00  0.00     0.021 C 
ATOM      8  C   UNL     1      15.801 -10.247  64.379  1.00  0.00     0.022 C 
ATOM      9  C   UNL     1      16.141 -10.758  62.949  1.00  0.00    -0.019 C 
ATOM     10  C   UNL     1      15.011 -10.458  61.931  1.00  0.00     0.012 C 
ATOM     11  C   UNL     1      16.565 -12.245  62.782  1.00  0.00     0.012 C 
ENDROOT
TORSDOF 0
ENDMDL
MODEL 9
REMARK VINA RESULT:    -4.658      2.571      4.124
REMARK INTER + INTRA:          -4.658
REMARK INTER:                  -4.658
REMARK INTRA:                   0.000
REMARK UNBOUND:                 0.000
REMARK SMILES CC1=CC(=O)[C@@H]2C[C@H]1C2(C)C
REMARK SMILES IDX 1 1 2 2 3 3 4 4 5 5 6 6 7 7 8 8 9 9 10 10 11 11
REMARK H PARENT
REMARK Flexibility Score: inf
ROOT
ATOM      1  C   UNL     1      19.545  -9.624  64.414  1.00  0.00     0.040 C 
ATOM      2  C   UNL     1      18.420 -10.190  65.222  1.00  0.00    -0.066 C 
ATOM      3  C   UNL     1      17.213 -10.469  64.658  1.00  0.00     0.047 C 
ATOM      4  C   UNL     1      16.178 -11.061  65.566  1.00  0.00     0.159 C 
ATOM      5  O   UNL     1      15.037 -11.398  65.156  1.00  0.00    -0.295 OA
ATOM      6  C   UNL     1      16.605 -11.228  67.025  1.00  0.00     0.067 C 
ATOM      7  C   UNL     1      17.285  -9.886  67.375  1.00  0.00     0.021 C 
ATOM      8  C   UNL     1      18.565 -10.468  66.734  1.00  0.00     0.022 C 
ATOM      9  C   UNL     1      18.014 -11.887  67.055  1.00  0.00    -0.019 C 
ATOM     10  C   UNL     1      18.410 -12.365  68.476  1.00  0.00     0.012 C 
ATOM     11  C   UNL     1      18.313 -13.036  66.052  1.00  0.00     0.012 C 
ENDROOT
TORSDOF 0
ENDMDL
