MODEL 1
REMARK VINA RESULT:    -3.248      0.000      0.000
REMARK INTER + INTRA:          -4.721
REMARK INTER:                  -4.198
REMARK INTRA:                  -0.524
REMARK UNBOUND:                -0.524
REMARK SMILES C=CC(=O)CCCCC
REMARK SMILES IDX 6 1 7 2 8 3 9 4 5 5 3 6 4 7 2 8 1 9
REMARK H PARENT
REMARK Flexibility Score: inf
ROOT
ATOM      1  C   UNL     1      10.169 -15.030  23.890  1.00  0.00     0.008 C 
ENDROOT
BRANCH   1   2
ATOM      2  C   UNL     1      10.911 -16.189  24.572  1.00  0.00     0.000 C 
BRANCH   2   3
ATOM      3  C   UNL     1      10.305 -16.497  25.946  1.00  0.00    -0.003 C 
ATOM      4  C   UNL     1      10.237 -18.000  26.195  1.00  0.00     0.004 C 
ENDBRANCH   2   3
ENDBRANCH   1   2
BRANCH   1   5
ATOM      5  C   UNL     1       8.799 -14.760  24.528  1.00  0.00     0.080 C 
BRANCH   5   6
ATOM      6  C   UNL     1       7.668 -14.968  23.554  1.00  0.00     0.155 C 
ATOM      7  O   UNL     1       7.364 -14.026  22.774  1.00  0.00    -0.295 OA
BRANCH   6   8
ATOM      8  C   UNL     1       6.875 -16.215  23.486  1.00  0.00     0.039 C 
ATOM      9  C   UNL     1       6.939 -17.189  24.392  1.00  0.00     0.012 C 
ENDBRANCH   6   8
ENDBRANCH   5   6
ENDBRANCH   1   5
TORSDOF 5
ENDMDL
MODEL 2
REMARK VINA RESULT:    -3.244      1.355      3.314
REMARK INTER + INTRA:          -4.716
REMARK INTER:                  -4.193
REMARK INTRA:                  -0.523
REMARK UNBOUND:                -0.524
REMARK SMILES C=CC(=O)CCCCC
REMARK SMILES IDX 6 1 7 2 8 3 9 4 5 5 3 6 4 7 2 8 1 9
REMARK H PARENT
REMARK Flexibility Score: inf
ROOT
ATOM      1  C   UNL     1       7.449 -16.214  22.867  1.00  0.00     0.008 C 
ENDROOT
BRANCH   1   2
ATOM      2  C   UNL     1       6.339 -16.951  23.630  1.00  0.00     0.000 C 
BRANCH   2   3
ATOM      3  C   UNL     1       6.869 -18.243  24.260  1.00  0.00    -0.003 C 
ATOM      4  C   UNL     1       6.812 -18.178  25.783  1.00  0.00     0.004 C 
ENDBRANCH   2   3
ENDBRANCH   1   2
BRANCH   1   5
ATOM      5  C   UNL     1       7.792 -14.859  23.502  1.00  0.00     0.080 C 
BRANCH   5   6
ATOM      6  C   UNL     1       9.105 -14.895  24.243  1.00  0.00     0.155 C 
ATOM      7  O   UNL     1      10.117 -14.376  23.700  1.00  0.00    -0.295 OA
BRANCH   6   8
ATOM      8  C   UNL     1       9.271 -15.534  25.566  1.00  0.00     0.039 C 
ATOM      9  C   UNL     1      10.200 -16.448  25.842  1.00  0.00     0.012 C 
ENDBRANCH   6   8
ENDBRANCH   5   6
ENDBRANCH   1   5
TORSDOF 5
ENDMDL
MODEL 3
REMARK VINA RESULT:    -3.236      2.156      4.157
REMARK INTER + INTRA:          -4.706
REMARK INTER:                  -4.175
REMARK INTRA:                  -0.532
REMARK UNBOUND:                -0.524
REMARK SMILES C=CC(=O)CCCCC
REMARK SMILES IDX 6 1 7 2 8 3 9 4 5 5 3 6 4 7 2 8 1 9
REMARK H PARENT
REMARK Flexibility Score: inf
ROOT
ATOM      1  C   UNL     1       7.414 -17.466  25.095  1.00  0.00     0.008 C 
ENDROOT
BRANCH   1   2
ATOM      2  C   UNL     1       6.497 -17.036  23.941  1.00  0.00     0.000 C 
BRANCH   2   3
ATOM      3  C   UNL     1       7.185 -17.239  22.587  1.00  0.00    -0.003 C 
ATOM      4  C   UNL     1       7.129 -15.969  21.744  1.00  0.00     0.004 C 
ENDBRANCH   2   3
ENDBRANCH   1   2
BRANCH   1   5
ATOM      5  C   UNL     1       7.940 -16.268  25.899  1.00  0.00     0.080 C 
BRANCH   5   6
ATOM      6  C   UNL     1       9.314 -15.841  25.449  1.00  0.00     0.155 C 
ATOM      7  O   UNL     1      10.317 -16.318  26.044  1.00  0.00    -0.295 OA
BRANCH   6   8
ATOM      8  C   UNL     1       9.543 -14.867  24.360  1.00  0.00     0.039 C 
ATOM      9  C   UNL     1      10.504 -14.984  23.445  1.00  0.00     0.012 C 
ENDBRANCH   6   8
ENDBRANCH   5   6
ENDBRANCH   1   5
TORSDOF 5
ENDMDL
MODEL 4
REMARK VINA RESULT:    -3.139      1.087      1.688
REMARK INTER + INTRA:          -4.581
REMARK INTER:                  -3.993
REMARK INTRA:                  -0.588
REMARK UNBOUND:                -0.524
REMARK SMILES C=CC(=O)CCCCC
REMARK SMILES IDX 6 1 7 2 8 3 9 4 5 5 3 6 4 7 2 8 1 9
REMARK H PARENT
REMARK Flexibility Score: inf
ROOT
ATOM      1  C   UNL     1       8.653 -14.697  24.390  1.00  0.00     0.008 C 
ENDROOT
BRANCH   1   2
ATOM      2  C   UNL     1      10.076 -14.907  23.853  1.00  0.00     0.000 C 
BRANCH   2   3
ATOM      3  C   UNL     1      10.709 -16.169  24.449  1.00  0.00    -0.003 C 
ATOM      4  C   UNL     1      10.209 -16.420  25.869  1.00  0.00     0.004 C 
ENDBRANCH   2   3
ENDBRANCH   1   2
BRANCH   1   5
ATOM      5  C   UNL     1       7.597 -14.751  23.278  1.00  0.00     0.080 C 
BRANCH   5   6
ATOM      6  C   UNL     1       7.127 -16.157  23.006  1.00  0.00     0.155 C 
ATOM      7  O   UNL     1       7.000 -16.529  21.809  1.00  0.00    -0.295 OA
BRANCH   6   8
ATOM      8  C   UNL     1       6.782 -17.117  24.078  1.00  0.00     0.039 C 
ATOM      9  C   UNL     1       7.317 -18.331  24.193  1.00  0.00     0.012 C 
ENDBRANCH   6   8
ENDBRANCH   5   6
ENDBRANCH   1   5
TORSDOF 5
ENDMDL
MODEL 5
REMARK VINA RESULT:    -3.122      1.870      3.537
REMARK INTER + INTRA:          -4.558
REMARK INTER:                  -3.966
REMARK INTRA:                  -0.592
REMARK UNBOUND:                -0.524
REMARK SMILES C=CC(=O)CCCCC
REMARK SMILES IDX 6 1 7 2 8 3 9 4 5 5 3 6 4 7 2 8 1 9
REMARK H PARENT
REMARK Flexibility Score: inf
ROOT
ATOM      1  C   UNL     1       6.766 -15.671  23.110  1.00  0.00     0.008 C 
ENDROOT
BRANCH   1   2
ATOM      2  C   UNL     1       7.369 -16.763  22.216  1.00  0.00     0.000 C 
BRANCH   2   3
ATOM      3  C   UNL     1       7.282 -18.136  22.892  1.00  0.00    -0.003 C 
ATOM      4  C   UNL     1       8.666 -18.653  23.272  1.00  0.00     0.004 C 
ENDBRANCH   2   3
ENDBRANCH   1   2
BRANCH   1   5
ATOM      5  C   UNL     1       7.806 -14.623  23.531  1.00  0.00     0.080 C 
BRANCH   5   6
ATOM      6  C   UNL     1       8.744 -15.145  24.589  1.00  0.00     0.155 C 
ATOM      7  O   UNL     1       8.276 -15.419  25.727  1.00  0.00    -0.295 OA
BRANCH   6   8
ATOM      8  C   UNL     1      10.195 -15.328  24.368  1.00  0.00     0.039 C 
ATOM      9  C   UNL     1      10.803 -15.125  23.200  1.00  0.00     0.012 C 
ENDBRANCH   6   8
ENDBRANCH   5   6
ENDBRANCH   1   5
TORSDOF 5
ENDMDL
MODEL 6
REMARK VINA RESULT:    -3.112     10.180     12.058
REMARK INTER + INTRA:          -4.545
REMARK INTER:                  -4.063
REMARK INTRA:                  -0.482
REMARK UNBOUND:                -0.524
REMARK SMILES C=CC(=O)CCCCC
REMARK SMILES IDX 6 1 7 2 8 3 9 4 5 5 3 6 4 7 2 8 1 9
REMARK H PARENT
REMARK Flexibility Score: inf
ROOT
ATOM      1  C   UNL     1      18.000 -21.830  24.288  1.00  0.00     0.008 C 
ENDROOT
BRANCH   1   2
ATOM      2  C   UNL     1      16.921 -21.330  23.318  1.00  0.00     0.000 C 
BRANCH   2   3
ATOM      3  C   UNL     1      16.661 -19.832  23.509  1.00  0.00    -0.003 C 
ATOM      4  C   UNL     1      16.600 -19.107  22.168  1.00  0.00     0.004 C 
ENDBRANCH   2   3
ENDBRANCH   1   2
BRANCH   1   5
ATOM      5  C   UNL     1      19.265 -22.304  23.558  1.00  0.00     0.080 C 
BRANCH   5   6
ATOM      6  C   UNL     1      20.453 -21.423  23.850  1.00  0.00     0.155 C 
ATOM      7  O   UNL     1      21.066 -21.580  24.940  1.00  0.00    -0.295 OA
BRANCH   6   8
ATOM      8  C   UNL     1      20.921 -20.363  22.930  1.00  0.00     0.039 C 
ATOM      9  C   UNL     1      20.260 -19.230  22.700  1.00  0.00     0.012 C 
ENDBRANCH   6   8
ENDBRANCH   5   6
ENDBRANCH   1   5
TORSDOF 5
ENDMDL
MODEL 7
REMARK VINA RESULT:    -3.104      1.936      3.694
REMARK INTER + INTRA:          -4.534
REMARK INTER:                  -3.950
REMARK INTRA:                  -0.585
REMARK UNBOUND:                -0.524
REMARK SMILES C=CC(=O)CCCCC
REMARK SMILES IDX 6 1 7 2 8 3 9 4 5 5 3 6 4 7 2 8 1 9
REMARK H PARENT
REMARK Flexibility Score: inf
ROOT
ATOM      1  C   UNL     1       8.621 -14.691  24.417  1.00  0.00     0.008 C 
ENDROOT
BRANCH   1   2
ATOM      2  C   UNL     1       7.618 -14.973  23.290  1.00  0.00     0.000 C 
BRANCH   2   3
ATOM      3  C   UNL     1       6.794 -16.231  23.588  1.00  0.00    -0.003 C 
ATOM      4  C   UNL     1       7.188 -17.380  22.666  1.00  0.00     0.004 C 
ENDBRANCH   2   3
ENDBRANCH   1   2
BRANCH   1   5
ATOM      5  C   UNL     1      10.053 -15.090  24.036  1.00  0.00     0.080 C 
BRANCH   5   6
ATOM      6  C   UNL     1      10.564 -16.239  24.867  1.00  0.00     0.155 C 
ATOM      7  O   UNL     1      11.728 -16.671  24.648  1.00  0.00    -0.295 OA
BRANCH   6   8
ATOM      8  C   UNL     1       9.756 -16.906  25.911  1.00  0.00     0.039 C 
ATOM      9  C   UNL     1       9.235 -18.126  25.786  1.00  0.00     0.012 C 
ENDBRANCH   6   8
ENDBRANCH   5   6
ENDBRANCH   1   5
TORSDOF 5
ENDMDL
MODEL 8
REMARK VINA RESULT:    -3.045      3.730      5.261
REMARK INTER + INTRA:          -4.459
REMARK INTER:                  -4.131
REMARK INTRA:                  -0.328
REMARK UNBOUND:                -0.524
REMARK SMILES C=CC(=O)CCCCC
REMARK SMILES IDX 6 1 7 2 8 3 9 4 5 5 3 6 4 7 2 8 1 9
REMARK H PARENT
REMARK Flexibility Score: inf
ROOT
ATOM      1  C   UNL     1       6.143 -20.018  22.921  1.00  0.00     0.008 C 
ENDROOT
BRANCH   1   2
ATOM      2  C   UNL     1       6.744 -20.172  21.517  1.00  0.00     0.000 C 
BRANCH   2   3
ATOM      3  C   UNL     1       8.045 -20.980  21.561  1.00  0.00    -0.003 C 
ATOM      4  C   UNL     1       7.864 -22.353  20.921  1.00  0.00     0.004 C 
ENDBRANCH   2   3
ENDBRANCH   1   2
BRANCH   1   5
ATOM      5  C   UNL     1       7.167 -19.500  23.940  1.00  0.00     0.080 C 
BRANCH   5   6
ATOM      6  C   UNL     1       6.755 -18.181  24.541  1.00  0.00     0.155 C 
ATOM      7  O   UNL     1       6.730 -18.072  25.796  1.00  0.00    -0.295 OA
BRANCH   6   8
ATOM      8  C   UNL     1       6.350 -17.012  23.730  1.00  0.00     0.039 C 
ATOM      9  C   UNL     1       7.095 -16.482  22.762  1.00  0.00     0.012 C 
ENDBRANCH   6   8
ENDBRANCH   5   6
ENDBRANCH   1   5
TORSDOF 5
ENDMDL
MODEL 9
REMARK VINA RESULT:    -3.039      2.085      3.220
REMARK INTER + INTRA:          -4.452
REMARK INTER:                  -4.096
REMARK INTRA:                  -0.355
REMARK UNBOUND:                -0.524
REMARK SMILES C=CC(=O)CCCCC
REMARK SMILES IDX 6 1 7 2 8 3 9 4 5 5 3 6 4 7 2 8 1 9
REMARK H PARENT
REMARK Flexibility Score: inf
ROOT
ATOM      1  C   UNL     1       7.625 -16.044  22.984  1.00  0.00     0.008 C 
ENDROOT
BRANCH   1   2
ATOM      2  C   UNL     1       8.013 -14.780  23.764  1.00  0.00     0.000 C 
BRANCH   2   3
ATOM      3  C   UNL     1       9.508 -14.778  24.101  1.00  0.00    -0.003 C 
ATOM      4  C   UNL     1       9.848 -15.868  25.112  1.00  0.00     0.004 C 
ENDBRANCH   2   3
ENDBRANCH   1   2
BRANCH   1   5
ATOM      5  C   UNL     1       6.348 -16.698  23.530  1.00  0.00     0.080 C 
BRANCH   5   6
ATOM      6  C   UNL     1       6.650 -17.824  24.486  1.00  0.00     0.155 C 
ATOM      7  O   UNL     1       6.608 -17.591  25.724  1.00  0.00    -0.295 OA
BRANCH   6   8
ATOM      8  C   UNL     1       7.019 -19.186  24.043  1.00  0.00     0.039 C 
ATOM      9  C   UNL     1       6.385 -19.855  23.081  1.00  0.00     0.012 C 
ENDBRANCH   6   8
ENDBRANCH   5   6
ENDBRANCH   1   5
TORSDOF 5
ENDMDL
