MODEL 1
REMARK VINA RESULT:    -2.490      0.000      0.000
REMARK INTER + INTRA:          -8.636
REMARK INTER:                  -5.693
REMARK INTRA:                  -2.942
REMARK UNBOUND:                -2.942
REMARK SMILES CCCCCCCCCCCCCCCCCCCCCCCC(=O)[O-]
REMARK SMILES IDX 13 1 14 2 15 3 16 4 17 5 18 6 19 7 20 8 21 9 22 10 23 11
REMARK SMILES IDX 24 12 25 13 26 14 12 15 11 16 10 17 9 18 8 19 7 20 6 21 5 22
REMARK SMILES IDX 4 23 3 24 2 25 1 26
REMARK H PARENT
REMARK Flexibility Score: inf
ROOT
ATOM      1  C   UNL     1      22.860  34.605  10.764  1.00  0.00     0.000 C 
ENDROOT
BRANCH   1   2
ATOM      2  C   UNL     1      22.161  34.323  12.107  1.00  0.00     0.000 C 
BRANCH   2   3
ATOM      3  C   UNL     1      23.129  34.031  13.273  1.00  0.00     0.000 C 
BRANCH   3   4
ATOM      4  C   UNL     1      23.044  32.570  13.750  1.00  0.00     0.000 C 
BRANCH   4   5
ATOM      5  C   UNL     1      23.197  32.415  15.274  1.00  0.00     0.000 C 
BRANCH   5   6
ATOM      6  C   UNL     1      22.744  33.629  16.106  1.00  0.00     0.000 C 
BRANCH   6   7
ATOM      7  C   UNL     1      21.234  33.928  16.054  1.00  0.00     0.000 C 
BRANCH   7   8
ATOM      8  C   UNL     1      20.904  35.421  15.839  1.00  0.00     0.000 C 
BRANCH   8   9
ATOM      9  C   UNL     1      22.108  36.332  16.121  1.00  0.00     0.000 C 
BRANCH   9  10
ATOM     10  C   UNL     1      22.657  36.940  14.825  1.00  0.00     0.006 C 
BRANCH  10  11
ATOM     11  C   UNL     1      24.144  37.279  14.966  1.00  0.00     0.053 C 
BRANCH  11  12
ATOM     12  C   UNL     1      24.404  38.684  14.524  1.00  0.00     0.041 C 
ATOM     13  O   UNL     1      24.445  39.617  15.370  1.00  0.00    -0.550 OA
ATOM     14  O   UNL     1      24.547  38.973  13.171  1.00  0.00    -0.550 OA
ENDBRANCH  11  12
ENDBRANCH  10  11
ENDBRANCH   9  10
ENDBRANCH   8   9
ENDBRANCH   7   8
ENDBRANCH   6   7
ENDBRANCH   5   6
ENDBRANCH   4   5
ENDBRANCH   3   4
ENDBRANCH   2   3
ENDBRANCH   1   2
BRANCH   1  15
ATOM     15  C   UNL     1      24.151  33.798  10.572  1.00  0.00     0.000 C 
BRANCH  15  16
ATOM     16  C   UNL     1      23.906  32.551   9.711  1.00  0.00     0.000 C 
BRANCH  16  17
ATOM     17  C   UNL     1      24.312  31.242  10.412  1.00  0.00     0.000 C 
BRANCH  17  18
ATOM     18  C   UNL     1      25.747  31.219  10.974  1.00  0.00    -0.000 C 
BRANCH  18  19
ATOM     19  C   UNL     1      25.850  30.917  12.479  1.00  0.00    -0.000 C 
BRANCH  19  20
ATOM     20  C   UNL     1      26.573  32.014  13.291  1.00  0.00    -0.000 C 
BRANCH  20  21
ATOM     21  C   UNL     1      26.846  33.279  12.459  1.00  0.00    -0.000 C 
BRANCH  21  22
ATOM     22  C   UNL     1      26.838  34.561  13.309  1.00  0.00    -0.000 C 
BRANCH  22  23
ATOM     23  C   UNL     1      25.969  34.426  14.570  1.00  0.00    -0.000 C 
BRANCH  23  24
ATOM     24  C   UNL     1      26.780  34.747  15.835  1.00  0.00    -0.000 C 
BRANCH  24  25
ATOM     25  C   UNL     1      27.862  33.694  16.125  1.00  0.00    -0.003 C 
ATOM     26  C   UNL     1      27.316  32.266  16.125  1.00  0.00     0.004 C 
ENDBRANCH  24  25
ENDBRANCH  23  24
ENDBRANCH  22  23
ENDBRANCH  21  22
ENDBRANCH  20  21
ENDBRANCH  19  20
ENDBRANCH  18  19
ENDBRANCH  17  18
ENDBRANCH  16  17
ENDBRANCH  15  16
ENDBRANCH   1  15
TORSDOF 22
ENDMDL
MODEL 2
REMARK VINA RESULT:    -1.793      3.272      6.633
REMARK INTER + INTRA:          -7.040
REMARK INTER:                  -5.566
REMARK INTRA:                  -1.474
REMARK UNBOUND:                -2.942
REMARK SMILES CCCCCCCCCCCCCCCCCCCCCCCC(=O)[O-]
REMARK SMILES IDX 13 1 14 2 15 3 16 4 17 5 18 6 19 7 20 8 21 9 22 10 23 11
REMARK SMILES IDX 24 12 25 13 26 14 12 15 11 16 10 17 9 18 8 19 7 20 6 21 5 22
REMARK SMILES IDX 4 23 3 24 2 25 1 26
REMARK H PARENT
REMARK Flexibility Score: inf
ROOT
ATOM      1  C   UNL     1      22.659  34.714  11.099  1.00  0.00     0.000 C 
ENDROOT
BRANCH   1   2
ATOM      2  C   UNL     1      23.683  33.624  10.730  1.00  0.00     0.000 C 
BRANCH   2   3
ATOM      3  C   UNL     1      25.004  33.705  11.526  1.00  0.00     0.000 C 
BRANCH   3   4
ATOM      4  C   UNL     1      25.712  32.342  11.621  1.00  0.00     0.000 C 
BRANCH   4   5
ATOM      5  C   UNL     1      26.863  32.321  12.643  1.00  0.00     0.000 C 
BRANCH   5   6
ATOM      6  C   UNL     1      26.429  32.350  14.121  1.00  0.00     0.000 C 
BRANCH   6   7
ATOM      7  C   UNL     1      26.433  33.744  14.774  1.00  0.00     0.000 C 
BRANCH   7   8
ATOM      8  C   UNL     1      25.245  33.985  15.731  1.00  0.00     0.000 C 
BRANCH   8   9
ATOM      9  C   UNL     1      25.094  35.465  16.112  1.00  0.00     0.000 C 
BRANCH   9  10
ATOM     10  C   UNL     1      23.842  36.076  15.470  1.00  0.00     0.006 C 
BRANCH  10  11
ATOM     11  C   UNL     1      24.193  36.800  14.167  1.00  0.00     0.053 C 
BRANCH  11  12
ATOM     12  C   UNL     1      24.404  38.259  14.420  1.00  0.00     0.041 C 
ATOM     13  O   UNL     1      24.422  39.074  13.460  1.00  0.00    -0.550 OA
ATOM     14  O   UNL     1      24.634  38.714  15.715  1.00  0.00    -0.550 OA
ENDBRANCH  11  12
ENDBRANCH  10  11
ENDBRANCH   9  10
ENDBRANCH   8   9
ENDBRANCH   7   8
ENDBRANCH   6   7
ENDBRANCH   5   6
ENDBRANCH   4   5
ENDBRANCH   3   4
ENDBRANCH   2   3
ENDBRANCH   1   2
BRANCH   1  15
ATOM     15  C   UNL     1      22.108  34.570  12.524  1.00  0.00     0.000 C 
BRANCH  15  16
ATOM     16  C   UNL     1      22.740  33.372  13.247  1.00  0.00     0.000 C 
BRANCH  16  17
ATOM     17  C   UNL     1      21.703  32.467  13.937  1.00  0.00     0.000 C 
BRANCH  17  18
ATOM     18  C   UNL     1      21.816  32.396  15.472  1.00  0.00    -0.000 C 
BRANCH  18  19
ATOM     19  C   UNL     1      21.061  31.224  16.125  1.00  0.00    -0.000 C 
BRANCH  19  20
ATOM     20  C   UNL     1      19.709  30.897  15.453  1.00  0.00    -0.000 C 
BRANCH  20  21
ATOM     21  C   UNL     1      18.677  32.025  15.628  1.00  0.00    -0.000 C 
BRANCH  21  22
ATOM     22  C   UNL     1      17.397  31.789  14.807  1.00  0.00    -0.000 C 
BRANCH  22  23
ATOM     23  C   UNL     1      16.395  30.875  15.530  1.00  0.00    -0.000 C 
BRANCH  23  24
ATOM     24  C   UNL     1      15.233  31.690  16.120  1.00  0.00    -0.000 C 
BRANCH  24  25
ATOM     25  C   UNL     1      13.903  31.433  15.392  1.00  0.00    -0.003 C 
ATOM     26  C   UNL     1      12.774  32.341  15.881  1.00  0.00     0.004 C 
ENDBRANCH  24  25
ENDBRANCH  23  24
ENDBRANCH  22  23
ENDBRANCH  21  22
ENDBRANCH  20  21
ENDBRANCH  19  20
ENDBRANCH  18  19
ENDBRANCH  17  18
ENDBRANCH  16  17
ENDBRANCH  15  16
ENDBRANCH   1  15
TORSDOF 22
ENDMDL
MODEL 3
REMARK VINA RESULT:    -1.674      4.860      6.396
REMARK INTER + INTRA:          -6.769
REMARK INTER:                  -6.189
REMARK INTRA:                  -0.581
REMARK UNBOUND:                -2.942
REMARK SMILES CCCCCCCCCCCCCCCCCCCCCCCC(=O)[O-]
REMARK SMILES IDX 13 1 14 2 15 3 16 4 17 5 18 6 19 7 20 8 21 9 22 10 23 11
REMARK SMILES IDX 24 12 25 13 26 14 12 15 11 16 10 17 9 18 8 19 7 20 6 21 5 22
REMARK SMILES IDX 4 23 3 24 2 25 1 26
REMARK H PARENT
REMARK Flexibility Score: inf
ROOT
ATOM      1  C   UNL     1      23.180  34.788  12.344  1.00  0.00     0.000 C 
ENDROOT
BRANCH   1   2
ATOM      2  C   UNL     1      23.577  33.730  13.390  1.00  0.00     0.000 C 
BRANCH   2   3
ATOM      3  C   UNL     1      22.553  33.557  14.533  1.00  0.00     0.000 C 
BRANCH   3   4
ATOM      4  C   UNL     1      22.357  32.081  14.923  1.00  0.00     0.000 C 
BRANCH   4   5
ATOM      5  C   UNL     1      21.415  31.887  16.125  1.00  0.00     0.000 C 
BRANCH   5   6
ATOM      6  C   UNL     1      19.952  32.305  15.886  1.00  0.00     0.000 C 
BRANCH   6   7
ATOM      7  C   UNL     1      19.110  31.297  15.082  1.00  0.00     0.000 C 
BRANCH   7   8
ATOM      8  C   UNL     1      17.769  30.932  15.755  1.00  0.00     0.000 C 
BRANCH   8   9
ATOM      9  C   UNL     1      16.590  31.726  15.174  1.00  0.00     0.000 C 
BRANCH   9  10
ATOM     10  C   UNL     1      15.377  31.679  16.111  1.00  0.00     0.006 C 
BRANCH  10  11
ATOM     11  C   UNL     1      14.125  31.211  15.362  1.00  0.00     0.053 C 
BRANCH  11  12
ATOM     12  C   UNL     1      13.162  32.344  15.196  1.00  0.00     0.041 C 
ATOM     13  O   UNL     1      11.945  32.189  15.480  1.00  0.00    -0.550 OA
ATOM     14  O   UNL     1      13.600  33.558  14.676  1.00  0.00    -0.550 OA
ENDBRANCH  11  12
ENDBRANCH  10  11
ENDBRANCH   9  10
ENDBRANCH   8   9
ENDBRANCH   7   8
ENDBRANCH   6   7
ENDBRANCH   5   6
ENDBRANCH   4   5
ENDBRANCH   3   4
ENDBRANCH   2   3
ENDBRANCH   1   2
BRANCH   1  15
ATOM     15  C   UNL     1      23.081  34.225  10.920  1.00  0.00     0.000 C 
BRANCH  15  16
ATOM     16  C   UNL     1      24.259  33.292  10.607  1.00  0.00     0.000 C 
BRANCH  16  17
ATOM     17  C   UNL     1      25.630  33.931  10.898  1.00  0.00     0.000 C 
BRANCH  17  18
ATOM     18  C   UNL     1      26.454  33.238  12.001  1.00  0.00    -0.000 C 
BRANCH  18  19
ATOM     19  C   UNL     1      26.867  34.147  13.171  1.00  0.00    -0.000 C 
BRANCH  19  20
ATOM     20  C   UNL     1      26.104  33.866  14.484  1.00  0.00    -0.000 C 
BRANCH  20  21
ATOM     21  C   UNL     1      26.420  34.896  15.582  1.00  0.00    -0.000 C 
BRANCH  21  22
ATOM     22  C   UNL     1      25.159  35.590  16.125  1.00  0.00    -0.000 C 
BRANCH  22  23
ATOM     23  C   UNL     1      25.157  37.103  15.856  1.00  0.00    -0.000 C 
BRANCH  23  24
ATOM     24  C   UNL     1      23.725  37.628  15.672  1.00  0.00    -0.000 C 
BRANCH  24  25
ATOM     25  C   UNL     1      23.401  37.958  14.206  1.00  0.00    -0.003 C 
ATOM     26  C   UNL     1      23.953  39.314  13.766  1.00  0.00     0.004 C 
ENDBRANCH  24  25
ENDBRANCH  23  24
ENDBRANCH  22  23
ENDBRANCH  21  22
ENDBRANCH  20  21
ENDBRANCH  19  20
ENDBRANCH  18  19
ENDBRANCH  17  18
ENDBRANCH  16  17
ENDBRANCH  15  16
ENDBRANCH   1  15
TORSDOF 22
ENDMDL
MODEL 4
REMARK VINA RESULT:    -1.320      1.909      5.914
REMARK INTER + INTRA:          -5.959
REMARK INTER:                  -5.027
REMARK INTRA:                  -0.932
REMARK UNBOUND:                -2.942
REMARK SMILES CCCCCCCCCCCCCCCCCCCCCCCC(=O)[O-]
REMARK SMILES IDX 13 1 14 2 15 3 16 4 17 5 18 6 19 7 20 8 21 9 22 10 23 11
REMARK SMILES IDX 24 12 25 13 26 14 12 15 11 16 10 17 9 18 8 19 7 20 6 21 5 22
REMARK SMILES IDX 4 23 3 24 2 25 1 26
REMARK H PARENT
REMARK Flexibility Score: inf
ROOT
ATOM      1  C   UNL     1      23.662  32.059  15.025  1.00  0.00     0.000 C 
ENDROOT
BRANCH   1   2
ATOM      2  C   UNL     1      24.742  30.984  15.250  1.00  0.00     0.000 C 
BRANCH   2   3
ATOM      3  C   UNL     1      26.189  31.515  15.163  1.00  0.00     0.000 C 
BRANCH   3   4
ATOM      4  C   UNL     1      26.354  32.875  15.865  1.00  0.00     0.000 C 
BRANCH   4   5
ATOM      5  C   UNL     1      26.697  34.023  14.898  1.00  0.00     0.000 C 
BRANCH   5   6
ATOM      6  C   UNL     1      25.846  34.077  13.615  1.00  0.00     0.000 C 
BRANCH   6   7
ATOM      7  C   UNL     1      26.584  33.670  12.327  1.00  0.00     0.000 C 
BRANCH   7   8
ATOM      8  C   UNL     1      26.632  32.144  12.094  1.00  0.00     0.000 C 
BRANCH   8   9
ATOM      9  C   UNL     1      25.744  31.704  10.921  1.00  0.00     0.000 C 
BRANCH   9  10
ATOM     10  C   UNL     1      24.779  32.822  10.509  1.00  0.00     0.006 C 
BRANCH  10  11
ATOM     11  C   UNL     1      23.478  32.746  11.315  1.00  0.00     0.053 C 
BRANCH  11  12
ATOM     12  C   UNL     1      22.979  34.119  11.632  1.00  0.00     0.041 C 
ATOM     13  O   UNL     1      22.621  34.408  12.805  1.00  0.00    -0.550 OA
ATOM     14  O   UNL     1      22.859  35.067  10.622  1.00  0.00    -0.550 OA
ENDBRANCH  11  12
ENDBRANCH  10  11
ENDBRANCH   9  10
ENDBRANCH   8   9
ENDBRANCH   7   8
ENDBRANCH   6   7
ENDBRANCH   5   6
ENDBRANCH   4   5
ENDBRANCH   3   4
ENDBRANCH   2   3
ENDBRANCH   1   2
BRANCH   1  15
ATOM     15  C   UNL     1      22.451  31.905  15.954  1.00  0.00     0.000 C 
BRANCH  15  16
ATOM     16  C   UNL     1      21.407  30.952  15.355  1.00  0.00     0.000 C 
BRANCH  16  17
ATOM     17  C   UNL     1      20.013  31.591  15.218  1.00  0.00     0.000 C 
BRANCH  17  18
ATOM     18  C   UNL     1      20.013  33.105  14.932  1.00  0.00    -0.000 C 
BRANCH  18  19
ATOM     19  C   UNL     1      20.421  33.990  16.123  1.00  0.00    -0.000 C 
BRANCH  19  20
ATOM     20  C   UNL     1      21.349  35.165  15.742  1.00  0.00    -0.000 C 
BRANCH  20  21
ATOM     21  C   UNL     1      22.825  34.881  16.073  1.00  0.00    -0.000 C 
BRANCH  21  22
ATOM     22  C   UNL     1      23.696  36.148  16.028  1.00  0.00    -0.000 C 
BRANCH  22  23
ATOM     23  C   UNL     1      23.546  36.920  14.708  1.00  0.00    -0.000 C 
BRANCH  23  24
ATOM     24  C   UNL     1      24.870  37.589  14.307  1.00  0.00    -0.000 C 
BRANCH  24  25
ATOM     25  C   UNL     1      24.658  38.863  13.473  1.00  0.00    -0.003 C 
ATOM     26  C   UNL     1      23.249  39.438  13.615  1.00  0.00     0.004 C 
ENDBRANCH  24  25
ENDBRANCH  23  24
ENDBRANCH  22  23
ENDBRANCH  21  22
ENDBRANCH  20  21
ENDBRANCH  19  20
ENDBRANCH  18  19
ENDBRANCH  17  18
ENDBRANCH  16  17
ENDBRANCH  15  16
ENDBRANCH   1  15
TORSDOF 22
ENDMDL
MODEL 5
REMARK VINA RESULT:    -1.278      2.088      5.413
REMARK INTER + INTRA:          -5.864
REMARK INTER:                  -5.041
REMARK INTRA:                  -0.823
REMARK UNBOUND:                -2.942
REMARK SMILES CCCCCCCCCCCCCCCCCCCCCCCC(=O)[O-]
REMARK SMILES IDX 13 1 14 2 15 3 16 4 17 5 18 6 19 7 20 8 21 9 22 10 23 11
REMARK SMILES IDX 24 12 25 13 26 14 12 15 11 16 10 17 9 18 8 19 7 20 6 21 5 22
REMARK SMILES IDX 4 23 3 24 2 25 1 26
REMARK H PARENT
REMARK Flexibility Score: inf
ROOT
ATOM      1  C   UNL     1      23.969  33.317  11.811  1.00  0.00     0.000 C 
ENDROOT
BRANCH   1   2
ATOM      2  C   UNL     1      25.279  32.811  11.179  1.00  0.00     0.000 C 
BRANCH   2   3
ATOM      3  C   UNL     1      26.531  33.612  11.596  1.00  0.00     0.000 C 
BRANCH   3   4
ATOM      4  C   UNL     1      27.032  33.225  12.999  1.00  0.00     0.000 C 
BRANCH   4   5
ATOM      5  C   UNL     1      26.062  32.303  13.760  1.00  0.00     0.000 C 
BRANCH   5   6
ATOM      6  C   UNL     1      26.455  31.997  15.218  1.00  0.00     0.000 C 
BRANCH   6   7
ATOM      7  C   UNL     1      26.605  33.232  16.125  1.00  0.00     0.000 C 
BRANCH   7   8
ATOM      8  C   UNL     1      25.395  34.191  16.075  1.00  0.00     0.000 C 
BRANCH   8   9
ATOM      9  C   UNL     1      25.820  35.667  16.064  1.00  0.00     0.000 C 
BRANCH   9  10
ATOM     10  C   UNL     1      25.040  36.459  15.007  1.00  0.00     0.006 C 
BRANCH  10  11
ATOM     11  C   UNL     1      24.199  37.561  15.660  1.00  0.00     0.053 C 
BRANCH  11  12
ATOM     12  C   UNL     1      24.657  38.908  15.200  1.00  0.00     0.041 C 
ATOM     13  O   UNL     1      24.922  39.107  13.985  1.00  0.00    -0.550 OA
ATOM     14  O   UNL     1      24.843  39.932  16.123  1.00  0.00    -0.550 OA
ENDBRANCH  11  12
ENDBRANCH  10  11
ENDBRANCH   9  10
ENDBRANCH   8   9
ENDBRANCH   7   8
ENDBRANCH   6   7
ENDBRANCH   5   6
ENDBRANCH   4   5
ENDBRANCH   3   4
ENDBRANCH   2   3
ENDBRANCH   1   2
BRANCH   1  15
ATOM     15  C   UNL     1      23.629  34.763  11.425  1.00  0.00     0.000 C 
BRANCH  15  16
ATOM     16  C   UNL     1      22.364  35.250  12.146  1.00  0.00     0.000 C 
BRANCH  16  17
ATOM     17  C   UNL     1      22.606  35.587  13.629  1.00  0.00     0.000 C 
BRANCH  17  18
ATOM     18  C   UNL     1      21.705  34.832  14.627  1.00  0.00    -0.000 C 
BRANCH  18  19
ATOM     19  C   UNL     1      21.861  33.301  14.612  1.00  0.00    -0.000 C 
BRANCH  19  20
ATOM     20  C   UNL     1      22.480  32.722  15.903  1.00  0.00    -0.000 C 
BRANCH  20  21
ATOM     21  C   UNL     1      22.208  31.215  16.062  1.00  0.00    -0.000 C 
BRANCH  21  22
ATOM     22  C   UNL     1      20.708  30.875  16.010  1.00  0.00    -0.000 C 
BRANCH  22  23
ATOM     23  C   UNL     1      19.818  32.123  16.117  1.00  0.00    -0.000 C 
BRANCH  23  24
ATOM     24  C   UNL     1      18.570  31.987  15.230  1.00  0.00    -0.000 C 
BRANCH  24  25
ATOM     25  C   UNL     1      17.555  30.978  15.791  1.00  0.00    -0.003 C 
ATOM     26  C   UNL     1      16.114  31.302  15.394  1.00  0.00     0.004 C 
ENDBRANCH  24  25
ENDBRANCH  23  24
ENDBRANCH  22  23
ENDBRANCH  21  22
ENDBRANCH  20  21
ENDBRANCH  19  20
ENDBRANCH  18  19
ENDBRANCH  17  18
ENDBRANCH  16  17
ENDBRANCH  15  16
ENDBRANCH   1  15
TORSDOF 22
ENDMDL
MODEL 6
REMARK VINA RESULT:    -1.018      1.292      2.052
REMARK INTER + INTRA:          -5.270
REMARK INTER:                  -3.877
REMARK INTRA:                  -1.393
REMARK UNBOUND:                -2.942
REMARK SMILES CCCCCCCCCCCCCCCCCCCCCCCC(=O)[O-]
REMARK SMILES IDX 13 1 14 2 15 3 16 4 17 5 18 6 19 7 20 8 21 9 22 10 23 11
REMARK SMILES IDX 24 12 25 13 26 14 12 15 11 16 10 17 9 18 8 19 7 20 6 21 5 22
REMARK SMILES IDX 4 23 3 24 2 25 1 26
REMARK H PARENT
REMARK Flexibility Score: inf
ROOT
ATOM      1  C   UNL     1      22.988  34.611  11.191  1.00  0.00     0.000 C 
ENDROOT
BRANCH   1   2
ATOM      2  C   UNL     1      21.987  34.531  12.359  1.00  0.00     0.000 C 
BRANCH   2   3
ATOM      3  C   UNL     1      22.419  33.580  13.495  1.00  0.00     0.000 C 
BRANCH   3   4
ATOM      4  C   UNL     1      21.333  33.432  14.576  1.00  0.00     0.000 C 
BRANCH   4   5
ATOM      5  C   UNL     1      21.823  33.799  15.989  1.00  0.00     0.000 C 
BRANCH   5   6
ATOM      6  C   UNL     1      23.257  34.356  16.062  1.00  0.00     0.000 C 
BRANCH   6   7
ATOM      7  C   UNL     1      23.357  35.891  16.125  1.00  0.00     0.000 C 
BRANCH   7   8
ATOM      8  C   UNL     1      22.172  36.619  15.453  1.00  0.00     0.000 C 
BRANCH   8   9
ATOM      9  C   UNL     1      22.474  38.101  15.187  1.00  0.00     0.000 C 
BRANCH   9  10
ATOM     10  C   UNL     1      23.564  38.261  14.122  1.00  0.00     0.006 C 
BRANCH  10  11
ATOM     11  C   UNL     1      24.232  39.636  14.224  1.00  0.00     0.053 C 
BRANCH  11  12
ATOM     12  C   UNL     1      25.140  39.689  15.411  1.00  0.00     0.041 C 
ATOM     13  O   UNL     1      25.712  38.643  15.819  1.00  0.00    -0.550 OA
ATOM     14  O   UNL     1      25.316  40.884  16.101  1.00  0.00    -0.550 OA
ENDBRANCH  11  12
ENDBRANCH  10  11
ENDBRANCH   9  10
ENDBRANCH   8   9
ENDBRANCH   7   8
ENDBRANCH   6   7
ENDBRANCH   5   6
ENDBRANCH   4   5
ENDBRANCH   3   4
ENDBRANCH   2   3
ENDBRANCH   1   2
BRANCH   1  15
ATOM     15  C   UNL     1      24.383  34.080  11.552  1.00  0.00     0.000 C 
BRANCH  15  16
ATOM     16  C   UNL     1      24.873  33.056  10.519  1.00  0.00     0.000 C 
BRANCH  16  17
ATOM     17  C   UNL     1      24.290  31.648  10.741  1.00  0.00     0.000 C 
BRANCH  17  18
ATOM     18  C   UNL     1      24.873  30.881  11.944  1.00  0.00    -0.000 C 
BRANCH  18  19
ATOM     19  C   UNL     1      24.112  31.077  13.268  1.00  0.00    -0.000 C 
BRANCH  19  20
ATOM     20  C   UNL     1      25.002  30.967  14.525  1.00  0.00    -0.000 C 
BRANCH  20  21
ATOM     21  C   UNL     1      26.502  30.928  14.183  1.00  0.00    -0.000 C 
BRANCH  21  22
ATOM     22  C   UNL     1      27.172  32.308  14.297  1.00  0.00    -0.000 C 
BRANCH  22  23
ATOM     23  C   UNL     1      27.269  32.797  15.751  1.00  0.00    -0.000 C 
BRANCH  23  24
ATOM     24  C   UNL     1      26.835  34.266  15.868  1.00  0.00    -0.000 C 
BRANCH  24  25
ATOM     25  C   UNL     1      26.774  34.974  14.504  1.00  0.00    -0.003 C 
ATOM     26  C   UNL     1      25.369  34.987  13.903  1.00  0.00     0.004 C 
ENDBRANCH  24  25
ENDBRANCH  23  24
ENDBRANCH  22  23
ENDBRANCH  21  22
ENDBRANCH  20  21
ENDBRANCH  19  20
ENDBRANCH  18  19
ENDBRANCH  17  18
ENDBRANCH  16  17
ENDBRANCH  15  16
ENDBRANCH   1  15
TORSDOF 22
ENDMDL
MODEL 7
REMARK VINA RESULT:    -0.848      1.808      5.023
REMARK INTER + INTRA:          -4.880
REMARK INTER:                  -4.889
REMARK INTRA:                   0.009
REMARK UNBOUND:                -2.942
REMARK SMILES CCCCCCCCCCCCCCCCCCCCCCCC(=O)[O-]
REMARK SMILES IDX 13 1 14 2 15 3 16 4 17 5 18 6 19 7 20 8 21 9 22 10 23 11
REMARK SMILES IDX 24 12 25 13 26 14 12 15 11 16 10 17 9 18 8 19 7 20 6 21 5 22
REMARK SMILES IDX 4 23 3 24 2 25 1 26
REMARK H PARENT
REMARK Flexibility Score: inf
ROOT
ATOM      1  C   UNL     1      24.804  33.469  11.088  1.00  0.00     0.000 C 
ENDROOT
BRANCH   1   2
ATOM      2  C   UNL     1      25.553  32.407  10.262  1.00  0.00     0.000 C 
BRANCH   2   3
ATOM      3  C   UNL     1      25.178  30.952  10.615  1.00  0.00     0.000 C 
BRANCH   3   4
ATOM      4  C   UNL     1      24.169  30.875  11.775  1.00  0.00     0.000 C 
BRANCH   4   5
ATOM      5  C   UNL     1      24.791  31.195  13.147  1.00  0.00     0.000 C 
BRANCH   5   6
ATOM      6  C   UNL     1      23.939  32.097  14.059  1.00  0.00     0.000 C 
BRANCH   6   7
ATOM      7  C   UNL     1      24.586  32.455  15.410  1.00  0.00     0.000 C 
BRANCH   7   8
ATOM      8  C   UNL     1      25.690  31.469  15.850  1.00  0.00     0.000 C 
BRANCH   8   9
ATOM      9  C   UNL     1      27.028  32.174  16.118  1.00  0.00     0.000 C 
BRANCH   9  10
ATOM     10  C   UNL     1      26.874  33.698  16.046  1.00  0.00     0.006 C 
BRANCH  10  11
ATOM     11  C   UNL     1      27.733  34.283  14.921  1.00  0.00     0.053 C 
BRANCH  11  12
ATOM     12  C   UNL     1      26.882  34.626  13.739  1.00  0.00     0.041 C 
ATOM     13  O   UNL     1      25.985  35.504  13.837  1.00  0.00    -0.550 OA
ATOM     14  O   UNL     1      27.045  33.937  12.541  1.00  0.00    -0.550 OA
ENDBRANCH  11  12
ENDBRANCH  10  11
ENDBRANCH   9  10
ENDBRANCH   8   9
ENDBRANCH   7   8
ENDBRANCH   6   7
ENDBRANCH   5   6
ENDBRANCH   4   5
ENDBRANCH   3   4
ENDBRANCH   2   3
ENDBRANCH   1   2
BRANCH   1  15
ATOM     15  C   UNL     1      23.313  33.567  10.737  1.00  0.00     0.000 C 
BRANCH  15  16
ATOM     16  C   UNL     1      22.815  35.017  10.825  1.00  0.00     0.000 C 
BRANCH  16  17
ATOM     17  C   UNL     1      22.427  35.437  12.254  1.00  0.00     0.000 C 
BRANCH  17  18
ATOM     18  C   UNL     1      22.311  34.281  13.267  1.00  0.00    -0.000 C 
BRANCH  18  19
ATOM     19  C   UNL     1      21.732  34.675  14.637  1.00  0.00    -0.000 C 
BRANCH  19  20
ATOM     20  C   UNL     1      22.740  35.390  15.563  1.00  0.00    -0.000 C 
BRANCH  20  21
ATOM     21  C   UNL     1      22.205  36.732  16.093  1.00  0.00    -0.000 C 
BRANCH  21  22
ATOM     22  C   UNL     1      22.727  37.936  15.291  1.00  0.00    -0.000 C 
BRANCH  22  23
ATOM     23  C   UNL     1      24.097  37.666  14.649  1.00  0.00    -0.000 C 
BRANCH  23  24
ATOM     24  C   UNL     1      24.979  38.924  14.683  1.00  0.00    -0.000 C 
BRANCH  24  25
ATOM     25  C   UNL     1      24.777  39.750  15.964  1.00  0.00    -0.003 C 
ATOM     26  C   UNL     1      25.818  40.859  16.125  1.00  0.00     0.004 C 
ENDBRANCH  24  25
ENDBRANCH  23  24
ENDBRANCH  22  23
ENDBRANCH  21  22
ENDBRANCH  20  21
ENDBRANCH  19  20
ENDBRANCH  18  19
ENDBRANCH  17  18
ENDBRANCH  16  17
ENDBRANCH  15  16
ENDBRANCH   1  15
TORSDOF 22
ENDMDL
MODEL 8
REMARK VINA RESULT:    -0.834      4.493      6.089
REMARK INTER + INTRA:          -4.849
REMARK INTER:                  -2.106
REMARK INTRA:                  -2.742
REMARK UNBOUND:                -2.942
REMARK SMILES CCCCCCCCCCCCCCCCCCCCCCCC(=O)[O-]
REMARK SMILES IDX 13 1 14 2 15 3 16 4 17 5 18 6 19 7 20 8 21 9 22 10 23 11
REMARK SMILES IDX 24 12 25 13 26 14 12 15 11 16 10 17 9 18 8 19 7 20 6 21 5 22
REMARK SMILES IDX 4 23 3 24 2 25 1 26
REMARK H PARENT
REMARK Flexibility Score: inf
ROOT
ATOM      1  C   UNL     1      25.143  33.730  12.268  1.00  0.00     0.000 C 
ENDROOT
BRANCH   1   2
ATOM      2  C   UNL     1      24.136  34.705  11.629  1.00  0.00     0.000 C 
BRANCH   2   3
ATOM      3  C   UNL     1      22.840  34.899  12.446  1.00  0.00     0.000 C 
BRANCH   3   4
ATOM      4  C   UNL     1      22.086  33.575  12.666  1.00  0.00     0.000 C 
BRANCH   4   5
ATOM      5  C   UNL     1      21.503  33.433  14.084  1.00  0.00     0.000 C 
BRANCH   5   6
ATOM      6  C   UNL     1      20.927  32.045  14.420  1.00  0.00     0.000 C 
BRANCH   6   7
ATOM      7  C   UNL     1      19.429  32.030  14.776  1.00  0.00     0.000 C 
BRANCH   7   8
ATOM      8  C   UNL     1      19.090  31.156  16.003  1.00  0.00     0.000 C 
BRANCH   8   9
ATOM      9  C   UNL     1      17.585  30.875  16.121  1.00  0.00     0.000 C 
BRANCH   9  10
ATOM     10  C   UNL     1      16.789  31.682  15.089  1.00  0.00     0.006 C 
BRANCH  10  11
ATOM     11  C   UNL     1      15.408  31.061  14.855  1.00  0.00     0.053 C 
BRANCH  11  12
ATOM     12  C   UNL     1      14.330  32.030  15.226  1.00  0.00     0.041 C 
ATOM     13  O   UNL     1      13.363  31.659  15.942  1.00  0.00    -0.550 OA
ATOM     14  O   UNL     1      14.366  33.331  14.736  1.00  0.00    -0.550 OA
ENDBRANCH  11  12
ENDBRANCH  10  11
ENDBRANCH   9  10
ENDBRANCH   8   9
ENDBRANCH   7   8
ENDBRANCH   6   7
ENDBRANCH   5   6
ENDBRANCH   4   5
ENDBRANCH   3   4
ENDBRANCH   2   3
ENDBRANCH   1   2
BRANCH   1  15
ATOM     15  C   UNL     1      25.553  32.585  11.334  1.00  0.00     0.000 C 
BRANCH  15  16
ATOM     16  C   UNL     1      25.486  31.229  12.052  1.00  0.00     0.000 C 
BRANCH  16  17
ATOM     17  C   UNL     1      25.775  31.330  13.561  1.00  0.00     0.000 C 
BRANCH  17  18
ATOM     18  C   UNL     1      24.544  31.173  14.475  1.00  0.00    -0.000 C 
BRANCH  18  19
ATOM     19  C   UNL     1      24.694  31.791  15.876  1.00  0.00    -0.000 C 
BRANCH  19  20
ATOM     20  C   UNL     1      24.539  33.327  15.904  1.00  0.00    -0.000 C 
BRANCH  20  21
ATOM     21  C   UNL     1      25.877  34.058  15.699  1.00  0.00    -0.000 C 
BRANCH  21  22
ATOM     22  C   UNL     1      25.772  35.571  15.958  1.00  0.00    -0.000 C 
BRANCH  22  23
ATOM     23  C   UNL     1      24.955  36.298  14.878  1.00  0.00    -0.000 C 
BRANCH  23  24
ATOM     24  C   UNL     1      23.913  37.232  15.512  1.00  0.00    -0.000 C 
BRANCH  24  25
ATOM     25  C   UNL     1      23.530  38.401  14.589  1.00  0.00    -0.003 C 
ATOM     26  C   UNL     1      24.559  38.648  13.485  1.00  0.00     0.004 C 
ENDBRANCH  24  25
ENDBRANCH  23  24
ENDBRANCH  22  23
ENDBRANCH  21  22
ENDBRANCH  20  21
ENDBRANCH  19  20
ENDBRANCH  18  19
ENDBRANCH  17  18
ENDBRANCH  16  17
ENDBRANCH  15  16
ENDBRANCH   1  15
TORSDOF 22
ENDMDL
