MODEL 1
REMARK VINA RESULT:    -7.552      0.000      0.000
REMARK INTER + INTRA:         -12.786
REMARK INTER:                 -11.526
REMARK INTRA:                  -1.260
REMARK UNBOUND:                -1.260
REMARK SMILES OC[C@@H]1O[C@H](O[C@@]2(CO)O[C@H](CO)[C@H](O)[C@H]2O)[C@@H](O)[C@@H](O)[C@H]1O
REMARK SMILES IDX 6 1 5 2 3 3 22 4 4 5 20 6 18 7 2 8 1 9 23 11 21 13 19 15
REMARK SMILES IDX 7 17 16 18 10 19 14 20 11 21 8 22 9 23 17 25 15 27 12 29
REMARK SMILES IDX 13 30
REMARK H PARENT 1 10 23 12 21 14 19 16 9 24 17 26 15 28 13 31
REMARK Flexibility Score: inf
ROOT
ATOM      1  O   UNL     1      17.786   0.202 -11.597  1.00  0.00    -0.313 OA
ENDROOT
BRANCH   1   2
ATOM      2  C   UNL     1      16.853   0.056 -10.530  1.00  0.00     0.285 C 
ATOM      3  C   UNL     1      14.678   0.437 -11.516  1.00  0.00     0.178 C 
ATOM      4  C   UNL     1      15.084  -0.692 -12.501  1.00  0.00     0.177 C 
ATOM      5  O   UNL     1      15.765   0.949 -10.744  1.00  0.00    -0.341 OA
ATOM      6  C   UNL     1      15.731  -1.876 -11.731  1.00  0.00     0.179 C 
ATOM      7  C   UNL     1      16.410  -1.415 -10.416  1.00  0.00     0.202 C 
BRANCH   3   8
ATOM      8  C   UNL     1      14.040   1.625 -12.258  1.00  0.00     0.191 C 
BRANCH   8   9
ATOM      9  O   UNL     1      14.754   1.945 -13.423  1.00  0.00    -0.394 OA
ATOM     10  H   UNL     1      14.933   1.087 -13.891  1.00  0.00     0.210 HD
ENDBRANCH   8   9
ENDBRANCH   3   8
BRANCH   4  11
ATOM     11  O   UNL     1      13.967  -1.132 -13.233  1.00  0.00    -0.387 OA
ATOM     12  H   UNL     1      13.191  -0.598 -12.917  1.00  0.00     0.211 HD
ENDBRANCH   4  11
BRANCH   6  13
ATOM     13  O   UNL     1      14.816  -2.920 -11.492  1.00  0.00    -0.387 OA
ATOM     14  H   UNL     1      14.898  -3.574 -12.235  1.00  0.00     0.211 HD
ENDBRANCH   6  13
BRANCH   7  15
ATOM     15  O   UNL     1      15.539  -1.539  -9.318  1.00  0.00    -0.385 OA
ATOM     16  H   UNL     1      15.673  -0.737  -8.749  1.00  0.00     0.211 HD
ENDBRANCH   7  15
ENDBRANCH   1   2
BRANCH   1  17
ATOM     17  C   UNL     1      19.160   0.173 -11.210  1.00  0.00     0.224 C 
ATOM     18  C   UNL     1      19.994  -0.851 -12.024  1.00  0.00     0.208 C 
ATOM     19  O   UNL     1      19.204  -0.233  -9.855  1.00  0.00    -0.337 OA
ATOM     20  C   UNL     1      20.968  -1.398 -11.009  1.00  0.00     0.180 C 
ATOM     21  C   UNL     1      20.189  -1.234  -9.700  1.00  0.00     0.179 C 
BRANCH  17  22
ATOM     22  C   UNL     1      19.781   1.596 -11.269  1.00  0.00     0.225 C 
BRANCH  22  23
ATOM     23  O   UNL     1      19.820   2.173  -9.991  1.00  0.00    -0.391 OA
ATOM     24  H   UNL     1      18.935   2.598  -9.840  1.00  0.00     0.210 HD
ENDBRANCH  22  23
ENDBRANCH  17  22
BRANCH  18  25
ATOM     25  O   UNL     1      19.202  -1.892 -12.551  1.00  0.00    -0.385 OA
ATOM     26  H   UNL     1      19.804  -2.564 -12.966  1.00  0.00     0.211 HD
ENDBRANCH  18  25
BRANCH  20  27
ATOM     27  O   UNL     1      22.145  -0.628 -11.028  1.00  0.00    -0.387 OA
ATOM     28  H   UNL     1      22.063   0.041 -10.298  1.00  0.00     0.211 HD
ENDBRANCH  20  27
BRANCH  21  29
ATOM     29  C   UNL     1      21.071  -0.917  -8.487  1.00  0.00     0.191 C 
BRANCH  29  30
ATOM     30  O   UNL     1      21.063   0.463  -8.248  1.00  0.00    -0.394 OA
ATOM     31  H   UNL     1      20.139   0.771  -8.438  1.00  0.00     0.210 HD
ENDBRANCH  29  30
ENDBRANCH  21  29
ENDBRANCH   1  17
TORSDOF 13
ENDMDL
MODEL 2
REMARK VINA RESULT:    -7.542      1.646      5.914
REMARK INTER + INTRA:         -12.769
REMARK INTER:                 -11.431
REMARK INTRA:                  -1.339
REMARK UNBOUND:                -1.260
REMARK SMILES OC[C@@H]1O[C@H](O[C@@]2(CO)O[C@H](CO)[C@H](O)[C@H]2O)[C@@H](O)[C@@H](O)[C@H]1O
REMARK SMILES IDX 6 1 5 2 3 3 22 4 4 5 20 6 18 7 2 8 1 9 23 11 21 13 19 15
REMARK SMILES IDX 7 17 16 18 10 19 14 20 11 21 8 22 9 23 17 25 15 27 12 29
REMARK SMILES IDX 13 30
REMARK H PARENT 1 10 23 12 21 14 19 16 9 24 17 26 15 28 13 31
REMARK Flexibility Score: inf
ROOT
ATOM      1  O   UNL     1      18.325  -0.162 -11.624  1.00  0.00    -0.313 OA
ENDROOT
BRANCH   1   2
ATOM      2  C   UNL     1      19.243  -0.045 -10.540  1.00  0.00     0.285 C 
ATOM      3  C   UNL     1      21.419  -0.522 -11.480  1.00  0.00     0.178 C 
ATOM      4  C   UNL     1      21.079   0.616 -12.481  1.00  0.00     0.177 C 
ATOM      5  O   UNL     1      20.298  -0.984 -10.726  1.00  0.00    -0.341 OA
ATOM      6  C   UNL     1      20.466   1.831 -11.731  1.00  0.00     0.179 C 
ATOM      7  C   UNL     1      19.743   1.408 -10.427  1.00  0.00     0.202 C 
BRANCH   3   8
ATOM      8  C   UNL     1      22.023  -1.739 -12.203  1.00  0.00     0.191 C 
BRANCH   8   9
ATOM      9  O   UNL     1      21.342  -2.016 -13.398  1.00  0.00    -0.394 OA
ATOM     10  H   UNL     1      21.923  -1.695 -14.137  1.00  0.00     0.210 HD
ENDBRANCH   8   9
ENDBRANCH   3   8
BRANCH   4  11
ATOM     11  O   UNL     1      22.226   1.005 -13.194  1.00  0.00    -0.387 OA
ATOM     12  H   UNL     1      22.033   0.843 -14.154  1.00  0.00     0.211 HD
ENDBRANCH   4  11
BRANCH   6  13
ATOM     13  O   UNL     1      21.418   2.838 -11.481  1.00  0.00    -0.387 OA
ATOM     14  H   UNL     1      21.072   3.409 -10.745  1.00  0.00     0.211 HD
ENDBRANCH   6  13
BRANCH   7  15
ATOM     15  O   UNL     1      20.596   1.504  -9.313  1.00  0.00    -0.385 OA
ATOM     16  H   UNL     1      21.007   2.408  -9.338  1.00  0.00     0.211 HD
ENDBRANCH   7  15
ENDBRANCH   1   2
BRANCH   1  17
ATOM     17  C   UNL     1      16.947  -0.177 -11.254  1.00  0.00     0.224 C 
ATOM     18  C   UNL     1      16.094   0.834 -12.064  1.00  0.00     0.208 C 
ATOM     19  O   UNL     1      16.875   0.209  -9.894  1.00  0.00    -0.337 OA
ATOM     20  C   UNL     1      15.093   1.339 -11.054  1.00  0.00     0.180 C 
ATOM     21  C   UNL     1      15.860   1.179  -9.738  1.00  0.00     0.179 C 
BRANCH  17  22
ATOM     22  C   UNL     1      16.368  -1.616 -11.339  1.00  0.00     0.225 C 
BRANCH  22  23
ATOM     23  O   UNL     1      16.323  -2.209 -10.069  1.00  0.00    -0.391 OA
ATOM     24  H   UNL     1      16.051  -1.499  -9.430  1.00  0.00     0.210 HD
ENDBRANCH  22  23
ENDBRANCH  17  22
BRANCH  18  25
ATOM     25  O   UNL     1      16.862   1.905 -12.567  1.00  0.00    -0.385 OA
ATOM     26  H   UNL     1      16.245   2.641 -12.817  1.00  0.00     0.211 HD
ENDBRANCH  18  25
BRANCH  20  27
ATOM     27  O   UNL     1      13.938   0.536 -11.097  1.00  0.00    -0.387 OA
ATOM     28  H   UNL     1      14.131  -0.213 -11.719  1.00  0.00     0.211 HD
ENDBRANCH  20  27
BRANCH  21  29
ATOM     29  C   UNL     1      14.973   0.820  -8.540  1.00  0.00     0.191 C 
BRANCH  29  30
ATOM     30  O   UNL     1      14.926  -0.572  -8.390  1.00  0.00    -0.394 OA
ATOM     31  H   UNL     1      15.500  -0.946  -9.108  1.00  0.00     0.210 HD
ENDBRANCH  29  30
ENDBRANCH  21  29
ENDBRANCH   1  17
TORSDOF 13
ENDMDL
MODEL 3
REMARK VINA RESULT:    -7.310      1.207      2.380
REMARK INTER + INTRA:         -12.415
REMARK INTER:                 -10.726
REMARK INTRA:                  -1.690
REMARK UNBOUND:                -1.260
REMARK SMILES OC[C@@H]1O[C@H](O[C@@]2(CO)O[C@H](CO)[C@H](O)[C@H]2O)[C@@H](O)[C@@H](O)[C@H]1O
REMARK SMILES IDX 6 1 5 2 3 3 22 4 4 5 20 6 18 7 2 8 1 9 23 11 21 13 19 15
REMARK SMILES IDX 7 17 16 18 10 19 14 20 11 21 8 22 9 23 17 25 15 27 12 29
REMARK SMILES IDX 13 30
REMARK H PARENT 1 10 23 12 21 14 19 16 9 24 17 26 15 28 13 31
REMARK Flexibility Score: inf
ROOT
ATOM      1  O   UNL     1      17.827  -0.339 -11.526  1.00  0.00    -0.313 OA
ENDROOT
BRANCH   1   2
ATOM      2  C   UNL     1      16.883  -0.460 -10.465  1.00  0.00     0.285 C 
ATOM      3  C   UNL     1      14.761   0.219 -11.405  1.00  0.00     0.178 C 
ATOM      4  C   UNL     1      15.044  -0.876 -12.469  1.00  0.00     0.177 C 
ATOM      5  O   UNL     1      15.896   0.557 -10.607  1.00  0.00    -0.341 OA
ATOM      6  C   UNL     1      15.561  -2.173 -11.789  1.00  0.00     0.179 C 
ATOM      7  C   UNL     1      16.286  -1.880 -10.450  1.00  0.00     0.202 C 
BRANCH   3   8
ATOM      8  C   UNL     1      14.254   1.517 -12.058  1.00  0.00     0.191 C 
BRANCH   8   9
ATOM      9  O   UNL     1      15.052   1.887 -13.150  1.00  0.00    -0.394 OA
ATOM     10  H   UNL     1      14.992   2.875 -13.224  1.00  0.00     0.210 HD
ENDBRANCH   8   9
ENDBRANCH   3   8
BRANCH   4  11
ATOM     11  O   UNL     1      13.887  -1.142 -13.222  1.00  0.00    -0.387 OA
ATOM     12  H   UNL     1      13.235  -1.564 -12.602  1.00  0.00     0.211 HD
ENDBRANCH   4  11
BRANCH   6  13
ATOM     13  O   UNL     1      14.540  -3.127 -11.616  1.00  0.00    -0.387 OA
ATOM     14  H   UNL     1      14.909  -4.016 -11.862  1.00  0.00     0.211 HD
ENDBRANCH   6  13
BRANCH   7  15
ATOM     15  O   UNL     1      15.407  -1.987  -9.357  1.00  0.00    -0.385 OA
ATOM     16  H   UNL     1      14.898  -2.832  -9.474  1.00  0.00     0.211 HD
ENDBRANCH   7  15
ENDBRANCH   1   2
BRANCH   1  17
ATOM     17  C   UNL     1      19.032   0.347 -11.191  1.00  0.00     0.224 C 
ATOM     18  C   UNL     1      18.894   1.890 -11.289  1.00  0.00     0.208 C 
ATOM     19  O   UNL     1      20.013  -0.046 -12.133  1.00  0.00    -0.337 OA
ATOM     20  C   UNL     1      20.238   2.330 -11.816  1.00  0.00     0.180 C 
ATOM     21  C   UNL     1      20.688   1.100 -12.609  1.00  0.00     0.179 C 
BRANCH  17  22
ATOM     22  C   UNL     1      19.552  -0.096  -9.796  1.00  0.00     0.225 C 
BRANCH  22  23
ATOM     23  O   UNL     1      20.255  -1.307  -9.890  1.00  0.00    -0.391 OA
ATOM     24  H   UNL     1      19.577  -2.024 -10.002  1.00  0.00     0.210 HD
ENDBRANCH  22  23
ENDBRANCH  17  22
BRANCH  18  25
ATOM     25  O   UNL     1      17.870   2.283 -12.174  1.00  0.00    -0.385 OA
ATOM     26  H   UNL     1      17.546   1.478 -12.655  1.00  0.00     0.211 HD
ENDBRANCH  18  25
BRANCH  20  27
ATOM     27  O   UNL     1      21.096   2.610 -10.736  1.00  0.00    -0.387 OA
ATOM     28  H   UNL     1      21.060   3.591 -10.587  1.00  0.00     0.211 HD
ENDBRANCH  20  27
BRANCH  21  29
ATOM     29  C   UNL     1      22.202   0.863 -12.584  1.00  0.00     0.191 C 
BRANCH  29  30
ATOM     30  O   UNL     1      22.500  -0.180 -11.698  1.00  0.00    -0.394 OA
ATOM     31  H   UNL     1      23.438  -0.037 -11.409  1.00  0.00     0.210 HD
ENDBRANCH  29  30
ENDBRANCH  21  29
ENDBRANCH   1  17
TORSDOF 13
ENDMDL
MODEL 4
REMARK VINA RESULT:    -7.305      2.049      5.890
REMARK INTER + INTRA:         -12.409
REMARK INTER:                 -10.995
REMARK INTRA:                  -1.414
REMARK UNBOUND:                -1.260
REMARK SMILES OC[C@@H]1O[C@H](O[C@@]2(CO)O[C@H](CO)[C@H](O)[C@H]2O)[C@@H](O)[C@@H](O)[C@H]1O
REMARK SMILES IDX 6 1 5 2 3 3 22 4 4 5 20 6 18 7 2 8 1 9 23 11 21 13 19 15
REMARK SMILES IDX 7 17 16 18 10 19 14 20 11 21 8 22 9 23 17 25 15 27 12 29
REMARK SMILES IDX 13 30
REMARK H PARENT 1 10 23 12 21 14 19 16 9 24 17 26 15 28 13 31
REMARK Flexibility Score: inf
ROOT
ATOM      1  O   UNL     1      16.941   0.138  -8.941  1.00  0.00    -0.313 OA
ENDROOT
BRANCH   1   2
ATOM      2  C   UNL     1      17.446  -1.056  -8.348  1.00  0.00     0.285 C 
ATOM      3  C   UNL     1      19.847  -0.943  -8.610  1.00  0.00     0.178 C 
ATOM      4  C   UNL     1      19.719   0.423  -7.883  1.00  0.00     0.177 C 
ATOM      5  O   UNL     1      18.602  -1.474  -9.067  1.00  0.00    -0.341 OA
ATOM      6  C   UNL     1      18.768   0.300  -6.661  1.00  0.00     0.179 C 
ATOM      7  C   UNL     1      17.719  -0.825  -6.850  1.00  0.00     0.202 C 
BRANCH   3   8
ATOM      8  C   UNL     1      20.780  -0.843  -9.830  1.00  0.00     0.191 C 
BRANCH   8   9
ATOM      9  O   UNL     1      20.883   0.479 -10.289  1.00  0.00    -0.394 OA
ATOM     10  H   UNL     1      20.269   0.559 -11.064  1.00  0.00     0.210 HD
ENDBRANCH   8   9
ENDBRANCH   3   8
BRANCH   4  11
ATOM     11  O   UNL     1      20.984   0.886  -7.479  1.00  0.00    -0.387 OA
ATOM     12  H   UNL     1      21.556   0.083  -7.360  1.00  0.00     0.211 HD
ENDBRANCH   4  11
BRANCH   6  13
ATOM     13  O   UNL     1      19.473   0.141  -5.452  1.00  0.00    -0.387 OA
ATOM     14  H   UNL     1      18.841   0.320  -4.706  1.00  0.00     0.211 HD
ENDBRANCH   6  13
BRANCH   7  15
ATOM     15  O   UNL     1      18.156  -2.035  -6.281  1.00  0.00    -0.385 OA
ATOM     16  H   UNL     1      17.780  -2.077  -5.363  1.00  0.00     0.211 HD
ENDBRANCH   7  15
ENDBRANCH   1   2
BRANCH   1  17
ATOM     17  C   UNL     1      16.472  -0.001 -10.282  1.00  0.00     0.224 C 
ATOM     18  C   UNL     1      17.462   0.572 -11.329  1.00  0.00     0.208 C 
ATOM     19  O   UNL     1      15.273   0.745 -10.385  1.00  0.00    -0.337 OA
ATOM     20  C   UNL     1      16.557   1.172 -12.377  1.00  0.00     0.180 C 
ATOM     21  C   UNL     1      15.315   1.533 -11.557  1.00  0.00     0.179 C 
BRANCH  17  22
ATOM     22  C   UNL     1      16.103  -1.479 -10.588  1.00  0.00     0.225 C 
BRANCH  22  23
ATOM     23  O   UNL     1      17.015  -2.040 -11.494  1.00  0.00    -0.391 OA
ATOM     24  H   UNL     1      16.951  -1.511 -12.332  1.00  0.00     0.210 HD
ENDBRANCH  22  23
ENDBRANCH  17  22
BRANCH  18  25
ATOM     25  O   UNL     1      18.304   1.564 -10.786  1.00  0.00    -0.385 OA
ATOM     26  H   UNL     1      17.738   2.312 -10.463  1.00  0.00     0.211 HD
ENDBRANCH  18  25
BRANCH  20  27
ATOM     27  O   UNL     1      16.281   0.209 -13.365  1.00  0.00    -0.387 OA
ATOM     28  H   UNL     1      16.172   0.699 -14.222  1.00  0.00     0.211 HD
ENDBRANCH  20  27
BRANCH  21  29
ATOM     29  C   UNL     1      13.998   1.394 -12.328  1.00  0.00     0.191 C 
BRANCH  29  30
ATOM     30  O   UNL     1      14.017   2.235 -13.448  1.00  0.00    -0.394 OA
ATOM     31  H   UNL     1      14.955   2.541 -13.547  1.00  0.00     0.210 HD
ENDBRANCH  29  30
ENDBRANCH  21  29
ENDBRANCH   1  17
TORSDOF 13
ENDMDL
MODEL 5
REMARK VINA RESULT:    -7.234      1.619      5.907
REMARK INTER + INTRA:         -12.299
REMARK INTER:                 -10.570
REMARK INTRA:                  -1.730
REMARK UNBOUND:                -1.260
REMARK SMILES OC[C@@H]1O[C@H](O[C@@]2(CO)O[C@H](CO)[C@H](O)[C@H]2O)[C@@H](O)[C@@H](O)[C@H]1O
REMARK SMILES IDX 6 1 5 2 3 3 22 4 4 5 20 6 18 7 2 8 1 9 23 11 21 13 19 15
REMARK SMILES IDX 7 17 16 18 10 19 14 20 11 21 8 22 9 23 17 25 15 27 12 29
REMARK SMILES IDX 13 30
REMARK H PARENT 1 10 23 12 21 14 19 16 9 24 17 26 15 28 13 31
REMARK Flexibility Score: inf
ROOT
ATOM      1  O   UNL     1      18.289   0.368 -11.497  1.00  0.00    -0.313 OA
ENDROOT
BRANCH   1   2
ATOM      2  C   UNL     1      19.242   0.476 -10.443  1.00  0.00     0.285 C 
ATOM      3  C   UNL     1      21.356  -0.184 -11.412  1.00  0.00     0.178 C 
ATOM      4  C   UNL     1      21.061   0.924 -12.459  1.00  0.00     0.177 C 
ATOM      5  O   UNL     1      20.230  -0.536 -10.608  1.00  0.00    -0.341 OA
ATOM      6  C   UNL     1      20.547   2.210 -11.755  1.00  0.00     0.179 C 
ATOM      7  C   UNL     1      19.835   1.897 -10.414  1.00  0.00     0.202 C 
BRANCH   3   8
ATOM      8  C   UNL     1      21.861  -1.472 -12.087  1.00  0.00     0.191 C 
BRANCH   8   9
ATOM      9  O   UNL     1      21.092  -1.794 -13.216  1.00  0.00    -0.394 OA
ATOM     10  H   UNL     1      21.334  -1.138 -13.921  1.00  0.00     0.210 HD
ENDBRANCH   8   9
ENDBRANCH   3   8
BRANCH   4  11
ATOM     11  O   UNL     1      22.211   1.203 -13.218  1.00  0.00    -0.387 OA
ATOM     12  H   UNL     1      22.774   1.809 -12.668  1.00  0.00     0.211 HD
ENDBRANCH   4  11
BRANCH   6  13
ATOM     13  O   UNL     1      21.567   3.165 -11.579  1.00  0.00    -0.387 OA
ATOM     14  H   UNL     1      22.293   2.959 -12.226  1.00  0.00     0.211 HD
ENDBRANCH   6  13
BRANCH   7  15
ATOM     15  O   UNL     1      20.724   1.992  -9.328  1.00  0.00    -0.385 OA
ATOM     16  H   UNL     1      20.173   2.125  -8.512  1.00  0.00     0.211 HD
ENDBRANCH   7  15
ENDBRANCH   1   2
BRANCH   1  17
ATOM     17  C   UNL     1      17.092  -0.336 -11.164  1.00  0.00     0.224 C 
ATOM     18  C   UNL     1      17.242  -1.875 -11.295  1.00  0.00     0.208 C 
ATOM     19  O   UNL     1      16.098   0.069 -12.086  1.00  0.00    -0.337 OA
ATOM     20  C   UNL     1      15.896  -2.316 -11.817  1.00  0.00     0.180 C 
ATOM     21  C   UNL     1      15.427  -1.073 -12.579  1.00  0.00     0.179 C 
BRANCH  17  22
ATOM     22  C   UNL     1      16.584   0.073  -9.754  1.00  0.00     0.225 C 
BRANCH  22  23
ATOM     23  O   UNL     1      15.855   1.270  -9.818  1.00  0.00    -0.391 OA
ATOM     24  H   UNL     1      16.494   1.982 -10.083  1.00  0.00     0.210 HD
ENDBRANCH  22  23
ENDBRANCH  17  22
BRANCH  18  25
ATOM     25  O   UNL     1      18.260  -2.241 -12.199  1.00  0.00    -0.385 OA
ATOM     26  H   UNL     1      18.173  -1.678 -13.013  1.00  0.00     0.211 HD
ENDBRANCH  18  25
BRANCH  20  27
ATOM     27  O   UNL     1      15.053  -2.626 -10.735  1.00  0.00    -0.387 OA
ATOM     28  H   UNL     1      14.197  -2.147 -10.891  1.00  0.00     0.211 HD
ENDBRANCH  20  27
BRANCH  21  29
ATOM     29  C   UNL     1      13.912  -0.849 -12.533  1.00  0.00     0.191 C 
BRANCH  29  30
ATOM     30  O   UNL     1      13.610   0.134 -11.581  1.00  0.00    -0.394 OA
ATOM     31  H   UNL     1      13.208  -0.343 -10.810  1.00  0.00     0.210 HD
ENDBRANCH  29  30
ENDBRANCH  21  29
ENDBRANCH   1  17
TORSDOF 13
ENDMDL
MODEL 6
REMARK VINA RESULT:    -7.135      2.544      3.881
REMARK INTER + INTRA:         -12.148
REMARK INTER:                 -10.536
REMARK INTRA:                  -1.613
REMARK UNBOUND:                -1.260
REMARK SMILES OC[C@@H]1O[C@H](O[C@@]2(CO)O[C@H](CO)[C@H](O)[C@H]2O)[C@@H](O)[C@@H](O)[C@H]1O
REMARK SMILES IDX 6 1 5 2 3 3 22 4 4 5 20 6 18 7 2 8 1 9 23 11 21 13 19 15
REMARK SMILES IDX 7 17 16 18 10 19 14 20 11 21 8 22 9 23 17 25 15 27 12 29
REMARK SMILES IDX 13 30
REMARK H PARENT 1 10 23 12 21 14 19 16 9 24 17 26 15 28 13 31
REMARK Flexibility Score: inf
ROOT
ATOM      1  O   UNL     1      16.869   0.717  -9.322  1.00  0.00    -0.313 OA
ENDROOT
BRANCH   1   2
ATOM      2  C   UNL     1      17.378   0.842 -10.648  1.00  0.00     0.285 C 
ATOM      3  C   UNL     1      16.164  -0.784 -11.962  1.00  0.00     0.178 C 
ATOM      4  C   UNL     1      14.898  -0.062 -11.426  1.00  0.00     0.177 C 
ATOM      5  O   UNL     1      17.364  -0.438 -11.270  1.00  0.00    -0.341 OA
ATOM      6  C   UNL     1      15.077   1.479 -11.506  1.00  0.00     0.179 C 
ATOM      7  C   UNL     1      16.567   1.898 -11.424  1.00  0.00     0.202 C 
BRANCH   3   8
ATOM      8  C   UNL     1      16.011  -2.313 -11.886  1.00  0.00     0.191 C 
BRANCH   8   9
ATOM      9  O   UNL     1      15.399  -2.708 -10.687  1.00  0.00    -0.394 OA
ATOM     10  H   UNL     1      14.720  -3.392 -10.926  1.00  0.00     0.210 HD
ENDBRANCH   8   9
ENDBRANCH   3   8
BRANCH   4  11
ATOM     11  O   UNL     1      13.759  -0.464 -12.146  1.00  0.00    -0.387 OA
ATOM     12  H   UNL     1      13.678  -1.447 -12.024  1.00  0.00     0.211 HD
ENDBRANCH   4  11
BRANCH   6  13
ATOM     13  O   UNL     1      14.456   2.029 -12.644  1.00  0.00    -0.387 OA
ATOM     14  H   UNL     1      14.475   1.343 -13.363  1.00  0.00     0.211 HD
ENDBRANCH   6  13
BRANCH   7  15
ATOM     15  O   UNL     1      17.130   2.044 -12.705  1.00  0.00    -0.385 OA
ATOM     16  H   UNL     1      17.348   1.132 -13.033  1.00  0.00     0.211 HD
ENDBRANCH   7  15
ENDBRANCH   1   2
BRANCH   1  17
ATOM     17  C   UNL     1      17.856   0.524  -8.309  1.00  0.00     0.224 C 
ATOM     18  C   UNL     1      18.173  -0.974  -8.055  1.00  0.00     0.208 C 
ATOM     19  O   UNL     1      17.329   1.051  -7.106  1.00  0.00    -0.337 OA
ATOM     20  C   UNL     1      18.400  -1.037  -6.564  1.00  0.00     0.180 C 
ATOM     21  C   UNL     1      17.535   0.123  -6.061  1.00  0.00     0.179 C 
BRANCH  17  22
ATOM     22  C   UNL     1      19.141   1.337  -8.626  1.00  0.00     0.225 C 
BRANCH  22  23
ATOM     23  O   UNL     1      19.265   2.429  -7.754  1.00  0.00    -0.391 OA
ATOM     24  H   UNL     1      19.176   2.072  -6.832  1.00  0.00     0.210 HD
ENDBRANCH  22  23
ENDBRANCH  17  22
BRANCH  18  25
ATOM     25  O   UNL     1      17.106  -1.819  -8.422  1.00  0.00    -0.385 OA
ATOM     26  H   UNL     1      16.986  -1.761  -9.405  1.00  0.00     0.211 HD
ENDBRANCH  18  25
BRANCH  20  27
ATOM     27  O   UNL     1      19.766  -0.840  -6.289  1.00  0.00    -0.387 OA
ATOM     28  H   UNL     1      20.268  -1.491  -6.846  1.00  0.00     0.211 HD
ENDBRANCH  20  27
BRANCH  21  29
ATOM     29  C   UNL     1      18.108   0.838  -4.832  1.00  0.00     0.191 C 
BRANCH  29  30
ATOM     30  O   UNL     1      17.969   2.224  -4.986  1.00  0.00    -0.394 OA
ATOM     31  H   UNL     1      18.546   2.638  -4.294  1.00  0.00     0.210 HD
ENDBRANCH  29  30
ENDBRANCH  21  29
ENDBRANCH   1  17
TORSDOF 13
ENDMDL
MODEL 7
REMARK VINA RESULT:    -7.112      2.363      4.291
REMARK INTER + INTRA:         -12.113
REMARK INTER:                 -11.413
REMARK INTRA:                  -0.701
REMARK UNBOUND:                -1.260
REMARK SMILES OC[C@@H]1O[C@H](O[C@@]2(CO)O[C@H](CO)[C@H](O)[C@H]2O)[C@@H](O)[C@@H](O)[C@H]1O
REMARK SMILES IDX 6 1 5 2 3 3 22 4 4 5 20 6 18 7 2 8 1 9 23 11 21 13 19 15
REMARK SMILES IDX 7 17 16 18 10 19 14 20 11 21 8 22 9 23 17 25 15 27 12 29
REMARK SMILES IDX 13 30
REMARK H PARENT 1 10 23 12 21 14 19 16 9 24 17 26 15 28 13 31
REMARK Flexibility Score: inf
ROOT
ATOM      1  O   UNL     1      18.160   0.534 -10.146  1.00  0.00    -0.313 OA
ENDROOT
BRANCH   1   2
ATOM      2  C   UNL     1      17.829  -0.820  -9.848  1.00  0.00     0.285 C 
ATOM      3  C   UNL     1      17.916  -0.992  -7.438  1.00  0.00     0.178 C 
ATOM      4  C   UNL     1      16.903   0.185  -7.459  1.00  0.00     0.177 C 
ATOM      5  O   UNL     1      18.554  -1.228  -8.693  1.00  0.00    -0.341 OA
ATOM      6  C   UNL     1      15.800  -0.068  -8.523  1.00  0.00     0.179 C 
ATOM      7  C   UNL     1      16.304  -0.964  -9.683  1.00  0.00     0.202 C 
BRANCH   3   8
ATOM      8  C   UNL     1      19.022  -0.759  -6.394  1.00  0.00     0.191 C 
BRANCH   8   9
ATOM      9  O   UNL     1      18.660  -1.272  -5.139  1.00  0.00    -0.394 OA
ATOM     10  H   UNL     1      19.497  -1.589  -4.709  1.00  0.00     0.210 HD
ENDBRANCH   8   9
ENDBRANCH   3   8
BRANCH   4  11
ATOM     11  O   UNL     1      16.330   0.365  -6.188  1.00  0.00    -0.387 OA
ATOM     12  H   UNL     1      15.781  -0.443  -6.007  1.00  0.00     0.211 HD
ENDBRANCH   4  11
BRANCH   6  13
ATOM     13  O   UNL     1      14.620  -0.586  -7.955  1.00  0.00    -0.387 OA
ATOM     14  H   UNL     1      14.258   0.096  -7.330  1.00  0.00     0.211 HD
ENDBRANCH   6  13
BRANCH   7  15
ATOM     15  O   UNL     1      16.003  -2.319  -9.452  1.00  0.00    -0.385 OA
ATOM     16  H   UNL     1      15.252  -2.557 -10.056  1.00  0.00     0.211 HD
ENDBRANCH   7  15
ENDBRANCH   1   2
BRANCH   1  17
ATOM     17  C   UNL     1      19.512   0.754 -10.548  1.00  0.00     0.224 C 
ATOM     18  C   UNL     1      19.630   1.696 -11.775  1.00  0.00     0.208 C 
ATOM     19  O   UNL     1      20.044  -0.500 -10.929  1.00  0.00    -0.337 OA
ATOM     20  C   UNL     1      20.785   1.115 -12.554  1.00  0.00     0.180 C 
ATOM     21  C   UNL     1      20.722  -0.364 -12.161  1.00  0.00     0.179 C 
BRANCH  17  22
ATOM     22  C   UNL     1      20.369   1.257  -9.354  1.00  0.00     0.225 C 
BRANCH  22  23
ATOM     23  O   UNL     1      20.611   2.634  -9.462  1.00  0.00    -0.391 OA
ATOM     24  H   UNL     1      21.560   2.739  -9.734  1.00  0.00     0.210 HD
ENDBRANCH  22  23
ENDBRANCH  17  22
BRANCH  18  25
ATOM     25  O   UNL     1      18.462   1.699 -12.565  1.00  0.00    -0.385 OA
ATOM     26  H   UNL     1      17.676   1.761 -11.961  1.00  0.00     0.211 HD
ENDBRANCH  18  25
BRANCH  20  27
ATOM     27  O   UNL     1      21.983   1.725 -12.141  1.00  0.00    -0.387 OA
ATOM     28  H   UNL     1      22.725   1.208 -12.550  1.00  0.00     0.211 HD
ENDBRANCH  20  27
BRANCH  21  29
ATOM     29  C   UNL     1      22.093  -1.045 -12.081  1.00  0.00     0.191 C 
BRANCH  29  30
ATOM     30  O   UNL     1      22.063  -2.249 -12.796  1.00  0.00    -0.394 OA
ATOM     31  H   UNL     1      22.322  -2.024 -13.727  1.00  0.00     0.210 HD
ENDBRANCH  29  30
ENDBRANCH  21  29
ENDBRANCH   1  17
TORSDOF 13
ENDMDL
MODEL 8
REMARK VINA RESULT:    -7.093      2.061      5.992
REMARK INTER + INTRA:         -12.085
REMARK INTER:                 -10.759
REMARK INTRA:                  -1.327
REMARK UNBOUND:                -1.260
REMARK SMILES OC[C@@H]1O[C@H](O[C@@]2(CO)O[C@H](CO)[C@H](O)[C@H]2O)[C@@H](O)[C@@H](O)[C@H]1O
REMARK SMILES IDX 6 1 5 2 3 3 22 4 4 5 20 6 18 7 2 8 1 9 23 11 21 13 19 15
REMARK SMILES IDX 7 17 16 18 10 19 14 20 11 21 8 22 9 23 17 25 15 27 12 29
REMARK SMILES IDX 13 30
REMARK H PARENT 1 10 23 12 21 14 19 16 9 24 17 26 15 28 13 31
REMARK Flexibility Score: inf
ROOT
ATOM      1  O   UNL     1      17.478  -0.149 -10.125  1.00  0.00    -0.313 OA
ENDROOT
BRANCH   1   2
ATOM      2  C   UNL     1      18.157   1.042  -9.735  1.00  0.00     0.285 C 
ATOM      3  C   UNL     1      18.393   0.895  -7.333  1.00  0.00     0.178 C 
ATOM      4  C   UNL     1      19.083  -0.464  -7.627  1.00  0.00     0.177 C 
ATOM      5  O   UNL     1      17.690   1.440  -8.450  1.00  0.00    -0.341 OA
ATOM      6  C   UNL     1      20.084  -0.321  -8.806  1.00  0.00     0.179 C 
ATOM      7  C   UNL     1      19.681   0.817  -9.778  1.00  0.00     0.202 C 
BRANCH   3   8
ATOM      8  C   UNL     1      17.391   0.775  -6.171  1.00  0.00     0.191 C 
BRANCH   8   9
ATOM      9  O   UNL     1      16.105   0.458  -6.634  1.00  0.00    -0.394 OA
ATOM     10  H   UNL     1      15.521   1.225  -6.396  1.00  0.00     0.210 HD
ENDBRANCH   8   9
ENDBRANCH   3   8
BRANCH   4  11
ATOM     11  O   UNL     1      19.740  -0.941  -6.478  1.00  0.00    -0.387 OA
ATOM     12  H   UNL     1      20.437  -0.272  -6.251  1.00  0.00     0.211 HD
ENDBRANCH   4  11
BRANCH   6  13
ATOM     13  O   UNL     1      21.412  -0.164  -8.362  1.00  0.00    -0.387 OA
ATOM     14  H   UNL     1      21.866  -1.044  -8.442  1.00  0.00     0.211 HD
ENDBRANCH   6  13
BRANCH   7  15
ATOM     15  O   UNL     1      20.323   2.024  -9.450  1.00  0.00    -0.385 OA
ATOM     16  H   UNL     1      21.294   1.828  -9.381  1.00  0.00     0.211 HD
ENDBRANCH   7  15
ENDBRANCH   1   2
BRANCH   1  17
ATOM     17  C   UNL     1      16.580  -0.003 -11.225  1.00  0.00     0.224 C 
ATOM     18  C   UNL     1      15.272   0.738 -10.841  1.00  0.00     0.208 C 
ATOM     19  O   UNL     1      16.216  -1.305 -11.643  1.00  0.00    -0.337 OA
ATOM     20  C   UNL     1      14.217   0.036 -11.660  1.00  0.00     0.180 C 
ATOM     21  C   UNL     1      14.815  -1.365 -11.818  1.00  0.00     0.179 C 
BRANCH  17  22
ATOM     22  C   UNL     1      17.289   0.670 -12.432  1.00  0.00     0.225 C 
BRANCH  22  23
ATOM     23  O   UNL     1      16.756   1.946 -12.672  1.00  0.00    -0.391 OA
ATOM     24  H   UNL     1      16.710   2.057 -13.657  1.00  0.00     0.210 HD
ENDBRANCH  22  23
ENDBRANCH  17  22
BRANCH  18  25
ATOM     25  O   UNL     1      14.975   0.629  -9.467  1.00  0.00    -0.385 OA
ATOM     26  H   UNL     1      15.641   0.023  -9.050  1.00  0.00     0.211 HD
ENDBRANCH  18  25
BRANCH  20  27
ATOM     27  O   UNL     1      14.067   0.693 -12.895  1.00  0.00    -0.387 OA
ATOM     28  H   UNL     1      13.139   0.521 -13.202  1.00  0.00     0.211 HD
ENDBRANCH  20  27
BRANCH  21  29
ATOM     29  C   UNL     1      14.484  -2.036 -13.156  1.00  0.00     0.191 C 
BRANCH  29  30
ATOM     30  O   UNL     1      13.117  -1.892 -13.428  1.00  0.00    -0.394 OA
ATOM     31  H   UNL     1      13.008  -2.080 -14.396  1.00  0.00     0.210 HD
ENDBRANCH  29  30
ENDBRANCH  21  29
ENDBRANCH   1  17
TORSDOF 13
ENDMDL
MODEL 9
REMARK VINA RESULT:    -7.090      2.351      4.430
REMARK INTER + INTRA:         -12.080
REMARK INTER:                 -10.735
REMARK INTRA:                  -1.346
REMARK UNBOUND:                -1.260
REMARK SMILES OC[C@@H]1O[C@H](O[C@@]2(CO)O[C@H](CO)[C@H](O)[C@H]2O)[C@@H](O)[C@@H](O)[C@H]1O
REMARK SMILES IDX 6 1 5 2 3 3 22 4 4 5 20 6 18 7 2 8 1 9 23 11 21 13 19 15
REMARK SMILES IDX 7 17 16 18 10 19 14 20 11 21 8 22 9 23 17 25 15 27 12 29
REMARK SMILES IDX 13 30
REMARK H PARENT 1 10 23 12 21 14 19 16 9 24 17 26 15 28 13 31
REMARK Flexibility Score: inf
ROOT
ATOM      1  O   UNL     1      18.508   0.125 -10.196  1.00  0.00    -0.313 OA
ENDROOT
BRANCH   1   2
ATOM      2  C   UNL     1      17.881  -1.103  -9.837  1.00  0.00     0.285 C 
ATOM      3  C   UNL     1      17.724  -1.067  -7.424  1.00  0.00     0.178 C 
ATOM      4  C   UNL     1      16.981   0.281  -7.635  1.00  0.00     0.177 C 
ATOM      5  O   UNL     1      18.405  -1.539  -8.586  1.00  0.00    -0.341 OA
ATOM      6  C   UNL     1      15.945   0.154  -8.785  1.00  0.00     0.179 C 
ATOM      7  C   UNL     1      16.351  -0.927  -9.819  1.00  0.00     0.202 C 
BRANCH   3   8
ATOM      8  C   UNL     1      18.761  -0.963  -6.292  1.00  0.00     0.191 C 
BRANCH   8   9
ATOM      9  O   UNL     1      20.061  -0.822  -6.799  1.00  0.00    -0.394 OA
ATOM     10  H   UNL     1      20.676  -1.195  -6.115  1.00  0.00     0.210 HD
ENDBRANCH   8   9
ENDBRANCH   3   8
BRANCH   4  11
ATOM     11  O   UNL     1      16.350   0.686  -6.445  1.00  0.00    -0.387 OA
ATOM     12  H   UNL     1      15.957   1.581  -6.623  1.00  0.00     0.211 HD
ENDBRANCH   4  11
BRANCH   6  13
ATOM     13  O   UNL     1      14.639  -0.066  -8.305  1.00  0.00    -0.387 OA
ATOM     14  H   UNL     1      14.587  -1.005  -7.985  1.00  0.00     0.211 HD
ENDBRANCH   6  13
BRANCH   7  15
ATOM     15  O   UNL     1      15.759  -2.168  -9.523  1.00  0.00    -0.385 OA
ATOM     16  H   UNL     1      16.241  -2.540  -8.738  1.00  0.00     0.211 HD
ENDBRANCH   7  15
ENDBRANCH   1   2
BRANCH   1  17
ATOM     17  C   UNL     1      19.413   0.045 -11.297  1.00  0.00     0.224 C 
ATOM     18  C   UNL     1      20.758  -0.633 -10.924  1.00  0.00     0.208 C 
ATOM     19  O   UNL     1      19.709   1.372 -11.693  1.00  0.00    -0.337 OA
ATOM     20  C   UNL     1      21.776   0.137 -11.729  1.00  0.00     0.180 C 
ATOM     21  C   UNL     1      21.105   1.507 -11.865  1.00  0.00     0.179 C 
BRANCH  17  22
ATOM     22  C   UNL     1      18.741  -0.643 -12.517  1.00  0.00     0.225 C 
BRANCH  22  23
ATOM     23  O   UNL     1      19.314  -1.902 -12.754  1.00  0.00    -0.391 OA
ATOM     24  H   UNL     1      19.204  -2.090 -13.723  1.00  0.00     0.210 HD
ENDBRANCH  22  23
ENDBRANCH  17  22
BRANCH  18  25
ATOM     25  O   UNL     1      21.047  -0.533  -9.548  1.00  0.00    -0.385 OA
ATOM     26  H   UNL     1      20.412   0.113  -9.141  1.00  0.00     0.211 HD
ENDBRANCH  18  25
BRANCH  20  27
ATOM     27  O   UNL     1      21.960  -0.491 -12.975  1.00  0.00    -0.387 OA
ATOM     28  H   UNL     1      21.342  -1.268 -13.000  1.00  0.00     0.211 HD
ENDBRANCH  20  27
BRANCH  21  29
ATOM     29  C   UNL     1      21.402   2.217 -13.190  1.00  0.00     0.191 C 
BRANCH  29  30
ATOM     30  O   UNL     1      22.766   2.106 -13.488  1.00  0.00    -0.394 OA
ATOM     31  H   UNL     1      22.973   2.848 -14.113  1.00  0.00     0.210 HD
ENDBRANCH  29  30
ENDBRANCH  21  29
ENDBRANCH   1  17
TORSDOF 13
ENDMDL
