MODEL 1
REMARK VINA RESULT:    -2.364      0.000      0.000
REMARK INTER + INTRA:          -2.433
REMARK INTER:                  -2.433
REMARK INTRA:                   0.000
REMARK UNBOUND:                 0.000
REMARK SMILES Cc1ccccc1O
REMARK SMILES IDX 1 1 2 2 3 3 4 4 5 5 6 6 7 7 8 8
REMARK H PARENT 8 9
REMARK Flexibility Score: inf
ROOT
ATOM      1  C   UNL     1     141.079 131.580 127.604  1.00  0.00     0.048 C 
ATOM      2  C   UNL     1     139.969 130.612 127.899  1.00  0.00    -0.009 A 
ATOM      3  C   UNL     1     139.861 129.414 127.173  1.00  0.00     0.007 A 
ATOM      4  C   UNL     1     138.828 128.512 127.449  1.00  0.00     0.001 A 
ATOM      5  C   UNL     1     137.896 128.800 128.448  1.00  0.00     0.004 A 
ATOM      6  C   UNL     1     137.994 129.989 129.175  1.00  0.00     0.046 A 
ATOM      7  C   UNL     1     139.027 130.899 128.906  1.00  0.00     0.118 A 
ENDROOT
BRANCH   7   8
ATOM      8  O   UNL     1     139.121 132.085 129.634  1.00  0.00    -0.508 OA
ATOM      9  H   UNL     1     138.523 132.879 129.435  1.00  0.00     0.293 HD
ENDBRANCH   7   8
TORSDOF 1
ENDMDL
MODEL 2
REMARK VINA RESULT:    -2.316      1.647      2.792
REMARK INTER + INTRA:          -2.384
REMARK INTER:                  -2.384
REMARK INTRA:                   0.000
REMARK UNBOUND:                 0.000
REMARK SMILES Cc1ccccc1O
REMARK SMILES IDX 1 1 2 2 3 3 4 4 5 5 6 6 7 7 8 8
REMARK H PARENT 8 9
REMARK Flexibility Score: inf
ROOT
ATOM      1  C   UNL     1     139.152 127.907 126.628  1.00  0.00     0.048 C 
ATOM      2  C   UNL     1     139.252 129.150 127.466  1.00  0.00    -0.009 A 
ATOM      3  C   UNL     1     140.211 130.132 127.167  1.00  0.00     0.007 A 
ATOM      4  C   UNL     1     140.304 131.289 127.946  1.00  0.00     0.001 A 
ATOM      5  C   UNL     1     139.441 131.474 129.029  1.00  0.00     0.004 A 
ATOM      6  C   UNL     1     138.485 130.504 129.335  1.00  0.00     0.046 A 
ATOM      7  C   UNL     1     138.384 129.340 128.558  1.00  0.00     0.118 A 
ENDROOT
BRANCH   7   8
ATOM      8  O   UNL     1     137.427 128.374 128.868  1.00  0.00    -0.508 OA
ATOM      9  H   UNL     1     137.044 128.287 129.802  1.00  0.00     0.293 HD
ENDBRANCH   7   8
TORSDOF 1
ENDMDL
MODEL 3
REMARK VINA RESULT:    -2.199      1.770      2.454
REMARK INTER + INTRA:          -2.263
REMARK INTER:                  -2.263
REMARK INTRA:                   0.000
REMARK UNBOUND:                 0.000
REMARK SMILES Cc1ccccc1O
REMARK SMILES IDX 1 1 2 2 3 3 4 4 5 5 6 6 7 7 8 8
REMARK H PARENT 8 9
REMARK Flexibility Score: inf
ROOT
ATOM      1  C   UNL     1     140.963 131.155 127.352  1.00  0.00     0.048 C 
ATOM      2  C   UNL     1     139.770 130.506 127.995  1.00  0.00    -0.009 A 
ATOM      3  C   UNL     1     139.134 131.118 129.089  1.00  0.00     0.007 A 
ATOM      4  C   UNL     1     138.022 130.516 129.686  1.00  0.00     0.001 A 
ATOM      5  C   UNL     1     137.539 129.300 129.198  1.00  0.00     0.004 A 
ATOM      6  C   UNL     1     138.165 128.683 128.112  1.00  0.00     0.046 A 
ATOM      7  C   UNL     1     139.279 129.281 127.506  1.00  0.00     0.118 A 
ENDROOT
BRANCH   7   8
ATOM      8  O   UNL     1     139.901 128.661 126.422  1.00  0.00    -0.508 OA
ATOM      9  H   UNL     1     140.890 128.781 126.237  1.00  0.00     0.293 HD
ENDBRANCH   7   8
TORSDOF 1
ENDMDL
MODEL 4
REMARK VINA RESULT:    -2.141      1.405      2.425
REMARK INTER + INTRA:          -2.204
REMARK INTER:                  -2.204
REMARK INTRA:                   0.000
REMARK UNBOUND:                 0.000
REMARK SMILES Cc1ccccc1O
REMARK SMILES IDX 1 1 2 2 3 3 4 4 5 5 6 6 7 7 8 8
REMARK H PARENT 8 9
REMARK Flexibility Score: inf
ROOT
ATOM      1  C   UNL     1     139.829 128.398 126.338  1.00  0.00     0.048 C 
ATOM      2  C   UNL     1     139.262 129.192 127.480  1.00  0.00    -0.009 A 
ATOM      3  C   UNL     1     138.200 128.678 128.243  1.00  0.00     0.007 A 
ATOM      4  C   UNL     1     137.673 129.417 129.306  1.00  0.00     0.001 A 
ATOM      5  C   UNL     1     138.201 130.672 129.616  1.00  0.00     0.004 A 
ATOM      6  C   UNL     1     139.256 131.192 128.863  1.00  0.00     0.046 A 
ATOM      7  C   UNL     1     139.792 130.458 127.795  1.00  0.00     0.118 A 
ENDROOT
BRANCH   7   8
ATOM      8  O   UNL     1     140.846 130.981 127.046  1.00  0.00    -0.508 OA
ATOM      9  H   UNL     1     140.738 131.209 126.064  1.00  0.00     0.293 HD
ENDBRANCH   7   8
TORSDOF 1
ENDMDL
MODEL 5
REMARK VINA RESULT:    -1.422      0.675      2.493
REMARK INTER + INTRA:          -1.463
REMARK INTER:                  -1.463
REMARK INTRA:                   0.000
REMARK UNBOUND:                 0.000
REMARK SMILES Cc1ccccc1O
REMARK SMILES IDX 1 1 2 2 3 3 4 4 5 5 6 6 7 7 8 8
REMARK H PARENT 8 9
REMARK Flexibility Score: inf
ROOT
ATOM      1  C   UNL     1     136.989 129.648 129.605  1.00  0.00     0.048 C 
ATOM      2  C   UNL     1     138.166 129.692 128.673  1.00  0.00    -0.009 A 
ATOM      3  C   UNL     1     138.409 128.628 127.788  1.00  0.00     0.007 A 
ATOM      4  C   UNL     1     139.503 128.669 126.918  1.00  0.00     0.001 A 
ATOM      5  C   UNL     1     140.362 129.770 126.927  1.00  0.00     0.004 A 
ATOM      6  C   UNL     1     140.130 130.833 127.803  1.00  0.00     0.046 A 
ATOM      7  C   UNL     1     139.034 130.800 128.678  1.00  0.00     0.118 A 
ENDROOT
BRANCH   7   8
ATOM      8  O   UNL     1     138.806 131.864 129.551  1.00  0.00    -0.508 OA
ATOM      9  H   UNL     1     139.029 131.798 130.538  1.00  0.00     0.293 HD
ENDBRANCH   7   8
TORSDOF 1
ENDMDL
MODEL 6
REMARK VINA RESULT:    -1.295      1.693      3.044
REMARK INTER + INTRA:          -1.333
REMARK INTER:                  -1.333
REMARK INTRA:                   0.000
REMARK UNBOUND:                 0.000
REMARK SMILES Cc1ccccc1O
REMARK SMILES IDX 1 1 2 2 3 3 4 4 5 5 6 6 7 7 8 8
REMARK H PARENT 8 9
REMARK Flexibility Score: inf
ROOT
ATOM      1  C   UNL     1     138.010 130.539 130.672  1.00  0.00     0.048 C 
ATOM      2  C   UNL     1     138.723 130.359 129.361  1.00  0.00    -0.009 A 
ATOM      3  C   UNL     1     139.692 131.289 128.948  1.00  0.00     0.007 A 
ATOM      4  C   UNL     1     140.356 131.121 127.729  1.00  0.00     0.001 A 
ATOM      5  C   UNL     1     140.058 130.027 126.915  1.00  0.00     0.004 A 
ATOM      6  C   UNL     1     139.096 129.097 127.316  1.00  0.00     0.046 A 
ATOM      7  C   UNL     1     138.425 129.257 128.538  1.00  0.00     0.118 A 
ENDROOT
BRANCH   7   8
ATOM      8  O   UNL     1     137.465 128.326 128.934  1.00  0.00    -0.508 OA
ATOM      9  H   UNL     1     137.713 127.368 129.153  1.00  0.00     0.293 HD
ENDBRANCH   7   8
TORSDOF 1
ENDMDL
MODEL 7
REMARK VINA RESULT:    -1.248      0.949      2.649
REMARK INTER + INTRA:          -1.284
REMARK INTER:                  -1.284
REMARK INTRA:                   0.000
REMARK UNBOUND:                 0.000
REMARK SMILES Cc1ccccc1O
REMARK SMILES IDX 1 1 2 2 3 3 4 4 5 5 6 6 7 7 8 8
REMARK H PARENT 8 9
REMARK Flexibility Score: inf
ROOT
ATOM      1  C   UNL     1     137.167 128.621 128.899  1.00  0.00     0.048 C 
ATOM      2  C   UNL     1     138.344 129.446 128.463  1.00  0.00    -0.009 A 
ATOM      3  C   UNL     1     139.017 129.145 127.266  1.00  0.00     0.007 A 
ATOM      4  C   UNL     1     140.112 129.914 126.859  1.00  0.00     0.001 A 
ATOM      5  C   UNL     1     140.543 130.986 127.642  1.00  0.00     0.004 A 
ATOM      6  C   UNL     1     139.882 131.294 128.834  1.00  0.00     0.046 A 
ATOM      7  C   UNL     1     138.782 130.529 129.249  1.00  0.00     0.118 A 
ENDROOT
BRANCH   7   8
ATOM      8  O   UNL     1     138.125 130.839 130.439  1.00  0.00    -0.508 OA
ATOM      9  H   UNL     1     137.166 131.169 130.446  1.00  0.00     0.293 HD
ENDBRANCH   7   8
TORSDOF 1
ENDMDL
MODEL 8
REMARK VINA RESULT:    -1.219      1.854      3.532
REMARK INTER + INTRA:          -1.255
REMARK INTER:                  -1.255
REMARK INTRA:                   0.000
REMARK UNBOUND:                 0.000
REMARK SMILES Cc1ccccc1O
REMARK SMILES IDX 1 1 2 2 3 3 4 4 5 5 6 6 7 7 8 8
REMARK H PARENT 8 9
REMARK Flexibility Score: inf
ROOT
ATOM      1  C   UNL     1     137.164 129.114 128.965  1.00  0.00     0.048 C 
ATOM      2  C   UNL     1     138.395 129.874 128.559  1.00  0.00    -0.009 A 
ATOM      3  C   UNL     1     138.725 131.082 129.197  1.00  0.00     0.007 A 
ATOM      4  C   UNL     1     139.871 131.788 128.819  1.00  0.00     0.001 A 
ATOM      5  C   UNL     1     140.694 131.296 127.804  1.00  0.00     0.004 A 
ATOM      6  C   UNL     1     140.374 130.097 127.164  1.00  0.00     0.046 A 
ATOM      7  C   UNL     1     139.227 129.380 127.536  1.00  0.00     0.118 A 
ENDROOT
BRANCH   7   8
ATOM      8  O   UNL     1     138.912 128.183 126.894  1.00  0.00    -0.508 OA
ATOM      9  H   UNL     1     138.738 128.146 125.896  1.00  0.00     0.293 HD
ENDBRANCH   7   8
TORSDOF 1
ENDMDL
MODEL 9
REMARK VINA RESULT:    -0.591      1.568      2.305
REMARK INTER + INTRA:          -0.608
REMARK INTER:                  -0.608
REMARK INTRA:                   0.000
REMARK UNBOUND:                 0.000
REMARK SMILES Cc1ccccc1O
REMARK SMILES IDX 1 1 2 2 3 3 4 4 5 5 6 6 7 7 8 8
REMARK H PARENT 8 9
REMARK Flexibility Score: inf
ROOT
ATOM      1  C   UNL     1     140.533 132.153 128.370  1.00  0.00     0.048 C 
ATOM      2  C   UNL     1     139.581 130.998 128.489  1.00  0.00    -0.009 A 
ATOM      3  C   UNL     1     138.676 130.932 129.563  1.00  0.00     0.007 A 
ATOM      4  C   UNL     1     137.789 129.858 129.673  1.00  0.00     0.001 A 
ATOM      5  C   UNL     1     137.797 128.842 128.715  1.00  0.00     0.004 A 
ATOM      6  C   UNL     1     138.692 128.897 127.644  1.00  0.00     0.046 A 
ATOM      7  C   UNL     1     139.586 129.972 127.525  1.00  0.00     0.118 A 
ENDROOT
BRANCH   7   8
ATOM      8  O   UNL     1     140.478 130.023 126.454  1.00  0.00    -0.508 OA
ATOM      9  H   UNL     1     141.481 130.058 126.599  1.00  0.00     0.293 HD
ENDBRANCH   7   8
TORSDOF 1
ENDMDL
