MODEL 1
REMARK VINA RESULT:    -4.909      0.000      0.000
REMARK INTER + INTRA:          -5.354
REMARK INTER:                  -5.340
REMARK INTRA:                  -0.014
REMARK UNBOUND:                -0.014
REMARK SMILES Cc1ccc(C(C)C)c(O)c1
REMARK SMILES IDX 1 1 2 2 11 3 9 4 5 5 4 6 3 7 10 8 6 10 7 11 8 12
REMARK H PARENT 10 9
REMARK Flexibility Score: inf
ROOT
ATOM      1  C   UNL     1     109.344   5.335 -42.310  1.00  0.00     0.044 C 
ATOM      2  C   UNL     1     110.223   6.404 -41.733  1.00  0.00    -0.047 A 
ATOM      3  C   UNL     1     110.997   7.213 -42.575  1.00  0.00     0.049 A 
ATOM      4  C   UNL     1     111.793   8.240 -42.048  1.00  0.00     0.119 A 
ATOM      5  C   UNL     1     111.814   8.474 -40.653  1.00  0.00    -0.004 A 
ATOM      6  C   UNL     1     111.017   7.666 -39.820  1.00  0.00     0.008 A 
ATOM      7  C   UNL     1     110.226   6.647 -40.354  1.00  0.00     0.004 A 
ENDROOT
BRANCH   4   8
ATOM      8  O   UNL     1     112.559   9.022 -42.912  1.00  0.00    -0.508 OA
ATOM      9  H   UNL     1     112.220   9.294 -43.827  1.00  0.00     0.293 HD
ENDBRANCH   4   8
BRANCH   5  10
ATOM     10  C   UNL     1     112.659   9.573 -40.020  1.00  0.00     0.017 C 
ATOM     11  C   UNL     1     112.714   9.440 -38.493  1.00  0.00     0.012 C 
ATOM     12  C   UNL     1     112.192  10.969 -40.448  1.00  0.00     0.012 C 
ENDBRANCH   5  10
TORSDOF 2
ENDMDL
MODEL 2
REMARK VINA RESULT:    -4.838     15.212     16.283
REMARK INTER + INTRA:          -5.276
REMARK INTER:                  -5.103
REMARK INTRA:                  -0.173
REMARK UNBOUND:                -0.014
REMARK SMILES Cc1ccc(C(C)C)c(O)c1
REMARK SMILES IDX 1 1 2 2 11 3 9 4 5 5 4 6 3 7 10 8 6 10 7 11 8 12
REMARK H PARENT 10 9
REMARK Flexibility Score: inf
ROOT
ATOM      1  C   UNL     1     110.004   6.399 -25.323  1.00  0.00     0.044 C 
ATOM      2  C   UNL     1     110.981   7.515 -25.107  1.00  0.00    -0.047 A 
ATOM      3  C   UNL     1     110.975   8.633 -25.951  1.00  0.00     0.049 A 
ATOM      4  C   UNL     1     111.860   9.699 -25.735  1.00  0.00     0.119 A 
ATOM      5  C   UNL     1     112.766   9.658 -24.649  1.00  0.00    -0.004 A 
ATOM      6  C   UNL     1     112.749   8.537 -23.798  1.00  0.00     0.008 A 
ATOM      7  C   UNL     1     111.863   7.482 -24.020  1.00  0.00     0.004 A 
ENDROOT
BRANCH   4   8
ATOM      8  O   UNL     1     111.834  10.793 -26.600  1.00  0.00    -0.508 OA
ATOM      9  H   UNL     1     112.292  11.667 -26.368  1.00  0.00     0.293 HD
ENDBRANCH   4   8
BRANCH   5  10
ATOM     10  C   UNL     1     113.752  10.783 -24.363  1.00  0.00     0.017 C 
ATOM     11  C   UNL     1     115.003  10.681 -25.245  1.00  0.00     0.012 C 
ATOM     12  C   UNL     1     114.115  10.857 -22.875  1.00  0.00     0.012 C 
ENDBRANCH   5  10
TORSDOF 2
ENDMDL
MODEL 3
REMARK VINA RESULT:    -4.792     14.457     15.610
REMARK INTER + INTRA:          -5.227
REMARK INTER:                  -5.031
REMARK INTRA:                  -0.195
REMARK UNBOUND:                -0.014
REMARK SMILES Cc1ccc(C(C)C)c(O)c1
REMARK SMILES IDX 1 1 2 2 11 3 9 4 5 5 4 6 3 7 10 8 6 10 7 11 8 12
REMARK H PARENT 10 9
REMARK Flexibility Score: inf
ROOT
ATOM      1  C   UNL     1     108.761   4.842 -26.895  1.00  0.00     0.044 C 
ATOM      2  C   UNL     1     109.632   5.963 -26.412  1.00  0.00    -0.047 A 
ATOM      3  C   UNL     1     109.795   6.188 -25.039  1.00  0.00     0.049 A 
ATOM      4  C   UNL     1     110.637   7.211 -24.576  1.00  0.00     0.119 A 
ATOM      5  C   UNL     1     111.339   8.021 -25.499  1.00  0.00    -0.004 A 
ATOM      6  C   UNL     1     111.180   7.771 -26.875  1.00  0.00     0.008 A 
ATOM      7  C   UNL     1     110.341   6.751 -27.326  1.00  0.00     0.004 A 
ENDROOT
BRANCH   4   8
ATOM      8  O   UNL     1     110.771   7.415 -23.203  1.00  0.00    -0.508 OA
ATOM      9  H   UNL     1     109.976   7.366 -22.577  1.00  0.00     0.293 HD
ENDBRANCH   4   8
BRANCH   5  10
ATOM     10  C   UNL     1     112.266   9.147 -25.059  1.00  0.00     0.017 C 
ATOM     11  C   UNL     1     112.002  10.439 -25.841  1.00  0.00     0.012 C 
ATOM     12  C   UNL     1     113.741   8.733 -25.135  1.00  0.00     0.012 C 
ENDBRANCH   5  10
TORSDOF 2
ENDMDL
MODEL 4
REMARK VINA RESULT:    -4.744      1.155      4.270
REMARK INTER + INTRA:          -5.174
REMARK INTER:                  -5.062
REMARK INTRA:                  -0.112
REMARK UNBOUND:                -0.014
REMARK SMILES Cc1ccc(C(C)C)c(O)c1
REMARK SMILES IDX 1 1 2 2 11 3 9 4 5 5 4 6 3 7 10 8 6 10 7 11 8 12
REMARK H PARENT 10 9
REMARK Flexibility Score: inf
ROOT
ATOM      1  C   UNL     1     113.316  12.228 -39.248  1.00  0.00     0.044 C 
ATOM      2  C   UNL     1     112.787  10.925 -39.769  1.00  0.00    -0.047 A 
ATOM      3  C   UNL     1     112.843  10.638 -41.139  1.00  0.00     0.049 A 
ATOM      4  C   UNL     1     112.386   9.407 -41.632  1.00  0.00     0.119 A 
ATOM      5  C   UNL     1     111.870   8.436 -40.742  1.00  0.00    -0.004 A 
ATOM      6  C   UNL     1     111.837   8.731 -39.366  1.00  0.00     0.008 A 
ATOM      7  C   UNL     1     112.296   9.958 -38.884  1.00  0.00     0.004 A 
ENDROOT
BRANCH   4   8
ATOM      8  O   UNL     1     112.447   9.155 -43.002  1.00  0.00    -0.508 OA
ATOM      9  H   UNL     1     113.318   8.922 -43.463  1.00  0.00     0.293 HD
ENDBRANCH   4   8
BRANCH   5  10
ATOM     10  C   UNL     1     111.357   7.082 -41.216  1.00  0.00     0.017 C 
ATOM     11  C   UNL     1     110.005   7.204 -41.929  1.00  0.00     0.012 C 
ATOM     12  C   UNL     1     111.301   6.062 -40.071  1.00  0.00     0.012 C 
ENDBRANCH   5  10
TORSDOF 2
ENDMDL
MODEL 5
REMARK VINA RESULT:    -4.636      1.870      4.440
REMARK INTER + INTRA:          -5.057
REMARK INTER:                  -4.885
REMARK INTRA:                  -0.172
REMARK UNBOUND:                -0.014
REMARK SMILES Cc1ccc(C(C)C)c(O)c1
REMARK SMILES IDX 1 1 2 2 11 3 9 4 5 5 4 6 3 7 10 8 6 10 7 11 8 12
REMARK H PARENT 10 9
REMARK Flexibility Score: inf
ROOT
ATOM      1  C   UNL     1     113.457  10.874 -40.815  1.00  0.00     0.044 C 
ATOM      2  C   UNL     1     112.466   9.763 -40.998  1.00  0.00    -0.047 A 
ATOM      3  C   UNL     1     111.353   9.664 -40.154  1.00  0.00     0.049 A 
ATOM      4  C   UNL     1     110.401   8.650 -40.341  1.00  0.00     0.119 A 
ATOM      5  C   UNL     1     110.554   7.721 -41.397  1.00  0.00    -0.004 A 
ATOM      6  C   UNL     1     111.668   7.844 -42.249  1.00  0.00     0.008 A 
ATOM      7  C   UNL     1     112.609   8.857 -42.056  1.00  0.00     0.004 A 
ENDROOT
BRANCH   4   8
ATOM      8  O   UNL     1     109.308   8.573 -39.477  1.00  0.00    -0.508 OA
ATOM      9  H   UNL     1     109.315   7.972 -38.662  1.00  0.00     0.293 HD
ENDBRANCH   4   8
BRANCH   5  10
ATOM     10  C   UNL     1     109.556   6.599 -41.650  1.00  0.00     0.017 C 
ATOM     11  C   UNL     1     109.802   5.399 -40.726  1.00  0.00     0.012 C 
ATOM     12  C   UNL     1     109.533   6.179 -43.125  1.00  0.00     0.012 C 
ENDBRANCH   5  10
TORSDOF 2
ENDMDL
MODEL 6
REMARK VINA RESULT:    -4.635      1.230      1.839
REMARK INTER + INTRA:          -5.056
REMARK INTER:                  -4.878
REMARK INTRA:                  -0.178
REMARK UNBOUND:                -0.014
REMARK SMILES Cc1ccc(C(C)C)c(O)c1
REMARK SMILES IDX 1 1 2 2 11 3 9 4 5 5 4 6 3 7 10 8 6 10 7 11 8 12
REMARK H PARENT 10 9
REMARK Flexibility Score: inf
ROOT
ATOM      1  C   UNL     1     110.438   5.707 -40.059  1.00  0.00     0.044 C 
ATOM      2  C   UNL     1     111.190   6.991 -40.246  1.00  0.00    -0.047 A 
ATOM      3  C   UNL     1     111.449   7.477 -41.534  1.00  0.00     0.049 A 
ATOM      4  C   UNL     1     112.119   8.695 -41.718  1.00  0.00     0.119 A 
ATOM      5  C   UNL     1     112.534   9.452 -40.597  1.00  0.00    -0.004 A 
ATOM      6  C   UNL     1     112.250   8.961 -39.309  1.00  0.00     0.008 A 
ATOM      7  C   UNL     1     111.581   7.748 -39.135  1.00  0.00     0.004 A 
ENDROOT
BRANCH   4   8
ATOM      8  O   UNL     1     112.369   9.147 -43.014  1.00  0.00    -0.508 OA
ATOM      9  H   UNL     1     112.738   8.533 -43.731  1.00  0.00     0.293 HD
ENDBRANCH   4   8
BRANCH   5  10
ATOM     10  C   UNL     1     113.266  10.781 -40.733  1.00  0.00     0.017 C 
ATOM     11  C   UNL     1     114.768  10.581 -40.967  1.00  0.00     0.012 C 
ATOM     12  C   UNL     1     112.999  11.702 -39.536  1.00  0.00     0.012 C 
ENDBRANCH   5  10
TORSDOF 2
ENDMDL
MODEL 7
REMARK VINA RESULT:    -4.562     14.250     16.583
REMARK INTER + INTRA:          -4.977
REMARK INTER:                  -5.350
REMARK INTRA:                   0.374
REMARK UNBOUND:                -0.014
REMARK SMILES Cc1ccc(C(C)C)c(O)c1
REMARK SMILES IDX 1 1 2 2 11 3 9 4 5 5 4 6 3 7 10 8 6 10 7 11 8 12
REMARK H PARENT 10 9
REMARK Flexibility Score: inf
ROOT
ATOM      1  C   UNL     1     114.601  10.363 -23.909  1.00  0.00     0.044 C 
ATOM      2  C   UNL     1     113.503   9.497 -24.450  1.00  0.00    -0.047 A 
ATOM      3  C   UNL     1     112.545   8.950 -23.586  1.00  0.00     0.049 A 
ATOM      4  C   UNL     1     111.492   8.170 -24.087  1.00  0.00     0.119 A 
ATOM      5  C   UNL     1     111.383   7.936 -25.478  1.00  0.00    -0.004 A 
ATOM      6  C   UNL     1     112.342   8.507 -26.336  1.00  0.00     0.008 A 
ATOM      7  C   UNL     1     113.385   9.284 -25.828  1.00  0.00     0.004 A 
ENDROOT
BRANCH   4   8
ATOM      8  O   UNL     1     110.560   7.632 -23.200  1.00  0.00    -0.508 OA
ATOM      9  H   UNL     1     109.608   7.430 -23.484  1.00  0.00     0.293 HD
ENDBRANCH   4   8
BRANCH   5  10
ATOM     10  C   UNL     1     110.265   7.096 -26.082  1.00  0.00     0.017 C 
ATOM     11  C   UNL     1     110.000   5.827 -25.263  1.00  0.00     0.012 C 
ATOM     12  C   UNL     1     110.530   6.771 -27.557  1.00  0.00     0.012 C 
ENDBRANCH   5  10
TORSDOF 2
ENDMDL
MODEL 8
REMARK VINA RESULT:    -4.483      1.638      2.300
REMARK INTER + INTRA:          -4.890
REMARK INTER:                  -4.697
REMARK INTRA:                  -0.193
REMARK UNBOUND:                -0.014
REMARK SMILES Cc1ccc(C(C)C)c(O)c1
REMARK SMILES IDX 1 1 2 2 11 3 9 4 5 5 4 6 3 7 10 8 6 10 7 11 8 12
REMARK H PARENT 10 9
REMARK Flexibility Score: inf
ROOT
ATOM      1  C   UNL     1     109.473   5.505 -42.691  1.00  0.00     0.044 C 
ATOM      2  C   UNL     1     110.112   6.693 -42.036  1.00  0.00    -0.047 A 
ATOM      3  C   UNL     1     109.415   7.423 -41.064  1.00  0.00     0.049 A 
ATOM      4  C   UNL     1     110.017   8.513 -40.419  1.00  0.00     0.119 A 
ATOM      5  C   UNL     1     111.345   8.880 -40.740  1.00  0.00    -0.004 A 
ATOM      6  C   UNL     1     112.040   8.126 -41.704  1.00  0.00     0.008 A 
ATOM      7  C   UNL     1     111.433   7.042 -42.340  1.00  0.00     0.004 A 
ENDROOT
BRANCH   4   8
ATOM      8  O   UNL     1     109.293   9.225 -39.463  1.00  0.00    -0.508 OA
ATOM      9  H   UNL     1     108.682   8.760 -38.802  1.00  0.00     0.293 HD
ENDBRANCH   4   8
BRANCH   5  10
ATOM     10  C   UNL     1     112.053  10.054 -40.075  1.00  0.00     0.017 C 
ATOM     11  C   UNL     1     113.031  10.745 -41.034  1.00  0.00     0.012 C 
ATOM     12  C   UNL     1     112.742   9.638 -38.769  1.00  0.00     0.012 C 
ENDBRANCH   5  10
TORSDOF 2
ENDMDL
MODEL 9
REMARK VINA RESULT:    -4.427     15.016     16.051
REMARK INTER + INTRA:          -4.830
REMARK INTER:                  -4.653
REMARK INTRA:                  -0.177
REMARK UNBOUND:                -0.014
REMARK SMILES Cc1ccc(C(C)C)c(O)c1
REMARK SMILES IDX 1 1 2 2 11 3 9 4 5 5 4 6 3 7 10 8 6 10 7 11 8 12
REMARK H PARENT 10 9
REMARK Flexibility Score: inf
ROOT
ATOM      1  C   UNL     1     109.963   6.177 -25.108  1.00  0.00     0.044 C 
ATOM      2  C   UNL     1     110.845   7.386 -25.202  1.00  0.00    -0.047 A 
ATOM      3  C   UNL     1     111.362   7.974 -24.041  1.00  0.00     0.049 A 
ATOM      4  C   UNL     1     112.218   9.083 -24.119  1.00  0.00     0.119 A 
ATOM      5  C   UNL     1     112.576   9.612 -25.382  1.00  0.00    -0.004 A 
ATOM      6  C   UNL     1     112.064   8.999 -26.541  1.00  0.00     0.008 A 
ATOM      7  C   UNL     1     111.215   7.896 -26.452  1.00  0.00     0.004 A 
ENDROOT
BRANCH   4   8
ATOM      8  O   UNL     1     112.709   9.651 -22.944  1.00  0.00    -0.508 OA
ATOM      9  H   UNL     1     113.065  10.599 -22.919  1.00  0.00     0.293 HD
ENDBRANCH   4   8
BRANCH   5  10
ATOM     10  C   UNL     1     113.500  10.814 -25.533  1.00  0.00     0.017 C 
ATOM     11  C   UNL     1     113.206  11.599 -26.817  1.00  0.00     0.012 C 
ATOM     12  C   UNL     1     114.977  10.411 -25.443  1.00  0.00     0.012 C 
ENDBRANCH   5  10
TORSDOF 2
ENDMDL
