MODEL 1
REMARK VINA RESULT:    -4.276      0.000      0.000
REMARK INTER + INTRA:          -4.983
REMARK INTER:                  -4.900
REMARK INTRA:                  -0.083
REMARK UNBOUND:                -0.083
REMARK SMILES COc1cc(C(=O)[O-])ccc1O
REMARK SMILES IDX 5 1 9 2 4 3 10 4 3 5 11 6 6 7 7 8 8 9 2 10 1 11 12 12
REMARK H PARENT 12 13
REMARK Flexibility Score: inf
ROOT
ATOM      1  C   UNL     1      31.948  69.668  -6.703  1.00  0.00     0.001 A 
ATOM      2  C   UNL     1      32.079  70.926  -7.314  1.00  0.00     0.014 A 
ATOM      3  C   UNL     1      32.947  68.700  -6.912  1.00  0.00     0.060 A 
ATOM      4  C   UNL     1      33.185  71.211  -8.117  1.00  0.00     0.051 A 
ATOM      5  C   UNL     1      34.065  68.983  -7.721  1.00  0.00     0.161 A 
ATOM      6  C   UNL     1      34.177  70.243  -8.323  1.00  0.00     0.157 A 
ENDROOT
BRANCH   1   7
ATOM      7  C   UNL     1      30.774  69.373  -5.852  1.00  0.00     0.072 C 
ATOM      8  O   UNL     1      29.910  68.533  -6.221  1.00  0.00    -0.545 OA
ATOM      9  O   UNL     1      30.607  70.019  -4.633  1.00  0.00    -0.545 OA
ENDBRANCH   1   7
BRANCH   5  10
ATOM     10  O   UNL     1      35.080  68.041  -7.952  1.00  0.00    -0.493 OA
ATOM     11  C   UNL     1      35.053  67.062  -8.985  1.00  0.00     0.278 C 
ENDBRANCH   5  10
BRANCH   6  12
ATOM     12  O   UNL     1      35.281  70.529  -9.125  1.00  0.00    -0.504 OA
ATOM     13  H   UNL     1      35.747  69.808  -9.663  1.00  0.00     0.293 HD
ENDBRANCH   6  12
TORSDOF 3
ENDMDL
MODEL 2
REMARK VINA RESULT:    -4.151      1.468      4.427
REMARK INTER + INTRA:          -4.841
REMARK INTER:                  -4.938
REMARK INTRA:                   0.097
REMARK UNBOUND:                -0.083
REMARK SMILES COc1cc(C(=O)[O-])ccc1O
REMARK SMILES IDX 5 1 9 2 4 3 10 4 3 5 11 6 6 7 7 8 8 9 2 10 1 11 12 12
REMARK H PARENT 12 13
REMARK Flexibility Score: inf
ROOT
ATOM      1  C   UNL     1      33.629  69.625  -7.910  1.00  0.00     0.001 A 
ATOM      2  C   UNL     1      33.025  70.570  -8.756  1.00  0.00     0.014 A 
ATOM      3  C   UNL     1      33.252  69.582  -6.555  1.00  0.00     0.060 A 
ATOM      4  C   UNL     1      32.064  71.452  -8.260  1.00  0.00     0.051 A 
ATOM      5  C   UNL     1      32.283  70.471  -6.050  1.00  0.00     0.161 A 
ATOM      6  C   UNL     1      31.692  71.406  -6.910  1.00  0.00     0.157 A 
ENDROOT
BRANCH   1   7
ATOM      7  C   UNL     1      34.646  68.692  -8.443  1.00  0.00     0.072 C 
ATOM      8  O   UNL     1      35.615  69.121  -9.125  1.00  0.00    -0.545 OA
ATOM      9  O   UNL     1      34.546  67.327  -8.198  1.00  0.00    -0.545 OA
ENDBRANCH   1   7
BRANCH   5  10
ATOM     10  O   UNL     1      31.883  70.457  -4.704  1.00  0.00    -0.493 OA
ATOM     11  C   UNL     1      30.606  70.022  -4.246  1.00  0.00     0.278 C 
ENDBRANCH   5  10
BRANCH   6  12
ATOM     12  O   UNL     1      30.732  72.288  -6.416  1.00  0.00    -0.504 OA
ATOM     13  H   UNL     1      30.613  73.216  -6.806  1.00  0.00     0.293 HD
ENDBRANCH   6  12
TORSDOF 3
ENDMDL
MODEL 3
REMARK VINA RESULT:    -3.872      1.660      2.451
REMARK INTER + INTRA:          -4.520
REMARK INTER:                  -4.633
REMARK INTRA:                   0.112
REMARK UNBOUND:                -0.083
REMARK SMILES COc1cc(C(=O)[O-])ccc1O
REMARK SMILES IDX 5 1 9 2 4 3 10 4 3 5 11 6 6 7 7 8 8 9 2 10 1 11 12 12
REMARK H PARENT 12 13
REMARK Flexibility Score: inf
ROOT
ATOM      1  C   UNL     1      31.603  70.439  -6.269  1.00  0.00     0.001 A 
ATOM      2  C   UNL     1      31.014  69.301  -6.844  1.00  0.00     0.014 A 
ATOM      3  C   UNL     1      32.934  70.758  -6.597  1.00  0.00     0.060 A 
ATOM      4  C   UNL     1      31.739  68.499  -7.728  1.00  0.00     0.051 A 
ATOM      5  C   UNL     1      33.669  69.952  -7.488  1.00  0.00     0.161 A 
ATOM      6  C   UNL     1      33.063  68.820  -8.051  1.00  0.00     0.157 A 
ENDROOT
BRANCH   1   7
ATOM      7  C   UNL     1      30.829  71.285  -5.335  1.00  0.00     0.072 C 
ATOM      8  O   UNL     1      30.665  70.932  -4.136  1.00  0.00    -0.545 OA
ATOM      9  O   UNL     1      30.271  72.483  -5.766  1.00  0.00    -0.545 OA
ENDBRANCH   1   7
BRANCH   5  10
ATOM     10  O   UNL     1      34.998  70.240  -7.837  1.00  0.00    -0.493 OA
ATOM     11  C   UNL     1      35.417  70.679  -9.125  1.00  0.00     0.278 C 
ENDBRANCH   5  10
BRANCH   6  12
ATOM     12  O   UNL     1      33.785  68.018  -8.933  1.00  0.00    -0.504 OA
ATOM     13  H   UNL     1      34.796  67.962  -8.894  1.00  0.00     0.293 HD
ENDBRANCH   6  12
TORSDOF 3
ENDMDL
MODEL 4
REMARK VINA RESULT:    -3.756      1.629      4.350
REMARK INTER + INTRA:          -4.387
REMARK INTER:                  -4.350
REMARK INTRA:                  -0.037
REMARK UNBOUND:                -0.083
REMARK SMILES COc1cc(C(=O)[O-])ccc1O
REMARK SMILES IDX 5 1 9 2 4 3 10 4 3 5 11 6 6 7 7 8 8 9 2 10 1 11 12 12
REMARK H PARENT 12 13
REMARK Flexibility Score: inf
ROOT
ATOM      1  C   UNL     1      34.382  68.259  -8.459  1.00  0.00     0.001 A 
ATOM      2  C   UNL     1      34.751  69.440  -9.122  1.00  0.00     0.014 A 
ATOM      3  C   UNL     1      33.254  68.271  -7.616  1.00  0.00     0.060 A 
ATOM      4  C   UNL     1      34.009  70.610  -8.948  1.00  0.00     0.051 A 
ATOM      5  C   UNL     1      32.503  69.450  -7.438  1.00  0.00     0.161 A 
ATOM      6  C   UNL     1      32.888  70.618  -8.108  1.00  0.00     0.157 A 
ENDROOT
BRANCH   1   7
ATOM      7  C   UNL     1      35.171  67.021  -8.648  1.00  0.00     0.072 C 
ATOM      8  O   UNL     1      34.671  65.896  -8.381  1.00  0.00    -0.545 OA
ATOM      9  O   UNL     1      36.476  67.084  -9.122  1.00  0.00    -0.545 OA
ENDBRANCH   1   7
BRANCH   5  10
ATOM     10  O   UNL     1      31.374  69.499  -6.605  1.00  0.00    -0.493 OA
ATOM     11  C   UNL     1      31.386  69.949  -5.255  1.00  0.00     0.278 C 
ENDBRANCH   5  10
BRANCH   6  12
ATOM     12  O   UNL     1      32.149  71.788  -7.935  1.00  0.00    -0.504 OA
ATOM     13  H   UNL     1      31.719  72.264  -8.719  1.00  0.00     0.293 HD
ENDBRANCH   6  12
TORSDOF 3
ENDMDL
MODEL 5
REMARK VINA RESULT:    -3.689      1.412      4.559
REMARK INTER + INTRA:          -4.311
REMARK INTER:                  -4.232
REMARK INTRA:                  -0.079
REMARK UNBOUND:                -0.083
REMARK SMILES COc1cc(C(=O)[O-])ccc1O
REMARK SMILES IDX 5 1 9 2 4 3 10 4 3 5 11 6 6 7 7 8 8 9 2 10 1 11 12 12
REMARK H PARENT 12 13
REMARK Flexibility Score: inf
ROOT
ATOM      1  C   UNL     1      33.750  69.627  -7.209  1.00  0.00     0.001 A 
ATOM      2  C   UNL     1      34.331  70.379  -6.175  1.00  0.00     0.014 A 
ATOM      3  C   UNL     1      32.393  69.265  -7.111  1.00  0.00     0.060 A 
ATOM      4  C   UNL     1      33.573  70.762  -5.067  1.00  0.00     0.051 A 
ATOM      5  C   UNL     1      31.625  69.649  -5.994  1.00  0.00     0.161 A 
ATOM      6  C   UNL     1      32.223  70.399  -4.973  1.00  0.00     0.157 A 
ENDROOT
BRANCH   1   7
ATOM      7  C   UNL     1      34.557  69.226  -8.382  1.00  0.00     0.072 C 
ATOM      8  O   UNL     1      35.097  70.096  -9.117  1.00  0.00    -0.545 OA
ATOM      9  O   UNL     1      34.731  67.882  -8.691  1.00  0.00    -0.545 OA
ENDBRANCH   1   7
BRANCH   5  10
ATOM     10  O   UNL     1      30.270  69.305  -5.863  1.00  0.00    -0.493 OA
ATOM     11  C   UNL     1      29.667  68.160  -6.456  1.00  0.00     0.278 C 
ENDBRANCH   5  10
BRANCH   6  12
ATOM     12  O   UNL     1      31.469  70.781  -3.865  1.00  0.00    -0.504 OA
ATOM     13  H   UNL     1      30.596  71.287  -3.966  1.00  0.00     0.293 HD
ENDBRANCH   6  12
TORSDOF 3
ENDMDL
MODEL 6
REMARK VINA RESULT:    -3.442     14.661     16.710
REMARK INTER + INTRA:          -4.028
REMARK INTER:                  -3.981
REMARK INTRA:                  -0.047
REMARK UNBOUND:                -0.083
REMARK SMILES COc1cc(C(=O)[O-])ccc1O
REMARK SMILES IDX 5 1 9 2 4 3 10 4 3 5 11 6 6 7 7 8 8 9 2 10 1 11 12 12
REMARK H PARENT 12 13
REMARK Flexibility Score: inf
ROOT
ATOM      1  C   UNL     1      21.074  63.038   2.585  1.00  0.00     0.001 A 
ATOM      2  C   UNL     1      20.509  62.875   3.861  1.00  0.00     0.014 A 
ATOM      3  C   UNL     1      22.467  63.201   2.471  1.00  0.00     0.060 A 
ATOM      4  C   UNL     1      21.318  62.875   4.998  1.00  0.00     0.051 A 
ATOM      5  C   UNL     1      23.288  63.202   3.617  1.00  0.00     0.161 A 
ATOM      6  C   UNL     1      22.704  63.039   4.880  1.00  0.00     0.157 A 
ENDROOT
BRANCH   1   7
ATOM      7  C   UNL     1      20.212  63.035   1.383  1.00  0.00     0.072 C 
ATOM      8  O   UNL     1      20.720  63.047   0.230  1.00  0.00    -0.545 OA
ATOM      9  O   UNL     1      18.828  63.021   1.509  1.00  0.00    -0.545 OA
ENDBRANCH   1   7
BRANCH   5  10
ATOM     10  O   UNL     1      24.680  63.362   3.541  1.00  0.00    -0.493 OA
ATOM     11  C   UNL     1      25.359  64.605   3.692  1.00  0.00     0.278 C 
ENDBRANCH   5  10
BRANCH   6  12
ATOM     12  O   UNL     1      23.511  63.039   6.018  1.00  0.00    -0.504 OA
ATOM     13  H   UNL     1      24.476  63.345   5.984  1.00  0.00     0.293 HD
ENDBRANCH   6  12
TORSDOF 3
ENDMDL
MODEL 7
REMARK VINA RESULT:    -3.127     14.983     16.516
REMARK INTER + INTRA:          -3.666
REMARK INTER:                  -3.638
REMARK INTRA:                  -0.028
REMARK UNBOUND:                -0.083
REMARK SMILES COc1cc(C(=O)[O-])ccc1O
REMARK SMILES IDX 5 1 9 2 4 3 10 4 3 5 11 6 6 7 7 8 8 9 2 10 1 11 12 12
REMARK H PARENT 12 13
REMARK Flexibility Score: inf
ROOT
ATOM      1  C   UNL     1      23.621  63.639   4.043  1.00  0.00     0.001 A 
ATOM      2  C   UNL     1      22.760  63.136   5.032  1.00  0.00     0.014 A 
ATOM      3  C   UNL     1      23.110  63.888   2.755  1.00  0.00     0.060 A 
ATOM      4  C   UNL     1      21.417  62.887   4.742  1.00  0.00     0.051 A 
ATOM      5  C   UNL     1      21.756  63.637   2.458  1.00  0.00     0.161 A 
ATOM      6  C   UNL     1      20.914  63.135   3.458  1.00  0.00     0.157 A 
ENDROOT
BRANCH   1   7
ATOM      7  C   UNL     1      25.042  63.902   4.357  1.00  0.00     0.072 C 
ATOM      8  O   UNL     1      25.639  64.888   3.848  1.00  0.00    -0.545 OA
ATOM      9  O   UNL     1      25.740  63.063   5.218  1.00  0.00    -0.545 OA
ENDBRANCH   1   7
BRANCH   5  10
ATOM     10  O   UNL     1      21.213  63.873   1.185  1.00  0.00    -0.493 OA
ATOM     11  C   UNL     1      21.036  62.875   0.185  1.00  0.00     0.278 C 
ENDBRANCH   5  10
BRANCH   6  12
ATOM     12  O   UNL     1      19.572  62.886   3.170  1.00  0.00    -0.504 OA
ATOM     13  H   UNL     1      19.185  61.950   3.214  1.00  0.00     0.293 HD
ENDBRANCH   6  12
TORSDOF 3
ENDMDL
MODEL 8
REMARK VINA RESULT:    -3.026     14.091     15.936
REMARK INTER + INTRA:          -3.550
REMARK INTER:                  -3.458
REMARK INTRA:                  -0.092
REMARK UNBOUND:                -0.083
REMARK SMILES COc1cc(C(=O)[O-])ccc1O
REMARK SMILES IDX 5 1 9 2 4 3 10 4 3 5 11 6 6 7 7 8 8 9 2 10 1 11 12 12
REMARK H PARENT 12 13
REMARK Flexibility Score: inf
ROOT
ATOM      1  C   UNL     1      33.849  65.601   6.836  1.00  0.00     0.001 A 
ATOM      2  C   UNL     1      32.890  65.576   5.811  1.00  0.00     0.014 A 
ATOM      3  C   UNL     1      33.724  64.700   7.911  1.00  0.00     0.060 A 
ATOM      4  C   UNL     1      31.828  64.671   5.858  1.00  0.00     0.051 A 
ATOM      5  C   UNL     1      32.653  63.786   7.963  1.00  0.00     0.161 A 
ATOM      6  C   UNL     1      31.707  63.778   6.930  1.00  0.00     0.157 A 
ENDROOT
BRANCH   1   7
ATOM      7  C   UNL     1      34.974  66.561   6.781  1.00  0.00     0.072 C 
ATOM      8  O   UNL     1      35.525  66.964   7.840  1.00  0.00    -0.545 OA
ATOM      9  O   UNL     1      35.437  67.033   5.559  1.00  0.00    -0.545 OA
ENDBRANCH   1   7
BRANCH   5  10
ATOM     10  O   UNL     1      32.497  62.875   9.019  1.00  0.00    -0.493 OA
ATOM     11  C   UNL     1      32.472  63.233  10.397  1.00  0.00     0.278 C 
ENDBRANCH   5  10
BRANCH   6  12
ATOM     12  O   UNL     1      30.645  62.875   6.975  1.00  0.00    -0.504 OA
ATOM     13  H   UNL     1      29.682  63.184   6.910  1.00  0.00     0.293 HD
ENDBRANCH   6  12
TORSDOF 3
ENDMDL
