MODEL 1
REMARK VINA RESULT:    -5.248      0.000      0.000
REMARK INTER + INTRA:          -6.390
REMARK INTER:                  -6.168
REMARK INTRA:                  -0.222
REMARK UNBOUND:                -0.222
REMARK SMILES O=c1c(O)c(-c2ccc(O)cc2)oc2cc(O)cc(O)c12
REMARK SMILES IDX 5 1 3 2 2 3 1 4 21 5 19 6 18 7 16 8 15 9 14 10 13 11 6 12
REMARK SMILES IDX 7 13 8 14 9 15 12 16 11 17 10 18 4 20 20 22 17 24
REMARK H PARENT 10 19 4 21 20 23 17 25
REMARK Flexibility Score: inf
ROOT
ATOM      1  C   UNL     1      13.940  42.721  25.456  1.00  0.00     0.180 A 
ATOM      2  C   UNL     1      15.012  43.552  25.825  1.00  0.00     0.208 A 
ATOM      3  C   UNL     1      15.119  43.971  27.161  1.00  0.00     0.238 A 
ATOM      4  O   UNL     1      16.111  44.669  27.497  1.00  0.00    -0.285 OA
ATOM      5  C   UNL     1      14.145  43.569  28.106  1.00  0.00     0.111 A 
ATOM      6  C   UNL     1      14.132  43.968  29.476  1.00  0.00     0.134 A 
ATOM      7  C   UNL     1      13.195  43.405  30.351  1.00  0.00     0.093 A 
ATOM      8  C   UNL     1      12.228  42.507  29.891  1.00  0.00     0.123 A 
ATOM      9  C   UNL     1      12.196  42.158  28.543  1.00  0.00     0.094 A 
ATOM     10  C   UNL     1      13.140  42.676  27.653  1.00  0.00     0.146 A 
ATOM     11  O   UNL     1      13.079  42.308  26.379  1.00  0.00    -0.452 OA
ENDROOT
BRANCH   1  12
ATOM     12  C   UNL     1      13.746  42.257  24.062  1.00  0.00     0.021 A 
ATOM     13  C   UNL     1      13.324  43.138  23.049  1.00  0.00     0.016 A 
ATOM     14  C   UNL     1      13.124  42.672  21.746  1.00  0.00     0.047 A 
ATOM     15  C   UNL     1      13.329  41.320  21.442  1.00  0.00     0.115 A 
ATOM     16  C   UNL     1      13.928  40.899  23.754  1.00  0.00     0.016 A 
ATOM     17  C   UNL     1      13.728  40.437  22.449  1.00  0.00     0.047 A 
BRANCH  15  18
ATOM     18  O   UNL     1      13.133  40.846  20.147  1.00  0.00    -0.508 OA
ATOM     19  H   UNL     1      12.468  40.107  19.948  1.00  0.00     0.293 HD
ENDBRANCH  15  18
ENDBRANCH   1  12
BRANCH   2  20
ATOM     20  O   UNL     1      15.975  43.918  24.881  1.00  0.00    -0.502 OA
ATOM     21  H   UNL     1      16.969  43.825  25.053  1.00  0.00     0.293 HD
ENDBRANCH   2  20
BRANCH   6  22
ATOM     22  O   UNL     1      14.994  44.926  30.019  1.00  0.00    -0.507 OA
ATOM     23  H   UNL     1      15.746  44.724  30.661  1.00  0.00     0.293 HD
ENDBRANCH   6  22
BRANCH   8  24
ATOM     24  O   UNL     1      11.289  41.964  30.764  1.00  0.00    -0.508 OA
ATOM     25  H   UNL     1      11.496  41.144  31.323  1.00  0.00     0.293 HD
ENDBRANCH   8  24
TORSDOF 5
ENDMDL
MODEL 2
REMARK VINA RESULT:    -5.188     13.048     16.551
REMARK INTER + INTRA:          -6.319
REMARK INTER:                  -6.055
REMARK INTRA:                  -0.264
REMARK UNBOUND:                -0.222
REMARK SMILES O=c1c(O)c(-c2ccc(O)cc2)oc2cc(O)cc(O)c12
REMARK SMILES IDX 5 1 3 2 2 3 1 4 21 5 19 6 18 7 16 8 15 9 14 10 13 11 6 12
REMARK SMILES IDX 7 13 8 14 9 15 12 16 11 17 10 18 4 20 20 22 17 24
REMARK H PARENT 10 19 4 21 20 23 17 25
REMARK Flexibility Score: inf
ROOT
ATOM      1  C   UNL     1      23.729  40.354  14.981  1.00  0.00     0.180 A 
ATOM      2  C   UNL     1      24.801  40.286  14.074  1.00  0.00     0.208 A 
ATOM      3  C   UNL     1      24.800  39.281  13.094  1.00  0.00     0.238 A 
ATOM      4  O   UNL     1      25.734  39.258  12.250  1.00  0.00    -0.285 OA
ATOM      5  C   UNL     1      23.737  38.346  13.043  1.00  0.00     0.111 A 
ATOM      6  C   UNL     1      23.654  37.263  12.118  1.00  0.00     0.134 A 
ATOM      7  C   UNL     1      22.494  36.479  12.074  1.00  0.00     0.093 A 
ATOM      8  C   UNL     1      21.441  36.700  12.965  1.00  0.00     0.123 A 
ATOM      9  C   UNL     1      21.538  37.718  13.911  1.00  0.00     0.094 A 
ATOM     10  C   UNL     1      22.668  38.539  13.956  1.00  0.00     0.146 A 
ATOM     11  O   UNL     1      22.715  39.504  14.866  1.00  0.00    -0.452 OA
ENDROOT
BRANCH   1  12
ATOM     12  C   UNL     1      23.670  41.370  16.057  1.00  0.00     0.021 A 
ATOM     13  C   UNL     1      23.234  42.683  15.801  1.00  0.00     0.016 A 
ATOM     14  C   UNL     1      23.211  43.633  16.827  1.00  0.00     0.047 A 
ATOM     15  C   UNL     1      23.636  43.287  18.117  1.00  0.00     0.115 A 
ATOM     16  C   UNL     1      24.115  41.038  17.347  1.00  0.00     0.016 A 
ATOM     17  C   UNL     1      24.090  41.990  18.371  1.00  0.00     0.047 A 
BRANCH  15  18
ATOM     18  O   UNL     1      23.616  44.225  19.146  1.00  0.00    -0.508 OA
ATOM     19  H   UNL     1      22.751  44.652  19.457  1.00  0.00     0.293 HD
ENDBRANCH  15  18
ENDBRANCH   1  12
BRANCH   2  20
ATOM     20  O   UNL     1      25.828  41.232  14.127  1.00  0.00    -0.502 OA
ATOM     21  H   UNL     1      25.734  42.160  13.734  1.00  0.00     0.293 HD
ENDBRANCH   2  20
BRANCH   6  22
ATOM     22  O   UNL     1      24.686  36.899  11.247  1.00  0.00    -0.507 OA
ATOM     23  H   UNL     1      25.374  36.187  11.438  1.00  0.00     0.293 HD
ENDBRANCH   6  22
BRANCH   8  24
ATOM     24  O   UNL     1      20.297  35.906  12.925  1.00  0.00    -0.508 OA
ATOM     25  H   UNL     1      19.824  35.616  13.773  1.00  0.00     0.293 HD
ENDBRANCH   8  24
TORSDOF 5
ENDMDL
MODEL 3
REMARK VINA RESULT:    -5.011     12.344     14.881
REMARK INTER + INTRA:          -6.112
REMARK INTER:                  -6.025
REMARK INTRA:                  -0.087
REMARK UNBOUND:                -0.222
REMARK SMILES O=c1c(O)c(-c2ccc(O)cc2)oc2cc(O)cc(O)c12
REMARK SMILES IDX 5 1 3 2 2 3 1 4 21 5 19 6 18 7 16 8 15 9 14 10 13 11 6 12
REMARK SMILES IDX 7 13 8 14 9 15 12 16 11 17 10 18 4 20 20 22 17 24
REMARK H PARENT 10 19 4 21 20 23 17 25
REMARK Flexibility Score: inf
ROOT
ATOM      1  C   UNL     1      23.856  41.395  14.902  1.00  0.00     0.180 A 
ATOM      2  C   UNL     1      23.065  42.468  14.455  1.00  0.00     0.208 A 
ATOM      3  C   UNL     1      22.645  43.436  15.381  1.00  0.00     0.238 A 
ATOM      4  O   UNL     1      21.984  44.423  14.965  1.00  0.00    -0.285 OA
ATOM      5  C   UNL     1      23.006  43.311  16.744  1.00  0.00     0.111 A 
ATOM      6  C   UNL     1      22.602  44.211  17.775  1.00  0.00     0.134 A 
ATOM      7  C   UNL     1      23.125  44.064  19.066  1.00  0.00     0.093 A 
ATOM      8  C   UNL     1      23.988  43.009  19.377  1.00  0.00     0.123 A 
ATOM      9  C   UNL     1      24.340  42.091  18.391  1.00  0.00     0.094 A 
ATOM     10  C   UNL     1      23.863  42.233  17.086  1.00  0.00     0.146 A 
ATOM     11  O   UNL     1      24.232  41.341  16.175  1.00  0.00    -0.452 OA
ENDROOT
BRANCH   1  12
ATOM     12  C   UNL     1      24.317  40.322  13.991  1.00  0.00     0.021 A 
ATOM     13  C   UNL     1      25.140  40.604  12.886  1.00  0.00     0.016 A 
ATOM     14  C   UNL     1      25.544  39.579  12.024  1.00  0.00     0.047 A 
ATOM     15  C   UNL     1      25.118  38.263  12.249  1.00  0.00     0.115 A 
ATOM     16  C   UNL     1      23.878  39.004  14.196  1.00  0.00     0.016 A 
ATOM     17  C   UNL     1      24.284  37.980  13.334  1.00  0.00     0.047 A 
BRANCH  15  18
ATOM     18  O   UNL     1      25.515  37.234  11.398  1.00  0.00    -0.508 OA
ATOM     19  H   UNL     1      24.892  36.863  10.689  1.00  0.00     0.293 HD
ENDBRANCH  15  18
ENDBRANCH   1  12
BRANCH   2  20
ATOM     20  O   UNL     1      22.739  42.584  13.101  1.00  0.00    -0.502 OA
ATOM     21  H   UNL     1      23.019  43.380  12.540  1.00  0.00     0.293 HD
ENDBRANCH   2  20
BRANCH   6  22
ATOM     22  O   UNL     1      21.675  45.243  17.593  1.00  0.00    -0.507 OA
ATOM     23  H   UNL     1      20.817  45.157  17.070  1.00  0.00     0.293 HD
ENDBRANCH   6  22
BRANCH   8  24
ATOM     24  O   UNL     1      24.491  42.860  20.667  1.00  0.00    -0.508 OA
ATOM     25  H   UNL     1      25.409  42.462  20.835  1.00  0.00     0.293 HD
ENDBRANCH   8  24
TORSDOF 5
ENDMDL
MODEL 4
REMARK VINA RESULT:    -4.971      9.907     11.570
REMARK INTER + INTRA:          -6.065
REMARK INTER:                  -6.264
REMARK INTRA:                   0.200
REMARK UNBOUND:                -0.222
REMARK SMILES O=c1c(O)c(-c2ccc(O)cc2)oc2cc(O)cc(O)c12
REMARK SMILES IDX 5 1 3 2 2 3 1 4 21 5 19 6 18 7 16 8 15 9 14 10 13 11 6 12
REMARK SMILES IDX 7 13 8 14 9 15 12 16 11 17 10 18 4 20 20 22 17 24
REMARK H PARENT 10 19 4 21 20 23 17 25
REMARK Flexibility Score: inf
ROOT
ATOM      1  C   UNL     1      22.255  38.536  29.852  1.00  0.00     0.180 A 
ATOM      2  C   UNL     1      23.307  37.744  30.343  1.00  0.00     0.208 A 
ATOM      3  C   UNL     1      23.209  36.347  30.245  1.00  0.00     0.238 A 
ATOM      4  O   UNL     1      24.177  35.644  30.637  1.00  0.00    -0.285 OA
ATOM      5  C   UNL     1      22.055  35.759  29.673  1.00  0.00     0.111 A 
ATOM      6  C   UNL     1      21.832  34.354  29.561  1.00  0.00     0.134 A 
ATOM      7  C   UNL     1      20.713  33.886  28.859  1.00  0.00     0.093 A 
ATOM      8  C   UNL     1      19.777  34.773  28.323  1.00  0.00     0.123 A 
ATOM      9  C   UNL     1      19.955  36.145  28.480  1.00  0.00     0.094 A 
ATOM     10  C   UNL     1      21.079  36.643  29.144  1.00  0.00     0.146 A 
ATOM     11  O   UNL     1      21.215  37.958  29.261  1.00  0.00    -0.452 OA
ENDROOT
BRANCH   1  12
ATOM     12  C   UNL     1      22.275  40.015  29.940  1.00  0.00     0.021 A 
ATOM     13  C   UNL     1      22.839  40.675  31.047  1.00  0.00     0.016 A 
ATOM     14  C   UNL     1      22.824  42.071  31.121  1.00  0.00     0.047 A 
ATOM     15  C   UNL     1      22.233  42.824  30.098  1.00  0.00     0.115 A 
ATOM     16  C   UNL     1      21.665  40.777  28.930  1.00  0.00     0.016 A 
ATOM     17  C   UNL     1      21.652  42.173  29.006  1.00  0.00     0.047 A 
BRANCH  15  18
ATOM     18  O   UNL     1      22.213  44.215  30.161  1.00  0.00    -0.508 OA
ATOM     19  H   UNL     1      21.684  44.706  30.872  1.00  0.00     0.293 HD
ENDBRANCH  15  18
ENDBRANCH   1  12
BRANCH   2  20
ATOM     20  O   UNL     1      24.447  38.345  30.884  1.00  0.00    -0.502 OA
ATOM     21  H   UNL     1      25.333  38.370  30.394  1.00  0.00     0.293 HD
ENDBRANCH   2  20
BRANCH   6  22
ATOM     22  O   UNL     1      22.657  33.383  30.138  1.00  0.00    -0.507 OA
ATOM     23  H   UNL     1      23.165  33.502  31.001  1.00  0.00     0.293 HD
ENDBRANCH   6  22
BRANCH   8  24
ATOM     24  O   UNL     1      18.658  34.299  27.641  1.00  0.00    -0.508 OA
ATOM     25  H   UNL     1      17.717  34.523  27.945  1.00  0.00     0.293 HD
ENDBRANCH   8  24
TORSDOF 5
ENDMDL
MODEL 5
REMARK VINA RESULT:    -4.869      8.388      9.960
REMARK INTER + INTRA:          -5.944
REMARK INTER:                  -5.664
REMARK INTRA:                  -0.281
REMARK UNBOUND:                -0.222
REMARK SMILES O=c1c(O)c(-c2ccc(O)cc2)oc2cc(O)cc(O)c12
REMARK SMILES IDX 5 1 3 2 2 3 1 4 21 5 19 6 18 7 16 8 15 9 14 10 13 11 6 12
REMARK SMILES IDX 7 13 8 14 9 15 12 16 11 17 10 18 4 20 20 22 17 24
REMARK H PARENT 10 19 4 21 20 23 17 25
REMARK Flexibility Score: inf
ROOT
ATOM      1  C   UNL     1      22.013  39.829  29.256  1.00  0.00     0.180 A 
ATOM      2  C   UNL     1      22.714  40.655  30.152  1.00  0.00     0.208 A 
ATOM      3  C   UNL     1      22.526  42.045  30.086  1.00  0.00     0.238 A 
ATOM      4  O   UNL     1      23.114  42.776  30.926  1.00  0.00    -0.285 OA
ATOM      5  C   UNL     1      21.653  42.593  29.115  1.00  0.00     0.111 A 
ATOM      6  C   UNL     1      21.418  43.988  28.931  1.00  0.00     0.134 A 
ATOM      7  C   UNL     1      20.436  44.411  28.027  1.00  0.00     0.093 A 
ATOM      8  C   UNL     1      19.725  43.490  27.253  1.00  0.00     0.123 A 
ATOM      9  C   UNL     1      19.990  42.128  27.383  1.00  0.00     0.094 A 
ATOM     10  C   UNL     1      20.939  41.675  28.302  1.00  0.00     0.146 A 
ATOM     11  O   UNL     1      21.152  40.368  28.401  1.00  0.00    -0.452 OA
ENDROOT
BRANCH   1  12
ATOM     12  C   UNL     1      22.177  38.357  29.249  1.00  0.00     0.021 A 
ATOM     13  C   UNL     1      21.437  37.534  30.117  1.00  0.00     0.016 A 
ATOM     14  C   UNL     1      21.626  36.148  30.110  1.00  0.00     0.047 A 
ATOM     15  C   UNL     1      22.566  35.571  29.246  1.00  0.00     0.115 A 
ATOM     16  C   UNL     1      23.132  37.772  28.402  1.00  0.00     0.016 A 
ATOM     17  C   UNL     1      23.318  36.386  28.396  1.00  0.00     0.047 A 
BRANCH  15  18
ATOM     18  O   UNL     1      22.762  34.192  29.230  1.00  0.00    -0.508 OA
ATOM     19  H   UNL     1      22.078  33.564  28.825  1.00  0.00     0.293 HD
ENDBRANCH  15  18
ENDBRANCH   1  12
BRANCH   2  20
ATOM     20  O   UNL     1      23.553  40.093  31.117  1.00  0.00    -0.502 OA
ATOM     21  H   UNL     1      23.240  39.375  31.760  1.00  0.00     0.293 HD
ENDBRANCH   2  20
BRANCH   6  22
ATOM     22  O   UNL     1      22.136  44.994  29.586  1.00  0.00    -0.507 OA
ATOM     23  H   UNL     1      22.058  45.979  29.384  1.00  0.00     0.293 HD
ENDBRANCH   6  22
BRANCH   8  24
ATOM     24  O   UNL     1      18.760  43.919  26.344  1.00  0.00    -0.508 OA
ATOM     25  H   UNL     1      17.972  43.333  26.092  1.00  0.00     0.293 HD
ENDBRANCH   8  24
TORSDOF 5
ENDMDL
MODEL 6
REMARK VINA RESULT:    -4.775      1.601      2.939
REMARK INTER + INTRA:          -5.834
REMARK INTER:                  -5.866
REMARK INTRA:                   0.032
REMARK UNBOUND:                -0.222
REMARK SMILES O=c1c(O)c(-c2ccc(O)cc2)oc2cc(O)cc(O)c12
REMARK SMILES IDX 5 1 3 2 2 3 1 4 21 5 19 6 18 7 16 8 15 9 14 10 13 11 6 12
REMARK SMILES IDX 7 13 8 14 9 15 12 16 11 17 10 18 4 20 20 22 17 24
REMARK H PARENT 10 19 4 21 20 23 17 25
REMARK Flexibility Score: inf
ROOT
ATOM      1  C   UNL     1      13.510  42.140  25.228  1.00  0.00     0.180 A 
ATOM      2  C   UNL     1      13.363  41.240  26.298  1.00  0.00     0.208 A 
ATOM      3  C   UNL     1      13.383  41.736  27.611  1.00  0.00     0.238 A 
ATOM      4  O   UNL     1      13.195  40.933  28.563  1.00  0.00    -0.285 OA
ATOM      5  C   UNL     1      13.566  43.121  27.840  1.00  0.00     0.111 A 
ATOM      6  C   UNL     1      13.643  43.727  29.130  1.00  0.00     0.134 A 
ATOM      7  C   UNL     1      13.695  45.122  29.236  1.00  0.00     0.093 A 
ATOM      8  C   UNL     1      13.738  45.930  28.097  1.00  0.00     0.123 A 
ATOM      9  C   UNL     1      13.724  45.344  26.833  1.00  0.00     0.094 A 
ATOM     10  C   UNL     1      13.637  43.957  26.696  1.00  0.00     0.146 A 
ATOM     11  O   UNL     1      13.615  43.442  25.473  1.00  0.00    -0.452 OA
ENDROOT
BRANCH   1  12
ATOM     12  C   UNL     1      13.524  41.691  23.817  1.00  0.00     0.021 A 
ATOM     13  C   UNL     1      14.324  40.611  23.400  1.00  0.00     0.016 A 
ATOM     14  C   UNL     1      14.339  40.221  22.057  1.00  0.00     0.047 A 
ATOM     15  C   UNL     1      13.568  40.912  21.114  1.00  0.00     0.115 A 
ATOM     16  C   UNL     1      12.770  42.392  22.861  1.00  0.00     0.016 A 
ATOM     17  C   UNL     1      12.787  41.998  21.519  1.00  0.00     0.047 A 
BRANCH  15  18
ATOM     18  O   UNL     1      13.575  40.530  19.774  1.00  0.00    -0.508 OA
ATOM     19  H   UNL     1      12.824  39.979  19.375  1.00  0.00     0.293 HD
ENDBRANCH  15  18
ENDBRANCH   1  12
BRANCH   2  20
ATOM     20  O   UNL     1      13.161  39.880  26.050  1.00  0.00    -0.502 OA
ATOM     21  H   UNL     1      12.436  39.344  26.513  1.00  0.00     0.293 HD
ENDBRANCH   2  20
BRANCH   6  22
ATOM     22  O   UNL     1      13.699  43.008  30.328  1.00  0.00    -0.507 OA
ATOM     23  H   UNL     1      14.464  43.044  30.984  1.00  0.00     0.293 HD
ENDBRANCH   6  22
BRANCH   8  24
ATOM     24  O   UNL     1      13.806  47.317  28.211  1.00  0.00    -0.508 OA
ATOM     25  H   UNL     1      14.205  47.890  27.476  1.00  0.00     0.293 HD
ENDBRANCH   8  24
TORSDOF 5
ENDMDL
MODEL 7
REMARK VINA RESULT:    -4.766     11.895     15.747
REMARK INTER + INTRA:          -5.824
REMARK INTER:                  -5.538
REMARK INTRA:                  -0.286
REMARK UNBOUND:                -0.222
REMARK SMILES O=c1c(O)c(-c2ccc(O)cc2)oc2cc(O)cc(O)c12
REMARK SMILES IDX 5 1 3 2 2 3 1 4 21 5 19 6 18 7 16 8 15 9 14 10 13 11 6 12
REMARK SMILES IDX 7 13 8 14 9 15 12 16 11 17 10 18 4 20 20 22 17 24
REMARK H PARENT 10 19 4 21 20 23 17 25
REMARK Flexibility Score: inf
ROOT
ATOM      1  C   UNL     1      22.729  39.947  16.103  1.00  0.00     0.180 A 
ATOM      2  C   UNL     1      22.964  41.288  15.754  1.00  0.00     0.208 A 
ATOM      3  C   UNL     1      23.742  41.570  14.619  1.00  0.00     0.238 A 
ATOM      4  O   UNL     1      23.903  42.772  14.280  1.00  0.00    -0.285 OA
ATOM      5  C   UNL     1      24.289  40.509  13.858  1.00  0.00     0.111 A 
ATOM      6  C   UNL     1      25.125  40.679  12.714  1.00  0.00     0.134 A 
ATOM      7  C   UNL     1      25.503  39.560  11.962  1.00  0.00     0.093 A 
ATOM      8  C   UNL     1      25.127  38.271  12.350  1.00  0.00     0.123 A 
ATOM      9  C   UNL     1      24.361  38.091  13.499  1.00  0.00     0.094 A 
ATOM     10  C   UNL     1      23.940  39.190  14.250  1.00  0.00     0.146 A 
ATOM     11  O   UNL     1      23.202  38.974  15.332  1.00  0.00    -0.452 OA
ENDROOT
BRANCH   1  12
ATOM     12  C   UNL     1      21.939  39.570  17.298  1.00  0.00     0.021 A 
ATOM     13  C   UNL     1      22.520  39.538  18.579  1.00  0.00     0.016 A 
ATOM     14  C   UNL     1      21.761  39.155  19.689  1.00  0.00     0.047 A 
ATOM     15  C   UNL     1      20.418  38.787  19.532  1.00  0.00     0.115 A 
ATOM     16  C   UNL     1      20.599  39.179  17.146  1.00  0.00     0.016 A 
ATOM     17  C   UNL     1      19.842  38.797  18.258  1.00  0.00     0.047 A 
BRANCH  15  18
ATOM     18  O   UNL     1      19.653  38.405  20.631  1.00  0.00    -0.508 OA
ATOM     19  H   UNL     1      18.936  39.010  21.014  1.00  0.00     0.293 HD
ENDBRANCH  15  18
ENDBRANCH   1  12
BRANCH   2  20
ATOM     20  O   UNL     1      22.396  42.320  16.506  1.00  0.00    -0.502 OA
ATOM     21  H   UNL     1      21.834  43.052  16.088  1.00  0.00     0.293 HD
ENDBRANCH   2  20
BRANCH   6  22
ATOM     22  O   UNL     1      25.631  41.913  12.294  1.00  0.00    -0.507 OA
ATOM     23  H   UNL     1      25.321  42.809  12.639  1.00  0.00     0.293 HD
ENDBRANCH   6  22
BRANCH   8  24
ATOM     24  O   UNL     1      25.520  37.162  11.604  1.00  0.00    -0.508 OA
ATOM     25  H   UNL     1      25.302  36.218  11.904  1.00  0.00     0.293 HD
ENDBRANCH   8  24
TORSDOF 5
ENDMDL
MODEL 8
REMARK VINA RESULT:    -4.765      9.079     10.807
REMARK INTER + INTRA:          -5.823
REMARK INTER:                  -5.522
REMARK INTRA:                  -0.300
REMARK UNBOUND:                -0.222
REMARK SMILES O=c1c(O)c(-c2ccc(O)cc2)oc2cc(O)cc(O)c12
REMARK SMILES IDX 5 1 3 2 2 3 1 4 21 5 19 6 18 7 16 8 15 9 14 10 13 11 6 12
REMARK SMILES IDX 7 13 8 14 9 15 12 16 11 17 10 18 4 20 20 22 17 24
REMARK H PARENT 10 19 4 21 20 23 17 25
REMARK Flexibility Score: inf
ROOT
ATOM      1  C   UNL     1      21.660  39.692  29.546  1.00  0.00     0.180 A 
ATOM      2  C   UNL     1      22.780  39.463  30.364  1.00  0.00     0.208 A 
ATOM      3  C   UNL     1      23.348  38.180  30.395  1.00  0.00     0.238 A 
ATOM      4  O   UNL     1      24.384  37.994  31.087  1.00  0.00    -0.285 OA
ATOM      5  C   UNL     1      22.780  37.137  29.623  1.00  0.00     0.111 A 
ATOM      6  C   UNL     1      23.249  35.790  29.611  1.00  0.00     0.134 A 
ATOM      7  C   UNL     1      22.693  34.873  28.710  1.00  0.00     0.093 A 
ATOM      8  C   UNL     1      21.640  35.239  27.868  1.00  0.00     0.123 A 
ATOM      9  C   UNL     1      21.136  36.537  27.915  1.00  0.00     0.094 A 
ATOM     10  C   UNL     1      21.694  37.483  28.778  1.00  0.00     0.146 A 
ATOM     11  O   UNL     1      21.190  38.711  28.783  1.00  0.00    -0.452 OA
ENDROOT
BRANCH   1  12
ATOM     12  C   UNL     1      20.991  41.012  29.477  1.00  0.00     0.021 A 
ATOM     13  C   UNL     1      19.961  41.358  30.371  1.00  0.00     0.016 A 
ATOM     14  C   UNL     1      19.327  42.601  30.271  1.00  0.00     0.047 A 
ATOM     15  C   UNL     1      19.704  43.505  29.270  1.00  0.00     0.115 A 
ATOM     16  C   UNL     1      21.348  41.916  28.463  1.00  0.00     0.016 A 
ATOM     17  C   UNL     1      20.713  43.158  28.367  1.00  0.00     0.047 A 
BRANCH  15  18
ATOM     18  O   UNL     1      19.080  44.746  29.162  1.00  0.00    -0.508 OA
ATOM     19  H   UNL     1      19.588  45.571  28.868  1.00  0.00     0.293 HD
ENDBRANCH  15  18
ENDBRANCH   1  12
BRANCH   2  20
ATOM     20  O   UNL     1      23.339  40.511  31.100  1.00  0.00    -0.502 OA
ATOM     21  H   UNL     1      24.146  41.031  30.780  1.00  0.00     0.293 HD
ENDBRANCH   2  20
BRANCH   6  22
ATOM     22  O   UNL     1      24.232  35.297  30.475  1.00  0.00    -0.507 OA
ATOM     23  H   UNL     1      25.117  35.746  30.653  1.00  0.00     0.293 HD
ENDBRANCH   6  22
BRANCH   8  24
ATOM     24  O   UNL     1      21.081  34.317  26.986  1.00  0.00    -0.508 OA
ATOM     25  H   UNL     1      20.317  34.569  26.369  1.00  0.00     0.293 HD
ENDBRANCH   8  24
TORSDOF 5
ENDMDL
MODEL 9
REMARK VINA RESULT:    -4.761     14.982     16.780
REMARK INTER + INTRA:          -5.818
REMARK INTER:                  -5.524
REMARK INTRA:                  -0.294
REMARK UNBOUND:                -0.222
REMARK SMILES O=c1c(O)c(-c2ccc(O)cc2)oc2cc(O)cc(O)c12
REMARK SMILES IDX 5 1 3 2 2 3 1 4 21 5 19 6 18 7 16 8 15 9 14 10 13 11 6 12
REMARK SMILES IDX 7 13 8 14 9 15 12 16 11 17 10 18 4 20 20 22 17 24
REMARK H PARENT 10 19 4 21 20 23 17 25
REMARK Flexibility Score: inf
ROOT
ATOM      1  C   UNL     1      22.043  37.128  13.158  1.00  0.00     0.180 A 
ATOM      2  C   UNL     1      22.934  37.153  12.071  1.00  0.00     0.208 A 
ATOM      3  C   UNL     1      23.970  38.101  12.062  1.00  0.00     0.238 A 
ATOM      4  O   UNL     1      24.797  38.084  11.113  1.00  0.00    -0.285 OA
ATOM      5  C   UNL     1      24.093  39.021  13.131  1.00  0.00     0.111 A 
ATOM      6  C   UNL     1      25.080  40.049  13.206  1.00  0.00     0.134 A 
ATOM      7  C   UNL     1      25.190  40.818  14.372  1.00  0.00     0.093 A 
ATOM      8  C   UNL     1      24.306  40.638  15.439  1.00  0.00     0.123 A 
ATOM      9  C   UNL     1      23.302  39.677  15.350  1.00  0.00     0.094 A 
ATOM     10  C   UNL     1      23.190  38.871  14.215  1.00  0.00     0.146 A 
ATOM     11  O   UNL     1      22.225  37.960  14.177  1.00  0.00    -0.452 OA
ENDROOT
BRANCH   1  12
ATOM     12  C   UNL     1      20.912  36.174  13.228  1.00  0.00     0.021 A 
ATOM     13  C   UNL     1      19.680  36.453  12.607  1.00  0.00     0.016 A 
ATOM     14  C   UNL     1      18.618  35.549  12.707  1.00  0.00     0.047 A 
ATOM     15  C   UNL     1      18.768  34.364  13.439  1.00  0.00     0.115 A 
ATOM     16  C   UNL     1      21.047  34.994  13.978  1.00  0.00     0.016 A 
ATOM     17  C   UNL     1      19.983  34.092  14.075  1.00  0.00     0.047 A 
BRANCH  15  18
ATOM     18  O   UNL     1      17.717  33.456  13.545  1.00  0.00    -0.508 OA
ATOM     19  H   UNL     1      17.846  32.542  13.962  1.00  0.00     0.293 HD
ENDBRANCH  15  18
ENDBRANCH   1  12
BRANCH   2  20
ATOM     20  O   UNL     1      22.807  36.222  11.037  1.00  0.00    -0.502 OA
ATOM     21  H   UNL     1      23.472  36.162  10.275  1.00  0.00     0.293 HD
ENDBRANCH   2  20
BRANCH   6  22
ATOM     22  O   UNL     1      25.952  40.372  12.162  1.00  0.00    -0.507 OA
ATOM     23  H   UNL     1      26.957  40.289  12.206  1.00  0.00     0.293 HD
ENDBRANCH   6  22
BRANCH   8  24
ATOM     24  O   UNL     1      24.412  41.418  16.589  1.00  0.00    -0.508 OA
ATOM     25  H   UNL     1      23.727  41.359  17.334  1.00  0.00     0.293 HD
ENDBRANCH   8  24
TORSDOF 5
ENDMDL
