MODEL 1
REMARK VINA RESULT:    -3.822      0.000      0.000
REMARK INTER + INTRA:          -5.510
REMARK INTER:                  -5.274
REMARK INTRA:                  -0.236
REMARK UNBOUND:                -0.236
REMARK SMILES CCCCCCCCO
REMARK SMILES IDX 5 1 4 2 3 3 2 4 1 5 6 6 7 7 8 8 9 9
REMARK H PARENT 9 10
REMARK Flexibility Score: inf
ROOT
ATOM      1  C   UNL     1      -6.210  10.669  16.877  1.00  0.00     0.000 C 
ENDROOT
BRANCH   1   2
ATOM      2  C   UNL     1      -6.856  11.927  17.475  1.00  0.00    -0.000 C 
BRANCH   2   3
ATOM      3  C   UNL     1      -6.260  13.224  16.906  1.00  0.00    -0.000 C 
BRANCH   3   4
ATOM      4  C   UNL     1      -5.890  13.055  15.428  1.00  0.00    -0.003 C 
ATOM      5  C   UNL     1      -6.050  14.368  14.666  1.00  0.00     0.004 C 
ENDBRANCH   3   4
ENDBRANCH   2   3
ENDBRANCH   1   2
BRANCH   1   6
ATOM      6  C   UNL     1      -5.067  10.119  17.748  1.00  0.00     0.002 C 
BRANCH   6   7
ATOM      7  C   UNL     1      -3.726  10.823  17.478  1.00  0.00     0.028 C 
BRANCH   7   8
ATOM      8  C   UNL     1      -2.502   9.941  17.765  1.00  0.00     0.156 C 
BRANCH   8   9
ATOM      9  O   UNL     1      -2.040   9.323  16.595  1.00  0.00    -0.396 OA
ATOM     10  H   UNL     1      -1.069   9.161  16.723  1.00  0.00     0.210 HD
ENDBRANCH   8   9
ENDBRANCH   7   8
ENDBRANCH   6   7
ENDBRANCH   1   6
TORSDOF 7
ENDMDL
MODEL 2
REMARK VINA RESULT:    -3.686      1.926      2.311
REMARK INTER + INTRA:          -5.323
REMARK INTER:                  -4.934
REMARK INTRA:                  -0.388
REMARK UNBOUND:                -0.236
REMARK SMILES CCCCCCCCO
REMARK SMILES IDX 5 1 4 2 3 3 2 4 1 5 6 6 7 7 8 8 9 9
REMARK H PARENT 9 10
REMARK Flexibility Score: inf
ROOT
ATOM      1  C   UNL     1      -4.948  10.222  17.819  1.00  0.00     0.000 C 
ENDROOT
BRANCH   1   2
ATOM      2  C   UNL     1      -5.943  10.872  16.846  1.00  0.00    -0.000 C 
BRANCH   2   3
ATOM      3  C   UNL     1      -6.810  11.948  17.520  1.00  0.00    -0.000 C 
BRANCH   3   4
ATOM      4  C   UNL     1      -6.525  13.332  16.926  1.00  0.00    -0.003 C 
ATOM      5  C   UNL     1      -5.838  13.219  15.568  1.00  0.00     0.004 C 
ENDBRANCH   3   4
ENDBRANCH   2   3
ENDBRANCH   1   2
BRANCH   1   6
ATOM      6  C   UNL     1      -3.502  10.697  17.591  1.00  0.00     0.002 C 
BRANCH   6   7
ATOM      7  C   UNL     1      -3.261  12.126  18.108  1.00  0.00     0.028 C 
BRANCH   7   8
ATOM      8  C   UNL     1      -2.021  12.253  19.004  1.00  0.00     0.156 C 
BRANCH   8   9
ATOM      9  O   UNL     1      -1.479  13.544  18.936  1.00  0.00    -0.396 OA
ATOM     10  H   UNL     1      -2.173  14.123  18.525  1.00  0.00     0.210 HD
ENDBRANCH   8   9
ENDBRANCH   7   8
ENDBRANCH   6   7
ENDBRANCH   1   6
TORSDOF 7
ENDMDL
MODEL 3
REMARK VINA RESULT:    -3.684      1.090      1.555
REMARK INTER + INTRA:          -5.321
REMARK INTER:                  -5.160
REMARK INTRA:                  -0.161
REMARK UNBOUND:                -0.236
REMARK SMILES CCCCCCCCO
REMARK SMILES IDX 5 1 4 2 3 3 2 4 1 5 6 6 7 7 8 8 9 9
REMARK H PARENT 9 10
REMARK Flexibility Score: inf
ROOT
ATOM      1  C   UNL     1      -4.336  10.944  17.184  1.00  0.00     0.000 C 
ENDROOT
BRANCH   1   2
ATOM      2  C   UNL     1      -4.637  12.423  17.470  1.00  0.00    -0.000 C 
BRANCH   2   3
ATOM      3  C   UNL     1      -6.011  12.860  16.939  1.00  0.00    -0.000 C 
BRANCH   3   4
ATOM      4  C   UNL     1      -6.052  12.797  15.408  1.00  0.00    -0.003 C 
ATOM      5  C   UNL     1      -6.002  14.195  14.798  1.00  0.00     0.004 C 
ENDBRANCH   3   4
ENDBRANCH   2   3
ENDBRANCH   1   2
BRANCH   1   6
ATOM      6  C   UNL     1      -3.177  10.400  18.039  1.00  0.00     0.002 C 
BRANCH   6   7
ATOM      7  C   UNL     1      -3.005   8.878  17.899  1.00  0.00     0.028 C 
BRANCH   7   8
ATOM      8  C   UNL     1      -1.647   8.466  17.311  1.00  0.00     0.156 C 
BRANCH   8   9
ATOM      9  O   UNL     1      -1.663   8.532  15.910  1.00  0.00    -0.396 OA
ATOM     10  H   UNL     1      -1.309   9.425  15.663  1.00  0.00     0.210 HD
ENDBRANCH   8   9
ENDBRANCH   7   8
ENDBRANCH   6   7
ENDBRANCH   1   6
TORSDOF 7
ENDMDL
MODEL 4
REMARK VINA RESULT:    -3.633      1.463      2.486
REMARK INTER + INTRA:          -5.250
REMARK INTER:                  -5.042
REMARK INTRA:                  -0.209
REMARK UNBOUND:                -0.236
REMARK SMILES CCCCCCCCO
REMARK SMILES IDX 5 1 4 2 3 3 2 4 1 5 6 6 7 7 8 8 9 9
REMARK H PARENT 9 10
REMARK Flexibility Score: inf
ROOT
ATOM      1  C   UNL     1      -4.523  10.879  17.284  1.00  0.00     0.000 C 
ENDROOT
BRANCH   1   2
ATOM      2  C   UNL     1      -4.815  12.383  17.401  1.00  0.00    -0.000 C 
BRANCH   2   3
ATOM      3  C   UNL     1      -6.310  12.707  17.255  1.00  0.00    -0.000 C 
BRANCH   3   4
ATOM      4  C   UNL     1      -7.168  11.463  17.513  1.00  0.00    -0.003 C 
ATOM      5  C   UNL     1      -8.297  11.765  18.495  1.00  0.00     0.004 C 
ENDBRANCH   3   4
ENDBRANCH   2   3
ENDBRANCH   1   2
BRANCH   1   6
ATOM      6  C   UNL     1      -3.039  10.545  17.515  1.00  0.00     0.002 C 
BRANCH   6   7
ATOM      7  C   UNL     1      -2.828   9.103  18.008  1.00  0.00     0.028 C 
BRANCH   7   8
ATOM      8  C   UNL     1      -1.654   8.387  17.326  1.00  0.00     0.156 C 
BRANCH   8   9
ATOM      9  O   UNL     1      -1.669   8.601  15.940  1.00  0.00    -0.396 OA
ATOM     10  H   UNL     1      -2.337   7.972  15.562  1.00  0.00     0.210 HD
ENDBRANCH   8   9
ENDBRANCH   7   8
ENDBRANCH   6   7
ENDBRANCH   1   6
TORSDOF 7
ENDMDL
MODEL 5
REMARK VINA RESULT:    -3.623      1.772      3.984
REMARK INTER + INTRA:          -5.236
REMARK INTER:                  -4.742
REMARK INTRA:                  -0.494
REMARK UNBOUND:                -0.236
REMARK SMILES CCCCCCCCO
REMARK SMILES IDX 5 1 4 2 3 3 2 4 1 5 6 6 7 7 8 8 9 9
REMARK H PARENT 9 10
REMARK Flexibility Score: inf
ROOT
ATOM      1  C   UNL     1      -6.095  10.490  17.074  1.00  0.00     0.000 C 
ENDROOT
BRANCH   1   2
ATOM      2  C   UNL     1      -5.421   9.783  18.260  1.00  0.00    -0.000 C 
BRANCH   2   3
ATOM      3  C   UNL     1      -3.915   9.570  18.041  1.00  0.00    -0.000 C 
BRANCH   3   4
ATOM      4  C   UNL     1      -3.268  10.818  17.432  1.00  0.00    -0.003 C 
ATOM      5  C   UNL     1      -2.761  11.763  18.519  1.00  0.00     0.004 C 
ENDBRANCH   3   4
ENDBRANCH   2   3
ENDBRANCH   1   2
BRANCH   1   6
ATOM      6  C   UNL     1      -6.860  11.757  17.498  1.00  0.00     0.002 C 
BRANCH   6   7
ATOM      7  C   UNL     1      -6.207  13.045  16.970  1.00  0.00     0.028 C 
BRANCH   7   8
ATOM      8  C   UNL     1      -5.968  13.035  15.453  1.00  0.00     0.156 C 
BRANCH   8   9
ATOM      9  O   UNL     1      -4.598  13.084  15.157  1.00  0.00    -0.396 OA
ATOM     10  H   UNL     1      -4.361  12.207  14.760  1.00  0.00     0.210 HD
ENDBRANCH   8   9
ENDBRANCH   7   8
ENDBRANCH   6   7
ENDBRANCH   1   6
TORSDOF 7
ENDMDL
MODEL 6
REMARK VINA RESULT:    -3.593      2.142      3.112
REMARK INTER + INTRA:          -5.195
REMARK INTER:                  -4.880
REMARK INTRA:                  -0.316
REMARK UNBOUND:                -0.236
REMARK SMILES CCCCCCCCO
REMARK SMILES IDX 5 1 4 2 3 3 2 4 1 5 6 6 7 7 8 8 9 9
REMARK H PARENT 9 10
REMARK Flexibility Score: inf
ROOT
ATOM      1  C   UNL     1      -4.958  12.649  17.167  1.00  0.00     0.000 C 
ENDROOT
BRANCH   1   2
ATOM      2  C   UNL     1      -6.470  12.473  16.963  1.00  0.00    -0.000 C 
BRANCH   2   3
ATOM      3  C   UNL     1      -6.858  11.019  16.651  1.00  0.00    -0.000 C 
BRANCH   3   4
ATOM      4  C   UNL     1      -8.087  10.593  17.462  1.00  0.00    -0.003 C 
ATOM      5  C   UNL     1      -8.419  11.621  18.541  1.00  0.00     0.004 C 
ENDBRANCH   3   4
ENDBRANCH   2   3
ENDBRANCH   1   2
BRANCH   1   6
ATOM      6  C   UNL     1      -4.262  11.345  17.595  1.00  0.00     0.002 C 
BRANCH   6   7
ATOM      7  C   UNL     1      -2.741  11.511  17.755  1.00  0.00     0.028 C 
BRANCH   7   8
ATOM      8  C   UNL     1      -2.333  12.163  19.084  1.00  0.00     0.156 C 
BRANCH   8   9
ATOM      9  O   UNL     1      -1.736  13.414  18.870  1.00  0.00    -0.396 OA
ATOM     10  H   UNL     1      -1.757  13.576  17.891  1.00  0.00     0.210 HD
ENDBRANCH   8   9
ENDBRANCH   7   8
ENDBRANCH   6   7
ENDBRANCH   1   6
TORSDOF 7
ENDMDL
MODEL 7
REMARK VINA RESULT:    -3.564      2.638      4.251
REMARK INTER + INTRA:          -5.154
REMARK INTER:                  -4.842
REMARK INTRA:                  -0.313
REMARK UNBOUND:                -0.236
REMARK SMILES CCCCCCCCO
REMARK SMILES IDX 5 1 4 2 3 3 2 4 1 5 6 6 7 7 8 8 9 9
REMARK H PARENT 9 10
REMARK Flexibility Score: inf
ROOT
ATOM      1  C   UNL     1      -8.084  11.912  18.275  1.00  0.00     0.000 C 
ENDROOT
BRANCH   1   2
ATOM      2  C   UNL     1      -8.570  10.525  18.723  1.00  0.00    -0.000 C 
BRANCH   2   3
ATOM      3  C   UNL     1      -7.996   9.391  17.859  1.00  0.00    -0.000 C 
BRANCH   3   4
ATOM      4  C   UNL     1      -9.064   8.826  16.916  1.00  0.00    -0.003 C 
ATOM      5  C   UNL     1      -8.865   9.332  15.490  1.00  0.00     0.004 C 
ENDBRANCH   3   4
ENDBRANCH   2   3
ENDBRANCH   1   2
BRANCH   1   6
ATOM      6  C   UNL     1      -6.777  11.847  17.464  1.00  0.00     0.002 C 
BRANCH   6   7
ATOM      7  C   UNL     1      -6.272  13.239  17.046  1.00  0.00     0.028 C 
BRANCH   7   8
ATOM      8  C   UNL     1      -5.882  13.330  15.564  1.00  0.00     0.156 C 
BRANCH   8   9
ATOM      9  O   UNL     1      -4.608  12.789  15.343  1.00  0.00    -0.396 OA
ATOM     10  H   UNL     1      -4.508  12.687  14.361  1.00  0.00     0.210 HD
ENDBRANCH   8   9
ENDBRANCH   7   8
ENDBRANCH   6   7
ENDBRANCH   1   6
TORSDOF 7
ENDMDL
MODEL 8
REMARK VINA RESULT:    -3.559      6.424      8.375
REMARK INTER + INTRA:          -5.148
REMARK INTER:                  -4.825
REMARK INTRA:                  -0.323
REMARK UNBOUND:                -0.236
REMARK SMILES CCCCCCCCO
REMARK SMILES IDX 5 1 4 2 3 3 2 4 1 5 6 6 7 7 8 8 9 9
REMARK H PARENT 9 10
REMARK Flexibility Score: inf
ROOT
ATOM      1  C   UNL     1       2.911  11.792  20.088  1.00  0.00     0.000 C 
ENDROOT
BRANCH   1   2
ATOM      2  C   UNL     1       2.623  10.350  20.533  1.00  0.00    -0.000 C 
BRANCH   2   3
ATOM      3  C   UNL     1       1.343  10.238  21.376  1.00  0.00    -0.000 C 
BRANCH   3   4
ATOM      4  C   UNL     1       0.262   9.449  20.628  1.00  0.00    -0.003 C 
ATOM      5  C   UNL     1      -1.047  10.232  20.563  1.00  0.00     0.004 C 
ENDBRANCH   3   4
ENDBRANCH   2   3
ENDBRANCH   1   2
BRANCH   1   6
ATOM      6  C   UNL     1       1.765  12.759  20.434  1.00  0.00     0.002 C 
BRANCH   6   7
ATOM      7  C   UNL     1       1.463  13.749  19.296  1.00  0.00     0.028 C 
BRANCH   7   8
ATOM      8  C   UNL     1       1.089  15.154  19.790  1.00  0.00     0.156 C 
BRANCH   8   9
ATOM      9  O   UNL     1      -0.170  15.540  19.308  1.00  0.00    -0.396 OA
ATOM     10  H   UNL     1      -0.178  15.335  18.336  1.00  0.00     0.210 HD
ENDBRANCH   8   9
ENDBRANCH   7   8
ENDBRANCH   6   7
ENDBRANCH   1   6
TORSDOF 7
ENDMDL
MODEL 9
REMARK VINA RESULT:    -3.499      2.464      3.214
REMARK INTER + INTRA:          -5.064
REMARK INTER:                  -4.737
REMARK INTRA:                  -0.328
REMARK UNBOUND:                -0.236
REMARK SMILES CCCCCCCCO
REMARK SMILES IDX 5 1 4 2 3 3 2 4 1 5 6 6 7 7 8 8 9 9
REMARK H PARENT 9 10
REMARK Flexibility Score: inf
ROOT
ATOM      1  C   UNL     1      -7.980  11.446  17.926  1.00  0.00     0.000 C 
ENDROOT
BRANCH   1   2
ATOM      2  C   UNL     1      -6.508  11.678  17.552  1.00  0.00    -0.000 C 
BRANCH   2   3
ATOM      3  C   UNL     1      -6.252  13.092  17.008  1.00  0.00    -0.000 C 
BRANCH   3   4
ATOM      4  C   UNL     1      -5.658  13.037  15.596  1.00  0.00    -0.003 C 
ATOM      5  C   UNL     1      -6.070  14.257  14.775  1.00  0.00     0.004 C 
ENDBRANCH   3   4
ENDBRANCH   2   3
ENDBRANCH   1   2
BRANCH   1   6
ATOM      6  C   UNL     1      -8.521  10.107  17.394  1.00  0.00     0.002 C 
BRANCH   6   7
ATOM      7  C   UNL     1      -8.115   9.843  15.934  1.00  0.00     0.028 C 
BRANCH   7   8
ATOM      8  C   UNL     1      -7.596   8.419  15.690  1.00  0.00     0.156 C 
BRANCH   8   9
ATOM      9  O   UNL     1      -6.429   8.173  16.429  1.00  0.00    -0.396 OA
ATOM     10  H   UNL     1      -5.691   8.643  15.960  1.00  0.00     0.210 HD
ENDBRANCH   8   9
ENDBRANCH   7   8
ENDBRANCH   6   7
ENDBRANCH   1   6
TORSDOF 7
ENDMDL
