MODEL 1
REMARK VINA RESULT:    41.676      0.000      0.000
REMARK INTER + INTRA:          48.907
REMARK INTER:                  48.985
REMARK INTRA:                  -0.079
REMARK UNBOUND:                -0.079
REMARK SMILES C=C(C)[C@H]1CC[C@@]2(CO)CC[C@@]3(C)[C@H](CC[C@@H]4[C@]5(C)CC[C@@H](O)C(C)(C)[C@@H]5CC[C@@]43C)[C@@H]12
REMARK SMILES IDX 4 1 5 2 6 3 7 4 32 5 14 6 15 7 16 8 17 9 18 10 20 11 21 12
REMARK SMILES IDX 22 13 24 14 27 15 28 16 29 17 30 18 12 19 11 20 10 21 13 22
REMARK SMILES IDX 31 23 25 24 26 25 19 26 2 27 3 28 1 29 8 30 9 31 23 33
REMARK H PARENT 9 32 23 34
REMARK Flexibility Score: inf
ROOT
ATOM      1  C   UNL     1      21.379  53.093  45.899  1.00  0.00     0.018 C 
ATOM      2  C   UNL     1      22.714  52.477  46.287  1.00  0.00     0.009 C 
ATOM      3  C   UNL     1      23.685  53.649  46.338  1.00  0.00     0.010 C 
ATOM      4  C   UNL     1      23.072  54.803  45.481  1.00  0.00    -0.003 C 
ATOM      5  C   UNL     1      21.759  54.193  44.868  1.00  0.00     0.008 C 
ATOM      6  C   UNL     1      21.790  53.645  43.374  1.00  0.00    -0.000 C 
ATOM      7  C   UNL     1      20.411  53.902  42.722  1.00  0.00     0.005 C 
ATOM      8  C   UNL     1      20.403  55.193  41.930  1.00  0.00     0.005 C 
ATOM      9  C   UNL     1      21.259  55.072  40.646  1.00  0.00     0.002 C 
ATOM     10  C   UNL     1      20.355  54.743  39.345  1.00  0.00    -0.026 C 
ATOM     11  C   UNL     1      19.194  53.720  39.606  1.00  0.00     0.010 C 
ATOM     12  C   UNL     1      18.364  53.364  38.355  1.00  0.00     0.033 C 
ATOM     13  C   UNL     1      19.214  52.826  37.194  1.00  0.00     0.120 C 
ATOM     14  C   UNL     1      20.434  53.747  36.854  1.00  0.00    -0.006 C 
ATOM     15  C   UNL     1      21.228  54.134  38.185  1.00  0.00     0.003 C 
ATOM     16  C   UNL     1      22.059  52.907  38.696  1.00  0.00     0.005 C 
ATOM     17  C   UNL     1      22.448  52.867  40.184  1.00  0.00     0.008 C 
ATOM     18  C   UNL     1      22.612  54.249  40.867  1.00  0.00    -0.024 C 
ATOM     19  C   UNL     1      23.009  54.084  42.453  1.00  0.00    -0.024 C 
ATOM     20  C   UNL     1      23.589  55.425  43.005  1.00  0.00     0.008 C 
ATOM     21  C   UNL     1      24.100  55.350  44.440  1.00  0.00     0.010 C 
ATOM     22  C   UNL     1      24.120  52.988  42.624  1.00  0.00     0.012 C 
ATOM     23  C   UNL     1      23.787  54.978  40.115  1.00  0.00     0.012 C 
ATOM     24  C   UNL     1      19.968  55.007  36.066  1.00  0.00     0.014 C 
ATOM     25  C   UNL     1      21.381  52.987  35.876  1.00  0.00     0.014 C 
ATOM     26  C   UNL     1      19.737  56.124  38.935  1.00  0.00     0.012 C 
ENDROOT
BRANCH   1  27
ATOM     27  C   UNL     1      20.293  52.092  45.499  1.00  0.00    -0.077 C 
ATOM     28  C   UNL     1      20.542  51.016  44.465  1.00  0.00     0.039 C 
ATOM     29  C   UNL     1      19.138  52.083  46.186  1.00  0.00     0.008 C 
ENDBRANCH   1  27
BRANCH   4  30
ATOM     30  C   UNL     1      22.671  55.987  46.427  1.00  0.00     0.163 C 
BRANCH  30  31
ATOM     31  O   UNL     1      23.357  55.936  47.654  1.00  0.00    -0.396 OA
ATOM     32  H   UNL     1      23.932  55.125  47.647  1.00  0.00     0.210 HD
ENDBRANCH  30  31
ENDBRANCH   4  30
BRANCH  13  33
ATOM     33  O   UNL     1      18.376  52.666  36.076  1.00  0.00    -0.393 OA
ATOM     34  H   UNL     1      17.594  53.263  36.203  1.00  0.00     0.210 HD
ENDBRANCH  13  33
TORSDOF 4
ENDMDL
