MODEL 1
REMARK VINA RESULT:    -7.392      0.000      0.000
REMARK INTER + INTRA:         -11.988
REMARK INTER:                 -10.633
REMARK INTRA:                  -1.355
REMARK UNBOUND:                -1.355
REMARK SMILES O=c1c(O[C@H]2O[C@H](CO)[C@@H](O)[C@H](O)[C@@H]2O)c(-c2ccc(O)cc2)oc2cc(O)cc(O)c12
REMARK SMILES IDX 4 1 3 2 16 3 24 4 2 5 25 6 1 7 32 8 26 9 30 10 27 11 29 12
REMARK SMILES IDX 17 13 18 14 19 15 20 16 23 17 22 18 21 19 31 21 28 23 5 25
REMARK SMILES IDX 14 26 6 27 12 28 7 29 10 30 15 31 13 33 8 35 9 36 11 38
REMARK H PARENT 21 20 31 22 28 24 15 32 13 34 9 37 11 39
REMARK Flexibility Score: inf
ROOT
ATOM      1  O   UNL     1      -6.043  14.424   9.091  1.00  0.00    -0.454 OA
ENDROOT
BRANCH   1   2
ATOM      2  C   UNL     1      -5.819  15.245  10.214  1.00  0.00     0.214 A 
ATOM      3  C   UNL     1      -4.718  16.122  10.179  1.00  0.00     0.180 A 
ATOM      4  O   UNL     1      -4.437  16.884  11.228  1.00  0.00    -0.452 OA
ATOM      5  C   UNL     1      -6.611  15.218  11.383  1.00  0.00     0.239 A 
ATOM      6  C   UNL     1      -5.180  16.920  12.326  1.00  0.00     0.146 A 
ATOM      7  O   UNL     1      -7.508  14.348  11.506  1.00  0.00    -0.285 OA
ATOM      8  C   UNL     1      -6.345  16.123  12.438  1.00  0.00     0.111 A 
ATOM      9  C   UNL     1      -4.790  17.758  13.375  1.00  0.00     0.094 A 
ATOM     10  C   UNL     1      -7.146  16.246  13.612  1.00  0.00     0.134 A 
ATOM     11  C   UNL     1      -5.540  17.820  14.545  1.00  0.00     0.123 A 
ATOM     12  C   UNL     1      -6.712  17.065  14.661  1.00  0.00     0.093 A 
BRANCH   3  13
ATOM     13  C   UNL     1      -3.828  16.210   9.001  1.00  0.00     0.021 A 
ATOM     14  C   UNL     1      -2.553  15.624   9.052  1.00  0.00     0.016 A 
ATOM     15  C   UNL     1      -1.683  15.729   7.963  1.00  0.00     0.047 A 
ATOM     16  C   UNL     1      -2.062  16.447   6.826  1.00  0.00     0.115 A 
ATOM     17  C   UNL     1      -4.209  16.925   7.852  1.00  0.00     0.016 A 
ATOM     18  C   UNL     1      -3.325  17.053   6.777  1.00  0.00     0.047 A 
BRANCH  16  19
ATOM     19  O   UNL     1      -1.183  16.544   5.749  1.00  0.00    -0.508 OA
ATOM     20  H   UNL     1      -1.487  16.367   4.797  1.00  0.00     0.293 HD
ENDBRANCH  16  19
ENDBRANCH   3  13
BRANCH  10  21
ATOM     21  O   UNL     1      -8.383  15.618  13.776  1.00  0.00    -0.507 OA
ATOM     22  H   UNL     1      -9.270  16.063  13.603  1.00  0.00     0.293 HD
ENDBRANCH  10  21
BRANCH  11  23
ATOM     23  O   UNL     1      -5.121  18.645  15.588  1.00  0.00    -0.508 OA
ATOM     24  H   UNL     1      -4.609  19.503  15.409  1.00  0.00     0.293 HD
ENDBRANCH  11  23
ENDBRANCH   1   2
BRANCH   1  25
ATOM     25  C   UNL     1      -7.066  14.550   8.099  1.00  0.00     0.339 C 
ATOM     26  C   UNL     1      -6.558  13.889   6.800  1.00  0.00     0.214 C 
ATOM     27  O   UNL     1      -7.356  15.921   7.884  1.00  0.00    -0.332 OA
ATOM     28  C   UNL     1      -7.185  14.547   5.546  1.00  0.00     0.180 C 
ATOM     29  C   UNL     1      -8.487  16.110   7.032  1.00  0.00     0.179 C 
ATOM     30  C   UNL     1      -8.590  15.077   5.874  1.00  0.00     0.177 C 
BRANCH  26  31
ATOM     31  O   UNL     1      -6.860  12.517   6.852  1.00  0.00    -0.384 OA
ATOM     32  H   UNL     1      -6.007  12.023   6.784  1.00  0.00     0.211 HD
ENDBRANCH  26  31
BRANCH  28  33
ATOM     33  O   UNL     1      -7.237  13.624   4.490  1.00  0.00    -0.387 OA
ATOM     34  H   UNL     1      -8.028  13.047   4.641  1.00  0.00     0.211 HD
ENDBRANCH  28  33
BRANCH  29  35
ATOM     35  C   UNL     1      -9.784  16.182   7.855  1.00  0.00     0.191 C 
BRANCH  35  36
ATOM     36  O   UNL     1     -10.825  15.545   7.167  1.00  0.00    -0.394 OA
ATOM     37  H   UNL     1     -10.393  14.879   6.568  1.00  0.00     0.210 HD
ENDBRANCH  35  36
ENDBRANCH  29  35
BRANCH  30  38
ATOM     38  O   UNL     1      -9.157  15.694   4.745  1.00  0.00    -0.387 OA
ATOM     39  H   UNL     1      -8.524  16.398   4.445  1.00  0.00     0.211 HD
ENDBRANCH  30  38
ENDBRANCH   1  25
TORSDOF 11
ENDMDL
MODEL 2
REMARK VINA RESULT:    -7.373      3.383      7.978
REMARK INTER + INTRA:         -11.961
REMARK INTER:                 -10.585
REMARK INTRA:                  -1.375
REMARK UNBOUND:                -1.355
REMARK SMILES O=c1c(O[C@H]2O[C@H](CO)[C@@H](O)[C@H](O)[C@@H]2O)c(-c2ccc(O)cc2)oc2cc(O)cc(O)c12
REMARK SMILES IDX 4 1 3 2 16 3 24 4 2 5 25 6 1 7 32 8 26 9 30 10 27 11 29 12
REMARK SMILES IDX 17 13 18 14 19 15 20 16 23 17 22 18 21 19 31 21 28 23 5 25
REMARK SMILES IDX 14 26 6 27 12 28 7 29 10 30 15 31 13 33 8 35 9 36 11 38
REMARK H PARENT 21 20 31 22 28 24 15 32 13 34 9 37 11 39
REMARK Flexibility Score: inf
ROOT
ATOM      1  O   UNL     1      -7.374  14.689  12.379  1.00  0.00    -0.454 OA
ENDROOT
BRANCH   1   2
ATOM      2  C   UNL     1      -7.371  14.829  10.977  1.00  0.00     0.214 A 
ATOM      3  C   UNL     1      -8.489  15.435  10.373  1.00  0.00     0.180 A 
ATOM      4  O   UNL     1      -8.555  15.551   9.053  1.00  0.00    -0.452 OA
ATOM      5  C   UNL     1      -6.330  14.371  10.140  1.00  0.00     0.239 A 
ATOM      6  C   UNL     1      -7.581  15.174   8.236  1.00  0.00     0.146 A 
ATOM      7  O   UNL     1      -5.389  13.699  10.628  1.00  0.00    -0.285 OA
ATOM      8  C   UNL     1      -6.387  14.611   8.746  1.00  0.00     0.111 A 
ATOM      9  C   UNL     1      -7.757  15.339   6.859  1.00  0.00     0.094 A 
ATOM     10  C   UNL     1      -5.343  14.282   7.831  1.00  0.00     0.134 A 
ATOM     11  C   UNL     1      -6.761  14.952   5.968  1.00  0.00     0.123 A 
ATOM     12  C   UNL     1      -5.560  14.424   6.456  1.00  0.00     0.093 A 
BRANCH   3  13
ATOM     13  C   UNL     1      -9.631  15.935  11.170  1.00  0.00     0.021 A 
ATOM     14  C   UNL     1     -10.748  15.109  11.372  1.00  0.00     0.016 A 
ATOM     15  C   UNL     1     -11.853  15.577  12.090  1.00  0.00     0.047 A 
ATOM     16  C   UNL     1     -11.867  16.883  12.586  1.00  0.00     0.115 A 
ATOM     17  C   UNL     1      -9.646  17.246  11.678  1.00  0.00     0.016 A 
ATOM     18  C   UNL     1     -10.764  17.720  12.370  1.00  0.00     0.047 A 
BRANCH  16  19
ATOM     19  O   UNL     1     -12.976  17.335  13.299  1.00  0.00    -0.508 OA
ATOM     20  H   UNL     1     -13.047  18.295  13.620  1.00  0.00     0.293 HD
ENDBRANCH  16  19
ENDBRANCH   3  13
BRANCH  10  21
ATOM     21  O   UNL     1      -4.073  13.851   8.225  1.00  0.00    -0.507 OA
ATOM     22  H   UNL     1      -3.212  14.218   7.854  1.00  0.00     0.293 HD
ENDBRANCH  10  21
BRANCH  11  23
ATOM     23  O   UNL     1      -6.966  15.104   4.599  1.00  0.00    -0.508 OA
ATOM     24  H   UNL     1      -7.470  15.902   4.225  1.00  0.00     0.293 HD
ENDBRANCH  11  23
ENDBRANCH   1   2
BRANCH   1  25
ATOM     25  C   UNL     1      -7.907  13.612  13.154  1.00  0.00     0.339 C 
ATOM     26  C   UNL     1      -6.845  13.200  14.196  1.00  0.00     0.214 C 
ATOM     27  O   UNL     1      -8.225  12.523  12.304  1.00  0.00    -0.332 OA
ATOM     28  C   UNL     1      -6.967  11.701  14.568  1.00  0.00     0.180 C 
ATOM     29  C   UNL     1      -8.920  11.482  12.991  1.00  0.00     0.179 C 
ATOM     30  C   UNL     1      -8.431  11.244  14.449  1.00  0.00     0.177 C 
BRANCH  26  31
ATOM     31  O   UNL     1      -6.997  14.014  15.332  1.00  0.00    -0.384 OA
ATOM     32  H   UNL     1      -7.628  13.557  15.941  1.00  0.00     0.211 HD
ENDBRANCH  26  31
BRANCH  28  33
ATOM     33  O   UNL     1      -6.486  11.485  15.869  1.00  0.00    -0.387 OA
ATOM     34  H   UNL     1      -6.579  12.338  16.364  1.00  0.00     0.211 HD
ENDBRANCH  28  33
BRANCH  29  35
ATOM     35  C   UNL     1     -10.440  11.704  12.925  1.00  0.00     0.191 C 
BRANCH  35  36
ATOM     36  O   UNL     1     -11.108  10.473  12.965  1.00  0.00    -0.394 OA
ATOM     37  H   UNL     1     -11.064  10.167  13.910  1.00  0.00     0.210 HD
ENDBRANCH  35  36
ENDBRANCH  29  35
BRANCH  30  38
ATOM     38  O   UNL     1      -8.546   9.880  14.766  1.00  0.00    -0.387 OA
ATOM     39  H   UNL     1      -9.418   9.757  15.224  1.00  0.00     0.211 HD
ENDBRANCH  30  38
ENDBRANCH   1  25
TORSDOF 11
ENDMDL
MODEL 3
REMARK VINA RESULT:    -7.166      1.959      6.639
REMARK INTER + INTRA:         -11.664
REMARK INTER:                 -10.261
REMARK INTRA:                  -1.402
REMARK UNBOUND:                -1.355
REMARK SMILES O=c1c(O[C@H]2O[C@H](CO)[C@@H](O)[C@H](O)[C@@H]2O)c(-c2ccc(O)cc2)oc2cc(O)cc(O)c12
REMARK SMILES IDX 4 1 3 2 16 3 24 4 2 5 25 6 1 7 32 8 26 9 30 10 27 11 29 12
REMARK SMILES IDX 17 13 18 14 19 15 20 16 23 17 22 18 21 19 31 21 28 23 5 25
REMARK SMILES IDX 14 26 6 27 12 28 7 29 10 30 15 31 13 33 8 35 9 36 11 38
REMARK H PARENT 21 20 31 22 28 24 15 32 13 34 9 37 11 39
REMARK Flexibility Score: inf
ROOT
ATOM      1  O   UNL     1      -6.816  14.393   9.397  1.00  0.00    -0.454 OA
ENDROOT
BRANCH   1   2
ATOM      2  C   UNL     1      -5.793  15.028   8.665  1.00  0.00     0.214 A 
ATOM      3  C   UNL     1      -6.167  15.843   7.579  1.00  0.00     0.180 A 
ATOM      4  O   UNL     1      -5.239  16.426   6.832  1.00  0.00    -0.452 OA
ATOM      5  C   UNL     1      -4.415  14.870   8.935  1.00  0.00     0.239 A 
ATOM      6  C   UNL     1      -3.939  16.339   7.077  1.00  0.00     0.146 A 
ATOM      7  O   UNL     1      -4.041  14.039   9.799  1.00  0.00    -0.285 OA
ATOM      8  C   UNL     1      -3.460  15.595   8.182  1.00  0.00     0.111 A 
ATOM      9  C   UNL     1      -3.048  16.992   6.222  1.00  0.00     0.094 A 
ATOM     10  C   UNL     1      -2.058  15.586   8.443  1.00  0.00     0.134 A 
ATOM     11  C   UNL     1      -1.676  16.921   6.443  1.00  0.00     0.123 A 
ATOM     12  C   UNL     1      -1.186  16.218   7.549  1.00  0.00     0.093 A 
BRANCH   3  13
ATOM     13  C   UNL     1      -7.584  16.056   7.217  1.00  0.00     0.021 A 
ATOM     14  C   UNL     1      -8.149  15.317   6.166  1.00  0.00     0.016 A 
ATOM     15  C   UNL     1      -9.477  15.532   5.784  1.00  0.00     0.047 A 
ATOM     16  C   UNL     1     -10.244  16.509   6.424  1.00  0.00     0.115 A 
ATOM     17  C   UNL     1      -8.362  17.033   7.864  1.00  0.00     0.016 A 
ATOM     18  C   UNL     1      -9.680  17.266   7.460  1.00  0.00     0.047 A 
BRANCH  16  19
ATOM     19  O   UNL     1     -11.565  16.712   6.031  1.00  0.00    -0.508 OA
ATOM     20  H   UNL     1     -11.806  17.367   5.294  1.00  0.00     0.293 HD
ENDBRANCH  16  19
ENDBRANCH   3  13
BRANCH  10  21
ATOM     21  O   UNL     1      -1.483  15.005   9.576  1.00  0.00    -0.507 OA
ATOM     22  H   UNL     1      -1.825  14.166  10.016  1.00  0.00     0.293 HD
ENDBRANCH  10  21
BRANCH  11  23
ATOM     23  O   UNL     1      -0.803  17.561   5.564  1.00  0.00    -0.508 OA
ATOM     24  H   UNL     1      -1.108  18.341   4.992  1.00  0.00     0.293 HD
ENDBRANCH  11  23
ENDBRANCH   1   2
BRANCH   1  25
ATOM     25  C   UNL     1      -6.989  14.355  10.815  1.00  0.00     0.339 C 
ATOM     26  C   UNL     1      -7.155  12.880  11.238  1.00  0.00     0.214 C 
ATOM     27  O   UNL     1      -8.131  15.113  11.178  1.00  0.00    -0.332 OA
ATOM     28  C   UNL     1      -8.022  12.750  12.516  1.00  0.00     0.180 C 
ATOM     29  C   UNL     1      -8.261  15.257  12.593  1.00  0.00     0.179 C 
ATOM     30  C   UNL     1      -7.847  13.995  13.402  1.00  0.00     0.177 C 
BRANCH  26  31
ATOM     31  O   UNL     1      -5.878  12.328  11.439  1.00  0.00    -0.384 OA
ATOM     32  H   UNL     1      -5.886  11.878  12.320  1.00  0.00     0.211 HD
ENDBRANCH  26  31
BRANCH  28  33
ATOM     33  O   UNL     1      -7.674  11.587  13.221  1.00  0.00    -0.387 OA
ATOM     34  H   UNL     1      -8.148  10.829  12.795  1.00  0.00     0.211 HD
ENDBRANCH  28  33
BRANCH  29  35
ATOM     35  C   UNL     1      -7.530  16.518  13.082  1.00  0.00     0.191 C 
BRANCH  35  36
ATOM     36  O   UNL     1      -6.495  16.164  13.958  1.00  0.00    -0.394 OA
ATOM     37  H   UNL     1      -6.328  15.196  13.809  1.00  0.00     0.210 HD
ENDBRANCH  35  36
ENDBRANCH  29  35
BRANCH  30  38
ATOM     38  O   UNL     1      -8.646  13.893  14.553  1.00  0.00    -0.387 OA
ATOM     39  H   UNL     1      -8.698  14.799  14.957  1.00  0.00     0.211 HD
ENDBRANCH  30  38
ENDBRANCH   1  25
TORSDOF 11
ENDMDL
MODEL 4
REMARK VINA RESULT:    -7.147      3.427      8.109
REMARK INTER + INTRA:         -11.636
REMARK INTER:                 -10.316
REMARK INTRA:                  -1.320
REMARK UNBOUND:                -1.355
REMARK SMILES O=c1c(O[C@H]2O[C@H](CO)[C@@H](O)[C@H](O)[C@@H]2O)c(-c2ccc(O)cc2)oc2cc(O)cc(O)c12
REMARK SMILES IDX 4 1 3 2 16 3 24 4 2 5 25 6 1 7 32 8 26 9 30 10 27 11 29 12
REMARK SMILES IDX 17 13 18 14 19 15 20 16 23 17 22 18 21 19 31 21 28 23 5 25
REMARK SMILES IDX 14 26 6 27 12 28 7 29 10 30 15 31 13 33 8 35 9 36 11 38
REMARK H PARENT 21 20 31 22 28 24 15 32 13 34 9 37 11 39
REMARK Flexibility Score: inf
ROOT
ATOM      1  O   UNL     1      -6.887  14.445  12.522  1.00  0.00    -0.454 OA
ENDROOT
BRANCH   1   2
ATOM      2  C   UNL     1      -7.730  15.103  11.605  1.00  0.00     0.214 A 
ATOM      3  C   UNL     1      -8.839  15.804  12.115  1.00  0.00     0.180 A 
ATOM      4  O   UNL     1      -9.688  16.403  11.290  1.00  0.00    -0.452 OA
ATOM      5  C   UNL     1      -7.546  15.076  10.205  1.00  0.00     0.239 A 
ATOM      6  C   UNL     1      -9.528  16.438   9.974  1.00  0.00     0.146 A 
ATOM      7  O   UNL     1      -6.656  14.343   9.708  1.00  0.00    -0.285 OA
ATOM      8  C   UNL     1      -8.411  15.818   9.364  1.00  0.00     0.111 A 
ATOM      9  C   UNL     1     -10.486  17.095   9.197  1.00  0.00     0.094 A 
ATOM     10  C   UNL     1      -8.249  15.939   7.952  1.00  0.00     0.134 A 
ATOM     11  C   UNL     1     -10.357  17.150   7.812  1.00  0.00     0.123 A 
ATOM     12  C   UNL     1      -9.242  16.571   7.196  1.00  0.00     0.093 A 
BRANCH   3  13
ATOM     13  C   UNL     1      -9.116  15.877  13.566  1.00  0.00     0.021 A 
ATOM     14  C   UNL     1      -8.298  16.669  14.387  1.00  0.00     0.016 A 
ATOM     15  C   UNL     1      -8.520  16.721  15.767  1.00  0.00     0.047 A 
ATOM     16  C   UNL     1      -9.539  15.959  16.344  1.00  0.00     0.115 A 
ATOM     17  C   UNL     1     -10.145  15.118  14.150  1.00  0.00     0.016 A 
ATOM     18  C   UNL     1     -10.346  15.149  15.533  1.00  0.00     0.047 A 
BRANCH  16  19
ATOM     19  O   UNL     1      -9.747  16.021  17.721  1.00  0.00    -0.508 OA
ATOM     20  H   UNL     1      -9.327  15.346  18.353  1.00  0.00     0.293 HD
ENDBRANCH  16  19
ENDBRANCH   3  13
BRANCH  10  21
ATOM     21  O   UNL     1      -7.122  15.491   7.260  1.00  0.00    -0.507 OA
ATOM     22  H   UNL     1      -6.377  16.091   6.944  1.00  0.00     0.293 HD
ENDBRANCH  10  21
BRANCH  11  23
ATOM     23  O   UNL     1     -11.335  17.790   7.055  1.00  0.00    -0.508 OA
ATOM     24  H   UNL     1     -11.229  18.756   6.763  1.00  0.00     0.293 HD
ENDBRANCH  11  23
ENDBRANCH   1   2
BRANCH   1  25
ATOM     25  C   UNL     1      -7.045  13.140  13.082  1.00  0.00     0.339 C 
ATOM     26  C   UNL     1      -8.246  12.462  12.388  1.00  0.00     0.214 C 
ATOM     27  O   UNL     1      -7.266  13.242  14.479  1.00  0.00    -0.332 OA
ATOM     28  C   UNL     1      -8.940  11.441  13.323  1.00  0.00     0.180 C 
ATOM     29  C   UNL     1      -7.261  11.969  15.126  1.00  0.00     0.179 C 
ATOM     30  C   UNL     1      -7.915  10.830  14.293  1.00  0.00     0.177 C 
BRANCH  26  31
ATOM     31  O   UNL     1      -7.786  11.838  11.215  1.00  0.00    -0.384 OA
ATOM     32  H   UNL     1      -7.987  10.873  11.295  1.00  0.00     0.211 HD
ENDBRANCH  26  31
BRANCH  28  33
ATOM     33  O   UNL     1      -9.564  10.437  12.565  1.00  0.00    -0.387 OA
ATOM     34  H   UNL     1     -10.543  10.566  12.652  1.00  0.00     0.211 HD
ENDBRANCH  28  33
BRANCH  29  35
ATOM     35  C   UNL     1      -5.842  11.599  15.591  1.00  0.00     0.191 C 
BRANCH  35  36
ATOM     36  O   UNL     1      -5.774  10.230  15.879  1.00  0.00    -0.394 OA
ATOM     37  H   UNL     1      -5.613   9.773  15.011  1.00  0.00     0.210 HD
ENDBRANCH  35  36
ENDBRANCH  29  35
BRANCH  30  38
ATOM     38  O   UNL     1      -8.542   9.917  15.158  1.00  0.00    -0.387 OA
ATOM     39  H   UNL     1      -9.004   9.245  14.592  1.00  0.00     0.211 HD
ENDBRANCH  30  38
ENDBRANCH   1  25
TORSDOF 11
ENDMDL
MODEL 5
REMARK VINA RESULT:    -7.108      2.456      3.907
REMARK INTER + INTRA:         -11.580
REMARK INTER:                 -10.229
REMARK INTRA:                  -1.351
REMARK UNBOUND:                -1.355
REMARK SMILES O=c1c(O[C@H]2O[C@H](CO)[C@@H](O)[C@H](O)[C@@H]2O)c(-c2ccc(O)cc2)oc2cc(O)cc(O)c12
REMARK SMILES IDX 4 1 3 2 16 3 24 4 2 5 25 6 1 7 32 8 26 9 30 10 27 11 29 12
REMARK SMILES IDX 17 13 18 14 19 15 20 16 23 17 22 18 21 19 31 21 28 23 5 25
REMARK SMILES IDX 14 26 6 27 12 28 7 29 10 30 15 31 13 33 8 35 9 36 11 38
REMARK H PARENT 21 20 31 22 28 24 15 32 13 34 9 37 11 39
REMARK Flexibility Score: inf
ROOT
ATOM      1  O   UNL     1      -7.385  16.185   9.860  1.00  0.00    -0.454 OA
ENDROOT
BRANCH   1   2
ATOM      2  C   UNL     1      -7.259  15.049  10.683  1.00  0.00     0.214 A 
ATOM      3  C   UNL     1      -6.021  14.377  10.694  1.00  0.00     0.180 A 
ATOM      4  O   UNL     1      -5.865  13.277  11.419  1.00  0.00    -0.452 OA
ATOM      5  C   UNL     1      -8.307  14.526  11.473  1.00  0.00     0.239 A 
ATOM      6  C   UNL     1      -6.808  12.779  12.206  1.00  0.00     0.146 A 
ATOM      7  O   UNL     1      -9.461  15.011  11.375  1.00  0.00    -0.285 OA
ATOM      8  C   UNL     1      -8.069  13.413  12.316  1.00  0.00     0.111 A 
ATOM      9  C   UNL     1      -6.538  11.610  12.923  1.00  0.00     0.094 A 
ATOM     10  C   UNL     1      -9.027  12.876  13.225  1.00  0.00     0.134 A 
ATOM     11  C   UNL     1      -7.503  11.053  13.757  1.00  0.00     0.123 A 
ATOM     12  C   UNL     1      -8.743  11.685  13.903  1.00  0.00     0.093 A 
BRANCH   3  13
ATOM     13  C   UNL     1      -4.872  14.847   9.891  1.00  0.00     0.021 A 
ATOM     14  C   UNL     1      -4.625  14.273   8.635  1.00  0.00     0.016 A 
ATOM     15  C   UNL     1      -3.521  14.676   7.877  1.00  0.00     0.047 A 
ATOM     16  C   UNL     1      -2.636  15.634   8.380  1.00  0.00     0.115 A 
ATOM     17  C   UNL     1      -3.983  15.816  10.390  1.00  0.00     0.016 A 
ATOM     18  C   UNL     1      -2.864  16.196   9.642  1.00  0.00     0.047 A 
BRANCH  16  19
ATOM     19  O   UNL     1      -1.540  16.025   7.613  1.00  0.00    -0.508 OA
ATOM     20  H   UNL     1      -1.045  16.892   7.796  1.00  0.00     0.293 HD
ENDBRANCH  16  19
ENDBRANCH   3  13
BRANCH  10  21
ATOM     21  O   UNL     1     -10.247  13.491  13.520  1.00  0.00    -0.507 OA
ATOM     22  H   UNL     1     -10.499  14.419  13.221  1.00  0.00     0.293 HD
ENDBRANCH  10  21
BRANCH  11  23
ATOM     23  O   UNL     1      -7.221   9.875  14.445  1.00  0.00    -0.508 OA
ATOM     24  H   UNL     1      -7.871   9.096  14.450  1.00  0.00     0.293 HD
ENDBRANCH  11  23
ENDBRANCH   1   2
BRANCH   1  25
ATOM     25  C   UNL     1      -7.835  16.244   8.504  1.00  0.00     0.339 C 
ATOM     26  C   UNL     1      -9.271  16.809   8.499  1.00  0.00     0.214 C 
ATOM     27  O   UNL     1      -7.804  14.945   7.934  1.00  0.00    -0.332 OA
ATOM     28  C   UNL     1     -10.087  16.275   7.295  1.00  0.00     0.180 C 
ATOM     29  C   UNL     1      -8.076  14.961   6.532  1.00  0.00     0.179 C 
ATOM     30  C   UNL     1      -9.153  15.998   6.104  1.00  0.00     0.177 C 
BRANCH  26  31
ATOM     31  O   UNL     1      -9.196  18.212   8.471  1.00  0.00    -0.384 OA
ATOM     32  H   UNL     1      -9.685  18.550   9.261  1.00  0.00     0.211 HD
ENDBRANCH  26  31
BRANCH  28  33
ATOM     33  O   UNL     1     -11.084  17.196   6.939  1.00  0.00    -0.387 OA
ATOM     34  H   UNL     1     -11.809  16.690   6.493  1.00  0.00     0.211 HD
ENDBRANCH  28  33
BRANCH  29  35
ATOM     35  C   UNL     1      -6.776  15.115   5.725  1.00  0.00     0.191 C 
BRANCH  35  36
ATOM     36  O   UNL     1      -6.993  14.749   4.391  1.00  0.00    -0.394 OA
ATOM     37  H   UNL     1      -6.643  13.823   4.299  1.00  0.00     0.210 HD
ENDBRANCH  35  36
ENDBRANCH  29  35
BRANCH  30  38
ATOM     38  O   UNL     1      -9.884  15.494   5.015  1.00  0.00    -0.387 OA
ATOM     39  H   UNL     1      -9.433  14.661   4.719  1.00  0.00     0.211 HD
ENDBRANCH  30  38
ENDBRANCH   1  25
TORSDOF 11
ENDMDL
MODEL 6
REMARK VINA RESULT:    -6.991      2.472      6.714
REMARK INTER + INTRA:         -11.412
REMARK INTER:                 -10.013
REMARK INTRA:                  -1.400
REMARK UNBOUND:                -1.355
REMARK SMILES O=c1c(O[C@H]2O[C@H](CO)[C@@H](O)[C@H](O)[C@@H]2O)c(-c2ccc(O)cc2)oc2cc(O)cc(O)c12
REMARK SMILES IDX 4 1 3 2 16 3 24 4 2 5 25 6 1 7 32 8 26 9 30 10 27 11 29 12
REMARK SMILES IDX 17 13 18 14 19 15 20 16 23 17 22 18 21 19 31 21 28 23 5 25
REMARK SMILES IDX 14 26 6 27 12 28 7 29 10 30 15 31 13 33 8 35 9 36 11 38
REMARK H PARENT 21 20 31 22 28 24 15 32 13 34 9 37 11 39
REMARK Flexibility Score: inf
ROOT
ATOM      1  O   UNL     1      -8.378  17.024   7.855  1.00  0.00    -0.454 OA
ENDROOT
BRANCH   1   2
ATOM      2  C   UNL     1      -9.638  16.536   8.253  1.00  0.00     0.214 A 
ATOM      3  C   UNL     1      -9.818  16.204   9.610  1.00  0.00     0.180 A 
ATOM      4  O   UNL     1     -10.972  15.699  10.026  1.00  0.00    -0.452 OA
ATOM      5  C   UNL     1     -10.720  16.330   7.369  1.00  0.00     0.239 A 
ATOM      6  C   UNL     1     -12.025  15.532   9.238  1.00  0.00     0.146 A 
ATOM      7  O   UNL     1     -10.550  16.477   6.133  1.00  0.00    -0.285 OA
ATOM      8  C   UNL     1     -11.970  15.892   7.870  1.00  0.00     0.111 A 
ATOM      9  C   UNL     1     -13.192  14.986   9.781  1.00  0.00     0.094 A 
ATOM     10  C   UNL     1     -13.148  15.754   7.080  1.00  0.00     0.134 A 
ATOM     11  C   UNL     1     -14.317  14.790   8.986  1.00  0.00     0.123 A 
ATOM     12  C   UNL     1     -14.291  15.172   7.640  1.00  0.00     0.093 A 
BRANCH   3  13
ATOM     13  C   UNL     1      -8.738  16.377  10.604  1.00  0.00     0.021 A 
ATOM     14  C   UNL     1      -8.013  15.256  11.040  1.00  0.00     0.016 A 
ATOM     15  C   UNL     1      -7.013  15.393  12.008  1.00  0.00     0.047 A 
ATOM     16  C   UNL     1      -6.749  16.643  12.574  1.00  0.00     0.115 A 
ATOM     17  C   UNL     1      -8.463  17.634  11.171  1.00  0.00     0.016 A 
ATOM     18  C   UNL     1      -7.483  17.763  12.160  1.00  0.00     0.047 A 
BRANCH  16  19
ATOM     19  O   UNL     1      -5.751  16.763  13.539  1.00  0.00    -0.508 OA
ATOM     20  H   UNL     1      -5.627  16.065  14.265  1.00  0.00     0.293 HD
ENDBRANCH  16  19
ENDBRANCH   3  13
BRANCH  10  21
ATOM     21  O   UNL     1     -13.255  16.203   5.761  1.00  0.00    -0.507 OA
ATOM     22  H   UNL     1     -13.080  17.152   5.471  1.00  0.00     0.293 HD
ENDBRANCH  10  21
BRANCH  11  23
ATOM     23  O   UNL     1     -15.462  14.224   9.543  1.00  0.00    -0.508 OA
ATOM     24  H   UNL     1     -15.407  13.431  10.173  1.00  0.00     0.293 HD
ENDBRANCH  11  23
ENDBRANCH   1   2
BRANCH   1  25
ATOM     25  C   UNL     1      -7.230  16.273   7.454  1.00  0.00     0.339 C 
ATOM     26  C   UNL     1      -7.653  14.796   7.300  1.00  0.00     0.214 C 
ATOM     27  O   UNL     1      -6.208  16.404   8.428  1.00  0.00    -0.332 OA
ATOM     28  C   UNL     1      -6.470  13.835   7.580  1.00  0.00     0.180 C 
ATOM     29  C   UNL     1      -4.976  15.819   8.006  1.00  0.00     0.179 C 
ATOM     30  C   UNL     1      -5.142  14.505   7.190  1.00  0.00     0.177 C 
BRANCH  26  31
ATOM     31  O   UNL     1      -8.155  14.610   6.001  1.00  0.00    -0.384 OA
ATOM     32  H   UNL     1      -7.410  14.767   5.370  1.00  0.00     0.211 HD
ENDBRANCH  26  31
BRANCH  28  33
ATOM     33  O   UNL     1      -6.646  12.634   6.875  1.00  0.00    -0.387 OA
ATOM     34  H   UNL     1      -6.332  11.899   7.460  1.00  0.00     0.211 HD
ENDBRANCH  28  33
BRANCH  29  35
ATOM     35  C   UNL     1      -4.108  16.850   7.264  1.00  0.00     0.191 C 
BRANCH  35  36
ATOM     36  O   UNL     1      -3.339  16.212   6.282  1.00  0.00    -0.394 OA
ATOM     37  H   UNL     1      -2.894  16.935   5.767  1.00  0.00     0.210 HD
ENDBRANCH  35  36
ENDBRANCH  29  35
BRANCH  30  38
ATOM     38  O   UNL     1      -4.063  13.646   7.460  1.00  0.00    -0.387 OA
ATOM     39  H   UNL     1      -3.271  14.217   7.642  1.00  0.00     0.211 HD
ENDBRANCH  30  38
ENDBRANCH   1  25
TORSDOF 11
ENDMDL
MODEL 7
REMARK VINA RESULT:    -6.883      2.718      6.754
REMARK INTER + INTRA:         -11.257
REMARK INTER:                 -10.073
REMARK INTRA:                  -1.184
REMARK UNBOUND:                -1.355
REMARK SMILES O=c1c(O[C@H]2O[C@H](CO)[C@@H](O)[C@H](O)[C@@H]2O)c(-c2ccc(O)cc2)oc2cc(O)cc(O)c12
REMARK SMILES IDX 4 1 3 2 16 3 24 4 2 5 25 6 1 7 32 8 26 9 30 10 27 11 29 12
REMARK SMILES IDX 17 13 18 14 19 15 20 16 23 17 22 18 21 19 31 21 28 23 5 25
REMARK SMILES IDX 14 26 6 27 12 28 7 29 10 30 15 31 13 33 8 35 9 36 11 38
REMARK H PARENT 21 20 31 22 28 24 15 32 13 34 9 37 11 39
REMARK Flexibility Score: inf
ROOT
ATOM      1  O   UNL     1      -8.061  16.039   9.474  1.00  0.00    -0.454 OA
ENDROOT
BRANCH   1   2
ATOM      2  C   UNL     1      -9.460  16.045   9.639  1.00  0.00     0.214 A 
ATOM      3  C   UNL     1      -9.984  15.534  10.842  1.00  0.00     0.180 A 
ATOM      4  O   UNL     1     -11.297  15.477  11.027  1.00  0.00    -0.452 OA
ATOM      5  C   UNL     1     -10.368  16.504   8.659  1.00  0.00     0.239 A 
ATOM      6  C   UNL     1     -12.180  15.936  10.152  1.00  0.00     0.146 A 
ATOM      7  O   UNL     1      -9.945  16.829   7.522  1.00  0.00    -0.285 OA
ATOM      8  C   UNL     1     -11.756  16.527   8.938  1.00  0.00     0.111 A 
ATOM      9  C   UNL     1     -13.542  15.822  10.448  1.00  0.00     0.094 A 
ATOM     10  C   UNL     1     -12.742  17.065   8.059  1.00  0.00     0.134 A 
ATOM     11  C   UNL     1     -14.501  16.288   9.554  1.00  0.00     0.123 A 
ATOM     12  C   UNL     1     -14.099  16.905   8.364  1.00  0.00     0.093 A 
BRANCH   3  13
ATOM     13  C   UNL     1      -9.109  15.023  11.918  1.00  0.00     0.021 A 
ATOM     14  C   UNL     1      -8.913  13.639  12.053  1.00  0.00     0.016 A 
ATOM     15  C   UNL     1      -8.120  13.134  13.088  1.00  0.00     0.047 A 
ATOM     16  C   UNL     1      -7.541  14.002  14.018  1.00  0.00     0.115 A 
ATOM     17  C   UNL     1      -8.519  15.893  12.852  1.00  0.00     0.016 A 
ATOM     18  C   UNL     1      -7.750  15.383  13.903  1.00  0.00     0.047 A 
BRANCH  16  19
ATOM     19  O   UNL     1      -6.755  13.483  15.044  1.00  0.00    -0.508 OA
ATOM     20  H   UNL     1      -6.326  12.566  14.973  1.00  0.00     0.293 HD
ENDBRANCH  16  19
ENDBRANCH   3  13
BRANCH  10  21
ATOM     21  O   UNL     1     -12.440  17.792   6.905  1.00  0.00    -0.507 OA
ATOM     22  H   UNL     1     -12.434  18.798   6.855  1.00  0.00     0.293 HD
ENDBRANCH  10  21
BRANCH  11  23
ATOM     23  O   UNL     1     -15.853  16.143   9.858  1.00  0.00    -0.508 OA
ATOM     24  H   UNL     1     -16.255  15.233  10.058  1.00  0.00     0.293 HD
ENDBRANCH  11  23
ENDBRANCH   1   2
BRANCH   1  25
ATOM     25  C   UNL     1      -7.293  15.329   8.499  1.00  0.00     0.339 C 
ATOM     26  C   UNL     1      -5.992  14.845   9.174  1.00  0.00     0.214 C 
ATOM     27  O   UNL     1      -7.003  16.183   7.405  1.00  0.00    -0.332 OA
ATOM     28  C   UNL     1      -4.832  14.729   8.153  1.00  0.00     0.180 C 
ATOM     29  C   UNL     1      -6.387  15.487   6.320  1.00  0.00     0.179 C 
ATOM     30  C   UNL     1      -5.386  14.381   6.761  1.00  0.00     0.177 C 
BRANCH  26  31
ATOM     31  O   UNL     1      -6.245  13.606   9.789  1.00  0.00    -0.384 OA
ATOM     32  H   UNL     1      -6.832  13.776  10.566  1.00  0.00     0.211 HD
ENDBRANCH  26  31
BRANCH  28  33
ATOM     33  O   UNL     1      -3.910  13.759   8.576  1.00  0.00    -0.387 OA
ATOM     34  H   UNL     1      -4.295  12.872   8.361  1.00  0.00     0.211 HD
ENDBRANCH  28  33
BRANCH  29  35
ATOM     35  C   UNL     1      -7.447  14.948   5.346  1.00  0.00     0.191 C 
BRANCH  35  36
ATOM     36  O   UNL     1      -6.917  13.889   4.598  1.00  0.00    -0.394 OA
ATOM     37  H   UNL     1      -7.643  13.216   4.519  1.00  0.00     0.210 HD
ENDBRANCH  35  36
ENDBRANCH  29  35
BRANCH  30  38
ATOM     38  O   UNL     1      -4.341  14.295   5.825  1.00  0.00    -0.387 OA
ATOM     39  H   UNL     1      -3.489  14.303   6.334  1.00  0.00     0.211 HD
ENDBRANCH  30  38
ENDBRANCH   1  25
TORSDOF 11
ENDMDL
MODEL 8
REMARK VINA RESULT:    -6.865      3.161      7.134
REMARK INTER + INTRA:         -11.231
REMARK INTER:                  -9.859
REMARK INTRA:                  -1.372
REMARK UNBOUND:                -1.355
REMARK SMILES O=c1c(O[C@H]2O[C@H](CO)[C@@H](O)[C@H](O)[C@@H]2O)c(-c2ccc(O)cc2)oc2cc(O)cc(O)c12
REMARK SMILES IDX 4 1 3 2 16 3 24 4 2 5 25 6 1 7 32 8 26 9 30 10 27 11 29 12
REMARK SMILES IDX 17 13 18 14 19 15 20 16 23 17 22 18 21 19 31 21 28 23 5 25
REMARK SMILES IDX 14 26 6 27 12 28 7 29 10 30 15 31 13 33 8 35 9 36 11 38
REMARK H PARENT 21 20 31 22 28 24 15 32 13 34 9 37 11 39
REMARK Flexibility Score: inf
ROOT
ATOM      1  O   UNL     1     -10.648  16.844   7.651  1.00  0.00    -0.454 OA
ENDROOT
BRANCH   1   2
ATOM      2  C   UNL     1      -9.377  16.243   7.737  1.00  0.00     0.214 A 
ATOM      3  C   UNL     1      -8.737  16.229   8.991  1.00  0.00     0.180 A 
ATOM      4  O   UNL     1      -7.521  15.714   9.115  1.00  0.00    -0.452 OA
ATOM      5  C   UNL     1      -8.693  15.683   6.635  1.00  0.00     0.239 A 
ATOM      6  C   UNL     1      -6.864  15.140   8.117  1.00  0.00     0.146 A 
ATOM      7  O   UNL     1      -9.167  15.808   5.480  1.00  0.00    -0.285 OA
ATOM      8  C   UNL     1      -7.443  15.046   6.829  1.00  0.00     0.111 A 
ATOM      9  C   UNL     1      -5.584  14.633   8.358  1.00  0.00     0.094 A 
ATOM     10  C   UNL     1      -6.724  14.361   5.805  1.00  0.00     0.134 A 
ATOM     11  C   UNL     1      -4.860  14.027   7.335  1.00  0.00     0.123 A 
ATOM     12  C   UNL     1      -5.430  13.895   6.064  1.00  0.00     0.093 A 
BRANCH   3  13
ATOM     13  C   UNL     1      -9.373  16.802  10.197  1.00  0.00     0.021 A 
ATOM     14  C   UNL     1      -9.112  18.135  10.550  1.00  0.00     0.016 A 
ATOM     15  C   UNL     1      -9.673  18.684  11.708  1.00  0.00     0.047 A 
ATOM     16  C   UNL     1     -10.474  17.898  12.541  1.00  0.00     0.115 A 
ATOM     17  C   UNL     1     -10.187  16.018  11.034  1.00  0.00     0.016 A 
ATOM     18  C   UNL     1     -10.723  16.561  12.206  1.00  0.00     0.047 A 
BRANCH  16  19
ATOM     19  O   UNL     1     -11.026  18.460  13.691  1.00  0.00    -0.508 OA
ATOM     20  H   UNL     1     -11.713  19.205  13.642  1.00  0.00     0.293 HD
ENDBRANCH  16  19
ENDBRANCH   3  13
BRANCH  10  21
ATOM     21  O   UNL     1      -7.249  14.085   4.540  1.00  0.00    -0.507 OA
ATOM     22  H   UNL     1      -7.525  14.791   3.876  1.00  0.00     0.293 HD
ENDBRANCH  10  21
BRANCH  11  23
ATOM     23  O   UNL     1      -3.577  13.548   7.591  1.00  0.00    -0.508 OA
ATOM     24  H   UNL     1      -3.399  12.559   7.728  1.00  0.00     0.293 HD
ENDBRANCH  11  23
ENDBRANCH   1   2
BRANCH   1  25
ATOM     25  C   UNL     1     -11.921  16.255   7.926  1.00  0.00     0.339 C 
ATOM     26  C   UNL     1     -12.427  15.583   6.632  1.00  0.00     0.214 C 
ATOM     27  O   UNL     1     -12.828  17.255   8.360  1.00  0.00    -0.332 OA
ATOM     28  C   UNL     1     -13.976  15.560   6.573  1.00  0.00     0.180 C 
ATOM     29  C   UNL     1     -14.065  16.707   8.815  1.00  0.00     0.179 C 
ATOM     30  C   UNL     1     -14.558  15.481   7.994  1.00  0.00     0.177 C 
BRANCH  26  31
ATOM     31  O   UNL     1     -11.903  14.280   6.573  1.00  0.00    -0.384 OA
ATOM     32  H   UNL     1     -11.333  14.227   5.768  1.00  0.00     0.211 HD
ENDBRANCH  26  31
BRANCH  28  33
ATOM     33  O   UNL     1     -14.414  14.477   5.796  1.00  0.00    -0.387 OA
ATOM     34  H   UNL     1     -13.957  14.537   4.919  1.00  0.00     0.211 HD
ENDBRANCH  28  33
BRANCH  29  35
ATOM     35  C   UNL     1     -14.007  16.403  10.321  1.00  0.00     0.191 C 
BRANCH  35  36
ATOM     36  O   UNL     1     -15.304  16.317  10.844  1.00  0.00    -0.394 OA
ATOM     37  H   UNL     1     -15.346  15.457  11.340  1.00  0.00     0.210 HD
ENDBRANCH  35  36
ENDBRANCH  29  35
BRANCH  30  38
ATOM     38  O   UNL     1     -15.962  15.480   7.949  1.00  0.00    -0.387 OA
ATOM     39  H   UNL     1     -16.263  16.408   8.138  1.00  0.00     0.211 HD
ENDBRANCH  30  38
ENDBRANCH   1  25
TORSDOF 11
ENDMDL
MODEL 9
REMARK VINA RESULT:    -6.853      2.382      5.268
REMARK INTER + INTRA:         -11.213
REMARK INTER:                 -10.122
REMARK INTRA:                  -1.090
REMARK UNBOUND:                -1.355
REMARK SMILES O=c1c(O[C@H]2O[C@H](CO)[C@@H](O)[C@H](O)[C@@H]2O)c(-c2ccc(O)cc2)oc2cc(O)cc(O)c12
REMARK SMILES IDX 4 1 3 2 16 3 24 4 2 5 25 6 1 7 32 8 26 9 30 10 27 11 29 12
REMARK SMILES IDX 17 13 18 14 19 15 20 16 23 17 22 18 21 19 31 21 28 23 5 25
REMARK SMILES IDX 14 26 6 27 12 28 7 29 10 30 15 31 13 33 8 35 9 36 11 38
REMARK H PARENT 21 20 31 22 28 24 15 32 13 34 9 37 11 39
REMARK Flexibility Score: inf
ROOT
ATOM      1  O   UNL     1      -7.805  16.539   8.648  1.00  0.00    -0.454 OA
ENDROOT
BRANCH   1   2
ATOM      2  C   UNL     1      -8.284  16.540   9.973  1.00  0.00     0.214 A 
ATOM      3  C   UNL     1      -9.678  16.518  10.170  1.00  0.00     0.180 A 
ATOM      4  O   UNL     1     -10.180  16.562  11.397  1.00  0.00    -0.452 OA
ATOM      5  C   UNL     1      -7.452  16.592  11.113  1.00  0.00     0.239 A 
ATOM      6  C   UNL     1      -9.434  16.568  12.493  1.00  0.00     0.146 A 
ATOM      7  O   UNL     1      -6.215  16.759  10.974  1.00  0.00    -0.285 OA
ATOM      8  C   UNL     1      -8.022  16.528  12.408  1.00  0.00     0.111 A 
ATOM      9  C   UNL     1     -10.068  16.619  13.738  1.00  0.00     0.094 A 
ATOM     10  C   UNL     1      -7.266  16.470  13.615  1.00  0.00     0.134 A 
ATOM     11  C   UNL     1      -9.321  16.632  14.912  1.00  0.00     0.123 A 
ATOM     12  C   UNL     1      -7.925  16.559  14.847  1.00  0.00     0.093 A 
BRANCH   3  13
ATOM     13  C   UNL     1     -10.625  16.474   9.035  1.00  0.00     0.021 A 
ATOM     14  C   UNL     1     -11.605  15.469   8.990  1.00  0.00     0.016 A 
ATOM     15  C   UNL     1     -12.485  15.387   7.906  1.00  0.00     0.047 A 
ATOM     16  C   UNL     1     -12.376  16.287   6.842  1.00  0.00     0.115 A 
ATOM     17  C   UNL     1     -10.524  17.382   7.966  1.00  0.00     0.016 A 
ATOM     18  C   UNL     1     -11.387  17.280   6.871  1.00  0.00     0.047 A 
BRANCH  16  19
ATOM     19  O   UNL     1     -13.260  16.192   5.770  1.00  0.00    -0.508 OA
ATOM     20  H   UNL     1     -13.647  17.019   5.325  1.00  0.00     0.293 HD
ENDBRANCH  16  19
ENDBRANCH   3  13
BRANCH  10  21
ATOM     21  O   UNL     1      -5.881  16.289  13.656  1.00  0.00    -0.507 OA
ATOM     22  H   UNL     1      -5.297  16.211  12.839  1.00  0.00     0.293 HD
ENDBRANCH  10  21
BRANCH  11  23
ATOM     23  O   UNL     1      -9.972  16.706  16.141  1.00  0.00    -0.508 OA
ATOM     24  H   UNL     1     -10.551  17.503  16.385  1.00  0.00     0.293 HD
ENDBRANCH  11  23
ENDBRANCH   1   2
BRANCH   1  25
ATOM     25  C   UNL     1      -7.439  15.415   7.845  1.00  0.00     0.339 C 
ATOM     26  C   UNL     1      -5.955  15.092   8.120  1.00  0.00     0.214 C 
ATOM     27  O   UNL     1      -7.641  15.720   6.475  1.00  0.00    -0.332 OA
ATOM     28  C   UNL     1      -5.277  14.444   6.887  1.00  0.00     0.180 C 
ATOM     29  C   UNL     1      -7.457  14.582   5.632  1.00  0.00     0.179 C 
ATOM     30  C   UNL     1      -6.307  13.636   6.081  1.00  0.00     0.177 C 
BRANCH  26  31
ATOM     31  O   UNL     1      -5.884  14.242   9.237  1.00  0.00    -0.384 OA
ATOM     32  H   UNL     1      -6.147  14.771  10.029  1.00  0.00     0.211 HD
ENDBRANCH  26  31
BRANCH  28  33
ATOM     33  O   UNL     1      -4.213  13.624   7.295  1.00  0.00    -0.387 OA
ATOM     34  H   UNL     1      -4.519  13.116   8.088  1.00  0.00     0.211 HD
ENDBRANCH  28  33
BRANCH  29  35
ATOM     35  C   UNL     1      -8.783  13.825   5.441  1.00  0.00     0.191 C 
BRANCH  35  36
ATOM     36  O   UNL     1      -8.602  12.464   5.717  1.00  0.00    -0.394 OA
ATOM     37  H   UNL     1      -9.219  11.975   5.111  1.00  0.00     0.210 HD
ENDBRANCH  35  36
ENDBRANCH  29  35
BRANCH  30  38
ATOM     38  O   UNL     1      -5.704  13.062   4.949  1.00  0.00    -0.387 OA
ATOM     39  H   UNL     1      -5.007  13.695   4.634  1.00  0.00     0.211 HD
ENDBRANCH  30  38
ENDBRANCH   1  25
TORSDOF 11
ENDMDL
