MODEL 1
REMARK VINA RESULT:    -5.496      0.000      0.000
REMARK INTER + INTRA:          -5.657
REMARK INTER:                  -5.657
REMARK INTRA:                   0.000
REMARK UNBOUND:                 0.000
REMARK SMILES Oc1ccc2[nH]ccc2c1
REMARK SMILES IDX 3 1 4 2 5 3 9 4 8 5 7 6 6 7 10 8 2 9 1 11
REMARK H PARENT 6 10 1 12
REMARK Flexibility Score: inf
ROOT
ATOM      1  C   UNL     1     136.757 124.119 137.561  1.00  0.00     0.048 A 
ATOM      2  C   UNL     1     138.044 123.832 138.051  1.00  0.00     0.030 A 
ATOM      3  C   UNL     1     138.203 123.713 139.431  1.00  0.00     0.046 A 
ATOM      4  C   UNL     1     137.150 123.869 140.292  1.00  0.00     0.003 A 
ATOM      5  C   UNL     1     137.634 123.692 141.571  1.00  0.00     0.028 A 
ATOM      6  C   UNL     1     138.992 123.431 141.412  1.00  0.00     0.083 A 
ATOM      7  N   UNL     1     139.334 123.445 140.103  1.00  0.00    -0.361 N 
ATOM      8  C   UNL     1     135.864 124.153 139.840  1.00  0.00     0.056 A 
ATOM      9  C   UNL     1     135.666 124.280 138.452  1.00  0.00     0.116 A 
ATOM     10  H   UNL     1     140.285 123.282 139.702  1.00  0.00     0.166 HD
ENDROOT
BRANCH   9  11
ATOM     11  O   UNL     1     134.393 124.565 137.965  1.00  0.00    -0.508 OA
ATOM     12  H   UNL     1     134.150 125.488 137.627  1.00  0.00     0.293 HD
ENDBRANCH   9  11
TORSDOF 1
ENDMDL
MODEL 2
REMARK VINA RESULT:    -5.402      1.081      2.185
REMARK INTER + INTRA:          -5.560
REMARK INTER:                  -5.560
REMARK INTRA:                   0.000
REMARK UNBOUND:                 0.000
REMARK SMILES Oc1ccc2[nH]ccc2c1
REMARK SMILES IDX 3 1 4 2 5 3 9 4 8 5 7 6 6 7 10 8 2 9 1 11
REMARK H PARENT 6 10 1 12
REMARK Flexibility Score: inf
ROOT
ATOM      1  C   UNL     1     134.589 124.817 139.993  1.00  0.00     0.048 A 
ATOM      2  C   UNL     1     135.595 124.435 140.900  1.00  0.00     0.030 A 
ATOM      3  C   UNL     1     136.849 124.114 140.383  1.00  0.00     0.046 A 
ATOM      4  C   UNL     1     137.107 124.162 139.039  1.00  0.00     0.003 A 
ATOM      5  C   UNL     1     138.422 123.791 138.858  1.00  0.00     0.028 A 
ATOM      6  C   UNL     1     138.904 123.529 140.138  1.00  0.00     0.083 A 
ATOM      7  N   UNL     1     137.939 123.728 141.065  1.00  0.00    -0.361 N 
ATOM      8  C   UNL     1     136.134 124.536 138.115  1.00  0.00     0.056 A 
ATOM      9  C   UNL     1     134.856 124.868 138.602  1.00  0.00     0.116 A 
ATOM     10  H   UNL     1     138.029 123.605 142.099  1.00  0.00     0.166 HD
ENDROOT
BRANCH   9  11
ATOM     11  O   UNL     1     133.859 125.246 137.706  1.00  0.00    -0.508 OA
ATOM     12  H   UNL     1     133.378 124.564 137.132  1.00  0.00     0.293 HD
ENDBRANCH   9  11
TORSDOF 1
ENDMDL
MODEL 3
REMARK VINA RESULT:    -5.322      2.622      4.088
REMARK INTER + INTRA:          -5.477
REMARK INTER:                  -5.477
REMARK INTRA:                   0.000
REMARK UNBOUND:                 0.000
REMARK SMILES Oc1ccc2[nH]ccc2c1
REMARK SMILES IDX 3 1 4 2 5 3 9 4 8 5 7 6 6 7 10 8 2 9 1 11
REMARK H PARENT 6 10 1 12
REMARK Flexibility Score: inf
ROOT
ATOM      1  C   UNL     1     137.856 123.637 141.728  1.00  0.00     0.048 A 
ATOM      2  C   UNL     1     136.525 123.945 141.394  1.00  0.00     0.030 A 
ATOM      3  C   UNL     1     136.222 124.147 140.048  1.00  0.00     0.046 A 
ATOM      4  C   UNL     1     137.178 124.052 139.073  1.00  0.00     0.003 A 
ATOM      5  C   UNL     1     136.564 124.304 137.866  1.00  0.00     0.028 A 
ATOM      6  C   UNL     1     135.229 124.545 138.182  1.00  0.00     0.083 A 
ATOM      7  N   UNL     1     135.026 124.447 139.516  1.00  0.00    -0.361 N 
ATOM      8  C   UNL     1     138.505 123.748 139.370  1.00  0.00     0.056 A 
ATOM      9  C   UNL     1     138.847 123.538 140.720  1.00  0.00     0.116 A 
ATOM     10  H   UNL     1     134.123 124.580 140.024  1.00  0.00     0.166 HD
ENDROOT
BRANCH   9  11
ATOM     11  O   UNL     1     140.165 123.233 141.052  1.00  0.00    -0.508 OA
ATOM     12  H   UNL     1     140.853 123.961 141.204  1.00  0.00     0.293 HD
ENDBRANCH   9  11
TORSDOF 1
ENDMDL
MODEL 4
REMARK VINA RESULT:    -5.089      2.686      3.447
REMARK INTER + INTRA:          -5.238
REMARK INTER:                  -5.238
REMARK INTRA:                   0.000
REMARK UNBOUND:                 0.000
REMARK SMILES Oc1ccc2[nH]ccc2c1
REMARK SMILES IDX 3 1 4 2 5 3 9 4 8 5 7 6 6 7 10 8 2 9 1 11
REMARK H PARENT 6 10 1 12
REMARK Flexibility Score: inf
ROOT
ATOM      1  C   UNL     1     138.433 123.868 138.784  1.00  0.00     0.048 A 
ATOM      2  C   UNL     1     137.137 124.348 138.523  1.00  0.00     0.030 A 
ATOM      3  C   UNL     1     136.242 124.417 139.590  1.00  0.00     0.046 A 
ATOM      4  C   UNL     1     136.598 124.032 140.854  1.00  0.00     0.003 A 
ATOM      5  C   UNL     1     135.502 124.220 141.667  1.00  0.00     0.028 A 
ATOM      6  C   UNL     1     134.511 124.724 140.829  1.00  0.00     0.083 A 
ATOM      7  N   UNL     1     134.968 124.842 139.561  1.00  0.00    -0.361 N 
ATOM      8  C   UNL     1     137.873 123.552 141.146  1.00  0.00     0.056 A 
ATOM      9  C   UNL     1     138.803 123.469 140.093  1.00  0.00     0.116 A 
ATOM     10  H   UNL     1     134.436 125.192 138.733  1.00  0.00     0.166 HD
ENDROOT
BRANCH   9  11
ATOM     11  O   UNL     1     140.087 122.992 140.349  1.00  0.00    -0.508 OA
ATOM     12  H   UNL     1     140.374 122.066 140.059  1.00  0.00     0.293 HD
ENDBRANCH   9  11
TORSDOF 1
ENDMDL
MODEL 5
REMARK VINA RESULT:    -5.087      2.689      3.377
REMARK INTER + INTRA:          -5.236
REMARK INTER:                  -5.236
REMARK INTRA:                   0.000
REMARK UNBOUND:                 0.000
REMARK SMILES Oc1ccc2[nH]ccc2c1
REMARK SMILES IDX 3 1 4 2 5 3 9 4 8 5 7 6 6 7 10 8 2 9 1 11
REMARK H PARENT 6 10 1 12
REMARK Flexibility Score: inf
ROOT
ATOM      1  C   UNL     1     137.297 124.414 138.497  1.00  0.00     0.048 A 
ATOM      2  C   UNL     1     135.996 124.882 138.754  1.00  0.00     0.030 A 
ATOM      3  C   UNL     1     135.484 124.707 140.039  1.00  0.00     0.046 A 
ATOM      4  C   UNL     1     136.211 124.101 141.027  1.00  0.00     0.003 A 
ATOM      5  C   UNL     1     135.431 124.084 142.163  1.00  0.00     0.028 A 
ATOM      6  C   UNL     1     134.238 124.698 141.793  1.00  0.00     0.083 A 
ATOM      7  N   UNL     1     134.275 125.077 140.494  1.00  0.00    -0.361 N 
ATOM      8  C   UNL     1     137.502 123.626 140.805  1.00  0.00     0.056 A 
ATOM      9  C   UNL     1     138.051 123.786 139.519  1.00  0.00     0.116 A 
ATOM     10  H   UNL     1     133.518 125.558 139.960  1.00  0.00     0.166 HD
ENDROOT
BRANCH   9  11
ATOM     11  O   UNL     1     139.339 123.321 139.262  1.00  0.00    -0.508 OA
ATOM     12  H   UNL     1     140.062 123.936 138.908  1.00  0.00     0.293 HD
ENDBRANCH   9  11
TORSDOF 1
ENDMDL
MODEL 6
REMARK VINA RESULT:    -4.996      2.590      3.537
REMARK INTER + INTRA:          -5.142
REMARK INTER:                  -5.142
REMARK INTRA:                   0.000
REMARK UNBOUND:                 0.000
REMARK SMILES Oc1ccc2[nH]ccc2c1
REMARK SMILES IDX 3 1 4 2 5 3 9 4 8 5 7 6 6 7 10 8 2 9 1 11
REMARK H PARENT 6 10 1 12
REMARK Flexibility Score: inf
ROOT
ATOM      1  C   UNL     1     138.710 123.496 138.527  1.00  0.00     0.048 A 
ATOM      2  C   UNL     1     137.587 123.852 137.758  1.00  0.00     0.030 A 
ATOM      3  C   UNL     1     136.430 124.236 138.435  1.00  0.00     0.046 A 
ATOM      4  C   UNL     1     136.374 124.268 139.802  1.00  0.00     0.003 A 
ATOM      5  C   UNL     1     135.108 124.684 140.153  1.00  0.00     0.028 A 
ATOM      6  C   UNL     1     134.445 124.887 138.946  1.00  0.00     0.083 A 
ATOM      7  N   UNL     1     135.257 124.611 137.899  1.00  0.00    -0.361 N 
ATOM      8  C   UNL     1     137.468 123.922 140.593  1.00  0.00     0.056 A 
ATOM      9  C   UNL     1     138.653 123.530 139.943  1.00  0.00     0.116 A 
ATOM     10  H   UNL     1     135.017 124.678 136.885  1.00  0.00     0.166 HD
ENDROOT
BRANCH   9  11
ATOM     11  O   UNL     1     139.765 123.176 140.703  1.00  0.00    -0.508 OA
ATOM     12  H   UNL     1     139.905 122.226 141.025  1.00  0.00     0.293 HD
ENDBRANCH   9  11
TORSDOF 1
ENDMDL
MODEL 7
REMARK VINA RESULT:    -4.897      1.587      2.999
REMARK INTER + INTRA:          -5.041
REMARK INTER:                  -5.041
REMARK INTRA:                   0.000
REMARK UNBOUND:                 0.000
REMARK SMILES Oc1ccc2[nH]ccc2c1
REMARK SMILES IDX 3 1 4 2 5 3 9 4 8 5 7 6 6 7 10 8 2 9 1 11
REMARK H PARENT 6 10 1 12
REMARK Flexibility Score: inf
ROOT
ATOM      1  C   UNL     1     136.100 124.217 141.875  1.00  0.00     0.048 A 
ATOM      2  C   UNL     1     137.276 123.807 141.221  1.00  0.00     0.030 A 
ATOM      3  C   UNL     1     137.283 123.821 139.827  1.00  0.00     0.046 A 
ATOM      4  C   UNL     1     136.190 124.216 139.105  1.00  0.00     0.003 A 
ATOM      5  C   UNL     1     136.517 124.116 137.771  1.00  0.00     0.028 A 
ATOM      6  C   UNL     1     137.829 123.651 137.753  1.00  0.00     0.083 A 
ATOM      7  N   UNL     1     138.292 123.473 139.012  1.00  0.00    -0.361 N 
ATOM      8  C   UNL     1     135.010 124.628 139.722  1.00  0.00     0.056 A 
ATOM      9  C   UNL     1     134.967 124.627 141.129  1.00  0.00     0.116 A 
ATOM     10  H   UNL     1     139.241 123.133 139.289  1.00  0.00     0.166 HD
ENDROOT
BRANCH   9  11
ATOM     11  O   UNL     1     133.803 125.032 141.778  1.00  0.00    -0.508 OA
ATOM     12  H   UNL     1     133.588 126.012 141.918  1.00  0.00     0.293 HD
ENDBRANCH   9  11
TORSDOF 1
ENDMDL
MODEL 8
REMARK VINA RESULT:    -4.788      1.175      1.408
REMARK INTER + INTRA:          -4.928
REMARK INTER:                  -4.928
REMARK INTRA:                   0.000
REMARK UNBOUND:                 0.000
REMARK SMILES Oc1ccc2[nH]ccc2c1
REMARK SMILES IDX 3 1 4 2 5 3 9 4 8 5 7 6 6 7 10 8 2 9 1 11
REMARK H PARENT 6 10 1 12
REMARK Flexibility Score: inf
ROOT
ATOM      1  C   UNL     1     136.424 124.491 138.112  1.00  0.00     0.048 A 
ATOM      2  C   UNL     1     137.459 124.139 138.997  1.00  0.00     0.030 A 
ATOM      3  C   UNL     1     137.161 124.083 140.357  1.00  0.00     0.046 A 
ATOM      4  C   UNL     1     135.906 124.361 140.831  1.00  0.00     0.003 A 
ATOM      5  C   UNL     1     135.942 124.219 142.201  1.00  0.00     0.028 A 
ATOM      6  C   UNL     1     137.252 123.852 142.494  1.00  0.00     0.083 A 
ATOM      7  N   UNL     1     137.993 123.771 141.364  1.00  0.00    -0.361 N 
ATOM      8  C   UNL     1     134.860 124.713 139.982  1.00  0.00     0.056 A 
ATOM      9  C   UNL     1     135.125 124.779 138.601  1.00  0.00     0.116 A 
ATOM     10  H   UNL     1     139.004 123.517 141.294  1.00  0.00     0.166 HD
ENDROOT
BRANCH   9  11
ATOM     11  O   UNL     1     134.102 125.128 137.723  1.00  0.00    -0.508 OA
ATOM     12  H   UNL     1     133.450 124.439 137.369  1.00  0.00     0.293 HD
ENDBRANCH   9  11
TORSDOF 1
ENDMDL
MODEL 9
REMARK VINA RESULT:    -4.696      2.024      2.986
REMARK INTER + INTRA:          -4.833
REMARK INTER:                  -4.833
REMARK INTRA:                   0.000
REMARK UNBOUND:                 0.000
REMARK SMILES Oc1ccc2[nH]ccc2c1
REMARK SMILES IDX 3 1 4 2 5 3 9 4 8 5 7 6 6 7 10 8 2 9 1 11
REMARK H PARENT 6 10 1 12
REMARK Flexibility Score: inf
ROOT
ATOM      1  C   UNL     1     138.532 123.514 139.472  1.00  0.00     0.048 A 
ATOM      2  C   UNL     1     138.040 123.636 140.784  1.00  0.00     0.030 A 
ATOM      3  C   UNL     1     136.739 124.107 140.949  1.00  0.00     0.046 A 
ATOM      4  C   UNL     1     135.955 124.445 139.879  1.00  0.00     0.003 A 
ATOM      5  C   UNL     1     134.741 124.870 140.375  1.00  0.00     0.028 A 
ATOM      6  C   UNL     1     134.857 124.764 141.758  1.00  0.00     0.083 A 
ATOM      7  N   UNL     1     136.079 124.297 142.104  1.00  0.00    -0.361 N 
ATOM      8  C   UNL     1     136.411 124.336 138.568  1.00  0.00     0.056 A 
ATOM      9  C   UNL     1     137.721 123.863 138.363  1.00  0.00     0.116 A 
ATOM     10  H   UNL     1     136.433 124.123 143.071  1.00  0.00     0.166 HD
ENDROOT
BRANCH   9  11
ATOM     11  O   UNL     1     138.210 123.743 137.065  1.00  0.00    -0.508 OA
ATOM     12  H   UNL     1     137.937 124.390 136.335  1.00  0.00     0.293 HD
ENDBRANCH   9  11
TORSDOF 1
ENDMDL
