MODEL 1
REMARK VINA RESULT:    -8.453      0.000      0.000
REMARK INTER + INTRA:         -13.780
REMARK INTER:                 -12.653
REMARK INTRA:                  -1.127
REMARK UNBOUND:                -1.127
REMARK SMILES C[C@@H]1O[C@H](OC[C@H]2O[C@@H](Oc3c(-c4ccc(O)c(O)c4)oc4cc(O)cc(O)c4c3=O)[C@@H](O)[C@@H](O)[C@H]2O)[C@@H](O)[C@@H](O)[C@@H]1O
REMARK SMILES IDX 7 1 36 2 34 3 32 4 9 5 8 6 6 7 5 8 4 9 1 10 2 11 42 12 3 13
REMARK SMILES IDX 40 14 38 15 43 16 41 18 39 20 37 22 35 24 10 26 11 27 12 28
REMARK SMILES IDX 30 29 21 30 29 31 31 32 22 33 27 34 23 35 26 36 24 37 13 38
REMARK SMILES IDX 20 39 14 40 18 41 15 42 16 43 19 44 17 46 28 48 25 50 33 52
REMARK H PARENT 43 17 41 19 39 21 37 23 35 25 19 45 17 47 28 49 25 51 33 53
REMARK Flexibility Score: inf
ROOT
ATOM      1  C   UNL     1       4.553  83.209  78.040  1.00  0.00     0.180 C 
ATOM      2  C   UNL     1       4.122  82.532  79.439  1.00  0.00     0.177 C 
ATOM      3  C   UNL     1       5.087  83.068  80.566  1.00  0.00     0.180 C 
ATOM      4  C   UNL     1       6.528  83.317  80.028  1.00  0.00     0.214 C 
ATOM      5  C   UNL     1       6.499  84.806  79.261  1.00  0.00     0.339 C 
ATOM      6  O   UNL     1       5.191  84.626  78.337  1.00  0.00    -0.332 OA
ENDROOT
BRANCH   1   7
ATOM      7  C   UNL     1       3.346  82.365  76.969  1.00  0.00     0.198 C 
BRANCH   7   8
ATOM      8  O   UNL     1       3.111  81.463  75.843  1.00  0.00    -0.347 OA
BRANCH   8   9
ATOM      9  C   UNL     1       2.032  81.837  74.850  1.00  0.00     0.281 C 
ATOM     10  C   UNL     1      -0.170  84.477  72.208  1.00  0.00     0.041 C 
ATOM     11  C   UNL     1       0.496  83.461  73.404  1.00  0.00     0.150 C 
ATOM     12  C   UNL     1      -0.264  82.147  73.003  1.00  0.00     0.174 C 
ATOM     13  O   UNL     1       1.994  82.979  73.801  1.00  0.00    -0.344 OA
ATOM     14  C   UNL     1      -0.192  81.089  74.150  1.00  0.00     0.179 C 
ATOM     15  C   UNL     1       1.229  80.589  74.387  1.00  0.00     0.202 C 
BRANCH  12  16
ATOM     16  O   UNL     1       0.488  81.770  71.790  1.00  0.00    -0.388 OA
ATOM     17  H   UNL     1       1.463  82.060  71.862  1.00  0.00     0.211 HD
ENDBRANCH  12  16
BRANCH  14  18
ATOM     18  O   UNL     1      -0.568  81.581  75.360  1.00  0.00    -0.387 OA
ATOM     19  H   UNL     1      -1.427  82.000  75.332  1.00  0.00     0.211 HD
ENDBRANCH  14  18
BRANCH  15  20
ATOM     20  O   UNL     1       1.304  79.440  75.169  1.00  0.00    -0.385 OA
ATOM     21  H   UNL     1       2.042  79.620  75.955  1.00  0.00     0.211 HD
ENDBRANCH  15  20
ENDBRANCH   8   9
ENDBRANCH   7   8
ENDBRANCH   1   7
BRANCH   2  22
ATOM     22  O   UNL     1       2.731  82.859  79.711  1.00  0.00    -0.387 OA
ATOM     23  H   UNL     1       2.593  82.758  80.721  1.00  0.00     0.211 HD
ENDBRANCH   2  22
BRANCH   3  24
ATOM     24  O   UNL     1       4.406  84.154  81.196  1.00  0.00    -0.387 OA
ATOM     25  H   UNL     1       4.037  84.845  80.474  1.00  0.00     0.211 HD
ENDBRANCH   3  24
BRANCH   5  26
ATOM     26  O   UNL     1       7.171  86.259  79.355  1.00  0.00    -0.454 OA
BRANCH  26  27
ATOM     27  C   UNL     1       7.754  87.200  78.275  1.00  0.00     0.214 A 
ATOM     28  C   UNL     1       7.347  88.348  77.401  1.00  0.00     0.180 A 
ATOM     29  C   UNL     1       9.065  87.537  78.694  1.00  0.00     0.239 A 
ATOM     30  O   UNL     1       8.568  88.748  76.799  1.00  0.00    -0.452 OA
ATOM     31  C   UNL     1       9.792  88.854  78.615  1.00  0.00     0.111 A 
ATOM     32  O   UNL     1       9.604  86.690  79.515  1.00  0.00    -0.285 OA
ATOM     33  C   UNL     1       9.985  88.344  77.350  1.00  0.00     0.146 A 
ATOM     34  C   UNL     1      10.765  89.814  77.923  1.00  0.00     0.134 A 
ATOM     35  C   UNL     1      11.405  87.397  77.609  1.00  0.00     0.094 A 
ATOM     36  C   UNL     1      12.327  89.592  77.746  1.00  0.00     0.093 A 
ATOM     37  C   UNL     1      12.544  88.139  78.084  1.00  0.00     0.123 A 
BRANCH  28  38
ATOM     38  C   UNL     1       5.844  89.279  77.152  1.00  0.00     0.025 A 
ATOM     39  C   UNL     1       4.788  89.073  78.219  1.00  0.00     0.062 A 
ATOM     40  C   UNL     1       5.438  90.289  75.954  1.00  0.00     0.016 A 
ATOM     41  C   UNL     1       3.801  90.143  78.269  1.00  0.00     0.158 A 
ATOM     42  C   UNL     1       4.045  90.599  75.886  1.00  0.00     0.051 A 
ATOM     43  C   UNL     1       3.202  90.523  77.046  1.00  0.00     0.157 A 
BRANCH  41  44
ATOM     44  O   UNL     1       4.287  91.124  79.205  1.00  0.00    -0.504 OA
ATOM     45  H   UNL     1       4.278  90.533  80.042  1.00  0.00     0.293 HD
ENDBRANCH  41  44
BRANCH  43  46
ATOM     46  O   UNL     1       1.808  90.786  77.001  1.00  0.00    -0.504 OA
ATOM     47  H   UNL     1       1.089  90.203  76.592  1.00  0.00     0.293 HD
ENDBRANCH  43  46
ENDBRANCH  28  38
BRANCH  34  48
ATOM     48  O   UNL     1      10.224  90.988  77.350  1.00  0.00    -0.507 OA
ATOM     49  H   UNL     1       9.788  91.835  77.991  1.00  0.00     0.293 HD
ENDBRANCH  34  48
BRANCH  37  50
ATOM     50  O   UNL     1      13.673  87.328  78.691  1.00  0.00    -0.508 OA
ATOM     51  H   UNL     1      14.476  87.052  79.396  1.00  0.00     0.293 HD
ENDBRANCH  37  50
ENDBRANCH  26  27
ENDBRANCH   5  26
BRANCH   4  52
ATOM     52  O   UNL     1       7.632  82.487  80.620  1.00  0.00    -0.384 OA
ATOM     53  H   UNL     1       8.605  82.936  80.476  1.00  0.00     0.211 HD
ENDBRANCH   4  52
TORSDOF 16
ENDMDL
MODEL 2
REMARK VINA RESULT:    -8.409      2.206      2.707
REMARK INTER + INTRA:         -13.714
REMARK INTER:                 -12.362
REMARK INTRA:                  -1.351
REMARK UNBOUND:                -1.127
REMARK SMILES C[C@@H]1O[C@H](OC[C@H]2O[C@@H](Oc3c(-c4ccc(O)c(O)c4)oc4cc(O)cc(O)c4c3=O)[C@@H](O)[C@@H](O)[C@H]2O)[C@@H](O)[C@@H](O)[C@@H]1O
REMARK SMILES IDX 7 1 36 2 34 3 32 4 9 5 8 6 6 7 5 8 4 9 1 10 2 11 42 12 3 13
REMARK SMILES IDX 40 14 38 15 43 16 41 18 39 20 37 22 35 24 10 26 11 27 12 28
REMARK SMILES IDX 30 29 21 30 29 31 31 32 22 33 27 34 23 35 26 36 24 37 13 38
REMARK SMILES IDX 20 39 14 40 18 41 15 42 16 43 19 44 17 46 28 48 25 50 33 52
REMARK H PARENT 43 17 41 19 39 21 37 23 35 25 19 45 17 47 28 49 25 51 33 53
REMARK Flexibility Score: inf
ROOT
ATOM      1  C   UNL     1       5.097  82.534  77.759  1.00  0.00     0.180 C 
ATOM      2  C   UNL     1       4.324  83.162  79.027  1.00  0.00     0.177 C 
ATOM      3  C   UNL     1       5.391  83.837  79.974  1.00  0.00     0.180 C 
ATOM      4  C   UNL     1       6.746  83.066  79.964  1.00  0.00     0.214 C 
ATOM      5  C   UNL     1       7.565  83.559  78.588  1.00  0.00     0.339 C 
ATOM      6  O   UNL     1       6.402  83.386  77.487  1.00  0.00    -0.332 OA
ENDROOT
BRANCH   1   7
ATOM      7  C   UNL     1       3.655  81.794  76.927  1.00  0.00     0.198 C 
BRANCH   7   8
ATOM      8  O   UNL     1       3.152  80.939  75.854  1.00  0.00    -0.347 OA
BRANCH   8   9
ATOM      9  C   UNL     1       2.143  81.528  74.893  1.00  0.00     0.281 C 
ATOM     10  C   UNL     1       0.369  84.618  72.422  1.00  0.00     0.041 C 
ATOM     11  C   UNL     1       0.872  83.447  73.555  1.00  0.00     0.150 C 
ATOM     12  C   UNL     1      -0.080  82.289  73.088  1.00  0.00     0.174 C 
ATOM     13  O   UNL     1       2.279  82.720  73.909  1.00  0.00    -0.344 OA
ATOM     14  C   UNL     1      -0.170  81.170  74.174  1.00  0.00     0.179 C 
ATOM     15  C   UNL     1       1.158  80.446  74.370  1.00  0.00     0.202 C 
BRANCH  12  16
ATOM     16  O   UNL     1       0.604  81.871  71.849  1.00  0.00    -0.388 OA
ATOM     17  H   UNL     1       1.288  82.570  71.558  1.00  0.00     0.211 HD
ENDBRANCH  12  16
BRANCH  14  18
ATOM     18  O   UNL     1      -0.465  81.644  75.413  1.00  0.00    -0.387 OA
ATOM     19  H   UNL     1      -0.813  80.965  75.989  1.00  0.00     0.211 HD
ENDBRANCH  14  18
BRANCH  15  20
ATOM     20  O   UNL     1       1.057  79.257  75.086  1.00  0.00    -0.385 OA
ATOM     21  H   UNL     1       0.915  79.513  76.139  1.00  0.00     0.211 HD
ENDBRANCH  15  20
ENDBRANCH   8   9
ENDBRANCH   7   8
ENDBRANCH   1   7
BRANCH   2  22
ATOM     22  O   UNL     1       3.337  84.119  78.551  1.00  0.00    -0.387 OA
ATOM     23  H   UNL     1       3.362  84.918  79.192  1.00  0.00     0.211 HD
ENDBRANCH   2  22
BRANCH   3  24
ATOM     24  O   UNL     1       5.405  85.226  79.640  1.00  0.00    -0.387 OA
ATOM     25  H   UNL     1       5.816  85.806  80.434  1.00  0.00     0.211 HD
ENDBRANCH   3  24
BRANCH   5  26
ATOM     26  O   UNL     1       8.924  84.290  78.154  1.00  0.00    -0.454 OA
BRANCH  26  27
ATOM     27  C   UNL     1       9.573  85.618  78.606  1.00  0.00     0.214 A 
ATOM     28  C   UNL     1       9.388  87.100  78.473  1.00  0.00     0.180 A 
ATOM     29  C   UNL     1       9.959  85.442  79.959  1.00  0.00     0.239 A 
ATOM     30  O   UNL     1      10.357  87.631  79.363  1.00  0.00    -0.452 OA
ATOM     31  C   UNL     1       9.878  86.404  81.116  1.00  0.00     0.111 A 
ATOM     32  O   UNL     1      10.127  84.207  80.316  1.00  0.00    -0.285 OA
ATOM     33  C   UNL     1      11.047  86.793  80.501  1.00  0.00     0.146 A 
ATOM     34  C   UNL     1      10.506  87.450  82.041  1.00  0.00     0.134 A 
ATOM     35  C   UNL     1      12.170  85.725  81.263  1.00  0.00     0.094 A 
ATOM     36  C   UNL     1      11.682  87.194  83.077  1.00  0.00     0.093 A 
ATOM     37  C   UNL     1      12.235  85.844  82.697  1.00  0.00     0.123 A 
BRANCH  28  38
ATOM     38  C   UNL     1       8.215  88.160  77.643  1.00  0.00     0.025 A 
ATOM     39  C   UNL     1       6.764  87.762  77.824  1.00  0.00     0.062 A 
ATOM     40  C   UNL     1       8.471  89.463  76.718  1.00  0.00     0.016 A 
ATOM     41  C   UNL     1       5.830  88.847  77.558  1.00  0.00     0.158 A 
ATOM     42  C   UNL     1       7.343  89.871  75.942  1.00  0.00     0.051 A 
ATOM     43  C   UNL     1       6.001  89.561  76.349  1.00  0.00     0.157 A 
BRANCH  41  44
ATOM     44  O   UNL     1       5.604  89.527  78.807  1.00  0.00    -0.504 OA
ATOM     45  H   UNL     1       5.025  90.291  78.446  1.00  0.00     0.293 HD
ENDBRANCH  41  44
BRANCH  43  46
ATOM     46  O   UNL     1       4.863  89.917  75.579  1.00  0.00    -0.504 OA
ATOM     47  H   UNL     1       4.809  90.004  74.573  1.00  0.00     0.293 HD
ENDBRANCH  43  46
ENDBRANCH  28  38
BRANCH  34  48
ATOM     48  O   UNL     1      10.031  88.778  81.940  1.00  0.00    -0.507 OA
ATOM     49  H   UNL     1       8.970  89.020  81.574  1.00  0.00     0.293 HD
ENDBRANCH  34  48
BRANCH  37  50
ATOM     50  O   UNL     1      12.890  84.697  83.441  1.00  0.00    -0.508 OA
ATOM     51  H   UNL     1      13.099  83.992  84.264  1.00  0.00     0.293 HD
ENDBRANCH  37  50
ENDBRANCH  26  27
ENDBRANCH   5  26
BRANCH   4  52
ATOM     52  O   UNL     1       7.191  82.451  81.261  1.00  0.00    -0.384 OA
ATOM     53  H   UNL     1       7.366  83.194  82.028  1.00  0.00     0.211 HD
ENDBRANCH   4  52
TORSDOF 16
ENDMDL
MODEL 3
REMARK VINA RESULT:    -8.389      2.429      5.058
REMARK INTER + INTRA:         -13.685
REMARK INTER:                 -12.484
REMARK INTRA:                  -1.200
REMARK UNBOUND:                -1.127
REMARK SMILES C[C@@H]1O[C@H](OC[C@H]2O[C@@H](Oc3c(-c4ccc(O)c(O)c4)oc4cc(O)cc(O)c4c3=O)[C@@H](O)[C@@H](O)[C@H]2O)[C@@H](O)[C@@H](O)[C@@H]1O
REMARK SMILES IDX 7 1 36 2 34 3 32 4 9 5 8 6 6 7 5 8 4 9 1 10 2 11 42 12 3 13
REMARK SMILES IDX 40 14 38 15 43 16 41 18 39 20 37 22 35 24 10 26 11 27 12 28
REMARK SMILES IDX 30 29 21 30 29 31 31 32 22 33 27 34 23 35 26 36 24 37 13 38
REMARK SMILES IDX 20 39 14 40 18 41 15 42 16 43 19 44 17 46 28 48 25 50 33 52
REMARK H PARENT 43 17 41 19 39 21 37 23 35 25 19 45 17 47 28 49 25 51 33 53
REMARK Flexibility Score: inf
ROOT
ATOM      1  C   UNL     1       4.911  82.580  77.588  1.00  0.00     0.180 C 
ATOM      2  C   UNL     1       4.171  82.780  79.006  1.00  0.00     0.177 C 
ATOM      3  C   UNL     1       5.164  83.523  79.982  1.00  0.00     0.180 C 
ATOM      4  C   UNL     1       6.646  83.115  79.726  1.00  0.00     0.214 C 
ATOM      5  C   UNL     1       7.167  84.015  78.412  1.00  0.00     0.339 C 
ATOM      6  O   UNL     1       5.951  83.755  77.388  1.00  0.00    -0.332 OA
ENDROOT
BRANCH   1   7
ATOM      7  C   UNL     1       3.585  81.665  76.738  1.00  0.00     0.198 C 
BRANCH   7   8
ATOM      8  O   UNL     1       3.163  80.909  75.561  1.00  0.00    -0.347 OA
BRANCH   8   9
ATOM      9  C   UNL     1       2.097  81.516  74.675  1.00  0.00     0.281 C 
ATOM     10  C   UNL     1       0.241  84.608  72.268  1.00  0.00     0.041 C 
ATOM     11  C   UNL     1       0.794  83.450  73.390  1.00  0.00     0.150 C 
ATOM     12  C   UNL     1      -0.246  82.323  73.051  1.00  0.00     0.174 C 
ATOM     13  O   UNL     1       2.194  82.670  73.642  1.00  0.00    -0.344 OA
ATOM     14  C   UNL     1      -0.285  81.243  74.179  1.00  0.00     0.179 C 
ATOM     15  C   UNL     1       1.022  80.465  74.280  1.00  0.00     0.202 C 
BRANCH  12  16
ATOM     16  O   UNL     1       0.303  81.837  71.772  1.00  0.00    -0.388 OA
ATOM     17  H   UNL     1      -0.009  82.421  70.996  1.00  0.00     0.211 HD
ENDBRANCH  12  16
BRANCH  14  18
ATOM     18  O   UNL     1      -0.445  81.768  75.423  1.00  0.00    -0.387 OA
ATOM     19  H   UNL     1      -0.136  81.178  76.109  1.00  0.00     0.211 HD
ENDBRANCH  14  18
BRANCH  15  20
ATOM     20  O   UNL     1       0.935  79.304  75.043  1.00  0.00    -0.385 OA
ATOM     21  H   UNL     1       1.903  78.800  74.994  1.00  0.00     0.211 HD
ENDBRANCH  15  20
ENDBRANCH   8   9
ENDBRANCH   7   8
ENDBRANCH   1   7
BRANCH   2  22
ATOM     22  O   UNL     1       2.947  83.536  78.796  1.00  0.00    -0.387 OA
ATOM     23  H   UNL     1       2.624  83.844  79.718  1.00  0.00     0.211 HD
ENDBRANCH   2  22
BRANCH   3  24
ATOM     24  O   UNL     1       4.827  84.910  79.921  1.00  0.00    -0.387 OA
ATOM     25  H   UNL     1       3.822  85.046  79.595  1.00  0.00     0.211 HD
ENDBRANCH   3  24
BRANCH   5  26
ATOM     26  O   UNL     1       8.267  85.116  78.026  1.00  0.00    -0.454 OA
BRANCH  26  27
ATOM     27  C   UNL     1       8.780  86.370  78.771  1.00  0.00     0.214 A 
ATOM     28  C   UNL     1       9.598  86.748  79.969  1.00  0.00     0.180 A 
ATOM     29  C   UNL     1       9.179  87.298  77.776  1.00  0.00     0.239 A 
ATOM     30  O   UNL     1       9.728  88.156  79.843  1.00  0.00    -0.452 OA
ATOM     31  C   UNL     1      10.367  88.225  77.746  1.00  0.00     0.111 A 
ATOM     32  O   UNL     1       8.623  87.121  76.619  1.00  0.00    -0.285 OA
ATOM     33  C   UNL     1       9.465  88.939  78.504  1.00  0.00     0.146 A 
ATOM     34  C   UNL     1      11.007  89.598  77.969  1.00  0.00     0.134 A 
ATOM     35  C   UNL     1       8.593  89.760  77.260  1.00  0.00     0.094 A 
ATOM     36  C   UNL     1      10.673  90.925  77.162  1.00  0.00     0.093 A 
ATOM     37  C   UNL     1       9.400  90.607  76.419  1.00  0.00     0.123 A 
BRANCH  28  38
ATOM     38  C   UNL     1      10.460  85.851  81.249  1.00  0.00     0.025 A 
ATOM     39  C   UNL     1      11.939  86.166  81.355  1.00  0.00     0.062 A 
ATOM     40  C   UNL     1       9.905  84.747  82.294  1.00  0.00     0.016 A 
ATOM     41  C   UNL     1      12.515  85.810  82.644  1.00  0.00     0.158 A 
ATOM     42  C   UNL     1      10.922  83.989  82.952  1.00  0.00     0.051 A 
ATOM     43  C   UNL     1      12.249  84.509  83.130  1.00  0.00     0.157 A 
BRANCH  41  44
ATOM     44  O   UNL     1      12.400  86.968  83.493  1.00  0.00    -0.504 OA
ATOM     45  H   UNL     1      13.042  86.663  84.231  1.00  0.00     0.293 HD
ENDBRANCH  41  44
BRANCH  43  46
ATOM     46  O   UNL     1      13.289  83.764  83.743  1.00  0.00    -0.504 OA
ATOM     47  H   UNL     1      13.854  83.038  83.319  1.00  0.00     0.293 HD
ENDBRANCH  43  46
ENDBRANCH  28  38
BRANCH  34  48
ATOM     48  O   UNL     1      11.952  89.714  79.013  1.00  0.00    -0.507 OA
ATOM     49  H   UNL     1      11.884  90.539  79.809  1.00  0.00     0.293 HD
ENDBRANCH  34  48
BRANCH  37  50
ATOM     50  O   UNL     1       8.784  91.034  75.101  1.00  0.00    -0.508 OA
ATOM     51  H   UNL     1       8.253  90.944  74.138  1.00  0.00     0.293 HD
ENDBRANCH  37  50
ENDBRANCH  26  27
ENDBRANCH   5  26
BRANCH   4  52
ATOM     52  O   UNL     1       7.366  82.415  80.844  1.00  0.00    -0.384 OA
ATOM     53  H   UNL     1       8.198  82.995  81.221  1.00  0.00     0.211 HD
ENDBRANCH   4  52
TORSDOF 16
ENDMDL
MODEL 4
REMARK VINA RESULT:    -7.909      3.623     11.906
REMARK INTER + INTRA:         -12.966
REMARK INTER:                 -10.341
REMARK INTRA:                  -2.625
REMARK UNBOUND:                -1.127
REMARK SMILES C[C@@H]1O[C@H](OC[C@H]2O[C@@H](Oc3c(-c4ccc(O)c(O)c4)oc4cc(O)cc(O)c4c3=O)[C@@H](O)[C@@H](O)[C@H]2O)[C@@H](O)[C@@H](O)[C@@H]1O
REMARK SMILES IDX 7 1 36 2 34 3 32 4 9 5 8 6 6 7 5 8 4 9 1 10 2 11 42 12 3 13
REMARK SMILES IDX 40 14 38 15 43 16 41 18 39 20 37 22 35 24 10 26 11 27 12 28
REMARK SMILES IDX 30 29 21 30 29 31 31 32 22 33 27 34 23 35 26 36 24 37 13 38
REMARK SMILES IDX 20 39 14 40 18 41 15 42 16 43 19 44 17 46 28 48 25 50 33 52
REMARK H PARENT 43 17 41 19 39 21 37 23 35 25 19 45 17 47 28 49 25 51 33 53
REMARK Flexibility Score: inf
ROOT
ATOM      1  C   UNL     1      10.724  89.440  79.124  1.00  0.00     0.180 C 
ATOM      2  C   UNL     1       9.410  90.344  79.359  1.00  0.00     0.177 C 
ATOM      3  C   UNL     1       8.200  89.664  78.608  1.00  0.00     0.180 C 
ATOM      4  C   UNL     1       8.654  88.959  77.295  1.00  0.00     0.214 C 
ATOM      5  C   UNL     1       9.287  87.474  77.746  1.00  0.00     0.339 C 
ATOM      6  O   UNL     1      10.277  87.935  78.931  1.00  0.00    -0.332 OA
ENDROOT
BRANCH   1   7
ATOM      7  C   UNL     1      11.915  90.489  80.018  1.00  0.00     0.198 C 
BRANCH   7   8
ATOM      8  O   UNL     1      12.528  90.851  81.294  1.00  0.00    -0.347 OA
BRANCH   8   9
ATOM      9  C   UNL     1      13.893  90.282  81.611  1.00  0.00     0.281 C 
ATOM     10  C   UNL     1      17.777  88.580  80.705  1.00  0.00     0.041 C 
ATOM     11  C   UNL     1      16.184  89.012  81.133  1.00  0.00     0.150 C 
ATOM     12  C   UNL     1      16.420  89.159  82.678  1.00  0.00     0.174 C 
ATOM     13  O   UNL     1      15.177  90.223  80.741  1.00  0.00    -0.344 OA
ATOM     14  C   UNL     1      15.062  89.165  83.450  1.00  0.00     0.179 C 
ATOM     15  C   UNL     1      14.218  90.392  83.127  1.00  0.00     0.202 C 
BRANCH  12  16
ATOM     16  O   UNL     1      17.135  90.449  82.712  1.00  0.00    -0.388 OA
ATOM     17  H   UNL     1      17.779  90.487  83.502  1.00  0.00     0.211 HD
ENDBRANCH  12  16
BRANCH  14  18
ATOM     18  O   UNL     1      14.253  88.122  83.124  1.00  0.00    -0.387 OA
ATOM     19  H   UNL     1      14.362  87.846  82.215  1.00  0.00     0.211 HD
ENDBRANCH  14  18
BRANCH  15  20
ATOM     20  O   UNL     1      13.158  90.601  84.005  1.00  0.00    -0.385 OA
ATOM     21  H   UNL     1      13.347  91.535  84.539  1.00  0.00     0.211 HD
ENDBRANCH  15  20
ENDBRANCH   8   9
ENDBRANCH   7   8
ENDBRANCH   1   7
BRANCH   2  22
ATOM     22  O   UNL     1       9.167  90.461  80.788  1.00  0.00    -0.387 OA
ATOM     23  H   UNL     1       9.346  89.539  81.198  1.00  0.00     0.211 HD
ENDBRANCH   2  22
BRANCH   3  24
ATOM     24  O   UNL     1       7.506  88.887  79.584  1.00  0.00    -0.387 OA
ATOM     25  H   UNL     1       7.434  87.868  79.282  1.00  0.00     0.211 HD
ENDBRANCH   3  24
BRANCH   5  26
ATOM     26  O   UNL     1       9.037  85.906  77.528  1.00  0.00    -0.454 OA
BRANCH  26  27
ATOM     27  C   UNL     1       8.576  84.788  78.491  1.00  0.00     0.214 A 
ATOM     28  C   UNL     1       8.844  84.270  79.872  1.00  0.00     0.180 A 
ATOM     29  C   UNL     1       7.168  84.690  78.356  1.00  0.00     0.239 A 
ATOM     30  O   UNL     1       7.842  83.281  80.049  1.00  0.00    -0.452 OA
ATOM     31  C   UNL     1       6.113  84.469  79.408  1.00  0.00     0.111 A 
ATOM     32  O   UNL     1       6.701  85.140  77.233  1.00  0.00    -0.285 OA
ATOM     33  C   UNL     1       6.546  83.184  79.162  1.00  0.00     0.146 A 
ATOM     34  C   UNL     1       5.172  83.554  80.197  1.00  0.00     0.134 A 
ATOM     35  C   UNL     1       5.530  82.763  77.831  1.00  0.00     0.094 A 
ATOM     36  C   UNL     1       3.934  82.754  79.604  1.00  0.00     0.093 A 
ATOM     37  C   UNL     1       4.119  82.826  78.109  1.00  0.00     0.123 A 
BRANCH  28  38
ATOM     38  C   UNL     1       9.935  84.730  81.208  1.00  0.00     0.025 A 
ATOM     39  C   UNL     1      11.387  84.903  80.808  1.00  0.00     0.062 A 
ATOM     40  C   UNL     1       9.609  84.972  82.775  1.00  0.00     0.016 A 
ATOM     41  C   UNL     1      12.154  85.705  81.752  1.00  0.00     0.158 A 
ATOM     42  C   UNL     1      10.759  84.998  83.623  1.00  0.00     0.051 A 
ATOM     43  C   UNL     1      12.055  85.359  83.119  1.00  0.00     0.157 A 
BRANCH  41  44
ATOM     44  O   UNL     1      12.066  87.074  81.314  1.00  0.00    -0.504 OA
ATOM     45  H   UNL     1      11.067  87.213  81.494  1.00  0.00     0.293 HD
ENDBRANCH  41  44
BRANCH  43  46
ATOM     46  O   UNL     1      13.221  85.355  83.927  1.00  0.00    -0.504 OA
ATOM     47  H   UNL     1      13.646  86.147  84.392  1.00  0.00     0.293 HD
ENDBRANCH  43  46
ENDBRANCH  28  38
BRANCH  34  48
ATOM     48  O   UNL     1       5.446  83.365  81.571  1.00  0.00    -0.507 OA
ATOM     49  H   UNL     1       6.395  83.779  82.066  1.00  0.00     0.293 HD
ENDBRANCH  34  48
BRANCH  37  50
ATOM     50  O   UNL     1       3.194  82.852  76.907  1.00  0.00    -0.508 OA
ATOM     51  H   UNL     1       2.860  83.038  75.872  1.00  0.00     0.293 HD
ENDBRANCH  37  50
ENDBRANCH  26  27
ENDBRANCH   5  26
BRANCH   4  52
ATOM     52  O   UNL     1       8.093  89.488  76.005  1.00  0.00    -0.384 OA
ATOM     53  H   UNL     1       7.793  88.695  75.333  1.00  0.00     0.211 HD
ENDBRANCH   4  52
TORSDOF 16
ENDMDL
MODEL 5
REMARK VINA RESULT:    -7.714      2.406      3.370
REMARK INTER + INTRA:         -12.674
REMARK INTER:                 -11.262
REMARK INTRA:                  -1.412
REMARK UNBOUND:                -1.127
REMARK SMILES C[C@@H]1O[C@H](OC[C@H]2O[C@@H](Oc3c(-c4ccc(O)c(O)c4)oc4cc(O)cc(O)c4c3=O)[C@@H](O)[C@@H](O)[C@H]2O)[C@@H](O)[C@@H](O)[C@@H]1O
REMARK SMILES IDX 7 1 36 2 34 3 32 4 9 5 8 6 6 7 5 8 4 9 1 10 2 11 42 12 3 13
REMARK SMILES IDX 40 14 38 15 43 16 41 18 39 20 37 22 35 24 10 26 11 27 12 28
REMARK SMILES IDX 30 29 21 30 29 31 31 32 22 33 27 34 23 35 26 36 24 37 13 38
REMARK SMILES IDX 20 39 14 40 18 41 15 42 16 43 19 44 17 46 28 48 25 50 33 52
REMARK H PARENT 43 17 41 19 39 21 37 23 35 25 19 45 17 47 28 49 25 51 33 53
REMARK Flexibility Score: inf
ROOT
ATOM      1  C   UNL     1       5.291  82.750  77.794  1.00  0.00     0.180 C 
ATOM      2  C   UNL     1       4.477  83.296  79.074  1.00  0.00     0.177 C 
ATOM      3  C   UNL     1       5.513  83.895  80.102  1.00  0.00     0.180 C 
ATOM      4  C   UNL     1       6.863  83.115  80.088  1.00  0.00     0.214 C 
ATOM      5  C   UNL     1       7.734  83.694  78.779  1.00  0.00     0.339 C 
ATOM      6  O   UNL     1       6.610  83.607  77.628  1.00  0.00    -0.332 OA
ENDROOT
BRANCH   1   7
ATOM      7  C   UNL     1       3.876  82.081  76.862  1.00  0.00     0.198 C 
BRANCH   7   8
ATOM      8  O   UNL     1       2.945  82.239  75.747  1.00  0.00    -0.347 OA
BRANCH   8   9
ATOM      9  C   UNL     1       2.091  81.050  75.364  1.00  0.00     0.281 C 
ATOM     10  C   UNL     1       1.290  76.896  74.415  1.00  0.00     0.041 C 
ATOM     11  C   UNL     1       1.579  78.572  74.537  1.00  0.00     0.150 C 
ATOM     12  C   UNL     1       0.080  79.039  74.532  1.00  0.00     0.174 C 
ATOM     13  O   UNL     1       2.319  79.536  75.613  1.00  0.00    -0.344 OA
ATOM     14  C   UNL     1      -0.025  80.568  74.231  1.00  0.00     0.179 C 
ATOM     15  C   UNL     1       0.582  81.419  75.341  1.00  0.00     0.202 C 
BRANCH  12  16
ATOM     16  O   UNL     1      -0.314  78.668  75.904  1.00  0.00    -0.388 OA
ATOM     17  H   UNL     1      -0.643  77.703  75.940  1.00  0.00     0.211 HD
ENDBRANCH  12  16
BRANCH  14  18
ATOM     18  O   UNL     1       0.662  80.948  73.121  1.00  0.00    -0.387 OA
ATOM     19  H   UNL     1       1.441  81.461  73.333  1.00  0.00     0.211 HD
ENDBRANCH  14  18
BRANCH  15  20
ATOM     20  O   UNL     1       0.243  82.768  75.274  1.00  0.00    -0.385 OA
ATOM     21  H   UNL     1      -0.003  82.998  74.235  1.00  0.00     0.211 HD
ENDBRANCH  15  20
ENDBRANCH   8   9
ENDBRANCH   7   8
ENDBRANCH   1   7
BRANCH   2  22
ATOM     22  O   UNL     1       3.514  84.292  78.630  1.00  0.00    -0.387 OA
ATOM     23  H   UNL     1       2.652  84.130  79.159  1.00  0.00     0.211 HD
ENDBRANCH   2  22
BRANCH   3  24
ATOM     24  O   UNL     1       5.548  85.303  79.866  1.00  0.00    -0.387 OA
ATOM     25  H   UNL     1       4.645  85.768  80.187  1.00  0.00     0.211 HD
ENDBRANCH   3  24
BRANCH   5  26
ATOM     26  O   UNL     1       9.112  84.442  78.444  1.00  0.00    -0.454 OA
BRANCH  26  27
ATOM     27  C   UNL     1       9.670  85.820  78.869  1.00  0.00     0.214 A 
ATOM     28  C   UNL     1       9.416  87.283  78.661  1.00  0.00     0.180 A 
ATOM     29  C   UNL     1       9.995  85.721  80.245  1.00  0.00     0.239 A 
ATOM     30  O   UNL     1      10.311  87.902  79.572  1.00  0.00    -0.452 OA
ATOM     31  C   UNL     1       9.807  86.725  81.353  1.00  0.00     0.111 A 
ATOM     32  O   UNL     1      10.208  84.513  80.664  1.00  0.00    -0.285 OA
ATOM     33  C   UNL     1      10.985  87.149  80.778  1.00  0.00     0.146 A 
ATOM     34  C   UNL     1      10.334  87.841  82.259  1.00  0.00     0.134 A 
ATOM     35  C   UNL     1      12.121  86.175  81.639  1.00  0.00     0.094 A 
ATOM     36  C   UNL     1      11.468  87.691  83.361  1.00  0.00     0.093 A 
ATOM     37  C   UNL     1      12.108  86.358  83.068  1.00  0.00     0.123 A 
BRANCH  28  38
ATOM     38  C   UNL     1       8.234  88.243  77.729  1.00  0.00     0.025 A 
ATOM     39  C   UNL     1       6.785  87.877  77.977  1.00  0.00     0.062 A 
ATOM     40  C   UNL     1       8.480  89.428  76.653  1.00  0.00     0.016 A 
ATOM     41  C   UNL     1       5.850  88.928  77.599  1.00  0.00     0.158 A 
ATOM     42  C   UNL     1       7.341  89.747  75.851  1.00  0.00     0.051 A 
ATOM     43  C   UNL     1       6.005  89.494  76.312  1.00  0.00     0.157 A 
BRANCH  41  44
ATOM     44  O   UNL     1       5.645  89.751  78.763  1.00  0.00    -0.504 OA
ATOM     45  H   UNL     1       5.387  90.615  78.277  1.00  0.00     0.293 HD
ENDBRANCH  41  44
BRANCH  43  46
ATOM     46  O   UNL     1       4.857  89.762  75.523  1.00  0.00    -0.504 OA
ATOM     47  H   UNL     1       4.755  89.626  74.525  1.00  0.00     0.293 HD
ENDBRANCH  43  46
ENDBRANCH  28  38
BRANCH  34  48
ATOM     48  O   UNL     1       9.798  89.136  82.077  1.00  0.00    -0.507 OA
ATOM     49  H   UNL     1      10.391  89.977  81.568  1.00  0.00     0.293 HD
ENDBRANCH  34  48
BRANCH  37  50
ATOM     50  O   UNL     1      12.782  85.279  83.893  1.00  0.00    -0.508 OA
ATOM     51  H   UNL     1      13.415  84.831  84.678  1.00  0.00     0.293 HD
ENDBRANCH  37  50
ENDBRANCH  26  27
ENDBRANCH   5  26
BRANCH   4  52
ATOM     52  O   UNL     1       7.257  82.409  81.354  1.00  0.00    -0.384 OA
ATOM     53  H   UNL     1       6.486  82.466  82.112  1.00  0.00     0.211 HD
ENDBRANCH   4  52
TORSDOF 16
ENDMDL
MODEL 6
REMARK VINA RESULT:    -7.667      2.701      5.539
REMARK INTER + INTRA:         -12.603
REMARK INTER:                 -11.455
REMARK INTRA:                  -1.149
REMARK UNBOUND:                -1.127
REMARK SMILES C[C@@H]1O[C@H](OC[C@H]2O[C@@H](Oc3c(-c4ccc(O)c(O)c4)oc4cc(O)cc(O)c4c3=O)[C@@H](O)[C@@H](O)[C@H]2O)[C@@H](O)[C@@H](O)[C@@H]1O
REMARK SMILES IDX 7 1 36 2 34 3 32 4 9 5 8 6 6 7 5 8 4 9 1 10 2 11 42 12 3 13
REMARK SMILES IDX 40 14 38 15 43 16 41 18 39 20 37 22 35 24 10 26 11 27 12 28
REMARK SMILES IDX 30 29 21 30 29 31 31 32 22 33 27 34 23 35 26 36 24 37 13 38
REMARK SMILES IDX 20 39 14 40 18 41 15 42 16 43 19 44 17 46 28 48 25 50 33 52
REMARK H PARENT 43 17 41 19 39 21 37 23 35 25 19 45 17 47 28 49 25 51 33 53
REMARK Flexibility Score: inf
ROOT
ATOM      1  C   UNL     1       5.092  82.747  77.531  1.00  0.00     0.180 C 
ATOM      2  C   UNL     1       4.260  82.985  78.892  1.00  0.00     0.177 C 
ATOM      3  C   UNL     1       5.224  83.647  79.952  1.00  0.00     0.180 C 
ATOM      4  C   UNL     1       6.689  83.138  79.803  1.00  0.00     0.214 C 
ATOM      5  C   UNL     1       7.372  84.011  78.546  1.00  0.00     0.339 C 
ATOM      6  O   UNL     1       6.223  83.847  77.428  1.00  0.00    -0.332 OA
ENDROOT
BRANCH   1   7
ATOM      7  C   UNL     1       3.774  81.935  76.570  1.00  0.00     0.198 C 
BRANCH   7   8
ATOM      8  O   UNL     1       2.752  82.051  75.532  1.00  0.00    -0.347 OA
BRANCH   8   9
ATOM      9  C   UNL     1       1.897  80.836  75.242  1.00  0.00     0.281 C 
ATOM     10  C   UNL     1       1.115  76.639  74.487  1.00  0.00     0.041 C 
ATOM     11  C   UNL     1       1.382  78.322  74.533  1.00  0.00     0.150 C 
ATOM     12  C   UNL     1      -0.123  78.766  74.600  1.00  0.00     0.174 C 
ATOM     13  O   UNL     1       2.166  79.335  75.530  1.00  0.00    -0.344 OA
ATOM     14  C   UNL     1      -0.272  80.282  74.252  1.00  0.00     0.179 C 
ATOM     15  C   UNL     1       0.383  81.181  75.294  1.00  0.00     0.202 C 
BRANCH  12  16
ATOM     16  O   UNL     1      -0.431  78.439  76.005  1.00  0.00    -0.388 OA
ATOM     17  H   UNL     1      -1.426  78.557  76.196  1.00  0.00     0.211 HD
ENDBRANCH  12  16
BRANCH  14  18
ATOM     18  O   UNL     1       0.343  80.631  73.091  1.00  0.00    -0.387 OA
ATOM     19  H   UNL     1      -0.222  80.510  72.329  1.00  0.00     0.211 HD
ENDBRANCH  14  18
BRANCH  15  20
ATOM     20  O   UNL     1       0.018  82.521  75.199  1.00  0.00    -0.385 OA
ATOM     21  H   UNL     1       0.849  83.121  75.578  1.00  0.00     0.211 HD
ENDBRANCH  15  20
ENDBRANCH   8   9
ENDBRANCH   7   8
ENDBRANCH   1   7
BRANCH   2  22
ATOM     22  O   UNL     1       3.111  83.828  78.600  1.00  0.00    -0.387 OA
ATOM     23  H   UNL     1       2.312  83.204  78.457  1.00  0.00     0.211 HD
ENDBRANCH   2  22
BRANCH   3  24
ATOM     24  O   UNL     1       4.991  85.054  79.885  1.00  0.00    -0.387 OA
ATOM     25  H   UNL     1       4.014  85.263  79.515  1.00  0.00     0.211 HD
ENDBRANCH   3  24
BRANCH   5  26
ATOM     26  O   UNL     1       8.572  85.034  78.262  1.00  0.00    -0.454 OA
BRANCH  26  27
ATOM     27  C   UNL     1       9.036  86.314  78.995  1.00  0.00     0.214 A 
ATOM     28  C   UNL     1       9.825  86.735  80.197  1.00  0.00     0.180 A 
ATOM     29  C   UNL     1       9.417  87.242  77.992  1.00  0.00     0.239 A 
ATOM     30  O   UNL     1       9.912  88.145  80.053  1.00  0.00    -0.452 OA
ATOM     31  C   UNL     1      10.574  88.206  77.963  1.00  0.00     0.111 A 
ATOM     32  O   UNL     1       8.882  87.031  76.831  1.00  0.00    -0.285 OA
ATOM     33  C   UNL     1       9.641  88.901  78.700  1.00  0.00     0.146 A 
ATOM     34  C   UNL     1      11.167  89.602  78.175  1.00  0.00     0.134 A 
ATOM     35  C   UNL     1       8.759  89.676  77.434  1.00  0.00     0.094 A 
ATOM     36  C   UNL     1      10.801  90.906  77.346  1.00  0.00     0.093 A 
ATOM     37  C   UNL     1       9.549  90.537  76.592  1.00  0.00     0.123 A 
BRANCH  28  38
ATOM     38  C   UNL     1      10.700  85.884  81.500  1.00  0.00     0.025 A 
ATOM     39  C   UNL     1      12.105  86.392  81.755  1.00  0.00     0.062 A 
ATOM     40  C   UNL     1      10.225  84.648  82.431  1.00  0.00     0.016 A 
ATOM     41  C   UNL     1      12.618  86.035  83.071  1.00  0.00     0.158 A 
ATOM     42  C   UNL     1      11.282  83.995  83.136  1.00  0.00     0.051 A 
ATOM     43  C   UNL     1      12.502  84.680  83.461  1.00  0.00     0.157 A 
BRANCH  41  44
ATOM     44  O   UNL     1      12.269  87.108  83.967  1.00  0.00    -0.504 OA
ATOM     45  H   UNL     1      11.259  86.942  83.995  1.00  0.00     0.293 HD
ENDBRANCH  41  44
BRANCH  43  46
ATOM     46  O   UNL     1      13.585  84.048  84.124  1.00  0.00    -0.504 OA
ATOM     47  H   UNL     1      13.550  83.519  84.986  1.00  0.00     0.293 HD
ENDBRANCH  43  46
ENDBRANCH  28  38
BRANCH  34  48
ATOM     48  O   UNL     1      12.095  89.762  79.229  1.00  0.00    -0.507 OA
ATOM     49  H   UNL     1      11.845  89.474  80.312  1.00  0.00     0.293 HD
ENDBRANCH  34  48
BRANCH  37  50
ATOM     50  O   UNL     1       8.936  90.927  75.261  1.00  0.00    -0.508 OA
ATOM     51  H   UNL     1       8.774  90.942  74.170  1.00  0.00     0.293 HD
ENDBRANCH  37  50
ENDBRANCH  26  27
ENDBRANCH   5  26
BRANCH   4  52
ATOM     52  O   UNL     1       7.270  82.379  80.963  1.00  0.00    -0.384 OA
ATOM     53  H   UNL     1       8.292  82.072  80.780  1.00  0.00     0.211 HD
ENDBRANCH   4  52
TORSDOF 16
ENDMDL
MODEL 7
REMARK VINA RESULT:    -7.551      1.094      5.016
REMARK INTER + INTRA:         -12.430
REMARK INTER:                 -11.634
REMARK INTRA:                  -0.797
REMARK UNBOUND:                -1.127
REMARK SMILES C[C@@H]1O[C@H](OC[C@H]2O[C@@H](Oc3c(-c4ccc(O)c(O)c4)oc4cc(O)cc(O)c4c3=O)[C@@H](O)[C@@H](O)[C@H]2O)[C@@H](O)[C@@H](O)[C@@H]1O
REMARK SMILES IDX 7 1 36 2 34 3 32 4 9 5 8 6 6 7 5 8 4 9 1 10 2 11 42 12 3 13
REMARK SMILES IDX 40 14 38 15 43 16 41 18 39 20 37 22 35 24 10 26 11 27 12 28
REMARK SMILES IDX 30 29 21 30 29 31 31 32 22 33 27 34 23 35 26 36 24 37 13 38
REMARK SMILES IDX 20 39 14 40 18 41 15 42 16 43 19 44 17 46 28 48 25 50 33 52
REMARK H PARENT 43 17 41 19 39 21 37 23 35 25 19 45 17 47 28 49 25 51 33 53
REMARK Flexibility Score: inf
ROOT
ATOM      1  C   UNL     1       4.753  83.557  78.128  1.00  0.00     0.180 C 
ATOM      2  C   UNL     1       4.348  82.517  79.291  1.00  0.00     0.177 C 
ATOM      3  C   UNL     1       5.056  82.968  80.627  1.00  0.00     0.180 C 
ATOM      4  C   UNL     1       6.452  83.607  80.358  1.00  0.00     0.214 C 
ATOM      5  C   UNL     1       6.169  85.194  79.901  1.00  0.00     0.339 C 
ATOM      6  O   UNL     1       5.031  84.970  78.784  1.00  0.00    -0.332 OA
ENDROOT
BRANCH   1   7
ATOM      7  C   UNL     1       3.872  82.752  76.751  1.00  0.00     0.198 C 
BRANCH   7   8
ATOM      8  O   UNL     1       3.124  81.592  76.274  1.00  0.00    -0.347 OA
BRANCH   8   9
ATOM      9  C   UNL     1       2.085  81.814  75.196  1.00  0.00     0.281 C 
ATOM     10  C   UNL     1      -0.402  84.149  72.520  1.00  0.00     0.041 C 
ATOM     11  C   UNL     1       0.362  83.194  73.708  1.00  0.00     0.150 C 
ATOM     12  C   UNL     1      -0.040  81.790  73.132  1.00  0.00     0.174 C 
ATOM     13  O   UNL     1       1.887  83.014  74.233  1.00  0.00    -0.344 OA
ATOM     14  C   UNL     1       0.162  80.670  74.202  1.00  0.00     0.179 C 
ATOM     15  C   UNL     1       1.631  80.471  74.560  1.00  0.00     0.202 C 
BRANCH  12  16
ATOM     16  O   UNL     1       0.885  81.702  71.987  1.00  0.00    -0.388 OA
ATOM     17  H   UNL     1       0.382  81.480  71.128  1.00  0.00     0.211 HD
ENDBRANCH  12  16
BRANCH  14  18
ATOM     18  O   UNL     1      -0.425  80.952  75.395  1.00  0.00    -0.387 OA
ATOM     19  H   UNL     1      -1.380  80.964  75.337  1.00  0.00     0.211 HD
ENDBRANCH  14  18
BRANCH  15  20
ATOM     20  O   UNL     1       1.891  79.297  75.261  1.00  0.00    -0.385 OA
ATOM     21  H   UNL     1       1.877  78.471  74.547  1.00  0.00     0.211 HD
ENDBRANCH  15  20
ENDBRANCH   8   9
ENDBRANCH   7   8
ENDBRANCH   1   7
BRANCH   2  22
ATOM     22  O   UNL     1       2.900  82.497  79.422  1.00  0.00    -0.387 OA
ATOM     23  H   UNL     1       2.628  81.525  79.592  1.00  0.00     0.211 HD
ENDBRANCH   2  22
BRANCH   3  24
ATOM     24  O   UNL     1       4.095  83.733  81.354  1.00  0.00    -0.387 OA
ATOM     25  H   UNL     1       3.331  83.108  81.755  1.00  0.00     0.211 HD
ENDBRANCH   3  24
BRANCH   5  26
ATOM     26  O   UNL     1       6.492  86.692  80.372  1.00  0.00    -0.454 OA
BRANCH  26  27
ATOM     27  C   UNL     1       6.839  87.973  79.579  1.00  0.00     0.214 A 
ATOM     28  C   UNL     1       7.990  88.611  78.862  1.00  0.00     0.180 A 
ATOM     29  C   UNL     1       5.722  88.254  78.753  1.00  0.00     0.239 A 
ATOM     30  O   UNL     1       7.402  89.748  78.248  1.00  0.00    -0.452 OA
ATOM     31  C   UNL     1       5.678  88.751  77.330  1.00  0.00     0.111 A 
ATOM     32  O   UNL     1       4.604  87.744  79.163  1.00  0.00    -0.285 OA
ATOM     33  C   UNL     1       5.853  89.921  78.037  1.00  0.00     0.146 A 
ATOM     34  C   UNL     1       5.550  89.881  76.304  1.00  0.00     0.134 A 
ATOM     35  C   UNL     1       4.210  90.318  78.394  1.00  0.00     0.094 A 
ATOM     36  C   UNL     1       4.260  90.772  76.052  1.00  0.00     0.093 A 
ATOM     37  C   UNL     1       3.370  90.493  77.237  1.00  0.00     0.123 A 
BRANCH  28  38
ATOM     38  C   UNL     1       9.689  88.166  78.545  1.00  0.00     0.025 A 
ATOM     39  C   UNL     1      10.282  87.186  79.538  1.00  0.00     0.062 A 
ATOM     40  C   UNL     1      10.689  88.662  77.373  1.00  0.00     0.016 A 
ATOM     41  C   UNL     1      11.456  86.488  79.032  1.00  0.00     0.158 A 
ATOM     42  C   UNL     1      12.069  88.371  77.608  1.00  0.00     0.051 A 
ATOM     43  C   UNL     1      12.473  87.280  78.450  1.00  0.00     0.157 A 
BRANCH  41  44
ATOM     44  O   UNL     1      10.991  85.279  78.402  1.00  0.00    -0.504 OA
ATOM     45  H   UNL     1      11.779  84.677  78.659  1.00  0.00     0.293 HD
ENDBRANCH  41  44
BRANCH  43  46
ATOM     46  O   UNL     1      13.833  86.992  78.733  1.00  0.00    -0.504 OA
ATOM     47  H   UNL     1      14.617  87.056  78.097  1.00  0.00     0.293 HD
ENDBRANCH  43  46
ENDBRANCH  28  38
BRANCH  34  48
ATOM     48  O   UNL     1       6.694  90.194  75.535  1.00  0.00    -0.507 OA
ATOM     49  H   UNL     1       7.450  90.994  75.862  1.00  0.00     0.293 HD
ENDBRANCH  34  48
BRANCH  37  50
ATOM     50  O   UNL     1       1.873  90.453  77.478  1.00  0.00    -0.508 OA
ATOM     51  H   UNL     1       0.916  90.178  77.952  1.00  0.00     0.293 HD
ENDBRANCH  37  50
ENDBRANCH  26  27
ENDBRANCH   5  26
BRANCH   4  52
ATOM     52  O   UNL     1       7.649  82.898  80.926  1.00  0.00    -0.384 OA
ATOM     53  H   UNL     1       7.843  83.179  81.953  1.00  0.00     0.211 HD
ENDBRANCH   4  52
TORSDOF 16
ENDMDL
MODEL 8
REMARK VINA RESULT:    -6.355      2.655     11.388
REMARK INTER + INTRA:         -10.640
REMARK INTER:                 -10.449
REMARK INTRA:                  -0.190
REMARK UNBOUND:                -1.127
REMARK SMILES C[C@@H]1O[C@H](OC[C@H]2O[C@@H](Oc3c(-c4ccc(O)c(O)c4)oc4cc(O)cc(O)c4c3=O)[C@@H](O)[C@@H](O)[C@H]2O)[C@@H](O)[C@@H](O)[C@@H]1O
REMARK SMILES IDX 7 1 36 2 34 3 32 4 9 5 8 6 6 7 5 8 4 9 1 10 2 11 42 12 3 13
REMARK SMILES IDX 40 14 38 15 43 16 41 18 39 20 37 22 35 24 10 26 11 27 12 28
REMARK SMILES IDX 30 29 21 30 29 31 31 32 22 33 27 34 23 35 26 36 24 37 13 38
REMARK SMILES IDX 20 39 14 40 18 41 15 42 16 43 19 44 17 46 28 48 25 50 33 52
REMARK H PARENT 43 17 41 19 39 21 37 23 35 25 19 45 17 47 28 49 25 51 33 53
REMARK Flexibility Score: inf
ROOT
ATOM      1  C   UNL     1       5.802  84.601  77.659  1.00  0.00     0.180 C 
ATOM      2  C   UNL     1       6.056  84.465  79.246  1.00  0.00     0.177 C 
ATOM      3  C   UNL     1       5.290  83.185  79.762  1.00  0.00     0.180 C 
ATOM      4  C   UNL     1       3.962  82.949  78.981  1.00  0.00     0.214 C 
ATOM      5  C   UNL     1       4.382  82.194  77.545  1.00  0.00     0.339 C 
ATOM      6  O   UNL     1       5.576  83.157  77.055  1.00  0.00    -0.332 OA
ENDROOT
BRANCH   1   7
ATOM      7  C   UNL     1       6.719  86.152  77.390  1.00  0.00     0.198 C 
BRANCH   7   8
ATOM      8  O   UNL     1       7.863  86.820  76.774  1.00  0.00    -0.347 OA
BRANCH   8   9
ATOM      9  C   UNL     1       9.171  86.830  77.535  1.00  0.00     0.281 C 
ATOM     10  C   UNL     1      12.574  85.080  79.575  1.00  0.00     0.041 C 
ATOM     11  C   UNL     1      11.151  85.828  79.007  1.00  0.00     0.150 C 
ATOM     12  C   UNL     1      11.662  87.312  79.066  1.00  0.00     0.174 C 
ATOM     13  O   UNL     1      10.268  85.739  77.648  1.00  0.00    -0.344 OA
ATOM     14  C   UNL     1      10.468  88.316  78.986  1.00  0.00     0.179 C 
ATOM     15  C   UNL     1       9.758  88.265  77.638  1.00  0.00     0.202 C 
BRANCH  12  16
ATOM     16  O   UNL     1      12.544  87.332  77.883  1.00  0.00    -0.388 OA
ATOM     17  H   UNL     1      13.343  86.712  78.015  1.00  0.00     0.211 HD
ENDBRANCH  12  16
BRANCH  14  18
ATOM     18  O   UNL     1       9.479  88.050  79.881  1.00  0.00    -0.387 OA
ATOM     19  H   UNL     1       8.911  87.335  79.594  1.00  0.00     0.211 HD
ENDBRANCH  14  18
BRANCH  15  20
ATOM     20  O   UNL     1       8.901  89.337  77.405  1.00  0.00    -0.385 OA
ATOM     21  H   UNL     1       9.392  90.241  77.772  1.00  0.00     0.211 HD
ENDBRANCH  15  20
ENDBRANCH   8   9
ENDBRANCH   7   8
ENDBRANCH   1   7
BRANCH   2  22
ATOM     22  O   UNL     1       7.487  84.377  79.488  1.00  0.00    -0.387 OA
ATOM     23  H   UNL     1       7.838  85.337  79.558  1.00  0.00     0.211 HD
ENDBRANCH   2  22
BRANCH   3  24
ATOM     24  O   UNL     1       6.249  82.128  79.794  1.00  0.00    -0.387 OA
ATOM     25  H   UNL     1       7.229  82.504  79.980  1.00  0.00     0.211 HD
ENDBRANCH   3  24
BRANCH   5  26
ATOM     26  O   UNL     1       4.129  80.826  76.749  1.00  0.00    -0.454 OA
BRANCH  26  27
ATOM     27  C   UNL     1       3.074  80.424  75.692  1.00  0.00     0.214 A 
ATOM     28  C   UNL     1       2.205  79.264  75.310  1.00  0.00     0.180 A 
ATOM     29  C   UNL     1       2.240  81.554  75.501  1.00  0.00     0.239 A 
ATOM     30  O   UNL     1       1.383  79.796  74.283  1.00  0.00    -0.452 OA
ATOM     31  C   UNL     1       0.747  81.627  75.309  1.00  0.00     0.111 A 
ATOM     32  O   UNL     1       2.782  82.686  75.825  1.00  0.00    -0.285 OA
ATOM     33  C   UNL     1       1.186  81.337  74.036  1.00  0.00     0.146 A 
ATOM     34  C   UNL     1      -0.490  81.720  74.411  1.00  0.00     0.134 A 
ATOM     35  C   UNL     1       1.499  82.929  73.444  1.00  0.00     0.094 A 
ATOM     36  C   UNL     1      -0.886  82.953  73.492  1.00  0.00     0.093 A 
ATOM     37  C   UNL     1       0.357  83.806  73.447  1.00  0.00     0.123 A 
BRANCH  28  38
ATOM     38  C   UNL     1       1.940  77.617  75.946  1.00  0.00     0.025 A 
ATOM     39  C   UNL     1       3.197  76.780  76.079  1.00  0.00     0.062 A 
ATOM     40  C   UNL     1       0.564  76.884  76.383  1.00  0.00     0.016 A 
ATOM     41  C   UNL     1       3.051  75.661  77.000  1.00  0.00     0.158 A 
ATOM     42  C   UNL     1       0.667  75.466  76.526  1.00  0.00     0.051 A 
ATOM     43  C   UNL     1       1.919  74.831  76.831  1.00  0.00     0.157 A 
BRANCH  41  44
ATOM     44  O   UNL     1       3.452  76.130  78.302  1.00  0.00    -0.504 OA
ATOM     45  H   UNL     1       3.244  77.123  78.161  1.00  0.00     0.293 HD
ENDBRANCH  41  44
BRANCH  43  46
ATOM     46  O   UNL     1       2.060  73.424  76.939  1.00  0.00    -0.504 OA
ATOM     47  H   UNL     1       2.021  72.868  77.785  1.00  0.00     0.293 HD
ENDBRANCH  43  46
ENDBRANCH  28  38
BRANCH  34  48
ATOM     48  O   UNL     1      -1.341  80.593  74.357  1.00  0.00    -0.507 OA
ATOM     49  H   UNL     1      -1.342  79.871  73.464  1.00  0.00     0.293 HD
ENDBRANCH  34  48
BRANCH  37  50
ATOM     50  O   UNL     1       0.644  85.289  73.316  1.00  0.00    -0.508 OA
ATOM     51  H   UNL     1       0.485  86.378  73.400  1.00  0.00     0.293 HD
ENDBRANCH  37  50
ENDBRANCH  26  27
ENDBRANCH   5  26
BRANCH   4  52
ATOM     52  O   UNL     1       2.684  83.025  79.768  1.00  0.00    -0.384 OA
ATOM     53  H   UNL     1       1.809  82.924  79.139  1.00  0.00     0.211 HD
ENDBRANCH   4  52
TORSDOF 16
ENDMDL
MODEL 9
REMARK VINA RESULT:    -6.197      2.935      5.607
REMARK INTER + INTRA:         -10.404
REMARK INTER:                  -9.193
REMARK INTRA:                  -1.211
REMARK UNBOUND:                -1.127
REMARK SMILES C[C@@H]1O[C@H](OC[C@H]2O[C@@H](Oc3c(-c4ccc(O)c(O)c4)oc4cc(O)cc(O)c4c3=O)[C@@H](O)[C@@H](O)[C@H]2O)[C@@H](O)[C@@H](O)[C@@H]1O
REMARK SMILES IDX 7 1 36 2 34 3 32 4 9 5 8 6 6 7 5 8 4 9 1 10 2 11 42 12 3 13
REMARK SMILES IDX 40 14 38 15 43 16 41 18 39 20 37 22 35 24 10 26 11 27 12 28
REMARK SMILES IDX 30 29 21 30 29 31 31 32 22 33 27 34 23 35 26 36 24 37 13 38
REMARK SMILES IDX 20 39 14 40 18 41 15 42 16 43 19 44 17 46 28 48 25 50 33 52
REMARK H PARENT 43 17 41 19 39 21 37 23 35 25 19 45 17 47 28 49 25 51 33 53
REMARK Flexibility Score: inf
ROOT
ATOM      1  C   UNL     1       4.716  82.097  77.510  1.00  0.00     0.180 C 
ATOM      2  C   UNL     1       3.730  82.560  78.698  1.00  0.00     0.177 C 
ATOM      3  C   UNL     1       4.548  83.473  79.692  1.00  0.00     0.180 C 
ATOM      4  C   UNL     1       6.036  83.022  79.804  1.00  0.00     0.214 C 
ATOM      5  C   UNL     1       6.828  83.659  78.472  1.00  0.00     0.339 C 
ATOM      6  O   UNL     1       5.817  83.212  77.299  1.00  0.00    -0.332 OA
ENDROOT
BRANCH   1   7
ATOM      7  C   UNL     1       3.540  81.039  76.605  1.00  0.00     0.198 C 
BRANCH   7   8
ATOM      8  O   UNL     1       3.180  80.384  75.349  1.00  0.00    -0.347 OA
BRANCH   8   9
ATOM      9  C   UNL     1       2.017  79.417  75.364  1.00  0.00     0.281 C 
ATOM     10  C   UNL     1      -2.124  78.217  75.828  1.00  0.00     0.041 C 
ATOM     11  C   UNL     1      -0.458  78.576  75.872  1.00  0.00     0.150 C 
ATOM     12  C   UNL     1       0.066  77.187  75.359  1.00  0.00     0.174 C 
ATOM     13  O   UNL     1       0.501  79.677  75.162  1.00  0.00    -0.344 OA
ATOM     14  C   UNL     1       1.590  77.024  75.653  1.00  0.00     0.179 C 
ATOM     15  C   UNL     1       2.441  78.009  74.861  1.00  0.00     0.202 C 
BRANCH  12  16
ATOM     16  O   UNL     1      -0.261  77.298  73.925  1.00  0.00    -0.388 OA
ATOM     17  H   UNL     1      -0.800  78.145  73.738  1.00  0.00     0.211 HD
ENDBRANCH  12  16
BRANCH  14  18
ATOM     18  O   UNL     1       1.920  77.280  76.947  1.00  0.00    -0.387 OA
ATOM     19  H   UNL     1       2.808  76.994  77.159  1.00  0.00     0.211 HD
ENDBRANCH  14  18
BRANCH  15  20
ATOM     20  O   UNL     1       3.800  77.706  74.848  1.00  0.00    -0.385 OA
ATOM     21  H   UNL     1       4.105  77.589  73.805  1.00  0.00     0.211 HD
ENDBRANCH  15  20
ENDBRANCH   8   9
ENDBRANCH   7   8
ENDBRANCH   1   7
BRANCH   2  22
ATOM     22  O   UNL     1       2.596  83.264  78.122  1.00  0.00    -0.387 OA
ATOM     23  H   UNL     1       2.808  83.413  77.132  1.00  0.00     0.211 HD
ENDBRANCH   2  22
BRANCH   3  24
ATOM     24  O   UNL     1       4.281  84.823  79.313  1.00  0.00    -0.387 OA
ATOM     25  H   UNL     1       4.217  84.918  78.254  1.00  0.00     0.211 HD
ENDBRANCH   3  24
BRANCH   5  26
ATOM     26  O   UNL     1       8.021  84.667  78.107  1.00  0.00    -0.454 OA
BRANCH  26  27
ATOM     27  C   UNL     1       8.524  85.962  78.786  1.00  0.00     0.214 A 
ATOM     28  C   UNL     1       9.365  86.408  79.943  1.00  0.00     0.180 A 
ATOM     29  C   UNL     1       8.870  86.858  77.744  1.00  0.00     0.239 A 
ATOM     30  O   UNL     1       9.457  87.812  79.757  1.00  0.00    -0.452 OA
ATOM     31  C   UNL     1      10.033  87.811  77.641  1.00  0.00     0.111 A 
ATOM     32  O   UNL     1       8.286  86.622  76.611  1.00  0.00    -0.285 OA
ATOM     33  C   UNL     1       9.136  88.534  78.397  1.00  0.00     0.146 A 
ATOM     34  C   UNL     1      10.645  89.207  77.790  1.00  0.00     0.134 A 
ATOM     35  C   UNL     1       8.209  89.283  77.147  1.00  0.00     0.094 A 
ATOM     36  C   UNL     1      10.254  90.492  76.942  1.00  0.00     0.093 A 
ATOM     37  C   UNL     1       8.969  90.114  76.250  1.00  0.00     0.123 A 
BRANCH  28  38
ATOM     38  C   UNL     1      10.286  85.584  81.231  1.00  0.00     0.025 A 
ATOM     39  C   UNL     1      11.792  85.699  81.104  1.00  0.00     0.062 A 
ATOM     40  C   UNL     1       9.756  84.725  82.496  1.00  0.00     0.016 A 
ATOM     41  C   UNL     1      12.499  85.447  82.353  1.00  0.00     0.158 A 
ATOM     42  C   UNL     1      10.757  83.929  83.134  1.00  0.00     0.051 A 
ATOM     43  C   UNL     1      12.149  84.276  83.065  1.00  0.00     0.157 A 
BRANCH  41  44
ATOM     44  O   UNL     1      12.647  86.716  83.018  1.00  0.00    -0.504 OA
ATOM     45  H   UNL     1      12.466  86.393  83.974  1.00  0.00     0.293 HD
ENDBRANCH  41  44
BRANCH  43  46
ATOM     46  O   UNL     1      13.168  83.484  83.653  1.00  0.00    -0.504 OA
ATOM     47  H   UNL     1      14.131  83.403  83.352  1.00  0.00     0.293 HD
ENDBRANCH  43  46
ENDBRANCH  28  38
BRANCH  34  48
ATOM     48  O   UNL     1      11.617  89.388  78.800  1.00  0.00    -0.507 OA
ATOM     49  H   UNL     1      12.438  90.187  78.721  1.00  0.00     0.293 HD
ENDBRANCH  34  48
BRANCH  37  50
ATOM     50  O   UNL     1       8.305  90.473  74.935  1.00  0.00    -0.508 OA
ATOM     51  H   UNL     1       8.186  90.602  73.846  1.00  0.00     0.293 HD
ENDBRANCH  37  50
ENDBRANCH  26  27
ENDBRANCH   5  26
BRANCH   4  52
ATOM     52  O   UNL     1       6.507  82.545  81.149  1.00  0.00    -0.384 OA
ATOM     53  H   UNL     1       7.578  82.648  81.268  1.00  0.00     0.211 HD
ENDBRANCH   4  52
TORSDOF 16
ENDMDL
