MODEL 1
REMARK VINA RESULT:    -3.965      0.000      0.000
REMARK INTER + INTRA:          -5.709
REMARK INTER:                  -5.356
REMARK INTRA:                  -0.353
REMARK UNBOUND:                -0.353
REMARK SMILES CCCCCCCC(=O)[O-]
REMARK SMILES IDX 5 1 6 2 7 3 8 4 9 5 10 6 4 7 3 8 2 9 1 10
REMARK H PARENT
REMARK Flexibility Score: inf
ROOT
ATOM      1  C   UNL     1      31.923  19.241  13.583  1.00  0.00     0.000 C 
ENDROOT
BRANCH   1   2
ATOM      2  C   UNL     1      33.114  20.127  13.176  1.00  0.00     0.006 C 
BRANCH   2   3
ATOM      3  C   UNL     1      33.175  21.424  13.992  1.00  0.00     0.053 C 
BRANCH   3   4
ATOM      4  C   UNL     1      34.467  21.550  14.741  1.00  0.00     0.041 C 
ATOM      5  O   UNL     1      35.478  20.896  14.376  1.00  0.00    -0.550 OA
ATOM      6  O   UNL     1      34.559  22.413  15.826  1.00  0.00    -0.550 OA
ENDBRANCH   3   4
ENDBRANCH   2   3
ENDBRANCH   1   2
BRANCH   1   7
ATOM      7  C   UNL     1      30.981  18.940  12.406  1.00  0.00     0.000 C 
BRANCH   7   8
ATOM      8  C   UNL     1      31.070  19.993  11.291  1.00  0.00    -0.000 C 
BRANCH   8   9
ATOM      9  C   UNL     1      31.345  19.333   9.936  1.00  0.00    -0.003 C 
ATOM     10  C   UNL     1      31.540  17.825  10.086  1.00  0.00     0.004 C 
ENDBRANCH   8   9
ENDBRANCH   7   8
ENDBRANCH   1   7
TORSDOF 6
ENDMDL
MODEL 2
REMARK VINA RESULT:    -3.959      3.767      5.533
REMARK INTER + INTRA:          -5.700
REMARK INTER:                  -5.460
REMARK INTRA:                  -0.240
REMARK UNBOUND:                -0.353
REMARK SMILES CCCCCCCC(=O)[O-]
REMARK SMILES IDX 5 1 6 2 7 3 8 4 9 5 10 6 4 7 3 8 2 9 1 10
REMARK H PARENT
REMARK Flexibility Score: inf
ROOT
ATOM      1  C   UNL     1      31.924  19.039  13.270  1.00  0.00     0.000 C 
ENDROOT
BRANCH   1   2
ATOM      2  C   UNL     1      31.753  19.210  11.750  1.00  0.00     0.006 C 
BRANCH   2   3
ATOM      3  C   UNL     1      30.417  19.874  11.390  1.00  0.00     0.053 C 
BRANCH   3   4
ATOM      4  C   UNL     1      29.333  18.863  11.177  1.00  0.00     0.041 C 
ATOM      5  O   UNL     1      29.552  17.833  10.487  1.00  0.00    -0.550 OA
ATOM      6  O   UNL     1      28.088  19.045  11.767  1.00  0.00    -0.550 OA
ENDBRANCH   3   4
ENDBRANCH   2   3
ENDBRANCH   1   2
BRANCH   1   7
ATOM      7  C   UNL     1      32.782  20.149  13.896  1.00  0.00     0.000 C 
BRANCH   7   8
ATOM      8  C   UNL     1      34.255  20.076  13.466  1.00  0.00    -0.000 C 
BRANCH   8   9
ATOM      9  C   UNL     1      35.122  21.007  14.320  1.00  0.00    -0.003 C 
ATOM     10  C   UNL     1      34.289  21.709  15.390  1.00  0.00     0.004 C 
ENDBRANCH   8   9
ENDBRANCH   7   8
ENDBRANCH   1   7
TORSDOF 6
ENDMDL
MODEL 3
REMARK VINA RESULT:    -3.937      1.423      2.113
REMARK INTER + INTRA:          -5.670
REMARK INTER:                  -5.270
REMARK INTRA:                  -0.401
REMARK UNBOUND:                -0.353
REMARK SMILES CCCCCCCC(=O)[O-]
REMARK SMILES IDX 5 1 6 2 7 3 8 4 9 5 10 6 4 7 3 8 2 9 1 10
REMARK H PARENT
REMARK Flexibility Score: inf
ROOT
ATOM      1  C   UNL     1      32.608  19.361  13.720  1.00  0.00     0.000 C 
ENDROOT
BRANCH   1   2
ATOM      2  C   UNL     1      33.527  20.528  13.320  1.00  0.00     0.006 C 
BRANCH   2   3
ATOM      3  C   UNL     1      34.355  21.045  14.505  1.00  0.00     0.053 C 
BRANCH   3   4
ATOM      4  C   UNL     1      33.763  22.286  15.098  1.00  0.00     0.041 C 
ATOM      5  O   UNL     1      34.404  22.948  15.955  1.00  0.00    -0.550 OA
ATOM      6  O   UNL     1      32.514  22.727  14.681  1.00  0.00    -0.550 OA
ENDBRANCH   3   4
ENDBRANCH   2   3
ENDBRANCH   1   2
BRANCH   1   7
ATOM      7  C   UNL     1      31.364  19.255  12.825  1.00  0.00     0.000 C 
BRANCH   7   8
ATOM      8  C   UNL     1      31.568  19.901  11.446  1.00  0.00    -0.000 C 
BRANCH   8   9
ATOM      9  C   UNL     1      30.368  20.776  11.069  1.00  0.00    -0.003 C 
ATOM     10  C   UNL     1      30.106  21.841  12.131  1.00  0.00     0.004 C 
ENDBRANCH   8   9
ENDBRANCH   7   8
ENDBRANCH   1   7
TORSDOF 6
ENDMDL
MODEL 4
REMARK VINA RESULT:    -3.885      2.020      2.880
REMARK INTER + INTRA:          -5.600
REMARK INTER:                  -5.279
REMARK INTRA:                  -0.320
REMARK UNBOUND:                -0.353
REMARK SMILES CCCCCCCC(=O)[O-]
REMARK SMILES IDX 5 1 6 2 7 3 8 4 9 5 10 6 4 7 3 8 2 9 1 10
REMARK H PARENT
REMARK Flexibility Score: inf
ROOT
ATOM      1  C   UNL     1      31.843  18.864  11.053  1.00  0.00     0.000 C 
ENDROOT
BRANCH   1   2
ATOM      2  C   UNL     1      31.304  19.440  12.374  1.00  0.00     0.006 C 
BRANCH   2   3
ATOM      3  C   UNL     1      32.269  19.206  13.544  1.00  0.00     0.053 C 
BRANCH   3   4
ATOM      4  C   UNL     1      33.260  20.321  13.679  1.00  0.00     0.041 C 
ATOM      5  O   UNL     1      32.899  21.441  14.125  1.00  0.00    -0.550 OA
ATOM      6  O   UNL     1      34.591  20.113  13.339  1.00  0.00    -0.550 OA
ENDBRANCH   3   4
ENDBRANCH   2   3
ENDBRANCH   1   2
BRANCH   1   7
ATOM      7  C   UNL     1      30.721  18.446  10.090  1.00  0.00     0.000 C 
BRANCH   7   8
ATOM      8  C   UNL     1      29.373  18.250  10.798  1.00  0.00    -0.000 C 
BRANCH   8   9
ATOM      9  C   UNL     1      28.315  19.206  10.234  1.00  0.00    -0.003 C 
ATOM     10  C   UNL     1      27.404  19.735  11.339  1.00  0.00     0.004 C 
ENDBRANCH   8   9
ENDBRANCH   7   8
ENDBRANCH   1   7
TORSDOF 6
ENDMDL
MODEL 5
REMARK VINA RESULT:    -3.706     13.850     14.716
REMARK INTER + INTRA:          -5.359
REMARK INTER:                  -4.975
REMARK INTRA:                  -0.383
REMARK UNBOUND:                -0.353
REMARK SMILES CCCCCCCC(=O)[O-]
REMARK SMILES IDX 5 1 6 2 7 3 8 4 9 5 10 6 4 7 3 8 2 9 1 10
REMARK H PARENT
REMARK Flexibility Score: inf
ROOT
ATOM      1  C   UNL     1      27.987   6.219  13.700  1.00  0.00     0.000 C 
ENDROOT
BRANCH   1   2
ATOM      2  C   UNL     1      29.222   5.356  13.385  1.00  0.00     0.006 C 
BRANCH   2   3
ATOM      3  C   UNL     1      30.486   5.878  14.082  1.00  0.00     0.053 C 
BRANCH   3   4
ATOM      4  C   UNL     1      31.408   4.762  14.470  1.00  0.00     0.041 C 
ATOM      5  O   UNL     1      31.799   3.933  13.608  1.00  0.00    -0.550 OA
ATOM      6  O   UNL     1      31.858   4.658  15.780  1.00  0.00    -0.550 OA
ENDBRANCH   3   4
ENDBRANCH   2   3
ENDBRANCH   1   2
BRANCH   1   7
ATOM      7  C   UNL     1      27.966   7.532  12.903  1.00  0.00     0.000 C 
BRANCH   7   8
ATOM      8  C   UNL     1      27.761   7.310  11.397  1.00  0.00    -0.000 C 
BRANCH   8   9
ATOM      9  C   UNL     1      29.004   7.738  10.608  1.00  0.00    -0.003 C 
ATOM     10  C   UNL     1      29.682   6.537   9.953  1.00  0.00     0.004 C 
ENDBRANCH   8   9
ENDBRANCH   7   8
ENDBRANCH   1   7
TORSDOF 6
ENDMDL
MODEL 6
REMARK VINA RESULT:    -3.680      2.322      2.993
REMARK INTER + INTRA:          -5.324
REMARK INTER:                  -4.813
REMARK INTRA:                  -0.511
REMARK UNBOUND:                -0.353
REMARK SMILES CCCCCCCC(=O)[O-]
REMARK SMILES IDX 5 1 6 2 7 3 8 4 9 5 10 6 4 7 3 8 2 9 1 10
REMARK H PARENT
REMARK Flexibility Score: inf
ROOT
ATOM      1  C   UNL     1      32.089  19.771  10.875  1.00  0.00     0.000 C 
ENDROOT
BRANCH   1   2
ATOM      2  C   UNL     1      32.749  19.736  12.264  1.00  0.00     0.006 C 
BRANCH   2   3
ATOM      3  C   UNL     1      31.767  20.117  13.381  1.00  0.00     0.053 C 
BRANCH   3   4
ATOM      4  C   UNL     1      31.433  21.577  13.354  1.00  0.00     0.041 C 
ATOM      5  O   UNL     1      30.376  21.976  12.799  1.00  0.00    -0.550 OA
ATOM      6  O   UNL     1      32.276  22.493  13.970  1.00  0.00    -0.550 OA
ENDBRANCH   3   4
ENDBRANCH   2   3
ENDBRANCH   1   2
BRANCH   1   7
ATOM      7  C   UNL     1      31.907  18.369  10.272  1.00  0.00     0.000 C 
BRANCH   7   8
ATOM      8  C   UNL     1      30.430  17.984  10.102  1.00  0.00    -0.000 C 
BRANCH   8   9
ATOM      9  C   UNL     1      29.512  19.147  10.494  1.00  0.00    -0.003 C 
ATOM     10  C   UNL     1      28.591  18.758  11.648  1.00  0.00     0.004 C 
ENDBRANCH   8   9
ENDBRANCH   7   8
ENDBRANCH   1   7
TORSDOF 6
ENDMDL
MODEL 7
REMARK VINA RESULT:    -3.628     13.351     14.860
REMARK INTER + INTRA:          -5.253
REMARK INTER:                  -4.792
REMARK INTRA:                  -0.462
REMARK UNBOUND:                -0.353
REMARK SMILES CCCCCCCC(=O)[O-]
REMARK SMILES IDX 5 1 6 2 7 3 8 4 9 5 10 6 4 7 3 8 2 9 1 10
REMARK H PARENT
REMARK Flexibility Score: inf
ROOT
ATOM      1  C   UNL     1      28.118   5.008  12.750  1.00  0.00     0.000 C 
ENDROOT
BRANCH   1   2
ATOM      2  C   UNL     1      29.247   4.121  13.303  1.00  0.00     0.006 C 
BRANCH   2   3
ATOM      3  C   UNL     1      30.637   4.699  13.003  1.00  0.00     0.053 C 
BRANCH   3   4
ATOM      4  C   UNL     1      31.315   5.190  14.245  1.00  0.00     0.041 C 
ATOM      5  O   UNL     1      31.764   4.371  15.089  1.00  0.00    -0.550 OA
ATOM      6  O   UNL     1      31.478   6.553  14.455  1.00  0.00    -0.550 OA
ENDBRANCH   3   4
ENDBRANCH   2   3
ENDBRANCH   1   2
BRANCH   1   7
ATOM      7  C   UNL     1      27.829   6.222  13.647  1.00  0.00     0.000 C 
BRANCH   7   8
ATOM      8  C   UNL     1      27.999   7.559  12.909  1.00  0.00    -0.000 C 
BRANCH   8   9
ATOM      9  C   UNL     1      27.843   7.371  11.395  1.00  0.00    -0.003 C 
ATOM     10  C   UNL     1      29.106   7.803  10.653  1.00  0.00     0.004 C 
ENDBRANCH   8   9
ENDBRANCH   7   8
ENDBRANCH   1   7
TORSDOF 6
ENDMDL
MODEL 8
REMARK VINA RESULT:    -3.570      3.630      5.141
REMARK INTER + INTRA:          -5.174
REMARK INTER:                  -4.601
REMARK INTRA:                  -0.573
REMARK UNBOUND:                -0.353
REMARK SMILES CCCCCCCC(=O)[O-]
REMARK SMILES IDX 5 1 6 2 7 3 8 4 9 5 10 6 4 7 3 8 2 9 1 10
REMARK H PARENT
REMARK Flexibility Score: inf
ROOT
ATOM      1  C   UNL     1      30.178  21.771  12.184  1.00  0.00     0.000 C 
ENDROOT
BRANCH   1   2
ATOM      2  C   UNL     1      29.052  21.514  11.167  1.00  0.00     0.006 C 
BRANCH   2   3
ATOM      3  C   UNL     1      29.390  20.365  10.208  1.00  0.00     0.053 C 
BRANCH   3   4
ATOM      4  C   UNL     1      29.505  19.056  10.928  1.00  0.00     0.041 C 
ATOM      5  O   UNL     1      30.508  18.317  10.745  1.00  0.00    -0.550 OA
ATOM      6  O   UNL     1      28.518  18.667  11.825  1.00  0.00    -0.550 OA
ENDBRANCH   3   4
ENDBRANCH   2   3
ENDBRANCH   1   2
BRANCH   1   7
ATOM      7  C   UNL     1      31.553  21.926  11.516  1.00  0.00     0.000 C 
BRANCH   7   8
ATOM      8  C   UNL     1      32.612  20.989  12.115  1.00  0.00    -0.000 C 
BRANCH   8   9
ATOM      9  C   UNL     1      32.219  20.553  13.531  1.00  0.00    -0.003 C 
ATOM     10  C   UNL     1      32.278  19.034  13.677  1.00  0.00     0.004 C 
ENDBRANCH   8   9
ENDBRANCH   7   8
ENDBRANCH   1   7
TORSDOF 6
ENDMDL
