MODEL 1
REMARK VINA RESULT:    -3.496      0.000      0.000
REMARK INTER + INTRA:          -4.890
REMARK INTER:                  -4.314
REMARK INTRA:                  -0.576
REMARK UNBOUND:                -0.576
REMARK SMILES C=CC(=C)CCC=C(C)C
REMARK SMILES IDX 5 1 6 2 7 3 9 4 8 5 10 6 3 7 4 8 2 9 1 10
REMARK H PARENT
REMARK Flexibility Score: inf
ROOT
ATOM      1  C   UNL     1      11.236   6.345  18.872  1.00  0.00     0.039 C 
ENDROOT
BRANCH   1   2
ATOM      2  C   UNL     1      11.299   5.164  17.890  1.00  0.00     0.032 C 
BRANCH   2   3
ATOM      3  C   UNL     1      12.468   4.251  18.168  1.00  0.00    -0.028 C 
ATOM      4  C   UNL     1      13.813   5.109  16.238  1.00  0.00     0.039 C 
ATOM      5  C   UNL     1      13.613   4.230  17.450  1.00  0.00    -0.080 C 
ATOM      6  C   UNL     1      14.712   3.293  17.878  1.00  0.00     0.039 C 
ENDBRANCH   2   3
ENDBRANCH   1   2
BRANCH   1   7
ATOM      7  C   UNL     1      11.013   7.666  18.161  1.00  0.00    -0.055 C 
ATOM      8  C   UNL     1      10.970   8.788  18.888  1.00  0.00     0.012 C 
BRANCH   7   9
ATOM      9  C   UNL     1      10.877   7.775  16.683  1.00  0.00    -0.005 C 
ATOM     10  C   UNL     1      11.801   8.298  15.875  1.00  0.00     0.009 C 
ENDBRANCH   7   9
ENDBRANCH   1   7
TORSDOF 4
ENDMDL
MODEL 2
REMARK VINA RESULT:    -3.442      1.697      3.473
REMARK INTER + INTRA:          -4.823
REMARK INTER:                  -4.132
REMARK INTRA:                  -0.691
REMARK UNBOUND:                -0.576
REMARK SMILES C=CC(=C)CCC=C(C)C
REMARK SMILES IDX 5 1 6 2 7 3 9 4 8 5 10 6 3 7 4 8 2 9 1 10
REMARK H PARENT
REMARK Flexibility Score: inf
ROOT
ATOM      1  C   UNL     1      11.429   6.498  15.983  1.00  0.00     0.039 C 
ENDROOT
BRANCH   1   2
ATOM      2  C   UNL     1      10.878   5.612  17.110  1.00  0.00     0.032 C 
BRANCH   2   3
ATOM      3  C   UNL     1      10.978   6.276  18.462  1.00  0.00    -0.028 C 
ATOM      4  C   UNL     1      12.740   4.701  19.291  1.00  0.00     0.039 C 
ATOM      5  C   UNL     1      11.826   5.894  19.443  1.00  0.00    -0.080 C 
ATOM      6  C   UNL     1      11.845   6.686  20.724  1.00  0.00     0.039 C 
ENDBRANCH   2   3
ENDBRANCH   1   2
BRANCH   1   7
ATOM      7  C   UNL     1      12.936   6.650  16.064  1.00  0.00    -0.055 C 
ATOM      8  C   UNL     1      13.449   7.866  16.284  1.00  0.00     0.012 C 
BRANCH   7   9
ATOM      9  C   UNL     1      13.872   5.498  15.947  1.00  0.00    -0.005 C 
ATOM     10  C   UNL     1      15.201   5.603  15.915  1.00  0.00     0.009 C 
ENDBRANCH   7   9
ENDBRANCH   1   7
TORSDOF 4
ENDMDL
MODEL 3
REMARK VINA RESULT:    -3.372      1.581      2.312
REMARK INTER + INTRA:          -4.737
REMARK INTER:                  -3.968
REMARK INTRA:                  -0.769
REMARK UNBOUND:                -0.576
REMARK SMILES C=CC(=C)CCC=C(C)C
REMARK SMILES IDX 5 1 6 2 7 3 9 4 8 5 10 6 3 7 4 8 2 9 1 10
REMARK H PARENT
REMARK Flexibility Score: inf
ROOT
ATOM      1  C   UNL     1      11.122   6.352  16.086  1.00  0.00     0.039 C 
ENDROOT
BRANCH   1   2
ATOM      2  C   UNL     1      10.876   5.591  17.398  1.00  0.00     0.032 C 
BRANCH   2   3
ATOM      3  C   UNL     1      12.022   4.675  17.751  1.00  0.00    -0.028 C 
ATOM      4  C   UNL     1      12.396   5.731  19.990  1.00  0.00     0.039 C 
ATOM      5  C   UNL     1      12.699   4.709  18.920  1.00  0.00    -0.080 C 
ATOM      6  C   UNL     1      13.791   3.697  19.147  1.00  0.00     0.039 C 
ENDBRANCH   2   3
ENDBRANCH   1   2
BRANCH   1   7
ATOM      7  C   UNL     1      11.776   7.700  16.323  1.00  0.00    -0.055 C 
ATOM      8  C   UNL     1      11.005   8.738  16.666  1.00  0.00     0.012 C 
BRANCH   7   9
ATOM      9  C   UNL     1      13.247   7.912  16.229  1.00  0.00    -0.005 C 
ATOM     10  C   UNL     1      14.104   7.720  17.233  1.00  0.00     0.009 C 
ENDBRANCH   7   9
ENDBRANCH   1   7
TORSDOF 4
ENDMDL
MODEL 4
REMARK VINA RESULT:    -3.340      1.849      3.277
REMARK INTER + INTRA:          -4.697
REMARK INTER:                  -3.965
REMARK INTRA:                  -0.732
REMARK UNBOUND:                -0.576
REMARK SMILES C=CC(=C)CCC=C(C)C
REMARK SMILES IDX 5 1 6 2 7 3 9 4 8 5 10 6 3 7 4 8 2 9 1 10
REMARK H PARENT
REMARK Flexibility Score: inf
ROOT
ATOM      1  C   UNL     1      13.008   7.037  17.354  1.00  0.00     0.039 C 
ENDROOT
BRANCH   1   2
ATOM      2  C   UNL     1      14.005   6.991  16.186  1.00  0.00     0.032 C 
BRANCH   2   3
ATOM      3  C   UNL     1      15.367   6.502  16.615  1.00  0.00    -0.028 C 
ATOM      4  C   UNL     1      14.936   4.147  15.881  1.00  0.00     0.039 C 
ATOM      5  C   UNL     1      15.809   5.234  16.463  1.00  0.00    -0.080 C 
ATOM      6  C   UNL     1      17.213   4.906  16.898  1.00  0.00     0.039 C 
ENDBRANCH   2   3
ENDBRANCH   1   2
BRANCH   1   7
ATOM      7  C   UNL     1      11.860   6.065  17.162  1.00  0.00    -0.055 C 
ATOM      8  C   UNL     1      10.900   6.370  16.281  1.00  0.00     0.012 C 
BRANCH   7   9
ATOM      9  C   UNL     1      11.772   4.766  17.883  1.00  0.00    -0.005 C 
ATOM     10  C   UNL     1      12.718   4.283  18.689  1.00  0.00     0.009 C 
ENDBRANCH   7   9
ENDBRANCH   1   7
TORSDOF 4
ENDMDL
MODEL 5
REMARK VINA RESULT:    -3.294      1.194      4.219
REMARK INTER + INTRA:          -4.641
REMARK INTER:                  -3.896
REMARK INTRA:                  -0.744
REMARK UNBOUND:                -0.576
REMARK SMILES C=CC(=C)CCC=C(C)C
REMARK SMILES IDX 5 1 6 2 7 3 9 4 8 5 10 6 3 7 4 8 2 9 1 10
REMARK H PARENT
REMARK Flexibility Score: inf
ROOT
ATOM      1  C   UNL     1      12.593   4.180  18.235  1.00  0.00     0.039 C 
ENDROOT
BRANCH   1   2
ATOM      2  C   UNL     1      11.347   4.887  17.680  1.00  0.00     0.032 C 
BRANCH   2   3
ATOM      3  C   UNL     1      11.207   6.295  18.206  1.00  0.00    -0.028 C 
ATOM      4  C   UNL     1      11.053   7.311  15.922  1.00  0.00     0.039 C 
ATOM      5  C   UNL     1      11.050   7.391  17.431  1.00  0.00    -0.080 C 
ATOM      6  C   UNL     1      10.876   8.728  18.103  1.00  0.00     0.039 C 
ENDBRANCH   2   3
ENDBRANCH   1   2
BRANCH   1   7
ATOM      7  C   UNL     1      13.861   4.621  17.528  1.00  0.00    -0.055 C 
ATOM      8  C   UNL     1      14.173   4.054  16.357  1.00  0.00     0.012 C 
BRANCH   7   9
ATOM      9  C   UNL     1      14.755   5.686  18.060  1.00  0.00    -0.005 C 
ATOM     10  C   UNL     1      14.724   6.962  17.674  1.00  0.00     0.009 C 
ENDBRANCH   7   9
ENDBRANCH   1   7
TORSDOF 4
ENDMDL
MODEL 6
REMARK VINA RESULT:    -3.284      1.711      2.701
REMARK INTER + INTRA:          -4.629
REMARK INTER:                  -3.768
REMARK INTRA:                  -0.861
REMARK UNBOUND:                -0.576
REMARK SMILES C=CC(=C)CCC=C(C)C
REMARK SMILES IDX 5 1 6 2 7 3 9 4 8 5 10 6 3 7 4 8 2 9 1 10
REMARK H PARENT
REMARK Flexibility Score: inf
ROOT
ATOM      1  C   UNL     1      10.952   6.324  17.235  1.00  0.00     0.039 C 
ENDROOT
BRANCH   1   2
ATOM      2  C   UNL     1      11.801   6.463  15.962  1.00  0.00     0.032 C 
BRANCH   2   3
ATOM      3  C   UNL     1      13.150   5.798  16.099  1.00  0.00    -0.028 C 
ATOM      4  C   UNL     1      14.389   7.968  16.252  1.00  0.00     0.039 C 
ATOM      5  C   UNL     1      14.318   6.459  16.254  1.00  0.00    -0.080 C 
ATOM      6  C   UNL     1      15.581   5.656  16.424  1.00  0.00     0.039 C 
ENDBRANCH   2   3
ENDBRANCH   1   2
BRANCH   1   7
ATOM      7  C   UNL     1      11.311   7.366  18.276  1.00  0.00    -0.055 C 
ATOM      8  C   UNL     1      10.875   8.620  18.108  1.00  0.00     0.012 C 
BRANCH   7   9
ATOM      9  C   UNL     1      12.095   7.048  19.501  1.00  0.00    -0.005 C 
ATOM     10  C   UNL     1      12.406   5.815  19.901  1.00  0.00     0.009 C 
ENDBRANCH   7   9
ENDBRANCH   1   7
TORSDOF 4
ENDMDL
MODEL 7
REMARK VINA RESULT:    -2.963      1.626      3.429
REMARK INTER + INTRA:          -4.232
REMARK INTER:                  -3.486
REMARK INTRA:                  -0.747
REMARK UNBOUND:                -0.576
REMARK SMILES C=CC(=C)CCC=C(C)C
REMARK SMILES IDX 5 1 6 2 7 3 9 4 8 5 10 6 3 7 4 8 2 9 1 10
REMARK H PARENT
REMARK Flexibility Score: inf
ROOT
ATOM      1  C   UNL     1      10.938   5.673  17.412  1.00  0.00     0.039 C 
ENDROOT
BRANCH   1   2
ATOM      2  C   UNL     1      11.726   5.989  16.131  1.00  0.00     0.032 C 
BRANCH   2   3
ATOM      3  C   UNL     1      12.712   7.114  16.330  1.00  0.00    -0.028 C 
ATOM      4  C   UNL     1      14.707   5.671  15.875  1.00  0.00     0.039 C 
ATOM      5  C   UNL     1      14.051   6.994  16.195  1.00  0.00    -0.080 C 
ATOM      6  C   UNL     1      14.905   8.221  16.379  1.00  0.00     0.039 C 
ENDBRANCH   2   3
ENDBRANCH   1   2
BRANCH   1   7
ATOM      7  C   UNL     1      11.846   5.253  18.552  1.00  0.00    -0.055 C 
ATOM      8  C   UNL     1      12.557   4.127  18.426  1.00  0.00     0.012 C 
BRANCH   7   9
ATOM      9  C   UNL     1      12.011   6.060  19.792  1.00  0.00    -0.005 C 
ATOM     10  C   UNL     1      11.716   7.357  19.896  1.00  0.00     0.009 C 
ENDBRANCH   7   9
ENDBRANCH   1   7
TORSDOF 4
ENDMDL
MODEL 8
REMARK VINA RESULT:    -0.831     15.091     16.123
REMARK INTER + INTRA:          -1.602
REMARK INTER:                  -1.625
REMARK INTRA:                   0.024
REMARK UNBOUND:                -0.576
REMARK SMILES C=CC(=C)CCC=C(C)C
REMARK SMILES IDX 5 1 6 2 7 3 9 4 8 5 10 6 3 7 4 8 2 9 1 10
REMARK H PARENT
REMARK Flexibility Score: inf
ROOT
ATOM      1  C   UNL     1      14.582   5.747  31.556  1.00  0.00     0.039 C 
ENDROOT
BRANCH   1   2
ATOM      2  C   UNL     1      14.441   4.681  32.653  1.00  0.00     0.032 C 
BRANCH   2   3
ATOM      3  C   UNL     1      14.959   5.159  33.987  1.00  0.00    -0.028 C 
ATOM      4  C   UNL     1      16.785   3.449  34.080  1.00  0.00     0.039 C 
ATOM      5  C   UNL     1      16.024   4.632  34.630  1.00  0.00    -0.080 C 
ATOM      6  C   UNL     1      16.452   5.249  35.936  1.00  0.00     0.039 C 
ENDBRANCH   2   3
ENDBRANCH   1   2
BRANCH   1   7
ATOM      7  C   UNL     1      15.163   7.042  32.093  1.00  0.00    -0.055 C 
ATOM      8  C   UNL     1      16.372   7.428  31.670  1.00  0.00     0.012 C 
BRANCH   7   9
ATOM      9  C   UNL     1      14.429   7.926  33.040  1.00  0.00    -0.005 C 
ATOM     10  C   UNL     1      14.068   9.182  32.777  1.00  0.00     0.009 C 
ENDBRANCH   7   9
ENDBRANCH   1   7
TORSDOF 4
ENDMDL
