MODEL 1
REMARK VINA RESULT:    -4.463      0.000      0.000
REMARK INTER + INTRA:         -10.429
REMARK INTER:                  -8.377
REMARK INTRA:                  -2.052
REMARK UNBOUND:                -2.052
REMARK SMILES CCCCCCCCC=CCCCCCCCC(=O)[O-]
REMARK SMILES IDX 10 1 9 2 11 3 12 4 13 5 14 6 15 7 16 8 17 9 18 10 19 11
REMARK SMILES IDX 20 12 8 13 7 14 6 15 5 16 4 17 3 18 2 19 1 20
REMARK H PARENT
REMARK Flexibility Score: inf
ROOT
ATOM      1  C   UNL     1     -35.346   2.779  19.620  1.00  0.00    -0.031 C 
ATOM      2  C   UNL     1     -34.150   2.558  19.041  1.00  0.00    -0.031 C 
ENDROOT
BRANCH   1   3
ATOM      3  C   UNL     1     -36.239   1.717  20.211  1.00  0.00     0.027 C 
BRANCH   3   4
ATOM      4  C   UNL     1     -37.597   1.682  19.502  1.00  0.00     0.004 C 
BRANCH   4   5
ATOM      5  C   UNL     1     -38.626   0.872  20.294  1.00  0.00     0.000 C 
BRANCH   5   6
ATOM      6  C   UNL     1     -38.269   0.848  21.789  1.00  0.00     0.000 C 
BRANCH   6   7
ATOM      7  C   UNL     1     -39.365   0.166  22.635  1.00  0.00     0.000 C 
BRANCH   7   8
ATOM      8  C   UNL     1     -39.687   0.905  23.948  1.00  0.00     0.006 C 
BRANCH   8   9
ATOM      9  C   UNL     1     -38.531   1.772  24.481  1.00  0.00     0.053 C 
BRANCH   9  10
ATOM     10  C   UNL     1     -38.980   2.773  25.505  1.00  0.00     0.041 C 
ATOM     11  O   UNL     1     -39.802   2.439  26.400  1.00  0.00    -0.550 OA
ATOM     12  O   UNL     1     -38.443   4.055  25.518  1.00  0.00    -0.550 OA
ENDBRANCH   9  10
ENDBRANCH   8   9
ENDBRANCH   7   8
ENDBRANCH   6   7
ENDBRANCH   5   6
ENDBRANCH   4   5
ENDBRANCH   3   4
ENDBRANCH   1   3
BRANCH   2  13
ATOM     13  C   UNL     1     -33.526   1.202  18.814  1.00  0.00     0.027 C 
BRANCH  13  14
ATOM     14  C   UNL     1     -32.866   1.096  17.423  1.00  0.00     0.004 C 
BRANCH  14  15
ATOM     15  C   UNL     1     -33.748   0.403  16.368  1.00  0.00     0.000 C 
BRANCH  15  16
ATOM     16  C   UNL     1     -35.161   0.076  16.885  1.00  0.00     0.000 C 
BRANCH  16  17
ATOM     17  C   UNL     1     -36.244   0.949  16.234  1.00  0.00    -0.000 C 
BRANCH  17  18
ATOM     18  C   UNL     1     -35.665   1.995  15.266  1.00  0.00    -0.000 C 
BRANCH  18  19
ATOM     19  C   UNL     1     -35.869   3.433  15.768  1.00  0.00    -0.003 C 
ATOM     20  C   UNL     1     -37.229   3.640  16.437  1.00  0.00     0.004 C 
ENDBRANCH  18  19
ENDBRANCH  17  18
ENDBRANCH  16  17
ENDBRANCH  15  16
ENDBRANCH  14  15
ENDBRANCH  13  14
ENDBRANCH   2  13
TORSDOF 15
ENDMDL
MODEL 2
REMARK VINA RESULT:    -4.388      5.210      7.398
REMARK INTER + INTRA:         -10.289
REMARK INTER:                  -7.364
REMARK INTRA:                  -2.925
REMARK UNBOUND:                -2.052
REMARK SMILES CCCCCCCCC=CCCCCCCCC(=O)[O-]
REMARK SMILES IDX 10 1 9 2 11 3 12 4 13 5 14 6 15 7 16 8 17 9 18 10 19 11
REMARK SMILES IDX 20 12 8 13 7 14 6 15 5 16 4 17 3 18 2 19 1 20
REMARK H PARENT
REMARK Flexibility Score: inf
ROOT
ATOM      1  C   UNL     1     -33.198   1.218  17.290  1.00  0.00    -0.031 C 
ATOM      2  C   UNL     1     -33.184   2.312  18.076  1.00  0.00    -0.031 C 
ENDROOT
BRANCH   1   3
ATOM      3  C   UNL     1     -33.821  -0.107  17.651  1.00  0.00     0.027 C 
BRANCH   3   4
ATOM      4  C   UNL     1     -34.750  -0.602  16.537  1.00  0.00     0.004 C 
BRANCH   4   5
ATOM      5  C   UNL     1     -36.057  -1.166  17.101  1.00  0.00     0.000 C 
BRANCH   5   6
ATOM      6  C   UNL     1     -37.158  -1.171  16.028  1.00  0.00     0.000 C 
BRANCH   6   7
ATOM      7  C   UNL     1     -36.590  -1.434  14.618  1.00  0.00     0.000 C 
BRANCH   7   8
ATOM      8  C   UNL     1     -36.940  -0.338  13.593  1.00  0.00     0.006 C 
BRANCH   8   9
ATOM      9  C   UNL     1     -38.443  -0.015  13.505  1.00  0.00     0.053 C 
BRANCH   9  10
ATOM     10  C   UNL     1     -39.169  -0.890  12.526  1.00  0.00     0.041 C 
ATOM     11  O   UNL     1     -39.900  -1.831  12.937  1.00  0.00    -0.550 OA
ATOM     12  O   UNL     1     -39.099  -0.628  11.163  1.00  0.00    -0.550 OA
ENDBRANCH   9  10
ENDBRANCH   8   9
ENDBRANCH   7   8
ENDBRANCH   6   7
ENDBRANCH   5   6
ENDBRANCH   4   5
ENDBRANCH   3   4
ENDBRANCH   1   3
BRANCH   2  13
ATOM     13  C   UNL     1     -33.721   2.383  19.486  1.00  0.00     0.027 C 
BRANCH  13  14
ATOM     14  C   UNL     1     -35.135   2.998  19.533  1.00  0.00     0.004 C 
BRANCH  14  15
ATOM     15  C   UNL     1     -36.257   1.962  19.735  1.00  0.00     0.000 C 
BRANCH  15  16
ATOM     16  C   UNL     1     -37.287   1.959  18.590  1.00  0.00     0.000 C 
BRANCH  16  17
ATOM     17  C   UNL     1     -36.968   3.000  17.507  1.00  0.00    -0.000 C 
BRANCH  17  18
ATOM     18  C   UNL     1     -36.752   2.371  16.119  1.00  0.00    -0.000 C 
BRANCH  18  19
ATOM     19  C   UNL     1     -35.758   3.170  15.262  1.00  0.00    -0.003 C 
ATOM     20  C   UNL     1     -36.006   4.679  15.317  1.00  0.00     0.004 C 
ENDBRANCH  18  19
ENDBRANCH  17  18
ENDBRANCH  16  17
ENDBRANCH  15  16
ENDBRANCH  14  15
ENDBRANCH  13  14
ENDBRANCH   2  13
TORSDOF 15
ENDMDL
MODEL 3
REMARK VINA RESULT:    -4.339      9.911     11.784
REMARK INTER + INTRA:         -10.196
REMARK INTER:                  -8.093
REMARK INTRA:                  -2.103
REMARK UNBOUND:                -2.052
REMARK SMILES CCCCCCCCC=CCCCCCCCC(=O)[O-]
REMARK SMILES IDX 10 1 9 2 11 3 12 4 13 5 14 6 15 7 16 8 17 9 18 10 19 11
REMARK SMILES IDX 20 12 8 13 7 14 6 15 5 16 4 17 3 18 2 19 1 20
REMARK H PARENT
REMARK Flexibility Score: inf
ROOT
ATOM      1  C   UNL     1     -29.990  -8.588  23.712  1.00  0.00    -0.031 C 
ATOM      2  C   UNL     1     -29.145  -9.268  22.914  1.00  0.00    -0.031 C 
ENDROOT
BRANCH   1   3
ATOM      3  C   UNL     1     -29.835  -7.143  24.117  1.00  0.00     0.027 C 
BRANCH   3   4
ATOM      4  C   UNL     1     -29.141  -7.024  25.478  1.00  0.00     0.004 C 
BRANCH   4   5
ATOM      5  C   UNL     1     -28.089  -5.912  25.478  1.00  0.00     0.000 C 
BRANCH   5   6
ATOM      6  C   UNL     1     -27.625  -5.598  24.047  1.00  0.00     0.000 C 
BRANCH   6   7
ATOM      7  C   UNL     1     -27.961  -4.150  23.635  1.00  0.00     0.000 C 
BRANCH   7   8
ATOM      8  C   UNL     1     -28.785  -4.048  22.336  1.00  0.00     0.006 C 
BRANCH   8   9
ATOM      9  C   UNL     1     -30.303  -4.204  22.541  1.00  0.00     0.053 C 
BRANCH   9  10
ATOM     10  C   UNL     1     -31.105  -3.302  21.649  1.00  0.00     0.041 C 
ATOM     11  O   UNL     1     -31.103  -3.480  20.402  1.00  0.00    -0.550 OA
ATOM     12  O   UNL     1     -31.910  -2.310  22.195  1.00  0.00    -0.550 OA
ENDBRANCH   9  10
ENDBRANCH   8   9
ENDBRANCH   7   8
ENDBRANCH   6   7
ENDBRANCH   5   6
ENDBRANCH   4   5
ENDBRANCH   3   4
ENDBRANCH   1   3
BRANCH   2  13
ATOM     13  C   UNL     1     -27.855  -8.728  22.344  1.00  0.00     0.027 C 
BRANCH  13  14
ATOM     14  C   UNL     1     -27.979  -8.409  20.840  1.00  0.00     0.004 C 
BRANCH  14  15
ATOM     15  C   UNL     1     -29.149  -9.130  20.145  1.00  0.00     0.000 C 
BRANCH  15  16
ATOM     16  C   UNL     1     -30.033  -8.181  19.314  1.00  0.00     0.000 C 
BRANCH  16  17
ATOM     17  C   UNL     1     -29.884  -6.713  19.739  1.00  0.00    -0.000 C 
BRANCH  17  18
ATOM     18  C   UNL     1     -29.339  -5.818  18.612  1.00  0.00    -0.000 C 
BRANCH  18  19
ATOM     19  C   UNL     1     -29.519  -6.451  17.224  1.00  0.00    -0.003 C 
ATOM     20  C   UNL     1     -29.389  -5.435  16.087  1.00  0.00     0.004 C 
ENDBRANCH  18  19
ENDBRANCH  17  18
ENDBRANCH  16  17
ENDBRANCH  15  16
ENDBRANCH  14  15
ENDBRANCH  13  14
ENDBRANCH   2  13
TORSDOF 15
ENDMDL
MODEL 4
REMARK VINA RESULT:    -4.329     10.735     12.237
REMARK INTER + INTRA:         -10.177
REMARK INTER:                  -7.607
REMARK INTRA:                  -2.570
REMARK UNBOUND:                -2.052
REMARK SMILES CCCCCCCCC=CCCCCCCCC(=O)[O-]
REMARK SMILES IDX 10 1 9 2 11 3 12 4 13 5 14 6 15 7 16 8 17 9 18 10 19 11
REMARK SMILES IDX 20 12 8 13 7 14 6 15 5 16 4 17 3 18 2 19 1 20
REMARK H PARENT
REMARK Flexibility Score: inf
ROOT
ATOM      1  C   UNL     1     -27.683  -4.415  23.984  1.00  0.00    -0.031 C 
ATOM      2  C   UNL     1     -28.586  -4.297  22.992  1.00  0.00    -0.031 C 
ENDROOT
BRANCH   1   3
ATOM      3  C   UNL     1     -27.338  -5.695  24.703  1.00  0.00     0.027 C 
BRANCH   3   4
ATOM      4  C   UNL     1     -27.268  -5.475  26.218  1.00  0.00     0.004 C 
BRANCH   4   5
ATOM      5  C   UNL     1     -28.394  -6.211  26.948  1.00  0.00     0.000 C 
BRANCH   5   6
ATOM      6  C   UNL     1     -29.285  -6.972  25.953  1.00  0.00     0.000 C 
BRANCH   6   7
ATOM      7  C   UNL     1     -30.452  -7.694  26.657  1.00  0.00     0.000 C 
BRANCH   7   8
ATOM      8  C   UNL     1     -31.393  -8.442  25.693  1.00  0.00     0.006 C 
BRANCH   8   9
ATOM      9  C   UNL     1     -32.838  -8.581  26.206  1.00  0.00     0.053 C 
BRANCH   9  10
ATOM     10  C   UNL     1     -33.478  -7.256  26.505  1.00  0.00     0.041 C 
ATOM     11  O   UNL     1     -33.869  -6.515  25.563  1.00  0.00    -0.550 OA
ATOM     12  O   UNL     1     -33.709  -6.868  27.819  1.00  0.00    -0.550 OA
ENDBRANCH   9  10
ENDBRANCH   8   9
ENDBRANCH   7   8
ENDBRANCH   6   7
ENDBRANCH   5   6
ENDBRANCH   4   5
ENDBRANCH   3   4
ENDBRANCH   1   3
BRANCH   2  13
ATOM     13  C   UNL     1     -29.466  -5.410  22.474  1.00  0.00     0.027 C 
BRANCH  13  14
ATOM     14  C   UNL     1     -30.950  -5.186  22.833  1.00  0.00     0.004 C 
BRANCH  14  15
ATOM     15  C   UNL     1     -31.825  -6.444  22.672  1.00  0.00     0.000 C 
BRANCH  15  16
ATOM     16  C   UNL     1     -31.473  -7.266  21.417  1.00  0.00     0.000 C 
BRANCH  16  17
ATOM     17  C   UNL     1     -31.373  -8.771  21.707  1.00  0.00    -0.000 C 
BRANCH  17  18
ATOM     18  C   UNL     1     -29.942  -9.314  21.555  1.00  0.00    -0.000 C 
BRANCH  18  19
ATOM     19  C   UNL     1     -29.058  -8.983  22.768  1.00  0.00    -0.003 C 
ATOM     20  C   UNL     1     -27.608  -8.684  22.382  1.00  0.00     0.004 C 
ENDBRANCH  18  19
ENDBRANCH  17  18
ENDBRANCH  16  17
ENDBRANCH  15  16
ENDBRANCH  14  15
ENDBRANCH  13  14
ENDBRANCH   2  13
TORSDOF 15
ENDMDL
MODEL 5
REMARK VINA RESULT:    -4.327     10.853     13.568
REMARK INTER + INTRA:         -10.173
REMARK INTER:                  -7.764
REMARK INTRA:                  -2.409
REMARK UNBOUND:                -2.052
REMARK SMILES CCCCCCCCC=CCCCCCCCC(=O)[O-]
REMARK SMILES IDX 10 1 9 2 11 3 12 4 13 5 14 6 15 7 16 8 17 9 18 10 19 11
REMARK SMILES IDX 20 12 8 13 7 14 6 15 5 16 4 17 3 18 2 19 1 20
REMARK H PARENT
REMARK Flexibility Score: inf
ROOT
ATOM      1  C   UNL     1     -28.499  -8.606  21.188  1.00  0.00    -0.031 C 
ATOM      2  C   UNL     1     -28.192  -8.163  22.423  1.00  0.00    -0.031 C 
ENDROOT
BRANCH   1   3
ATOM      3  C   UNL     1     -29.847  -9.129  20.760  1.00  0.00     0.027 C 
BRANCH   3   4
ATOM      4  C   UNL     1     -29.754  -9.856  19.414  1.00  0.00     0.004 C 
BRANCH   4   5
ATOM      5  C   UNL     1     -28.688  -9.233  18.509  1.00  0.00     0.000 C 
BRANCH   5   6
ATOM      6  C   UNL     1     -29.333  -8.561  17.287  1.00  0.00     0.000 C 
BRANCH   6   7
ATOM      7  C   UNL     1     -29.854  -7.146  17.613  1.00  0.00     0.000 C 
BRANCH   7   8
ATOM      8  C   UNL     1     -30.298  -6.345  16.373  1.00  0.00     0.006 C 
BRANCH   8   9
ATOM      9  C   UNL     1     -29.326  -5.222  15.969  1.00  0.00     0.053 C 
BRANCH   9  10
ATOM     10  C   UNL     1     -28.578  -5.529  14.704  1.00  0.00     0.041 C 
ATOM     11  O   UNL     1     -28.431  -6.723  14.329  1.00  0.00    -0.550 OA
ATOM     12  O   UNL     1     -28.102  -4.498  13.902  1.00  0.00    -0.550 OA
ENDBRANCH   9  10
ENDBRANCH   8   9
ENDBRANCH   7   8
ENDBRANCH   6   7
ENDBRANCH   5   6
ENDBRANCH   4   5
ENDBRANCH   3   4
ENDBRANCH   1   3
BRANCH   2  13
ATOM     13  C   UNL     1     -29.119  -8.181  23.614  1.00  0.00     0.027 C 
BRANCH  13  14
ATOM     14  C   UNL     1     -29.053  -6.866  24.417  1.00  0.00     0.004 C 
BRANCH  14  15
ATOM     15  C   UNL     1     -27.728  -6.099  24.246  1.00  0.00     0.000 C 
BRANCH  15  16
ATOM     16  C   UNL     1     -27.926  -4.662  23.729  1.00  0.00     0.000 C 
BRANCH  16  17
ATOM     17  C   UNL     1     -29.247  -4.487  22.965  1.00  0.00    -0.000 C 
BRANCH  17  18
ATOM     18  C   UNL     1     -29.068  -4.561  21.439  1.00  0.00    -0.000 C 
BRANCH  18  19
ATOM     19  C   UNL     1     -30.203  -5.337  20.753  1.00  0.00    -0.003 C 
ATOM     20  C   UNL     1     -31.294  -5.779  21.731  1.00  0.00     0.004 C 
ENDBRANCH  18  19
ENDBRANCH  17  18
ENDBRANCH  16  17
ENDBRANCH  15  16
ENDBRANCH  14  15
ENDBRANCH  13  14
ENDBRANCH   2  13
TORSDOF 15
ENDMDL
MODEL 6
REMARK VINA RESULT:    -4.318      2.084      2.795
REMARK INTER + INTRA:         -10.157
REMARK INTER:                  -7.377
REMARK INTRA:                  -2.779
REMARK UNBOUND:                -2.052
REMARK SMILES CCCCCCCCC=CCCCCCCCC(=O)[O-]
REMARK SMILES IDX 10 1 9 2 11 3 12 4 13 5 14 6 15 7 16 8 17 9 18 10 19 11
REMARK SMILES IDX 20 12 8 13 7 14 6 15 5 16 4 17 3 18 2 19 1 20
REMARK H PARENT
REMARK Flexibility Score: inf
ROOT
ATOM      1  C   UNL     1     -34.852   2.919  19.002  1.00  0.00    -0.031 C 
ATOM      2  C   UNL     1     -33.768   2.597  18.272  1.00  0.00    -0.031 C 
ENDROOT
BRANCH   1   3
ATOM      3  C   UNL     1     -35.598   1.981  19.917  1.00  0.00     0.027 C 
BRANCH   3   4
ATOM      4  C   UNL     1     -37.026   1.739  19.415  1.00  0.00     0.004 C 
BRANCH   4   5
ATOM      5  C   UNL     1     -37.288   0.253  19.155  1.00  0.00     0.000 C 
BRANCH   5   6
ATOM      6  C   UNL     1     -38.467   0.066  18.187  1.00  0.00     0.000 C 
BRANCH   6   7
ATOM      7  C   UNL     1     -39.450  -1.018  18.675  1.00  0.00     0.000 C 
BRANCH   7   8
ATOM      8  C   UNL     1     -39.306  -1.361  20.170  1.00  0.00     0.006 C 
BRANCH   8   9
ATOM      9  C   UNL     1     -40.367  -0.704  21.072  1.00  0.00     0.053 C 
BRANCH   9  10
ATOM     10  C   UNL     1     -39.810   0.410  21.909  1.00  0.00     0.041 C 
ATOM     11  O   UNL     1     -40.048   1.610  21.607  1.00  0.00    -0.550 OA
ATOM     12  O   UNL     1     -39.087   0.128  23.062  1.00  0.00    -0.550 OA
ENDBRANCH   9  10
ENDBRANCH   8   9
ENDBRANCH   7   8
ENDBRANCH   6   7
ENDBRANCH   5   6
ENDBRANCH   4   5
ENDBRANCH   3   4
ENDBRANCH   1   3
BRANCH   2  13
ATOM     13  C   UNL     1     -33.151   1.221  18.183  1.00  0.00     0.027 C 
BRANCH  13  14
ATOM     14  C   UNL     1     -33.383   0.573  16.802  1.00  0.00     0.004 C 
BRANCH  14  15
ATOM     15  C   UNL     1     -34.723  -0.178  16.685  1.00  0.00     0.000 C 
BRANCH  15  16
ATOM     16  C   UNL     1     -35.541   0.239  15.448  1.00  0.00     0.000 C 
BRANCH  16  17
ATOM     17  C   UNL     1     -35.658   1.764  15.305  1.00  0.00    -0.000 C 
BRANCH  17  18
ATOM     18  C   UNL     1     -37.057   2.291  15.670  1.00  0.00    -0.000 C 
BRANCH  18  19
ATOM     19  C   UNL     1     -37.025   3.751  16.149  1.00  0.00    -0.003 C 
ATOM     20  C   UNL     1     -36.160   4.648  15.262  1.00  0.00     0.004 C 
ENDBRANCH  18  19
ENDBRANCH  17  18
ENDBRANCH  16  17
ENDBRANCH  15  16
ENDBRANCH  14  15
ENDBRANCH  13  14
ENDBRANCH   2  13
TORSDOF 15
ENDMDL
MODEL 7
REMARK VINA RESULT:    -4.318     10.660     13.581
REMARK INTER + INTRA:         -10.156
REMARK INTER:                  -8.722
REMARK INTRA:                  -1.435
REMARK UNBOUND:                -2.052
REMARK SMILES CCCCCCCCC=CCCCCCCCC(=O)[O-]
REMARK SMILES IDX 10 1 9 2 11 3 12 4 13 5 14 6 15 7 16 8 17 9 18 10 19 11
REMARK SMILES IDX 20 12 8 13 7 14 6 15 5 16 4 17 3 18 2 19 1 20
REMARK H PARENT
REMARK Flexibility Score: inf
ROOT
ATOM      1  C   UNL     1     -27.823  -8.521  20.921  1.00  0.00    -0.031 C 
ATOM      2  C   UNL     1     -28.346  -8.742  22.142  1.00  0.00    -0.031 C 
ENDROOT
BRANCH   1   3
ATOM      3  C   UNL     1     -28.562  -7.923  19.750  1.00  0.00     0.027 C 
BRANCH   3   4
ATOM      4  C   UNL     1     -28.865  -8.986  18.688  1.00  0.00     0.004 C 
BRANCH   4   5
ATOM      5  C   UNL     1     -29.346  -8.354  17.379  1.00  0.00     0.000 C 
BRANCH   5   6
ATOM      6  C   UNL     1     -29.631  -6.856  17.568  1.00  0.00     0.000 C 
BRANCH   6   7
ATOM      7  C   UNL     1     -31.102  -6.504  17.261  1.00  0.00     0.000 C 
BRANCH   7   8
ATOM      8  C   UNL     1     -31.410  -4.996  17.337  1.00  0.00     0.006 C 
BRANCH   8   9
ATOM      9  C   UNL     1     -31.316  -4.267  15.984  1.00  0.00     0.053 C 
BRANCH   9  10
ATOM     10  C   UNL     1     -29.929  -3.775  15.685  1.00  0.00     0.041 C 
ATOM     11  O   UNL     1     -29.164  -4.450  14.945  1.00  0.00    -0.550 OA
ATOM     12  O   UNL     1     -29.503  -2.541  16.161  1.00  0.00    -0.550 OA
ENDBRANCH   9  10
ENDBRANCH   8   9
ENDBRANCH   7   8
ENDBRANCH   6   7
ENDBRANCH   5   6
ENDBRANCH   4   5
ENDBRANCH   3   4
ENDBRANCH   1   3
BRANCH   2  13
ATOM     13  C   UNL     1     -29.784  -8.501  22.534  1.00  0.00     0.027 C 
BRANCH  13  14
ATOM     14  C   UNL     1     -29.908  -7.446  23.652  1.00  0.00     0.004 C 
BRANCH  14  15
ATOM     15  C   UNL     1     -29.643  -6.004  23.178  1.00  0.00     0.000 C 
BRANCH  15  16
ATOM     16  C   UNL     1     -28.303  -5.440  23.687  1.00  0.00     0.000 C 
BRANCH  16  17
ATOM     17  C   UNL     1     -27.738  -6.238  24.872  1.00  0.00    -0.000 C 
BRANCH  17  18
ATOM     18  C   UNL     1     -27.349  -5.343  26.061  1.00  0.00    -0.000 C 
BRANCH  18  19
ATOM     19  C   UNL     1     -27.945  -5.840  27.387  1.00  0.00    -0.003 C 
ATOM     20  C   UNL     1     -29.088  -6.838  27.186  1.00  0.00     0.004 C 
ENDBRANCH  18  19
ENDBRANCH  17  18
ENDBRANCH  16  17
ENDBRANCH  15  16
ENDBRANCH  14  15
ENDBRANCH  13  14
ENDBRANCH   2  13
TORSDOF 15
ENDMDL
MODEL 8
REMARK VINA RESULT:    -4.312     10.370     12.979
REMARK INTER + INTRA:         -10.145
REMARK INTER:                  -8.004
REMARK INTRA:                  -2.142
REMARK UNBOUND:                -2.052
REMARK SMILES CCCCCCCCC=CCCCCCCCC(=O)[O-]
REMARK SMILES IDX 10 1 9 2 11 3 12 4 13 5 14 6 15 7 16 8 17 9 18 10 19 11
REMARK SMILES IDX 20 12 8 13 7 14 6 15 5 16 4 17 3 18 2 19 1 20
REMARK H PARENT
REMARK Flexibility Score: inf
ROOT
ATOM      1  C   UNL     1     -27.937  -3.991  23.513  1.00  0.00    -0.031 C 
ATOM      2  C   UNL     1     -27.666  -4.883  24.486  1.00  0.00    -0.031 C 
ENDROOT
BRANCH   1   3
ATOM      3  C   UNL     1     -28.366  -4.336  22.109  1.00  0.00     0.027 C 
BRANCH   3   4
ATOM      4  C   UNL     1     -29.885  -4.207  21.950  1.00  0.00     0.004 C 
BRANCH   4   5
ATOM      5  C   UNL     1     -30.348  -4.672  20.567  1.00  0.00     0.000 C 
BRANCH   5   6
ATOM      6  C   UNL     1     -29.176  -4.683  19.572  1.00  0.00     0.000 C 
BRANCH   6   7
ATOM      7  C   UNL     1     -29.642  -4.979  18.132  1.00  0.00     0.000 C 
BRANCH   7   8
ATOM      8  C   UNL     1     -29.446  -3.800  17.159  1.00  0.00     0.006 C 
BRANCH   8   9
ATOM      9  C   UNL     1     -29.846  -4.111  15.705  1.00  0.00     0.053 C 
BRANCH   9  10
ATOM     10  C   UNL     1     -28.795  -4.888  14.967  1.00  0.00     0.041 C 
ATOM     11  O   UNL     1     -28.840  -6.147  14.940  1.00  0.00    -0.550 OA
ATOM     12  O   UNL     1     -27.805  -4.226  14.251  1.00  0.00    -0.550 OA
ENDBRANCH   9  10
ENDBRANCH   8   9
ENDBRANCH   7   8
ENDBRANCH   6   7
ENDBRANCH   5   6
ENDBRANCH   4   5
ENDBRANCH   3   4
ENDBRANCH   1   3
BRANCH   2  13
ATOM     13  C   UNL     1     -27.673  -6.384  24.324  1.00  0.00     0.027 C 
BRANCH  13  14
ATOM     14  C   UNL     1     -29.076  -6.983  24.551  1.00  0.00     0.004 C 
BRANCH  14  15
ATOM     15  C   UNL     1     -29.469  -8.054  23.516  1.00  0.00     0.000 C 
BRANCH  15  16
ATOM     16  C   UNL     1     -28.493  -8.130  22.327  1.00  0.00     0.000 C 
BRANCH  16  17
ATOM     17  C   UNL     1     -29.216  -8.209  20.974  1.00  0.00    -0.000 C 
BRANCH  17  18
ATOM     18  C   UNL     1     -28.249  -8.188  19.778  1.00  0.00    -0.000 C 
BRANCH  18  19
ATOM     19  C   UNL     1     -28.661  -9.173  18.674  1.00  0.00    -0.003 C 
ATOM     20  C   UNL     1     -29.517  -8.520  17.586  1.00  0.00     0.004 C 
ENDBRANCH  18  19
ENDBRANCH  17  18
ENDBRANCH  16  17
ENDBRANCH  15  16
ENDBRANCH  14  15
ENDBRANCH  13  14
ENDBRANCH   2  13
TORSDOF 15
ENDMDL
MODEL 9
REMARK VINA RESULT:    -4.281      1.232      2.638
REMARK INTER + INTRA:         -10.087
REMARK INTER:                  -8.338
REMARK INTRA:                  -1.749
REMARK UNBOUND:                -2.052
REMARK SMILES CCCCCCCCC=CCCCCCCCC(=O)[O-]
REMARK SMILES IDX 10 1 9 2 11 3 12 4 13 5 14 6 15 7 16 8 17 9 18 10 19 11
REMARK SMILES IDX 20 12 8 13 7 14 6 15 5 16 4 17 3 18 2 19 1 20
REMARK H PARENT
REMARK Flexibility Score: inf
ROOT
ATOM      1  C   UNL     1     -38.490   1.090  19.957  1.00  0.00    -0.031 C 
ATOM      2  C   UNL     1     -37.304   1.593  19.564  1.00  0.00    -0.031 C 
ENDROOT
BRANCH   1   3
ATOM      3  C   UNL     1     -38.895   0.824  21.386  1.00  0.00     0.027 C 
BRANCH   3   4
ATOM      4  C   UNL     1     -40.034   1.755  21.818  1.00  0.00     0.004 C 
BRANCH   4   5
ATOM      5  C   UNL     1     -41.285   0.967  22.216  1.00  0.00     0.000 C 
BRANCH   5   6
ATOM      6  C   UNL     1     -41.517   1.041  23.733  1.00  0.00     0.000 C 
BRANCH   6   7
ATOM      7  C   UNL     1     -40.918  -0.176  24.469  1.00  0.00     0.000 C 
BRANCH   7   8
ATOM      8  C   UNL     1     -40.022   0.200  25.665  1.00  0.00     0.006 C 
BRANCH   8   9
ATOM      9  C   UNL     1     -38.878   1.168  25.313  1.00  0.00     0.053 C 
BRANCH   9  10
ATOM     10  C   UNL     1     -38.943   2.451  26.089  1.00  0.00     0.041 C 
ATOM     11  O   UNL     1     -37.885   3.072  26.377  1.00  0.00    -0.550 OA
ATOM     12  O   UNL     1     -40.171   3.001  26.436  1.00  0.00    -0.550 OA
ENDBRANCH   9  10
ENDBRANCH   8   9
ENDBRANCH   7   8
ENDBRANCH   6   7
ENDBRANCH   5   6
ENDBRANCH   4   5
ENDBRANCH   3   4
ENDBRANCH   1   3
BRANCH   2  13
ATOM     13  C   UNL     1     -36.143   1.910  20.477  1.00  0.00     0.027 C 
BRANCH  13  14
ATOM     14  C   UNL     1     -34.802   1.416  19.897  1.00  0.00     0.004 C 
BRANCH  14  15
ATOM     15  C   UNL     1     -33.883   2.549  19.404  1.00  0.00     0.000 C 
BRANCH  15  16
ATOM     16  C   UNL     1     -33.667   2.528  17.879  1.00  0.00     0.000 C 
BRANCH  16  17
ATOM     17  C   UNL     1     -34.309   1.304  17.209  1.00  0.00    -0.000 C 
BRANCH  17  18
ATOM     18  C   UNL     1     -35.420   1.683  16.214  1.00  0.00    -0.000 C 
BRANCH  18  19
ATOM     19  C   UNL     1     -35.722   3.190  16.220  1.00  0.00    -0.003 C 
ATOM     20  C   UNL     1     -37.221   3.494  16.253  1.00  0.00     0.004 C 
ENDBRANCH  18  19
ENDBRANCH  17  18
ENDBRANCH  16  17
ENDBRANCH  15  16
ENDBRANCH  14  15
ENDBRANCH  13  14
ENDBRANCH   2  13
TORSDOF 15
ENDMDL
