MODEL 1
REMARK VINA RESULT:    -5.406      0.000      0.000
REMARK INTER + INTRA:         -10.939
REMARK INTER:                 -10.147
REMARK INTRA:                  -0.792
REMARK UNBOUND:                -0.792
REMARK SMILES O=C([O-])CCCCCCCCCCCCCCC(=O)[O-]
REMARK SMILES IDX 10 1 9 2 8 3 7 4 6 5 5 6 4 7 2 8 1 9 3 10 11 11 12 12 13 13
REMARK SMILES IDX 14 14 15 15 16 16 17 17 18 18 19 19 20 20
REMARK H PARENT
REMARK Flexibility Score: inf
ROOT
ATOM      1  C   UNL     1      -4.402   9.105 -39.924  1.00  0.00     0.000 C 
ENDROOT
BRANCH   1   2
ATOM      2  C   UNL     1      -5.462   8.781 -38.854  1.00  0.00     0.000 C 
BRANCH   2   3
ATOM      3  C   UNL     1      -6.912   8.728 -39.372  1.00  0.00     0.000 C 
BRANCH   3   4
ATOM      4  C   UNL     1      -7.395   7.298 -39.657  1.00  0.00     0.000 C 
BRANCH   4   5
ATOM      5  C   UNL     1      -7.405   7.012 -41.164  1.00  0.00     0.000 C 
BRANCH   5   6
ATOM      6  C   UNL     1      -7.832   5.565 -41.448  1.00  0.00     0.006 C 
BRANCH   6   7
ATOM      7  C   UNL     1      -8.194   4.805 -40.165  1.00  0.00     0.053 C 
BRANCH   7   8
ATOM      8  C   UNL     1      -9.311   3.834 -40.392  1.00  0.00     0.041 C 
ATOM      9  O   UNL     1     -10.292   3.799 -39.604  1.00  0.00    -0.550 OA
ATOM     10  O   UNL     1      -9.283   2.987 -41.493  1.00  0.00    -0.550 OA
ENDBRANCH   7   8
ENDBRANCH   6   7
ENDBRANCH   5   6
ENDBRANCH   4   5
ENDBRANCH   3   4
ENDBRANCH   2   3
ENDBRANCH   1   2
BRANCH   1  11
ATOM     11  C   UNL     1      -3.006   9.447 -39.374  1.00  0.00     0.000 C 
BRANCH  11  12
ATOM     12  C   UNL     1      -1.981   8.302 -39.524  1.00  0.00     0.000 C 
BRANCH  12  13
ATOM     13  C   UNL     1      -0.626   8.640 -38.880  1.00  0.00     0.000 C 
BRANCH  13  14
ATOM     14  C   UNL     1      -0.622  10.006 -38.171  1.00  0.00     0.000 C 
BRANCH  14  15
ATOM     15  C   UNL     1       0.607  10.886 -38.462  1.00  0.00     0.000 C 
BRANCH  15  16
ATOM     16  C   UNL     1       0.475  12.307 -37.888  1.00  0.00     0.006 C 
BRANCH  16  17
ATOM     17  C   UNL     1      -0.552  12.381 -36.752  1.00  0.00     0.053 C 
BRANCH  17  18
ATOM     18  C   UNL     1      -1.512  13.516 -36.947  1.00  0.00     0.041 C 
ATOM     19  O   UNL     1      -2.316  13.831 -36.031  1.00  0.00    -0.550 OA
ATOM     20  O   UNL     1      -1.538  14.204 -38.152  1.00  0.00    -0.550 OA
ENDBRANCH  17  18
ENDBRANCH  16  17
ENDBRANCH  15  16
ENDBRANCH  14  15
ENDBRANCH  13  14
ENDBRANCH  12  13
ENDBRANCH  11  12
ENDBRANCH   1  11
TORSDOF 15
ENDMDL
MODEL 2
REMARK VINA RESULT:    -5.397      4.557      9.507
REMARK INTER + INTRA:         -10.921
REMARK INTER:                 -10.184
REMARK INTRA:                  -0.736
REMARK UNBOUND:                -0.792
REMARK SMILES O=C([O-])CCCCCCCCCCCCCCC(=O)[O-]
REMARK SMILES IDX 10 1 9 2 8 3 7 4 6 5 5 6 4 7 2 8 1 9 3 10 11 11 12 12 13 13
REMARK SMILES IDX 14 14 15 15 16 16 17 17 18 18 19 19 20 20
REMARK H PARENT
REMARK Flexibility Score: inf
ROOT
ATOM      1  C   UNL     1      -0.968   8.639 -38.778  1.00  0.00     0.000 C 
ENDROOT
BRANCH   1   2
ATOM      2  C   UNL     1      -1.016   7.753 -40.038  1.00  0.00     0.000 C 
BRANCH   2   3
ATOM      3  C   UNL     1      -0.178   8.267 -41.225  1.00  0.00     0.000 C 
BRANCH   3   4
ATOM      4  C   UNL     1       0.471   7.135 -42.035  1.00  0.00     0.000 C 
BRANCH   4   5
ATOM      5  C   UNL     1       0.307   5.787 -41.323  1.00  0.00     0.000 C 
BRANCH   5   6
ATOM      6  C   UNL     1       1.559   4.914 -41.501  1.00  0.00     0.006 C 
BRANCH   6   7
ATOM      7  C   UNL     1       2.742   5.707 -42.070  1.00  0.00     0.053 C 
BRANCH   7   8
ATOM      8  C   UNL     1       4.050   5.221 -41.525  1.00  0.00     0.041 C 
ATOM      9  O   UNL     1       4.105   4.696 -40.382  1.00  0.00    -0.550 OA
ATOM     10  O   UNL     1       5.203   5.319 -42.293  1.00  0.00    -0.550 OA
ENDBRANCH   7   8
ENDBRANCH   6   7
ENDBRANCH   5   6
ENDBRANCH   4   5
ENDBRANCH   3   4
ENDBRANCH   2   3
ENDBRANCH   1   2
BRANCH   1  11
ATOM     11  C   UNL     1      -2.274   9.392 -38.463  1.00  0.00     0.000 C 
BRANCH  11  12
ATOM     12  C   UNL     1      -3.418   9.094 -39.456  1.00  0.00     0.000 C 
BRANCH  12  13
ATOM     13  C   UNL     1      -4.773   8.912 -38.752  1.00  0.00     0.000 C 
BRANCH  13  14
ATOM     14  C   UNL     1      -5.973   9.184 -39.678  1.00  0.00     0.000 C 
BRANCH  14  15
ATOM     15  C   UNL     1      -7.172   8.240 -39.482  1.00  0.00     0.000 C 
BRANCH  15  16
ATOM     16  C   UNL     1      -7.296   7.188 -40.598  1.00  0.00     0.006 C 
BRANCH  16  17
ATOM     17  C   UNL     1      -7.886   5.868 -40.087  1.00  0.00     0.053 C 
BRANCH  17  18
ATOM     18  C   UNL     1      -8.183   4.924 -41.212  1.00  0.00     0.041 C 
ATOM     19  O   UNL     1      -7.872   5.226 -42.394  1.00  0.00    -0.550 OA
ATOM     20  O   UNL     1      -8.832   3.723 -40.958  1.00  0.00    -0.550 OA
ENDBRANCH  17  18
ENDBRANCH  16  17
ENDBRANCH  15  16
ENDBRANCH  14  15
ENDBRANCH  13  14
ENDBRANCH  12  13
ENDBRANCH  11  12
ENDBRANCH   1  11
TORSDOF 15
ENDMDL
MODEL 3
REMARK VINA RESULT:    -5.370      1.161      1.868
REMARK INTER + INTRA:         -10.871
REMARK INTER:                 -10.207
REMARK INTRA:                  -0.663
REMARK UNBOUND:                -0.792
REMARK SMILES O=C([O-])CCCCCCCCCCCCCCC(=O)[O-]
REMARK SMILES IDX 10 1 9 2 8 3 7 4 6 5 5 6 4 7 2 8 1 9 3 10 11 11 12 12 13 13
REMARK SMILES IDX 14 14 15 15 16 16 17 17 18 18 19 19 20 20
REMARK H PARENT
REMARK Flexibility Score: inf
ROOT
ATOM      1  C   UNL     1      -3.044   9.354 -39.739  1.00  0.00     0.000 C 
ENDROOT
BRANCH   1   2
ATOM      2  C   UNL     1      -4.470   8.901 -39.374  1.00  0.00     0.000 C 
BRANCH   2   3
ATOM      3  C   UNL     1      -5.598   9.773 -39.956  1.00  0.00     0.000 C 
BRANCH   3   4
ATOM      4  C   UNL     1      -6.988   9.388 -39.428  1.00  0.00     0.000 C 
BRANCH   4   5
ATOM      5  C   UNL     1      -7.055   7.891 -39.100  1.00  0.00     0.000 C 
BRANCH   5   6
ATOM      6  C   UNL     1      -7.395   7.068 -40.351  1.00  0.00     0.006 C 
BRANCH   6   7
ATOM      7  C   UNL     1      -7.794   5.628 -40.006  1.00  0.00     0.053 C 
BRANCH   7   8
ATOM      8  C   UNL     1      -8.183   4.853 -41.228  1.00  0.00     0.041 C 
ATOM      9  O   UNL     1      -8.905   3.827 -41.126  1.00  0.00    -0.550 OA
ATOM     10  O   UNL     1      -7.772   5.282 -42.484  1.00  0.00    -0.550 OA
ENDBRANCH   7   8
ENDBRANCH   6   7
ENDBRANCH   5   6
ENDBRANCH   4   5
ENDBRANCH   3   4
ENDBRANCH   2   3
ENDBRANCH   1   2
BRANCH   1  11
ATOM     11  C   UNL     1      -1.930   8.358 -39.368  1.00  0.00     0.000 C 
BRANCH  11  12
ATOM     12  C   UNL     1      -0.898   8.924 -38.368  1.00  0.00     0.000 C 
BRANCH  12  13
ATOM     13  C   UNL     1      -0.830  10.460 -38.403  1.00  0.00     0.000 C 
BRANCH  13  14
ATOM     14  C   UNL     1       0.599  11.003 -38.217  1.00  0.00     0.000 C 
BRANCH  14  15
ATOM     15  C   UNL     1       0.712  12.537 -38.171  1.00  0.00     0.000 C 
BRANCH  15  16
ATOM     16  C   UNL     1      -0.586  13.219 -37.704  1.00  0.00     0.006 C 
BRANCH  16  17
ATOM     17  C   UNL     1      -0.801  13.082 -36.192  1.00  0.00     0.053 C 
BRANCH  17  18
ATOM     18  C   UNL     1      -2.227  12.761 -35.863  1.00  0.00     0.041 C 
ATOM     19  O   UNL     1      -2.602  11.563 -35.766  1.00  0.00    -0.550 OA
ATOM     20  O   UNL     1      -3.150  13.785 -35.696  1.00  0.00    -0.550 OA
ENDBRANCH  17  18
ENDBRANCH  16  17
ENDBRANCH  15  16
ENDBRANCH  14  15
ENDBRANCH  13  14
ENDBRANCH  12  13
ENDBRANCH  11  12
ENDBRANCH   1  11
TORSDOF 15
ENDMDL
MODEL 4
REMARK VINA RESULT:    -5.252      0.607      9.728
REMARK INTER + INTRA:         -10.649
REMARK INTER:                  -9.838
REMARK INTRA:                  -0.811
REMARK UNBOUND:                -0.792
REMARK SMILES O=C([O-])CCCCCCCCCCCCCCC(=O)[O-]
REMARK SMILES IDX 10 1 9 2 8 3 7 4 6 5 5 6 4 7 2 8 1 9 3 10 11 11 12 12 13 13
REMARK SMILES IDX 14 14 15 15 16 16 17 17 18 18 19 19 20 20
REMARK H PARENT
REMARK Flexibility Score: inf
ROOT
ATOM      1  C   UNL     1      -4.074   9.351 -39.933  1.00  0.00     0.000 C 
ENDROOT
BRANCH   1   2
ATOM      2  C   UNL     1      -2.554   9.358 -40.177  1.00  0.00     0.000 C 
BRANCH   2   3
ATOM      3  C   UNL     1      -1.761   8.315 -39.366  1.00  0.00     0.000 C 
BRANCH   3   4
ATOM      4  C   UNL     1      -0.807   8.949 -38.343  1.00  0.00     0.000 C 
BRANCH   4   5
ATOM      5  C   UNL     1      -0.981  10.473 -38.302  1.00  0.00     0.000 C 
BRANCH   5   6
ATOM      6  C   UNL     1       0.382  11.182 -38.294  1.00  0.00     0.006 C 
BRANCH   6   7
ATOM      7  C   UNL     1       0.436  12.322 -37.269  1.00  0.00     0.053 C 
BRANCH   7   8
ATOM      8  C   UNL     1      -0.910  12.948 -37.064  1.00  0.00     0.041 C 
ATOM      9  O   UNL     1      -1.325  13.834 -37.857  1.00  0.00    -0.550 OA
ATOM     10  O   UNL     1      -1.718  12.531 -36.014  1.00  0.00    -0.550 OA
ENDBRANCH   7   8
ENDBRANCH   6   7
ENDBRANCH   5   6
ENDBRANCH   4   5
ENDBRANCH   3   4
ENDBRANCH   2   3
ENDBRANCH   1   2
BRANCH   1  11
ATOM     11  C   UNL     1      -4.527   8.591 -38.673  1.00  0.00     0.000 C 
BRANCH  11  12
ATOM     12  C   UNL     1      -5.948   8.967 -38.198  1.00  0.00     0.000 C 
BRANCH  12  13
ATOM     13  C   UNL     1      -6.978   8.922 -39.339  1.00  0.00     0.000 C 
BRANCH  13  14
ATOM     14  C   UNL     1      -7.427   7.491 -39.687  1.00  0.00     0.000 C 
BRANCH  14  15
ATOM     15  C   UNL     1      -7.436   7.159 -41.190  1.00  0.00     0.000 C 
BRANCH  15  16
ATOM     16  C   UNL     1      -7.668   5.665 -41.472  1.00  0.00     0.006 C 
BRANCH  16  17
ATOM     17  C   UNL     1      -7.949   4.870 -40.191  1.00  0.00     0.053 C 
BRANCH  17  18
ATOM     18  C   UNL     1      -9.165   4.005 -40.333  1.00  0.00     0.041 C 
ATOM     19  O   UNL     1     -10.077   4.046 -39.466  1.00  0.00    -0.550 OA
ATOM     20  O   UNL     1      -9.275   3.131 -41.406  1.00  0.00    -0.550 OA
ENDBRANCH  17  18
ENDBRANCH  16  17
ENDBRANCH  15  16
ENDBRANCH  14  15
ENDBRANCH  13  14
ENDBRANCH  12  13
ENDBRANCH  11  12
ENDBRANCH   1  11
TORSDOF 15
ENDMDL
MODEL 5
REMARK VINA RESULT:    -5.222      1.161      9.509
REMARK INTER + INTRA:         -10.593
REMARK INTER:                  -9.540
REMARK INTRA:                  -1.053
REMARK UNBOUND:                -0.792
REMARK SMILES O=C([O-])CCCCCCCCCCCCCCC(=O)[O-]
REMARK SMILES IDX 10 1 9 2 8 3 7 4 6 5 5 6 4 7 2 8 1 9 3 10 11 11 12 12 13 13
REMARK SMILES IDX 14 14 15 15 16 16 17 17 18 18 19 19 20 20
REMARK H PARENT
REMARK Flexibility Score: inf
ROOT
ATOM      1  C   UNL     1      -2.772   9.300 -40.055  1.00  0.00     0.000 C 
ENDROOT
BRANCH   1   2
ATOM      2  C   UNL     1      -1.884   8.223 -39.404  1.00  0.00     0.000 C 
BRANCH   2   3
ATOM      3  C   UNL     1      -0.716   8.768 -38.559  1.00  0.00     0.000 C 
BRANCH   3   4
ATOM      4  C   UNL     1      -0.846  10.267 -38.253  1.00  0.00     0.000 C 
BRANCH   4   5
ATOM      5  C   UNL     1       0.518  10.964 -38.335  1.00  0.00     0.000 C 
BRANCH   5   6
ATOM      6  C   UNL     1       0.469  12.349 -37.673  1.00  0.00     0.006 C 
BRANCH   6   7
ATOM      7  C   UNL     1      -0.962  12.889 -37.562  1.00  0.00     0.053 C 
BRANCH   7   8
ATOM      8  C   UNL     1      -1.397  13.016 -36.134  1.00  0.00     0.041 C 
ATOM      9  O   UNL     1      -0.731  13.717 -35.327  1.00  0.00    -0.550 OA
ATOM     10  O   UNL     1      -2.557  12.385 -35.701  1.00  0.00    -0.550 OA
ENDBRANCH   7   8
ENDBRANCH   6   7
ENDBRANCH   5   6
ENDBRANCH   4   5
ENDBRANCH   3   4
ENDBRANCH   2   3
ENDBRANCH   1   2
BRANCH   1  11
ATOM     11  C   UNL     1      -4.253   9.262 -39.636  1.00  0.00     0.000 C 
BRANCH  11  12
ATOM     12  C   UNL     1      -4.465   9.027 -38.124  1.00  0.00     0.000 C 
BRANCH  12  13
ATOM     13  C   UNL     1      -5.911   8.626 -37.790  1.00  0.00     0.000 C 
BRANCH  13  14
ATOM     14  C   UNL     1      -6.929   9.118 -38.836  1.00  0.00     0.000 C 
BRANCH  14  15
ATOM     15  C   UNL     1      -7.954   8.065 -39.293  1.00  0.00     0.000 C 
BRANCH  15  16
ATOM     16  C   UNL     1      -7.380   7.079 -40.324  1.00  0.00     0.006 C 
BRANCH  16  17
ATOM     17  C   UNL     1      -7.771   5.628 -40.017  1.00  0.00     0.053 C 
BRANCH  17  18
ATOM     18  C   UNL     1      -8.149   4.882 -41.261  1.00  0.00     0.041 C 
ATOM     19  O   UNL     1      -7.775   5.299 -42.389  1.00  0.00    -0.550 OA
ATOM     20  O   UNL     1      -8.941   3.745 -41.176  1.00  0.00    -0.550 OA
ENDBRANCH  17  18
ENDBRANCH  16  17
ENDBRANCH  15  16
ENDBRANCH  14  15
ENDBRANCH  13  14
ENDBRANCH  12  13
ENDBRANCH  11  12
ENDBRANCH   1  11
TORSDOF 15
ENDMDL
MODEL 6
REMARK VINA RESULT:    -5.162      2.410     10.103
REMARK INTER + INTRA:         -10.480
REMARK INTER:                  -9.725
REMARK INTRA:                  -0.755
REMARK UNBOUND:                -0.792
REMARK SMILES O=C([O-])CCCCCCCCCCCCCCC(=O)[O-]
REMARK SMILES IDX 10 1 9 2 8 3 7 4 6 5 5 6 4 7 2 8 1 9 3 10 11 11 12 12 13 13
REMARK SMILES IDX 14 14 15 15 16 16 17 17 18 18 19 19 20 20
REMARK H PARENT
REMARK Flexibility Score: inf
ROOT
ATOM      1  C   UNL     1      -1.485   8.540 -39.014  1.00  0.00     0.000 C 
ENDROOT
BRANCH   1   2
ATOM      2  C   UNL     1      -0.641   9.697 -38.446  1.00  0.00     0.000 C 
BRANCH   2   3
ATOM      3  C   UNL     1      -1.455  10.862 -37.850  1.00  0.00     0.000 C 
BRANCH   3   4
ATOM      4  C   UNL     1      -0.596  12.096 -37.540  1.00  0.00     0.000 C 
BRANCH   4   5
ATOM      5  C   UNL     1       0.894  11.796 -37.752  1.00  0.00     0.000 C 
BRANCH   5   6
ATOM      6  C   UNL     1       1.437  12.544 -38.978  1.00  0.00     0.006 C 
BRANCH   6   7
ATOM      7  C   UNL     1       1.794  11.592 -40.127  1.00  0.00     0.053 C 
BRANCH   7   8
ATOM      8  C   UNL     1       2.919  12.126 -40.960  1.00  0.00     0.041 C 
ATOM      9  O   UNL     1       3.947  11.429 -41.161  1.00  0.00    -0.550 OA
ATOM     10  O   UNL     1       2.817  13.384 -41.541  1.00  0.00    -0.550 OA
ENDBRANCH   7   8
ENDBRANCH   6   7
ENDBRANCH   5   6
ENDBRANCH   4   5
ENDBRANCH   3   4
ENDBRANCH   2   3
ENDBRANCH   1   2
BRANCH   1  11
ATOM     11  C   UNL     1      -3.009   8.732 -38.905  1.00  0.00     0.000 C 
BRANCH  11  12
ATOM     12  C   UNL     1      -3.648   9.351 -40.167  1.00  0.00     0.000 C 
BRANCH  12  13
ATOM     13  C   UNL     1      -5.146   9.645 -39.981  1.00  0.00     0.000 C 
BRANCH  13  14
ATOM     14  C   UNL     1      -5.829   8.683 -38.991  1.00  0.00     0.000 C 
BRANCH  14  15
ATOM     15  C   UNL     1      -7.260   8.266 -39.371  1.00  0.00     0.000 C 
BRANCH  15  16
ATOM     16  C   UNL     1      -7.303   7.267 -40.540  1.00  0.00     0.006 C 
BRANCH  16  17
ATOM     17  C   UNL     1      -7.718   5.862 -40.087  1.00  0.00     0.053 C 
BRANCH  17  18
ATOM     18  C   UNL     1      -8.067   4.986 -41.252  1.00  0.00     0.041 C 
ATOM     19  O   UNL     1      -7.696   5.298 -42.414  1.00  0.00    -0.550 OA
ATOM     20  O   UNL     1      -8.830   3.842 -41.058  1.00  0.00    -0.550 OA
ENDBRANCH  17  18
ENDBRANCH  16  17
ENDBRANCH  15  16
ENDBRANCH  14  15
ENDBRANCH  13  14
ENDBRANCH  12  13
ENDBRANCH  11  12
ENDBRANCH   1  11
TORSDOF 15
ENDMDL
MODEL 7
REMARK VINA RESULT:    -5.017      4.591      5.844
REMARK INTER + INTRA:         -10.209
REMARK INTER:                  -9.401
REMARK INTRA:                  -0.808
REMARK UNBOUND:                -0.792
REMARK SMILES O=C([O-])CCCCCCCCCCCCCCC(=O)[O-]
REMARK SMILES IDX 10 1 9 2 8 3 7 4 6 5 5 6 4 7 2 8 1 9 3 10 11 11 12 12 13 13
REMARK SMILES IDX 14 14 15 15 16 16 17 17 18 18 19 19 20 20
REMARK H PARENT
REMARK Flexibility Score: inf
ROOT
ATOM      1  C   UNL     1      -2.309   9.652 -38.921  1.00  0.00     0.000 C 
ENDROOT
BRANCH   1   2
ATOM      2  C   UNL     1      -3.599   8.878 -39.250  1.00  0.00     0.000 C 
BRANCH   2   3
ATOM      3  C   UNL     1      -4.596   9.630 -40.153  1.00  0.00     0.000 C 
BRANCH   3   4
ATOM      4  C   UNL     1      -6.054   9.476 -39.697  1.00  0.00     0.000 C 
BRANCH   4   5
ATOM      5  C   UNL     1      -6.327   8.049 -39.206  1.00  0.00     0.000 C 
BRANCH   5   6
ATOM      6  C   UNL     1      -7.226   7.289 -40.193  1.00  0.00     0.006 C 
BRANCH   6   7
ATOM      7  C   UNL     1      -7.388   5.812 -39.811  1.00  0.00     0.053 C 
BRANCH   7   8
ATOM      8  C   UNL     1      -8.032   5.023 -40.909  1.00  0.00     0.041 C 
ATOM      9  O   UNL     1      -8.836   4.093 -40.636  1.00  0.00    -0.550 OA
ATOM     10  O   UNL     1      -7.768   5.335 -42.237  1.00  0.00    -0.550 OA
ENDBRANCH   7   8
ENDBRANCH   6   7
ENDBRANCH   5   6
ENDBRANCH   4   5
ENDBRANCH   3   4
ENDBRANCH   2   3
ENDBRANCH   1   2
BRANCH   1  11
ATOM     11  C   UNL     1      -1.052   8.779 -38.753  1.00  0.00     0.000 C 
BRANCH  11  12
ATOM     12  C   UNL     1      -0.905   7.687 -39.835  1.00  0.00     0.000 C 
BRANCH  12  13
ATOM     13  C   UNL     1      -0.295   8.230 -41.137  1.00  0.00     0.000 C 
BRANCH  13  14
ATOM     14  C   UNL     1       0.434   7.150 -41.956  1.00  0.00     0.000 C 
BRANCH  14  15
ATOM     15  C   UNL     1       0.392   5.735 -41.352  1.00  0.00     0.000 C 
BRANCH  15  16
ATOM     16  C   UNL     1       1.629   4.893 -41.710  1.00  0.00     0.006 C 
BRANCH  16  17
ATOM     17  C   UNL     1       2.828   5.763 -42.105  1.00  0.00     0.053 C 
BRANCH  17  18
ATOM     18  C   UNL     1       4.110   5.226 -41.544  1.00  0.00     0.041 C 
ATOM     19  O   UNL     1       4.134   4.715 -40.394  1.00  0.00    -0.550 OA
ATOM     20  O   UNL     1       5.283   5.318 -42.281  1.00  0.00    -0.550 OA
ENDBRANCH  17  18
ENDBRANCH  16  17
ENDBRANCH  15  16
ENDBRANCH  14  15
ENDBRANCH  13  14
ENDBRANCH  12  13
ENDBRANCH  11  12
ENDBRANCH   1  11
TORSDOF 15
ENDMDL
MODEL 8
REMARK VINA RESULT:    -4.813      2.393      3.323
REMARK INTER + INTRA:          -9.825
REMARK INTER:                  -9.022
REMARK INTRA:                  -0.803
REMARK UNBOUND:                -0.792
REMARK SMILES O=C([O-])CCCCCCCCCCCCCCC(=O)[O-]
REMARK SMILES IDX 10 1 9 2 8 3 7 4 6 5 5 6 4 7 2 8 1 9 3 10 11 11 12 12 13 13
REMARK SMILES IDX 14 14 15 15 16 16 17 17 18 18 19 19 20 20
REMARK H PARENT
REMARK Flexibility Score: inf
ROOT
ATOM      1  C   UNL     1      -3.185   9.040 -38.938  1.00  0.00     0.000 C 
ENDROOT
BRANCH   1   2
ATOM      2  C   UNL     1      -3.916   9.657 -40.145  1.00  0.00     0.000 C 
BRANCH   2   3
ATOM      3  C   UNL     1      -5.453   9.566 -40.088  1.00  0.00     0.000 C 
BRANCH   3   4
ATOM      4  C   UNL     1      -5.960   8.664 -38.953  1.00  0.00     0.000 C 
BRANCH   4   5
ATOM      5  C   UNL     1      -7.363   8.127 -39.262  1.00  0.00     0.000 C 
BRANCH   5   6
ATOM      6  C   UNL     1      -7.323   7.115 -40.417  1.00  0.00     0.006 C 
BRANCH   6   7
ATOM      7  C   UNL     1      -8.075   5.822 -40.080  1.00  0.00     0.053 C 
BRANCH   7   8
ATOM      8  C   UNL     1      -8.217   4.935 -41.280  1.00  0.00     0.041 C 
ATOM      9  O   UNL     1      -7.722   5.278 -42.385  1.00  0.00    -0.550 OA
ATOM     10  O   UNL     1      -8.870   3.714 -41.168  1.00  0.00    -0.550 OA
ENDBRANCH   7   8
ENDBRANCH   6   7
ENDBRANCH   5   6
ENDBRANCH   4   5
ENDBRANCH   3   4
ENDBRANCH   2   3
ENDBRANCH   1   2
BRANCH   1  11
ATOM     11  C   UNL     1      -1.798   8.448 -39.251  1.00  0.00     0.000 C 
BRANCH  11  12
ATOM     12  C   UNL     1      -0.652   9.087 -38.437  1.00  0.00     0.000 C 
BRANCH  12  13
ATOM     13  C   UNL     1      -0.993  10.508 -37.960  1.00  0.00     0.000 C 
BRANCH  13  14
ATOM     14  C   UNL     1       0.254  11.339 -37.605  1.00  0.00     0.000 C 
BRANCH  14  15
ATOM     15  C   UNL     1       0.300  12.744 -38.230  1.00  0.00     0.000 C 
BRANCH  15  16
ATOM     16  C   UNL     1       1.544  12.971 -39.105  1.00  0.00     0.006 C 
BRANCH  16  17
ATOM     17  C   UNL     1       1.925  11.720 -39.906  1.00  0.00     0.053 C 
BRANCH  17  18
ATOM     18  C   UNL     1       2.600  12.074 -41.197  1.00  0.00     0.041 C 
ATOM     19  O   UNL     1       2.737  11.208 -42.100  1.00  0.00    -0.550 OA
ATOM     20  O   UNL     1       3.105  13.353 -41.389  1.00  0.00    -0.550 OA
ENDBRANCH  17  18
ENDBRANCH  16  17
ENDBRANCH  15  16
ENDBRANCH  14  15
ENDBRANCH  13  14
ENDBRANCH  12  13
ENDBRANCH  11  12
ENDBRANCH   1  11
TORSDOF 15
ENDMDL
MODEL 9
REMARK VINA RESULT:    -4.676      4.035      5.290
REMARK INTER + INTRA:          -9.568
REMARK INTER:                  -9.241
REMARK INTRA:                  -0.327
REMARK UNBOUND:                -0.792
REMARK SMILES O=C([O-])CCCCCCCCCCCCCCC(=O)[O-]
REMARK SMILES IDX 10 1 9 2 8 3 7 4 6 5 5 6 4 7 2 8 1 9 3 10 11 11 12 12 13 13
REMARK SMILES IDX 14 14 15 15 16 16 17 17 18 18 19 19 20 20
REMARK H PARENT
REMARK Flexibility Score: inf
ROOT
ATOM      1  C   UNL     1      -2.673   9.731 -37.860  1.00  0.00     0.000 C 
ENDROOT
BRANCH   1   2
ATOM      2  C   UNL     1      -3.604   9.383 -39.037  1.00  0.00     0.000 C 
BRANCH   2   3
ATOM      3  C   UNL     1      -4.941   8.731 -38.637  1.00  0.00     0.000 C 
BRANCH   3   4
ATOM      4  C   UNL     1      -6.113   9.174 -39.524  1.00  0.00     0.000 C 
BRANCH   4   5
ATOM      5  C   UNL     1      -7.315   8.235 -39.355  1.00  0.00     0.000 C 
BRANCH   5   6
ATOM      6  C   UNL     1      -7.394   7.230 -40.514  1.00  0.00     0.006 C 
BRANCH   6   7
ATOM      7  C   UNL     1      -7.792   5.827 -40.037  1.00  0.00     0.053 C 
BRANCH   7   8
ATOM      8  C   UNL     1      -8.148   4.932 -41.184  1.00  0.00     0.041 C 
ATOM      9  O   UNL     1      -8.838   3.897 -40.992  1.00  0.00    -0.550 OA
ATOM     10  O   UNL     1      -7.742   5.258 -42.472  1.00  0.00    -0.550 OA
ENDBRANCH   7   8
ENDBRANCH   6   7
ENDBRANCH   5   6
ENDBRANCH   4   5
ENDBRANCH   3   4
ENDBRANCH   2   3
ENDBRANCH   1   2
BRANCH   1  11
ATOM     11  C   UNL     1      -1.416  10.536 -38.241  1.00  0.00     0.000 C 
BRANCH  11  12
ATOM     12  C   UNL     1      -0.232   9.658 -38.699  1.00  0.00     0.000 C 
BRANCH  12  13
ATOM     13  C   UNL     1      -0.631   8.184 -38.883  1.00  0.00     0.000 C 
BRANCH  13  14
ATOM     14  C   UNL     1      -0.834   7.797 -40.359  1.00  0.00     0.000 C 
BRANCH  14  15
ATOM     15  C   UNL     1       0.444   7.805 -41.217  1.00  0.00     0.000 C 
BRANCH  15  16
ATOM     16  C   UNL     1       0.458   6.695 -42.282  1.00  0.00     0.006 C 
BRANCH  16  17
ATOM     17  C   UNL     1       1.881   6.227 -42.612  1.00  0.00     0.053 C 
BRANCH  17  18
ATOM     18  C   UNL     1       2.420   5.310 -41.556  1.00  0.00     0.041 C 
ATOM     19  O   UNL     1       1.634   4.685 -40.796  1.00  0.00    -0.550 OA
ATOM     20  O   UNL     1       3.791   5.171 -41.390  1.00  0.00    -0.550 OA
ENDBRANCH  17  18
ENDBRANCH  16  17
ENDBRANCH  15  16
ENDBRANCH  14  15
ENDBRANCH  13  14
ENDBRANCH  12  13
ENDBRANCH  11  12
ENDBRANCH   1  11
TORSDOF 15
ENDMDL
