MODEL 1
REMARK VINA RESULT:    -3.410      0.000      0.000
REMARK INTER + INTRA:          -9.433
REMARK INTER:                  -6.798
REMARK INTRA:                  -2.635
REMARK UNBOUND:                -2.635
REMARK SMILES CCCCCCCCCCCCCCCCCC(=O)OC
REMARK SMILES IDX 10 1 9 2 8 3 7 4 6 5 5 6 4 7 3 8 2 9 1 10 11 11 12 12 13 13
REMARK SMILES IDX 14 14 15 15 16 16 17 17 18 18 19 19 20 20 21 21
REMARK H PARENT
REMARK Flexibility Score: inf
ROOT
ATOM      1  C   UNL     1     202.009 200.083 215.252  1.00  0.00     0.000 C 
ENDROOT
BRANCH   1   2
ATOM      2  C   UNL     1     202.374 201.183 216.268  1.00  0.00     0.000 C 
BRANCH   2   3
ATOM      3  C   UNL     1     202.358 200.740 217.745  1.00  0.00    -0.000 C 
BRANCH   3   4
ATOM      4  C   UNL     1     201.349 199.628 218.086  1.00  0.00    -0.000 C 
BRANCH   4   5
ATOM      5  C   UNL     1     200.314 200.061 219.137  1.00  0.00    -0.000 C 
BRANCH   5   6
ATOM      6  C   UNL     1     198.873 200.040 218.599  1.00  0.00    -0.000 C 
BRANCH   6   7
ATOM      7  C   UNL     1     198.772 200.321 217.084  1.00  0.00    -0.000 C 
BRANCH   7   8
ATOM      8  C   UNL     1     198.194 201.717 216.794  1.00  0.00    -0.000 C 
BRANCH   8   9
ATOM      9  C   UNL     1     198.612 202.253 215.415  1.00  0.00    -0.003 C 
ATOM     10  C   UNL     1     199.565 203.445 215.511  1.00  0.00     0.004 C 
ENDBRANCH   8   9
ENDBRANCH   7   8
ENDBRANCH   6   7
ENDBRANCH   5   6
ENDBRANCH   4   5
ENDBRANCH   3   4
ENDBRANCH   2   3
ENDBRANCH   1   2
BRANCH   1  11
ATOM     11  C   UNL     1     203.204 199.270 214.712  1.00  0.00     0.000 C 
BRANCH  11  12
ATOM     12  C   UNL     1     203.445 197.919 215.410  1.00  0.00     0.000 C 
BRANCH  12  13
ATOM     13  C   UNL     1     204.869 197.785 215.976  1.00  0.00     0.000 C 
BRANCH  13  14
ATOM     14  C   UNL     1     204.952 198.178 217.459  1.00  0.00     0.000 C 
BRANCH  14  15
ATOM     15  C   UNL     1     205.726 199.490 217.683  1.00  0.00     0.001 C 
BRANCH  15  16
ATOM     16  C   UNL     1     206.408 199.998 216.404  1.00  0.00     0.012 C 
BRANCH  16  17
ATOM     17  C   UNL     1     207.838 200.493 216.654  1.00  0.00     0.123 C 
BRANCH  17  18
ATOM     18  C   UNL     1     208.807 199.360 216.543  1.00  0.00     0.305 C 
ATOM     19  O   UNL     1     209.971 199.481 217.016  1.00  0.00    -0.252 OA
BRANCH  18  20
ATOM     20  O   UNL     1     208.399 198.161 215.953  1.00  0.00    -0.469 OA
ATOM     21  C   UNL     1     208.464 196.913 216.632  1.00  0.00     0.282 C 
ENDBRANCH  18  20
ENDBRANCH  17  18
ENDBRANCH  16  17
ENDBRANCH  15  16
ENDBRANCH  14  15
ENDBRANCH  13  14
ENDBRANCH  12  13
ENDBRANCH  11  12
ENDBRANCH   1  11
TORSDOF 17
ENDMDL
MODEL 2
REMARK VINA RESULT:    -3.391      7.712     10.522
REMARK INTER + INTRA:          -9.397
REMARK INTER:                  -7.370
REMARK INTRA:                  -2.027
REMARK UNBOUND:                -2.635
REMARK SMILES CCCCCCCCCCCCCCCCCC(=O)OC
REMARK SMILES IDX 10 1 9 2 8 3 7 4 6 5 5 6 4 7 3 8 2 9 1 10 11 11 12 12 13 13
REMARK SMILES IDX 14 14 15 15 16 16 17 17 18 18 19 19 20 20 21 21
REMARK H PARENT
REMARK Flexibility Score: inf
ROOT
ATOM      1  C   UNL     1     195.846 207.372 216.461  1.00  0.00     0.000 C 
ENDROOT
BRANCH   1   2
ATOM      2  C   UNL     1     195.122 207.592 215.118  1.00  0.00     0.000 C 
BRANCH   2   3
ATOM      3  C   UNL     1     195.810 208.585 214.159  1.00  0.00    -0.000 C 
BRANCH   3   4
ATOM      4  C   UNL     1     196.262 209.910 214.800  1.00  0.00    -0.000 C 
BRANCH   4   5
ATOM      5  C   UNL     1     197.773 209.955 215.078  1.00  0.00    -0.000 C 
BRANCH   5   6
ATOM      6  C   UNL     1     198.592 209.151 214.054  1.00  0.00    -0.000 C 
BRANCH   6   7
ATOM      7  C   UNL     1     199.528 208.103 214.693  1.00  0.00    -0.000 C 
BRANCH   7   8
ATOM      8  C   UNL     1     199.348 206.710 214.066  1.00  0.00    -0.000 C 
BRANCH   8   9
ATOM      9  C   UNL     1     198.745 205.694 215.049  1.00  0.00    -0.003 C 
ATOM     10  C   UNL     1     199.200 205.926 216.489  1.00  0.00     0.004 C 
ENDBRANCH   8   9
ENDBRANCH   7   8
ENDBRANCH   6   7
ENDBRANCH   5   6
ENDBRANCH   4   5
ENDBRANCH   3   4
ENDBRANCH   2   3
ENDBRANCH   1   2
BRANCH   1  11
ATOM     11  C   UNL     1     195.039 206.590 217.517  1.00  0.00     0.000 C 
BRANCH  11  12
ATOM     12  C   UNL     1     195.732 206.429 218.883  1.00  0.00     0.000 C 
BRANCH  12  13
ATOM     13  C   UNL     1     196.420 205.063 219.047  1.00  0.00     0.000 C 
BRANCH  13  14
ATOM     14  C   UNL     1     195.631 203.923 218.386  1.00  0.00     0.000 C 
BRANCH  14  15
ATOM     15  C   UNL     1     196.428 203.215 217.275  1.00  0.00     0.001 C 
BRANCH  15  16
ATOM     16  C   UNL     1     197.104 201.925 217.765  1.00  0.00     0.012 C 
BRANCH  16  17
ATOM     17  C   UNL     1     196.196 201.095 218.682  1.00  0.00     0.123 C 
BRANCH  17  18
ATOM     18  C   UNL     1     197.006 200.426 219.746  1.00  0.00     0.305 C 
ATOM     19  O   UNL     1     198.245 200.260 219.580  1.00  0.00    -0.252 OA
BRANCH  18  20
ATOM     20  O   UNL     1     196.386 200.031 220.935  1.00  0.00    -0.469 OA
ATOM     21  C   UNL     1     195.043 199.565 220.980  1.00  0.00     0.282 C 
ENDBRANCH  18  20
ENDBRANCH  17  18
ENDBRANCH  16  17
ENDBRANCH  15  16
ENDBRANCH  14  15
ENDBRANCH  13  14
ENDBRANCH  12  13
ENDBRANCH  11  12
ENDBRANCH   1  11
TORSDOF 17
ENDMDL
MODEL 3
REMARK VINA RESULT:    -3.338      4.142      7.982
REMARK INTER + INTRA:          -9.290
REMARK INTER:                  -7.008
REMARK INTRA:                  -2.282
REMARK UNBOUND:                -2.635
REMARK SMILES CCCCCCCCCCCCCCCCCC(=O)OC
REMARK SMILES IDX 10 1 9 2 8 3 7 4 6 5 5 6 4 7 3 8 2 9 1 10 11 11 12 12 13 13
REMARK SMILES IDX 14 14 15 15 16 16 17 17 18 18 19 19 20 20 21 21
REMARK H PARENT
REMARK Flexibility Score: inf
ROOT
ATOM      1  C   UNL     1     203.734 202.177 214.372  1.00  0.00     0.000 C 
ENDROOT
BRANCH   1   2
ATOM      2  C   UNL     1     205.141 201.928 213.795  1.00  0.00     0.000 C 
BRANCH   2   3
ATOM      3  C   UNL     1     206.232 201.619 214.841  1.00  0.00    -0.000 C 
BRANCH   3   4
ATOM      4  C   UNL     1     207.041 200.335 214.584  1.00  0.00    -0.000 C 
BRANCH   4   5
ATOM      5  C   UNL     1     207.468 199.627 215.880  1.00  0.00    -0.000 C 
BRANCH   5   6
ATOM      6  C   UNL     1     206.867 200.275 217.139  1.00  0.00    -0.000 C 
BRANCH   6   7
ATOM      7  C   UNL     1     205.874 199.364 217.893  1.00  0.00    -0.000 C 
BRANCH   7   8
ATOM      8  C   UNL     1     205.726 197.989 217.220  1.00  0.00    -0.000 C 
BRANCH   8   9
ATOM      9  C   UNL     1     204.342 197.790 216.581  1.00  0.00    -0.003 C 
ATOM     10  C   UNL     1     204.416 197.589 215.068  1.00  0.00     0.004 C 
ENDBRANCH   8   9
ENDBRANCH   7   8
ENDBRANCH   6   7
ENDBRANCH   5   6
ENDBRANCH   4   5
ENDBRANCH   3   4
ENDBRANCH   2   3
ENDBRANCH   1   2
BRANCH   1  11
ATOM     11  C   UNL     1     203.197 201.059 215.289  1.00  0.00     0.000 C 
BRANCH  11  12
ATOM     12  C   UNL     1     202.268 201.531 216.422  1.00  0.00     0.000 C 
BRANCH  12  13
ATOM     13  C   UNL     1     202.467 200.741 217.726  1.00  0.00     0.000 C 
BRANCH  13  14
ATOM     14  C   UNL     1     201.368 199.692 217.954  1.00  0.00     0.000 C 
BRANCH  14  15
ATOM     15  C   UNL     1     200.391 200.089 219.075  1.00  0.00     0.001 C 
BRANCH  15  16
ATOM     16  C   UNL     1     198.925 200.065 218.615  1.00  0.00     0.012 C 
BRANCH  16  17
ATOM     17  C   UNL     1     198.727 200.716 217.240  1.00  0.00     0.123 C 
BRANCH  17  18
ATOM     18  C   UNL     1     197.277 200.979 216.993  1.00  0.00     0.305 C 
ATOM     19  O   UNL     1     196.710 200.472 215.986  1.00  0.00    -0.252 OA
BRANCH  18  20
ATOM     20  O   UNL     1     196.553 201.750 217.906  1.00  0.00    -0.469 OA
ATOM     21  C   UNL     1     196.417 203.161 217.779  1.00  0.00     0.282 C 
ENDBRANCH  18  20
ENDBRANCH  17  18
ENDBRANCH  16  17
ENDBRANCH  15  16
ENDBRANCH  14  15
ENDBRANCH  13  14
ENDBRANCH  12  13
ENDBRANCH  11  12
ENDBRANCH   1  11
TORSDOF 17
ENDMDL
MODEL 4
REMARK VINA RESULT:    -3.241      1.974      2.882
REMARK INTER + INTRA:          -9.098
REMARK INTER:                  -5.988
REMARK INTRA:                  -3.111
REMARK UNBOUND:                -2.635
REMARK SMILES CCCCCCCCCCCCCCCCCC(=O)OC
REMARK SMILES IDX 10 1 9 2 8 3 7 4 6 5 5 6 4 7 3 8 2 9 1 10 11 11 12 12 13 13
REMARK SMILES IDX 14 14 15 15 16 16 17 17 18 18 19 19 20 20 21 21
REMARK H PARENT
REMARK Flexibility Score: inf
ROOT
ATOM      1  C   UNL     1     203.974 197.946 215.130  1.00  0.00     0.000 C 
ENDROOT
BRANCH   1   2
ATOM      2  C   UNL     1     202.541 197.457 214.842  1.00  0.00     0.000 C 
BRANCH   2   3
ATOM      3  C   UNL     1     201.741 197.010 216.082  1.00  0.00    -0.000 C 
BRANCH   3   4
ATOM      4  C   UNL     1     202.052 197.783 217.377  1.00  0.00    -0.000 C 
BRANCH   4   5
ATOM      5  C   UNL     1     200.841 198.566 217.911  1.00  0.00    -0.000 C 
BRANCH   5   6
ATOM      6  C   UNL     1     201.211 199.980 218.392  1.00  0.00    -0.000 C 
BRANCH   6   7
ATOM      7  C   UNL     1     202.445 200.575 217.680  1.00  0.00    -0.000 C 
BRANCH   7   8
ATOM      8  C   UNL     1     202.058 201.669 216.670  1.00  0.00    -0.000 C 
BRANCH   8   9
ATOM      9  C   UNL     1     202.046 201.157 215.222  1.00  0.00    -0.003 C 
ATOM     10  C   UNL     1     203.345 201.469 214.477  1.00  0.00     0.004 C 
ENDBRANCH   8   9
ENDBRANCH   7   8
ENDBRANCH   6   7
ENDBRANCH   5   6
ENDBRANCH   4   5
ENDBRANCH   3   4
ENDBRANCH   2   3
ENDBRANCH   1   2
BRANCH   1  11
ATOM     11  C   UNL     1     205.096 197.013 214.630  1.00  0.00     0.000 C 
BRANCH  11  12
ATOM     12  C   UNL     1     206.087 196.545 215.711  1.00  0.00     0.000 C 
BRANCH  12  13
ATOM     13  C   UNL     1     205.643 196.924 217.134  1.00  0.00     0.000 C 
BRANCH  13  14
ATOM     14  C   UNL     1     206.623 197.888 217.820  1.00  0.00     0.000 C 
BRANCH  14  15
ATOM     15  C   UNL     1     206.022 199.287 218.044  1.00  0.00     0.001 C 
BRANCH  15  16
ATOM     16  C   UNL     1     206.027 200.143 216.768  1.00  0.00     0.012 C 
BRANCH  16  17
ATOM     17  C   UNL     1     207.439 200.360 216.209  1.00  0.00     0.123 C 
BRANCH  17  18
ATOM     18  C   UNL     1     207.524 199.859 214.803  1.00  0.00     0.305 C 
ATOM     19  O   UNL     1     206.638 200.186 213.967  1.00  0.00    -0.252 OA
BRANCH  18  20
ATOM     20  O   UNL     1     208.611 199.069 214.419  1.00  0.00    -0.469 OA
ATOM     21  C   UNL     1     209.403 198.349 215.356  1.00  0.00     0.282 C 
ENDBRANCH  18  20
ENDBRANCH  17  18
ENDBRANCH  16  17
ENDBRANCH  15  16
ENDBRANCH  14  15
ENDBRANCH  13  14
ENDBRANCH  12  13
ENDBRANCH  11  12
ENDBRANCH   1  11
TORSDOF 17
ENDMDL
MODEL 5
REMARK VINA RESULT:    -3.213      6.944     10.473
REMARK INTER + INTRA:          -9.042
REMARK INTER:                  -6.477
REMARK INTRA:                  -2.565
REMARK UNBOUND:                -2.635
REMARK SMILES CCCCCCCCCCCCCCCCCC(=O)OC
REMARK SMILES IDX 10 1 9 2 8 3 7 4 6 5 5 6 4 7 3 8 2 9 1 10 11 11 12 12 13 13
REMARK SMILES IDX 14 14 15 15 16 16 17 17 18 18 19 19 20 20 21 21
REMARK H PARENT
REMARK Flexibility Score: inf
ROOT
ATOM      1  C   UNL     1     195.202 207.530 215.292  1.00  0.00     0.000 C 
ENDROOT
BRANCH   1   2
ATOM      2  C   UNL     1     194.101 206.767 216.054  1.00  0.00     0.000 C 
BRANCH   2   3
ATOM      3  C   UNL     1     194.521 206.217 217.432  1.00  0.00    -0.000 C 
BRANCH   3   4
ATOM      4  C   UNL     1     195.755 206.890 218.059  1.00  0.00    -0.000 C 
BRANCH   4   5
ATOM      5  C   UNL     1     196.866 205.888 218.416  1.00  0.00    -0.000 C 
BRANCH   5   6
ATOM      6  C   UNL     1     197.377 205.105 217.196  1.00  0.00    -0.000 C 
BRANCH   6   7
ATOM      7  C   UNL     1     198.412 205.877 216.351  1.00  0.00    -0.000 C 
BRANCH   7   8
ATOM      8  C   UNL     1     198.312 205.530 214.855  1.00  0.00    -0.000 C 
BRANCH   8   9
ATOM      9  C   UNL     1     198.950 204.172 214.521  1.00  0.00    -0.003 C 
ATOM     10  C   UNL     1     200.281 203.954 215.241  1.00  0.00     0.004 C 
ENDBRANCH   8   9
ENDBRANCH   7   8
ENDBRANCH   6   7
ENDBRANCH   5   6
ENDBRANCH   4   5
ENDBRANCH   3   4
ENDBRANCH   2   3
ENDBRANCH   1   2
BRANCH   1  11
ATOM     11  C   UNL     1     194.788 208.920 214.765  1.00  0.00     0.000 C 
BRANCH  11  12
ATOM     12  C   UNL     1     195.936 209.771 214.193  1.00  0.00     0.000 C 
BRANCH  12  13
ATOM     13  C   UNL     1     197.105 209.938 215.179  1.00  0.00     0.000 C 
BRANCH  13  14
ATOM     14  C   UNL     1     198.403 209.292 214.669  1.00  0.00     0.000 C 
BRANCH  14  15
ATOM     15  C   UNL     1     198.328 208.905 213.180  1.00  0.00     0.001 C 
BRANCH  15  16
ATOM     16  C   UNL     1     199.712 208.853 212.515  1.00  0.00     0.012 C 
BRANCH  16  17
ATOM     17  C   UNL     1     200.621 207.780 213.128  1.00  0.00     0.123 C 
BRANCH  17  18
ATOM     18  C   UNL     1     200.757 206.619 212.195  1.00  0.00     0.305 C 
ATOM     19  O   UNL     1     201.614 205.723 212.430  1.00  0.00    -0.252 OA
BRANCH  18  20
ATOM     20  O   UNL     1     199.901 206.517 211.095  1.00  0.00    -0.469 OA
ATOM     21  C   UNL     1     198.868 205.541 211.018  1.00  0.00     0.282 C 
ENDBRANCH  18  20
ENDBRANCH  17  18
ENDBRANCH  16  17
ENDBRANCH  15  16
ENDBRANCH  14  15
ENDBRANCH  13  14
ENDBRANCH  12  13
ENDBRANCH  11  12
ENDBRANCH   1  11
TORSDOF 17
ENDMDL
MODEL 6
REMARK VINA RESULT:    -3.212      5.406      9.242
REMARK INTER + INTRA:          -9.039
REMARK INTER:                  -6.991
REMARK INTRA:                  -2.048
REMARK UNBOUND:                -2.635
REMARK SMILES CCCCCCCCCCCCCCCCCC(=O)OC
REMARK SMILES IDX 10 1 9 2 8 3 7 4 6 5 5 6 4 7 3 8 2 9 1 10 11 11 12 12 13 13
REMARK SMILES IDX 14 14 15 15 16 16 17 17 18 18 19 19 20 20 21 21
REMARK H PARENT
REMARK Flexibility Score: inf
ROOT
ATOM      1  C   UNL     1     198.448 200.029 218.618  1.00  0.00     0.000 C 
ENDROOT
BRANCH   1   2
ATOM      2  C   UNL     1     199.916 200.191 219.056  1.00  0.00     0.000 C 
BRANCH   2   3
ATOM      3  C   UNL     1     200.961 199.667 218.050  1.00  0.00    -0.000 C 
BRANCH   3   4
ATOM      4  C   UNL     1     202.161 200.600 217.805  1.00  0.00    -0.000 C 
BRANCH   4   5
ATOM      5  C   UNL     1     202.883 200.310 216.479  1.00  0.00    -0.000 C 
BRANCH   5   6
ATOM      6  C   UNL     1     202.874 201.512 215.520  1.00  0.00    -0.000 C 
BRANCH   6   7
ATOM      7  C   UNL     1     201.922 202.647 215.955  1.00  0.00    -0.000 C 
BRANCH   7   8
ATOM      8  C   UNL     1     200.651 202.698 215.090  1.00  0.00    -0.000 C 
BRANCH   8   9
ATOM      9  C   UNL     1     199.383 202.348 215.885  1.00  0.00    -0.003 C 
ATOM     10  C   UNL     1     198.450 201.407 215.121  1.00  0.00     0.004 C 
ENDBRANCH   8   9
ENDBRANCH   7   8
ENDBRANCH   6   7
ENDBRANCH   5   6
ENDBRANCH   4   5
ENDBRANCH   3   4
ENDBRANCH   2   3
ENDBRANCH   1   2
BRANCH   1  11
ATOM     11  C   UNL     1     197.417 200.065 219.765  1.00  0.00     0.000 C 
BRANCH  11  12
ATOM     12  C   UNL     1     196.359 201.179 219.659  1.00  0.00     0.000 C 
BRANCH  12  13
ATOM     13  C   UNL     1     196.414 201.928 218.317  1.00  0.00     0.000 C 
BRANCH  13  14
ATOM     14  C   UNL     1     195.574 203.215 218.326  1.00  0.00     0.000 C 
BRANCH  14  15
ATOM     15  C   UNL     1     196.429 204.483 218.148  1.00  0.00     0.001 C 
BRANCH  15  16
ATOM     16  C   UNL     1     196.747 204.777 216.673  1.00  0.00     0.012 C 
BRANCH  16  17
ATOM     17  C   UNL     1     197.635 206.015 216.497  1.00  0.00     0.123 C 
BRANCH  17  18
ATOM     18  C   UNL     1     196.884 207.098 215.792  1.00  0.00     0.305 C 
ATOM     19  O   UNL     1     195.651 207.249 216.009  1.00  0.00    -0.252 OA
BRANCH  18  20
ATOM     20  O   UNL     1     197.567 207.961 214.930  1.00  0.00    -0.469 OA
ATOM     21  C   UNL     1     197.277 209.351 214.851  1.00  0.00     0.282 C 
ENDBRANCH  18  20
ENDBRANCH  17  18
ENDBRANCH  16  17
ENDBRANCH  15  16
ENDBRANCH  14  15
ENDBRANCH  13  14
ENDBRANCH  12  13
ENDBRANCH  11  12
ENDBRANCH   1  11
TORSDOF 17
ENDMDL
MODEL 7
REMARK VINA RESULT:    -3.207      4.254      8.172
REMARK INTER + INTRA:          -9.029
REMARK INTER:                  -6.701
REMARK INTRA:                  -2.328
REMARK UNBOUND:                -2.635
REMARK SMILES CCCCCCCCCCCCCCCCCC(=O)OC
REMARK SMILES IDX 10 1 9 2 8 3 7 4 6 5 5 6 4 7 3 8 2 9 1 10 11 11 12 12 13 13
REMARK SMILES IDX 14 14 15 15 16 16 17 17 18 18 19 19 20 20 21 21
REMARK H PARENT
REMARK Flexibility Score: inf
ROOT
ATOM      1  C   UNL     1     205.097 197.691 217.389  1.00  0.00     0.000 C 
ENDROOT
BRANCH   1   2
ATOM      2  C   UNL     1     206.315 198.535 217.810  1.00  0.00     0.000 C 
BRANCH   2   3
ATOM      3  C   UNL     1     207.623 198.216 217.059  1.00  0.00    -0.000 C 
BRANCH   3   4
ATOM      4  C   UNL     1     208.239 199.394 216.283  1.00  0.00    -0.000 C 
BRANCH   4   5
ATOM      5  C   UNL     1     207.578 200.741 216.617  1.00  0.00    -0.000 C 
BRANCH   5   6
ATOM      6  C   UNL     1     206.859 201.369 215.411  1.00  0.00    -0.000 C 
BRANCH   6   7
ATOM      7  C   UNL     1     206.726 200.417 214.203  1.00  0.00    -0.000 C 
BRANCH   7   8
ATOM      8  C   UNL     1     205.256 200.120 213.860  1.00  0.00    -0.000 C 
BRANCH   8   9
ATOM      9  C   UNL     1     204.958 198.614 213.797  1.00  0.00    -0.003 C 
ATOM     10  C   UNL     1     203.463 198.314 213.686  1.00  0.00     0.004 C 
ENDBRANCH   8   9
ENDBRANCH   7   8
ENDBRANCH   6   7
ENDBRANCH   5   6
ENDBRANCH   4   5
ENDBRANCH   3   4
ENDBRANCH   2   3
ENDBRANCH   1   2
BRANCH   1  11
ATOM     11  C   UNL     1     203.757 198.455 217.342  1.00  0.00     0.000 C 
BRANCH  11  12
ATOM     12  C   UNL     1     203.881 199.988 217.278  1.00  0.00     0.000 C 
BRANCH  12  13
ATOM     13  C   UNL     1     202.518 200.694 217.171  1.00  0.00     0.000 C 
BRANCH  13  14
ATOM     14  C   UNL     1     201.345 199.766 217.522  1.00  0.00     0.000 C 
BRANCH  14  15
ATOM     15  C   UNL     1     200.732 200.080 218.899  1.00  0.00     0.001 C 
BRANCH  15  16
ATOM     16  C   UNL     1     199.196 200.060 218.878  1.00  0.00     0.012 C 
BRANCH  16  17
ATOM     17  C   UNL     1     198.613 200.777 217.653  1.00  0.00     0.123 C 
BRANCH  17  18
ATOM     18  C   UNL     1     197.195 201.176 217.910  1.00  0.00     0.305 C 
ATOM     19  O   UNL     1     196.355 200.306 218.268  1.00  0.00    -0.252 OA
BRANCH  18  20
ATOM     20  O   UNL     1     196.827 202.518 217.792  1.00  0.00    -0.469 OA
ATOM     21  C   UNL     1     195.851 203.121 218.634  1.00  0.00     0.282 C 
ENDBRANCH  18  20
ENDBRANCH  17  18
ENDBRANCH  16  17
ENDBRANCH  15  16
ENDBRANCH  14  15
ENDBRANCH  13  14
ENDBRANCH  12  13
ENDBRANCH  11  12
ENDBRANCH   1  11
TORSDOF 17
ENDMDL
MODEL 8
REMARK VINA RESULT:    -3.190      6.264     10.360
REMARK INTER + INTRA:          -8.995
REMARK INTER:                  -7.254
REMARK INTRA:                  -1.741
REMARK UNBOUND:                -2.635
REMARK SMILES CCCCCCCCCCCCCCCCCC(=O)OC
REMARK SMILES IDX 10 1 9 2 8 3 7 4 6 5 5 6 4 7 3 8 2 9 1 10 11 11 12 12 13 13
REMARK SMILES IDX 14 14 15 15 16 16 17 17 18 18 19 19 20 20 21 21
REMARK H PARENT
REMARK Flexibility Score: inf
ROOT
ATOM      1  C   UNL     1     197.594 202.104 216.801  1.00  0.00     0.000 C 
ENDROOT
BRANCH   1   2
ATOM      2  C   UNL     1     196.967 201.476 218.060  1.00  0.00     0.000 C 
BRANCH   2   3
ATOM      3  C   UNL     1     197.838 200.418 218.767  1.00  0.00    -0.000 C 
BRANCH   3   4
ATOM      4  C   UNL     1     199.102 199.990 217.999  1.00  0.00    -0.000 C 
BRANCH   4   5
ATOM      5  C   UNL     1     200.371 200.027 218.866  1.00  0.00    -0.000 C 
BRANCH   5   6
ATOM      6  C   UNL     1     201.632 200.386 218.063  1.00  0.00    -0.000 C 
BRANCH   6   7
ATOM      7  C   UNL     1     201.344 200.787 216.600  1.00  0.00    -0.000 C 
BRANCH   7   8
ATOM      8  C   UNL     1     202.068 202.085 216.204  1.00  0.00    -0.000 C 
BRANCH   8   9
ATOM      9  C   UNL     1     201.127 203.110 215.553  1.00  0.00    -0.003 C 
ATOM     10  C   UNL     1     200.299 202.511 214.416  1.00  0.00     0.004 C 
ENDBRANCH   8   9
ENDBRANCH   7   8
ENDBRANCH   6   7
ENDBRANCH   5   6
ENDBRANCH   4   5
ENDBRANCH   3   4
ENDBRANCH   2   3
ENDBRANCH   1   2
BRANCH   1  11
ATOM     11  C   UNL     1     197.375 203.624 216.651  1.00  0.00     0.000 C 
BRANCH  11  12
ATOM     12  C   UNL     1     196.371 204.241 217.643  1.00  0.00     0.000 C 
BRANCH  12  13
ATOM     13  C   UNL     1     196.881 205.548 218.273  1.00  0.00     0.000 C 
BRANCH  13  14
ATOM     14  C   UNL     1     196.140 206.785 217.745  1.00  0.00     0.000 C 
BRANCH  14  15
ATOM     15  C   UNL     1     194.736 206.452 217.208  1.00  0.00     0.001 C 
BRANCH  15  16
ATOM     16  C   UNL     1     194.510 206.976 215.781  1.00  0.00     0.012 C 
BRANCH  16  17
ATOM     17  C   UNL     1     195.816 207.104 214.987  1.00  0.00     0.123 C 
BRANCH  17  18
ATOM     18  C   UNL     1     195.781 208.322 214.121  1.00  0.00     0.305 C 
ATOM     19  O   UNL     1     194.754 208.572 213.431  1.00  0.00    -0.252 OA
BRANCH  18  20
ATOM     20  O   UNL     1     196.871 209.197 214.119  1.00  0.00    -0.469 OA
ATOM     21  C   UNL     1     197.152 210.072 215.205  1.00  0.00     0.282 C 
ENDBRANCH  18  20
ENDBRANCH  17  18
ENDBRANCH  16  17
ENDBRANCH  15  16
ENDBRANCH  14  15
ENDBRANCH  13  14
ENDBRANCH  12  13
ENDBRANCH  11  12
ENDBRANCH   1  11
TORSDOF 17
ENDMDL
MODEL 9
REMARK VINA RESULT:    -3.185      3.158      7.007
REMARK INTER + INTRA:          -8.986
REMARK INTER:                  -6.084
REMARK INTRA:                  -2.902
REMARK UNBOUND:                -2.635
REMARK SMILES CCCCCCCCCCCCCCCCCC(=O)OC
REMARK SMILES IDX 10 1 9 2 8 3 7 4 6 5 5 6 4 7 3 8 2 9 1 10 11 11 12 12 13 13
REMARK SMILES IDX 14 14 15 15 16 16 17 17 18 18 19 19 20 20 21 21
REMARK H PARENT
REMARK Flexibility Score: inf
ROOT
ATOM      1  C   UNL     1     203.676 198.439 214.809  1.00  0.00     0.000 C 
ENDROOT
BRANCH   1   2
ATOM      2  C   UNL     1     204.587 197.645 213.853  1.00  0.00     0.000 C 
BRANCH   2   3
ATOM      3  C   UNL     1     206.003 197.354 214.390  1.00  0.00    -0.000 C 
BRANCH   3   4
ATOM      4  C   UNL     1     206.158 196.020 215.143  1.00  0.00    -0.000 C 
BRANCH   4   5
ATOM      5  C   UNL     1     206.612 196.205 216.600  1.00  0.00    -0.000 C 
BRANCH   5   6
ATOM      6  C   UNL     1     207.175 197.609 216.876  1.00  0.00    -0.000 C 
BRANCH   6   7
ATOM      7  C   UNL     1     206.370 198.406 217.924  1.00  0.00    -0.000 C 
BRANCH   7   8
ATOM      8  C   UNL     1     206.003 199.814 217.423  1.00  0.00    -0.000 C 
BRANCH   8   9
ATOM      9  C   UNL     1     207.019 200.363 216.409  1.00  0.00    -0.003 C 
ATOM     10  C   UNL     1     206.350 201.022 215.203  1.00  0.00     0.004 C 
ENDBRANCH   8   9
ENDBRANCH   7   8
ENDBRANCH   6   7
ENDBRANCH   5   6
ENDBRANCH   4   5
ENDBRANCH   3   4
ENDBRANCH   2   3
ENDBRANCH   1   2
BRANCH   1  11
ATOM     11  C   UNL     1     202.752 197.578 215.695  1.00  0.00     0.000 C 
BRANCH  11  12
ATOM     12  C   UNL     1     202.742 197.954 217.188  1.00  0.00     0.000 C 
BRANCH  12  13
ATOM     13  C   UNL     1     201.335 198.291 217.710  1.00  0.00     0.000 C 
BRANCH  13  14
ATOM     14  C   UNL     1     201.159 199.789 218.005  1.00  0.00     0.000 C 
BRANCH  14  15
ATOM     15  C   UNL     1     202.452 200.594 217.781  1.00  0.00     0.001 C 
BRANCH  15  16
ATOM     16  C   UNL     1     202.385 201.481 216.528  1.00  0.00     0.012 C 
BRANCH  16  17
ATOM     17  C   UNL     1     200.946 201.727 216.056  1.00  0.00     0.123 C 
BRANCH  17  18
ATOM     18  C   UNL     1     200.927 202.726 214.944  1.00  0.00     0.305 C 
ATOM     19  O   UNL     1     201.979 203.359 214.652  1.00  0.00    -0.252 OA
BRANCH  18  20
ATOM     20  O   UNL     1     199.753 202.917 214.210  1.00  0.00    -0.469 OA
ATOM     21  C   UNL     1     199.072 204.165 214.166  1.00  0.00     0.282 C 
ENDBRANCH  18  20
ENDBRANCH  17  18
ENDBRANCH  16  17
ENDBRANCH  15  16
ENDBRANCH  14  15
ENDBRANCH  13  14
ENDBRANCH  12  13
ENDBRANCH  11  12
ENDBRANCH   1  11
TORSDOF 17
ENDMDL
