MODEL 1
REMARK VINA RESULT:    -5.581      0.000      0.000
REMARK INTER + INTRA:          -6.070
REMARK INTER:                  -6.070
REMARK INTRA:                   0.000
REMARK UNBOUND:                 0.000
REMARK SMILES Cc1cc(O)c2c(c1)C(=O)c1cc(O)cc(O)c1C2=O
REMARK SMILES IDX 1 1 2 2 8 3 7 4 6 5 4 6 3 7 19 8 20 9 18 10 11 11 9 12 10 13
REMARK SMILES IDX 12 14 13 15 15 16 16 17 5 18 17 20 14 22
REMARK H PARENT 5 19 17 21 14 23
REMARK Flexibility Score: inf
ROOT
ATOM      1  C   UNL     1      25.666  48.302  89.106  1.00  0.00     0.044 C 
ATOM      2  C   UNL     1      25.638  47.239  88.046  1.00  0.00    -0.047 A 
ATOM      3  C   UNL     1      24.610  46.290  88.029  1.00  0.00     0.016 A 
ATOM      4  C   UNL     1      24.598  45.264  87.069  1.00  0.00     0.038 A 
ATOM      5  C   UNL     1      25.646  45.171  86.126  1.00  0.00     0.076 A 
ATOM      6  C   UNL     1      26.661  46.163  86.120  1.00  0.00     0.127 A 
ATOM      7  C   UNL     1      26.663  47.162  87.097  1.00  0.00     0.050 A 
ATOM      8  C   UNL     1      25.677  43.990  85.224  1.00  0.00     0.201 C 
ATOM      9  O   UNL     1      26.781  43.548  84.807  1.00  0.00    -0.288 OA
ATOM     10  C   UNL     1      24.430  43.223  84.970  1.00  0.00     0.076 A 
ATOM     11  C   UNL     1      23.384  43.320  85.915  1.00  0.00     0.041 A 
ATOM     12  C   UNL     1      23.489  44.282  87.038  1.00  0.00     0.194 C 
ATOM     13  O   UNL     1      22.619  44.281  87.954  1.00  0.00    -0.289 OA
ATOM     14  C   UNL     1      22.245  42.506  85.785  1.00  0.00     0.059 A 
ATOM     15  C   UNL     1      22.131  41.614  84.719  1.00  0.00     0.120 A 
ATOM     16  C   UNL     1      23.144  41.544  83.759  1.00  0.00     0.093 A 
ATOM     17  C   UNL     1      24.278  42.357  83.857  1.00  0.00     0.131 A 
ENDROOT
BRANCH   6  18
ATOM     18  O   UNL     1      27.663  46.212  85.147  1.00  0.00    -0.507 OA
ATOM     19  H   UNL     1      28.203  47.041  84.942  1.00  0.00     0.293 HD
ENDBRANCH   6  18
BRANCH  17  20
ATOM     20  O   UNL     1      25.206  42.298  82.814  1.00  0.00    -0.507 OA
ATOM     21  H   UNL     1      25.714  43.102  82.473  1.00  0.00     0.293 HD
ENDBRANCH  17  20
BRANCH  15  22
ATOM     22  O   UNL     1      20.999  40.808  84.616  1.00  0.00    -0.508 OA
ATOM     23  H   UNL     1      20.923  40.089  83.905  1.00  0.00     0.293 HD
ENDBRANCH  15  22
TORSDOF 3
ENDMDL
MODEL 2
REMARK VINA RESULT:    -4.857      1.539      6.372
REMARK INTER + INTRA:          -5.283
REMARK INTER:                  -5.283
REMARK INTRA:                   0.000
REMARK UNBOUND:                 0.000
REMARK SMILES Cc1cc(O)c2c(c1)C(=O)c1cc(O)cc(O)c1C2=O
REMARK SMILES IDX 1 1 2 2 8 3 7 4 6 5 4 6 3 7 19 8 20 9 18 10 11 11 9 12 10 13
REMARK SMILES IDX 12 14 13 15 15 16 16 17 5 18 17 20 14 22
REMARK H PARENT 5 19 17 21 14 23
REMARK Flexibility Score: inf
ROOT
ATOM      1  C   UNL     1      23.251  41.187  83.497  1.00  0.00     0.044 C 
ATOM      2  C   UNL     1      23.485  42.269  84.511  1.00  0.00    -0.047 A 
ATOM      3  C   UNL     1      24.560  43.152  84.363  1.00  0.00     0.016 A 
ATOM      4  C   UNL     1      24.814  44.140  85.328  1.00  0.00     0.038 A 
ATOM      5  C   UNL     1      23.994  44.230  86.475  1.00  0.00     0.076 A 
ATOM      6  C   UNL     1      22.878  43.362  86.597  1.00  0.00     0.127 A 
ATOM      7  C   UNL     1      22.658  42.374  85.634  1.00  0.00     0.050 A 
ATOM      8  C   UNL     1      24.382  45.189  87.543  1.00  0.00     0.201 C 
ATOM      9  O   UNL     1      24.094  44.940  88.744  1.00  0.00    -0.288 OA
ATOM     10  C   UNL     1      25.268  46.337  87.217  1.00  0.00     0.076 A 
ATOM     11  C   UNL     1      26.086  46.242  86.068  1.00  0.00     0.041 A 
ATOM     12  C   UNL     1      25.936  45.092  85.147  1.00  0.00     0.194 C 
ATOM     13  O   UNL     1      26.749  44.937  84.193  1.00  0.00    -0.289 OA
ATOM     14  C   UNL     1      27.036  47.243  85.803  1.00  0.00     0.059 A 
ATOM     15  C   UNL     1      27.168  48.339  86.655  1.00  0.00     0.120 A 
ATOM     16  C   UNL     1      26.333  48.458  87.770  1.00  0.00     0.093 A 
ATOM     17  C   UNL     1      25.367  47.484  88.045  1.00  0.00     0.131 A 
ENDROOT
BRANCH   6  18
ATOM     18  O   UNL     1      21.950  43.467  87.636  1.00  0.00    -0.507 OA
ATOM     19  H   UNL     1      22.142  43.933  88.513  1.00  0.00     0.293 HD
ENDBRANCH   6  18
BRANCH  17  20
ATOM     20  O   UNL     1      24.509  47.715  89.123  1.00  0.00    -0.507 OA
ATOM     21  H   UNL     1      24.693  48.394  89.849  1.00  0.00     0.293 HD
ENDBRANCH  17  20
BRANCH  15  22
ATOM     22  O   UNL     1      28.125  49.314  86.379  1.00  0.00    -0.508 OA
ATOM     23  H   UNL     1      28.253  50.117  86.983  1.00  0.00     0.293 HD
ENDBRANCH  15  22
TORSDOF 3
ENDMDL
MODEL 3
REMARK VINA RESULT:    -4.557      1.956      2.705
REMARK INTER + INTRA:          -4.956
REMARK INTER:                  -4.956
REMARK INTRA:                   0.000
REMARK UNBOUND:                 0.000
REMARK SMILES Cc1cc(O)c2c(c1)C(=O)c1cc(O)cc(O)c1C2=O
REMARK SMILES IDX 1 1 2 2 8 3 7 4 6 5 4 6 3 7 19 8 20 9 18 10 11 11 9 12 10 13
REMARK SMILES IDX 12 14 13 15 15 16 16 17 5 18 17 20 14 22
REMARK H PARENT 5 19 17 21 14 23
REMARK Flexibility Score: inf
ROOT
ATOM      1  C   UNL     1      24.996  51.742  87.589  1.00  0.00     0.044 C 
ATOM      2  C   UNL     1      25.247  50.378  87.014  1.00  0.00    -0.047 A 
ATOM      3  C   UNL     1      24.411  49.308  87.349  1.00  0.00     0.016 A 
ATOM      4  C   UNL     1      24.663  48.019  86.852  1.00  0.00     0.038 A 
ATOM      5  C   UNL     1      25.787  47.791  86.026  1.00  0.00     0.076 A 
ATOM      6  C   UNL     1      26.605  48.888  85.653  1.00  0.00     0.127 A 
ATOM      7  C   UNL     1      26.346  50.158  86.176  1.00  0.00     0.050 A 
ATOM      8  C   UNL     1      26.104  46.390  85.642  1.00  0.00     0.201 C 
ATOM      9  O   UNL     1      27.299  46.051  85.436  1.00  0.00    -0.288 OA
ATOM     10  C   UNL     1      25.039  45.354  85.687  1.00  0.00     0.076 A 
ATOM     11  C   UNL     1      23.917  45.587  86.514  1.00  0.00     0.041 A 
ATOM     12  C   UNL     1      23.754  46.897  87.186  1.00  0.00     0.194 C 
ATOM     13  O   UNL     1      22.824  47.065  88.025  1.00  0.00    -0.289 OA
ATOM     14  C   UNL     1      22.957  44.575  86.691  1.00  0.00     0.059 A 
ATOM     15  C   UNL     1      23.094  43.347  86.045  1.00  0.00     0.120 A 
ATOM     16  C   UNL     1      24.181  43.127  85.194  1.00  0.00     0.093 A 
ATOM     17  C   UNL     1      25.139  44.124  84.986  1.00  0.00     0.131 A 
ENDROOT
BRANCH   6  18
ATOM     18  O   UNL     1      27.660  48.769  84.745  1.00  0.00    -0.507 OA
ATOM     19  H   UNL     1      27.764  47.991  84.108  1.00  0.00     0.293 HD
ENDBRANCH   6  18
BRANCH  17  20
ATOM     20  O   UNL     1      26.147  43.866  84.054  1.00  0.00    -0.507 OA
ATOM     21  H   UNL     1      26.554  42.953  83.911  1.00  0.00     0.293 HD
ENDBRANCH  17  20
BRANCH  15  22
ATOM     22  O   UNL     1      22.137  42.354  86.246  1.00  0.00    -0.508 OA
ATOM     23  H   UNL     1      21.148  42.572  86.287  1.00  0.00     0.293 HD
ENDBRANCH  15  22
TORSDOF 3
ENDMDL
MODEL 4
REMARK VINA RESULT:    -4.476      2.986      6.020
REMARK INTER + INTRA:          -4.869
REMARK INTER:                  -4.869
REMARK INTRA:                   0.000
REMARK UNBOUND:                 0.000
REMARK SMILES Cc1cc(O)c2c(c1)C(=O)c1cc(O)cc(O)c1C2=O
REMARK SMILES IDX 1 1 2 2 8 3 7 4 6 5 4 6 3 7 19 8 20 9 18 10 11 11 9 12 10 13
REMARK SMILES IDX 12 14 13 15 15 16 16 17 5 18 17 20 14 22
REMARK H PARENT 5 19 17 21 14 23
REMARK Flexibility Score: inf
ROOT
ATOM      1  C   UNL     1      28.068  44.538  84.125  1.00  0.00     0.044 C 
ATOM      2  C   UNL     1      26.744  44.920  84.719  1.00  0.00    -0.047 A 
ATOM      3  C   UNL     1      26.552  46.201  85.246  1.00  0.00     0.016 A 
ATOM      4  C   UNL     1      25.332  46.554  85.845  1.00  0.00     0.038 A 
ATOM      5  C   UNL     1      24.293  45.601  85.941  1.00  0.00     0.076 A 
ATOM      6  C   UNL     1      24.477  44.318  85.363  1.00  0.00     0.127 A 
ATOM      7  C   UNL     1      25.708  43.983  84.791  1.00  0.00     0.050 A 
ATOM      8  C   UNL     1      23.074  45.965  86.710  1.00  0.00     0.201 C 
ATOM      9  O   UNL     1      22.419  45.069  87.307  1.00  0.00    -0.288 OA
ATOM     10  C   UNL     1      22.741  47.396  86.930  1.00  0.00     0.076 A 
ATOM     11  C   UNL     1      23.782  48.346  86.832  1.00  0.00     0.041 A 
ATOM     12  C   UNL     1      25.126  47.924  86.373  1.00  0.00     0.194 C 
ATOM     13  O   UNL     1      26.090  48.739  86.407  1.00  0.00    -0.289 OA
ATOM     14  C   UNL     1      23.537  49.689  87.168  1.00  0.00     0.059 A 
ATOM     15  C   UNL     1      22.270  50.096  87.582  1.00  0.00     0.120 A 
ATOM     16  C   UNL     1      21.226  49.168  87.640  1.00  0.00     0.093 A 
ATOM     17  C   UNL     1      21.440  47.830  87.293  1.00  0.00     0.131 A 
ENDROOT
BRANCH   6  18
ATOM     18  O   UNL     1      23.460  43.362  85.308  1.00  0.00    -0.507 OA
ATOM     19  H   UNL     1      22.827  43.174  86.073  1.00  0.00     0.293 HD
ENDBRANCH   6  18
BRANCH  17  20
ATOM     20  O   UNL     1      20.331  46.980  87.288  1.00  0.00    -0.507 OA
ATOM     21  H   UNL     1      20.393  45.981  87.149  1.00  0.00     0.293 HD
ENDBRANCH  17  20
BRANCH  15  22
ATOM     22  O   UNL     1      22.053  51.430  87.921  1.00  0.00    -0.508 OA
ATOM     23  H   UNL     1      21.600  52.073  87.281  1.00  0.00     0.293 HD
ENDBRANCH  15  22
TORSDOF 3
ENDMDL
MODEL 5
REMARK VINA RESULT:    -4.413      1.527      3.376
REMARK INTER + INTRA:          -4.800
REMARK INTER:                  -4.800
REMARK INTRA:                   0.000
REMARK UNBOUND:                 0.000
REMARK SMILES Cc1cc(O)c2c(c1)C(=O)c1cc(O)cc(O)c1C2=O
REMARK SMILES IDX 1 1 2 2 8 3 7 4 6 5 4 6 3 7 19 8 20 9 18 10 11 11 9 12 10 13
REMARK SMILES IDX 12 14 13 15 15 16 16 17 5 18 17 20 14 22
REMARK H PARENT 5 19 17 21 14 23
REMARK Flexibility Score: inf
ROOT
ATOM      1  C   UNL     1      28.125  49.330  86.966  1.00  0.00     0.044 C 
ATOM      2  C   UNL     1      27.031  48.302  86.939  1.00  0.00    -0.047 A 
ATOM      3  C   UNL     1      27.060  47.270  85.995  1.00  0.00     0.016 A 
ATOM      4  C   UNL     1      26.019  46.329  85.932  1.00  0.00     0.038 A 
ATOM      5  C   UNL     1      24.917  46.438  86.809  1.00  0.00     0.076 A 
ATOM      6  C   UNL     1      24.916  47.460  87.794  1.00  0.00     0.127 A 
ATOM      7  C   UNL     1      25.953  48.397  87.825  1.00  0.00     0.050 A 
ATOM      8  C   UNL     1      23.768  45.515  86.614  1.00  0.00     0.201 C 
ATOM      9  O   UNL     1      22.605  45.888  86.919  1.00  0.00    -0.288 OA
ATOM     10  C   UNL     1      23.967  44.234  85.887  1.00  0.00     0.076 A 
ATOM     11  C   UNL     1      25.071  44.129  85.011  1.00  0.00     0.041 A 
ATOM     12  C   UNL     1      26.072  45.219  84.950  1.00  0.00     0.194 C 
ATOM     13  O   UNL     1      26.987  45.189  84.080  1.00  0.00    -0.289 OA
ATOM     14  C   UNL     1      25.216  42.988  84.203  1.00  0.00     0.059 A 
ATOM     15  C   UNL     1      24.287  41.950  84.269  1.00  0.00     0.120 A 
ATOM     16  C   UNL     1      23.217  42.031  85.164  1.00  0.00     0.093 A 
ATOM     17  C   UNL     1      23.061  43.147  85.993  1.00  0.00     0.131 A 
ENDROOT
BRANCH   6  18
ATOM     18  O   UNL     1      23.927  47.562  88.775  1.00  0.00    -0.507 OA
ATOM     19  H   UNL     1      23.809  48.371  89.369  1.00  0.00     0.293 HD
ENDBRANCH   6  18
BRANCH  17  20
ATOM     20  O   UNL     1      22.021  43.118  86.925  1.00  0.00    -0.507 OA
ATOM     21  H   UNL     1      22.166  43.152  87.925  1.00  0.00     0.293 HD
ENDBRANCH  17  20
BRANCH  15  22
ATOM     22  O   UNL     1      24.444  40.834  83.450  1.00  0.00    -0.508 OA
ATOM     23  H   UNL     1      25.021  40.864  82.617  1.00  0.00     0.293 HD
ENDBRANCH  15  22
TORSDOF 3
ENDMDL
MODEL 6
REMARK VINA RESULT:    -4.056      2.213      3.307
REMARK INTER + INTRA:          -4.412
REMARK INTER:                  -4.412
REMARK INTRA:                   0.000
REMARK UNBOUND:                 0.000
REMARK SMILES Cc1cc(O)c2c(c1)C(=O)c1cc(O)cc(O)c1C2=O
REMARK SMILES IDX 1 1 2 2 8 3 7 4 6 5 4 6 3 7 19 8 20 9 18 10 11 11 9 12 10 13
REMARK SMILES IDX 12 14 13 15 15 16 16 17 5 18 17 20 14 22
REMARK H PARENT 5 19 17 21 14 23
REMARK Flexibility Score: inf
ROOT
ATOM      1  C   UNL     1      26.496  52.180  86.889  1.00  0.00     0.044 C 
ATOM      2  C   UNL     1      26.446  50.742  86.460  1.00  0.00    -0.047 A 
ATOM      3  C   UNL     1      25.560  49.854  87.079  1.00  0.00     0.016 A 
ATOM      4  C   UNL     1      25.536  48.497  86.716  1.00  0.00     0.038 A 
ATOM      5  C   UNL     1      26.432  48.015  85.737  1.00  0.00     0.076 A 
ATOM      6  C   UNL     1      27.297  48.929  85.080  1.00  0.00     0.127 A 
ATOM      7  C   UNL     1      27.316  50.270  85.472  1.00  0.00     0.050 A 
ATOM      8  C   UNL     1      26.479  46.550  85.487  1.00  0.00     0.201 C 
ATOM      9  O   UNL     1      27.555  46.012  85.112  1.00  0.00    -0.288 OA
ATOM     10  C   UNL     1      25.318  45.701  85.860  1.00  0.00     0.076 A 
ATOM     11  C   UNL     1      24.424  46.188  86.840  1.00  0.00     0.041 A 
ATOM     12  C   UNL     1      24.572  47.569  87.354  1.00  0.00     0.194 C 
ATOM     13  O   UNL     1      23.859  47.964  88.319  1.00  0.00    -0.289 OA
ATOM     14  C   UNL     1      23.394  45.360  87.320  1.00  0.00     0.059 A 
ATOM     15  C   UNL     1      23.237  44.065  86.825  1.00  0.00     0.120 A 
ATOM     16  C   UNL     1      24.093  43.594  85.826  1.00  0.00     0.093 A 
ATOM     17  C   UNL     1      25.114  44.405  85.319  1.00  0.00     0.131 A 
ENDROOT
BRANCH   6  18
ATOM     18  O   UNL     1      28.124  48.556  84.018  1.00  0.00    -0.507 OA
ATOM     19  H   UNL     1      28.852  47.859  84.095  1.00  0.00     0.293 HD
ENDBRANCH   6  18
BRANCH  17  20
ATOM     20  O   UNL     1      25.872  43.901  84.259  1.00  0.00    -0.507 OA
ATOM     21  H   UNL     1      26.844  44.133  84.108  1.00  0.00     0.293 HD
ENDBRANCH  17  20
BRANCH  15  22
ATOM     22  O   UNL     1      22.217  43.258  87.324  1.00  0.00    -0.508 OA
ATOM     23  H   UNL     1      21.409  43.016  86.762  1.00  0.00     0.293 HD
ENDBRANCH  15  22
TORSDOF 3
ENDMDL
MODEL 7
REMARK VINA RESULT:    -3.995      3.485      5.909
REMARK INTER + INTRA:          -4.345
REMARK INTER:                  -4.345
REMARK INTRA:                   0.000
REMARK UNBOUND:                 0.000
REMARK SMILES Cc1cc(O)c2c(c1)C(=O)c1cc(O)cc(O)c1C2=O
REMARK SMILES IDX 1 1 2 2 8 3 7 4 6 5 4 6 3 7 19 8 20 9 18 10 11 11 9 12 10 13
REMARK SMILES IDX 12 14 13 15 15 16 16 17 5 18 17 20 14 22
REMARK H PARENT 5 19 17 21 14 23
REMARK Flexibility Score: inf
ROOT
ATOM      1  C   UNL     1      22.163  53.073  88.976  1.00  0.00     0.044 C 
ATOM      2  C   UNL     1      22.229  51.669  88.450  1.00  0.00    -0.047 A 
ATOM      3  C   UNL     1      23.409  51.189  87.870  1.00  0.00     0.016 A 
ATOM      4  C   UNL     1      23.468  49.892  87.335  1.00  0.00     0.038 A 
ATOM      5  C   UNL     1      22.320  49.070  87.355  1.00  0.00     0.076 A 
ATOM      6  C   UNL     1      21.140  49.545  87.984  1.00  0.00     0.127 A 
ATOM      7  C   UNL     1      21.099  50.846  88.492  1.00  0.00     0.050 A 
ATOM      8  C   UNL     1      22.378  47.763  86.648  1.00  0.00     0.201 C 
ATOM      9  O   UNL     1      21.332  47.277  86.141  1.00  0.00    -0.288 OA
ATOM     10  C   UNL     1      23.695  47.130  86.377  1.00  0.00     0.076 A 
ATOM     11  C   UNL     1      24.841  47.956  86.359  1.00  0.00     0.041 A 
ATOM     12  C   UNL     1      24.731  49.381  86.752  1.00  0.00     0.194 C 
ATOM     13  O   UNL     1      25.722  50.152  86.614  1.00  0.00    -0.289 OA
ATOM     14  C   UNL     1      26.082  47.422  85.971  1.00  0.00     0.059 A 
ATOM     15  C   UNL     1      26.196  46.077  85.619  1.00  0.00     0.120 A 
ATOM     16  C   UNL     1      25.074  45.246  85.676  1.00  0.00     0.093 A 
ATOM     17  C   UNL     1      23.832  45.750  86.076  1.00  0.00     0.131 A 
ENDROOT
BRANCH   6  18
ATOM     18  O   UNL     1      20.003  48.751  88.154  1.00  0.00    -0.507 OA
ATOM     19  H   UNL     1      19.624  48.155  87.431  1.00  0.00     0.293 HD
ENDBRANCH   6  18
BRANCH  17  20
ATOM     20  O   UNL     1      22.776  44.843  86.196  1.00  0.00    -0.507 OA
ATOM     21  H   UNL     1      22.279  44.675  87.060  1.00  0.00     0.293 HD
ENDBRANCH  17  20
BRANCH  15  22
ATOM     22  O   UNL     1      27.434  45.572  85.226  1.00  0.00    -0.508 OA
ATOM     23  H   UNL     1      27.621  45.317  84.263  1.00  0.00     0.293 HD
ENDBRANCH  15  22
TORSDOF 3
ENDMDL
MODEL 8
REMARK VINA RESULT:    -3.931      2.737      4.620
REMARK INTER + INTRA:          -4.276
REMARK INTER:                  -4.276
REMARK INTRA:                   0.000
REMARK UNBOUND:                 0.000
REMARK SMILES Cc1cc(O)c2c(c1)C(=O)c1cc(O)cc(O)c1C2=O
REMARK SMILES IDX 1 1 2 2 8 3 7 4 6 5 4 6 3 7 19 8 20 9 18 10 11 11 9 12 10 13
REMARK SMILES IDX 12 14 13 15 15 16 16 17 5 18 17 20 14 22
REMARK H PARENT 5 19 17 21 14 23
REMARK Flexibility Score: inf
ROOT
ATOM      1  C   UNL     1      27.846  51.955  86.526  1.00  0.00     0.044 C 
ATOM      2  C   UNL     1      26.859  50.824  86.498  1.00  0.00    -0.047 A 
ATOM      3  C   UNL     1      27.233  49.577  85.987  1.00  0.00     0.016 A 
ATOM      4  C   UNL     1      26.305  48.525  85.915  1.00  0.00     0.038 A 
ATOM      5  C   UNL     1      24.972  48.733  86.336  1.00  0.00     0.076 A 
ATOM      6  C   UNL     1      24.611  49.986  86.895  1.00  0.00     0.127 A 
ATOM      7  C   UNL     1      25.547  51.023  86.938  1.00  0.00     0.050 A 
ATOM      8  C   UNL     1      23.985  47.645  86.107  1.00  0.00     0.201 C 
ATOM      9  O   UNL     1      22.773  47.929  85.911  1.00  0.00    -0.288 OA
ATOM     10  C   UNL     1      24.457  46.248  85.921  1.00  0.00     0.076 A 
ATOM     11  C   UNL     1      25.791  46.046  85.500  1.00  0.00     0.041 A 
ATOM     12  C   UNL     1      26.718  47.197  85.402  1.00  0.00     0.194 C 
ATOM     13  O   UNL     1      27.868  47.041  84.905  1.00  0.00    -0.289 OA
ATOM     14  C   UNL     1      26.233  44.751  85.181  1.00  0.00     0.059 A 
ATOM     15  C   UNL     1      25.372  43.660  85.290  1.00  0.00     0.120 A 
ATOM     16  C   UNL     1      24.064  43.850  85.746  1.00  0.00     0.093 A 
ATOM     17  C   UNL     1      23.605  45.126  86.088  1.00  0.00     0.131 A 
ENDROOT
BRANCH   6  18
ATOM     18  O   UNL     1      23.351  50.232  87.446  1.00  0.00    -0.507 OA
ATOM     19  H   UNL     1      22.659  50.830  87.015  1.00  0.00     0.293 HD
ENDBRANCH   6  18
BRANCH  17  20
ATOM     20  O   UNL     1      22.318  45.227  86.621  1.00  0.00    -0.507 OA
ATOM     21  H   UNL     1      21.875  44.491  87.153  1.00  0.00     0.293 HD
ENDBRANCH  17  20
BRANCH  15  22
ATOM     22  O   UNL     1      25.829  42.386  84.956  1.00  0.00    -0.508 OA
ATOM     23  H   UNL     1      26.562  41.930  85.487  1.00  0.00     0.293 HD
ENDBRANCH  15  22
TORSDOF 3
ENDMDL
