MODEL 1
REMARK VINA RESULT:    -3.480      0.000      0.000
REMARK INTER + INTRA:          -4.891
REMARK INTER:                  -4.498
REMARK INTRA:                  -0.393
REMARK UNBOUND:                -0.393
REMARK SMILES CCO[C@@H]1O[C@@H](CO)[C@H](O)[C@H](O)[C@H]1O
REMARK SMILES IDX 4 1 13 2 11 3 9 4 6 5 5 6 3 7 2 8 1 9 14 10 12 12 7 14 8 15
REMARK SMILES IDX 10 17
REMARK H PARENT 14 11 12 13 8 16 10 18
REMARK Flexibility Score: inf
ROOT
ATOM      1  C   UNL     1       7.410   2.750   1.864  1.00  0.00     0.281 C 
ATOM      2  C   UNL     1       6.791   3.881   1.011  1.00  0.00     0.202 C 
ATOM      3  C   UNL     1       7.055   5.254   1.648  1.00  0.00     0.179 C 
ATOM      4  C   UNL     1       8.549   5.402   1.999  1.00  0.00     0.177 C 
ATOM      5  C   UNL     1       9.024   4.175   2.811  1.00  0.00     0.178 C 
ATOM      6  O   UNL     1       8.796   2.978   2.083  1.00  0.00    -0.341 OA
ENDROOT
BRANCH   1   7
ATOM      7  O   UNL     1       6.700   2.619   3.086  1.00  0.00    -0.350 OA
BRANCH   7   8
ATOM      8  C   UNL     1       6.014   1.385   3.125  1.00  0.00     0.160 C 
ATOM      9  C   UNL     1       4.537   1.629   2.863  1.00  0.00     0.035 C 
ENDBRANCH   7   8
ENDBRANCH   1   7
BRANCH   2  10
ATOM     10  O   UNL     1       7.344   3.858  -0.282  1.00  0.00    -0.385 OA
ATOM     11  H   UNL     1       8.128   3.251  -0.249  1.00  0.00     0.211 HD
ENDBRANCH   2  10
BRANCH   3  12
ATOM     12  O   UNL     1       6.261   5.396   2.800  1.00  0.00    -0.387 OA
ATOM     13  H   UNL     1       5.904   6.322   2.796  1.00  0.00     0.211 HD
ENDBRANCH   3  12
BRANCH   5  14
ATOM     14  C   UNL     1      10.525   4.274   3.118  1.00  0.00     0.191 C 
BRANCH  14  15
ATOM     15  O   UNL     1      11.185   4.992   2.111  1.00  0.00    -0.394 OA
ATOM     16  H   UNL     1      12.159   4.870   2.267  1.00  0.00     0.210 HD
ENDBRANCH  14  15
ENDBRANCH   5  14
BRANCH   4  17
ATOM     17  O   UNL     1       8.761   6.578   2.738  1.00  0.00    -0.387 OA
ATOM     18  H   UNL     1       9.448   6.365   3.422  1.00  0.00     0.211 HD
ENDBRANCH   4  17
TORSDOF 7
ENDMDL
MODEL 2
REMARK VINA RESULT:    -3.168      1.590      3.369
REMARK INTER + INTRA:          -4.487
REMARK INTER:                  -4.197
REMARK INTRA:                  -0.290
REMARK UNBOUND:                -0.393
REMARK SMILES CCO[C@@H]1O[C@@H](CO)[C@H](O)[C@H](O)[C@H]1O
REMARK SMILES IDX 4 1 13 2 11 3 9 4 6 5 5 6 3 7 2 8 1 9 14 10 12 12 7 14 8 15
REMARK SMILES IDX 10 17
REMARK H PARENT 14 11 12 13 8 16 10 18
REMARK Flexibility Score: inf
ROOT
ATOM      1  C   UNL     1       6.680   4.539   3.017  1.00  0.00     0.281 C 
ATOM      2  C   UNL     1       6.234   3.210   2.367  1.00  0.00     0.202 C 
ATOM      3  C   UNL     1       6.768   3.096   0.931  1.00  0.00     0.179 C 
ATOM      4  C   UNL     1       8.280   3.401   0.897  1.00  0.00     0.177 C 
ATOM      5  C   UNL     1       8.565   4.735   1.623  1.00  0.00     0.178 C 
ATOM      6  O   UNL     1       8.093   4.684   2.961  1.00  0.00    -0.341 OA
ENDROOT
BRANCH   1   7
ATOM      7  O   UNL     1       6.017   5.630   2.397  1.00  0.00    -0.350 OA
BRANCH   7   8
ATOM      8  C   UNL     1       6.276   6.827   3.103  1.00  0.00     0.160 C 
ATOM      9  C   UNL     1       6.431   7.966   2.109  1.00  0.00     0.035 C 
ENDBRANCH   7   8
ENDBRANCH   1   7
BRANCH   2  10
ATOM     10  O   UNL     1       6.713   2.127   3.125  1.00  0.00    -0.385 OA
ATOM     11  H   UNL     1       5.934   1.546   3.322  1.00  0.00     0.211 HD
ENDBRANCH   2  10
BRANCH   3  12
ATOM     12  O   UNL     1       6.067   3.987   0.099  1.00  0.00    -0.387 OA
ATOM     13  H   UNL     1       6.037   4.862   0.568  1.00  0.00     0.211 HD
ENDBRANCH   3  12
BRANCH   5  14
ATOM     14  C   UNL     1      10.072   5.026   1.654  1.00  0.00     0.191 C 
BRANCH  14  15
ATOM     15  O   UNL     1      10.482   5.616   0.450  1.00  0.00    -0.394 OA
ATOM     16  H   UNL     1      10.885   6.493   0.686  1.00  0.00     0.210 HD
ENDBRANCH  14  15
ENDBRANCH   5  14
BRANCH   4  17
ATOM     17  O   UNL     1       8.731   3.470  -0.431  1.00  0.00    -0.387 OA
ATOM     18  H   UNL     1       9.719   3.368  -0.403  1.00  0.00     0.211 HD
ENDBRANCH   4  17
TORSDOF 7
ENDMDL
MODEL 3
REMARK VINA RESULT:    -2.862      1.551      3.933
REMARK INTER + INTRA:          -4.091
REMARK INTER:                  -3.952
REMARK INTRA:                  -0.139
REMARK UNBOUND:                -0.393
REMARK SMILES CCO[C@@H]1O[C@@H](CO)[C@H](O)[C@H](O)[C@H]1O
REMARK SMILES IDX 4 1 13 2 11 3 9 4 6 5 5 6 3 7 2 8 1 9 14 10 12 12 7 14 8 15
REMARK SMILES IDX 10 17
REMARK H PARENT 14 11 12 13 8 16 10 18
REMARK Flexibility Score: inf
ROOT
ATOM      1  C   UNL     1       9.270   4.409   1.770  1.00  0.00     0.281 C 
ATOM      2  C   UNL     1       8.476   3.244   1.137  1.00  0.00     0.202 C 
ATOM      3  C   UNL     1       7.129   3.048   1.851  1.00  0.00     0.179 C 
ATOM      4  C   UNL     1       6.387   4.394   1.972  1.00  0.00     0.177 C 
ATOM      5  C   UNL     1       7.327   5.461   2.578  1.00  0.00     0.178 C 
ATOM      6  O   UNL     1       8.497   5.602   1.786  1.00  0.00    -0.341 OA
ENDROOT
BRANCH   1   7
ATOM      7  O   UNL     1       9.706   4.050   3.072  1.00  0.00    -0.350 OA
BRANCH   7   8
ATOM      8  C   UNL     1      11.117   3.994   3.118  1.00  0.00     0.160 C 
ATOM      9  C   UNL     1      11.683   5.319   2.631  1.00  0.00     0.035 C 
ENDBRANCH   7   8
ENDBRANCH   1   7
BRANCH   2  10
ATOM     10  O   UNL     1       8.243   3.512  -0.223  1.00  0.00    -0.385 OA
ATOM     11  H   UNL     1       8.882   4.222  -0.491  1.00  0.00     0.211 HD
ENDBRANCH   2  10
BRANCH   3  12
ATOM     12  O   UNL     1       7.351   2.490   3.122  1.00  0.00    -0.387 OA
ATOM     13  H   UNL     1       6.691   2.901   3.740  1.00  0.00     0.211 HD
ENDBRANCH   3  12
BRANCH   5  14
ATOM     14  C   UNL     1       6.626   6.825   2.651  1.00  0.00     0.191 C 
BRANCH  14  15
ATOM     15  O   UNL     1       6.851   7.554   1.475  1.00  0.00    -0.394 OA
ATOM     16  H   UNL     1       6.983   8.500   1.747  1.00  0.00     0.210 HD
ENDBRANCH  14  15
ENDBRANCH   5  14
BRANCH   4  17
ATOM     17  O   UNL     1       5.244   4.248   2.776  1.00  0.00    -0.387 OA
ATOM     18  H   UNL     1       5.147   5.092   3.289  1.00  0.00     0.211 HD
ENDBRANCH   4  17
TORSDOF 7
ENDMDL
MODEL 4
REMARK VINA RESULT:    -2.820      1.272      4.303
REMARK INTER + INTRA:          -4.038
REMARK INTER:                  -3.815
REMARK INTRA:                  -0.222
REMARK UNBOUND:                -0.393
REMARK SMILES CCO[C@@H]1O[C@@H](CO)[C@H](O)[C@H](O)[C@H]1O
REMARK SMILES IDX 4 1 13 2 11 3 9 4 6 5 5 6 3 7 2 8 1 9 14 10 12 12 7 14 8 15
REMARK SMILES IDX 10 17
REMARK H PARENT 14 11 12 13 8 16 10 18
REMARK Flexibility Score: inf
ROOT
ATOM      1  C   UNL     1       8.114   4.306   2.540  1.00  0.00     0.281 C 
ATOM      2  C   UNL     1       7.708   5.193   1.342  1.00  0.00     0.202 C 
ATOM      3  C   UNL     1       6.898   4.388   0.314  1.00  0.00     0.179 C 
ATOM      4  C   UNL     1       5.758   3.621   1.014  1.00  0.00     0.177 C 
ATOM      5  C   UNL     1       6.319   2.822   2.212  1.00  0.00     0.178 C 
ATOM      6  O   UNL     1       6.975   3.688   3.125  1.00  0.00    -0.341 OA
ENDROOT
BRANCH   1   7
ATOM      7  O   UNL     1       9.078   3.347   2.130  1.00  0.00    -0.350 OA
BRANCH   7   8
ATOM      8  C   UNL     1      10.129   3.276   3.072  1.00  0.00     0.160 C 
ATOM      9  C   UNL     1      10.871   4.602   3.091  1.00  0.00     0.035 C 
ENDBRANCH   7   8
ENDBRANCH   1   7
BRANCH   2  10
ATOM     10  O   UNL     1       6.934   6.276   1.794  1.00  0.00    -0.385 OA
ATOM     11  H   UNL     1       7.328   7.097   1.400  1.00  0.00     0.211 HD
ENDBRANCH   2  10
BRANCH   3  12
ATOM     12  O   UNL     1       7.752   3.497  -0.360  1.00  0.00    -0.387 OA
ATOM     13  H   UNL     1       7.596   2.595   0.026  1.00  0.00     0.211 HD
ENDBRANCH   3  12
BRANCH   5  14
ATOM     14  C   UNL     1       5.190   2.099   2.960  1.00  0.00     0.191 C 
BRANCH  14  15
ATOM     15  O   UNL     1       5.288   0.713   2.775  1.00  0.00    -0.394 OA
ATOM     16  H   UNL     1       5.003   0.292   3.629  1.00  0.00     0.210 HD
ENDBRANCH  14  15
ENDBRANCH   5  14
BRANCH   4  17
ATOM     17  O   UNL     1       5.130   2.751   0.107  1.00  0.00    -0.387 OA
ATOM     18  H   UNL     1       5.707   1.946   0.038  1.00  0.00     0.211 HD
ENDBRANCH   4  17
TORSDOF 7
ENDMDL
MODEL 5
REMARK VINA RESULT:    -2.724      1.522      2.929
REMARK INTER + INTRA:          -3.913
REMARK INTER:                  -3.537
REMARK INTRA:                  -0.376
REMARK UNBOUND:                -0.393
REMARK SMILES CCO[C@@H]1O[C@@H](CO)[C@H](O)[C@H](O)[C@H]1O
REMARK SMILES IDX 4 1 13 2 11 3 9 4 6 5 5 6 3 7 2 8 1 9 14 10 12 12 7 14 8 15
REMARK SMILES IDX 10 17
REMARK H PARENT 14 11 12 13 8 16 10 18
REMARK Flexibility Score: inf
ROOT
ATOM      1  C   UNL     1       6.695   3.234   2.195  1.00  0.00     0.281 C 
ATOM      2  C   UNL     1       8.156   2.817   1.912  1.00  0.00     0.202 C 
ATOM      3  C   UNL     1       8.878   3.885   1.076  1.00  0.00     0.179 C 
ATOM      4  C   UNL     1       8.674   5.280   1.701  1.00  0.00     0.177 C 
ATOM      5  C   UNL     1       7.172   5.526   1.964  1.00  0.00     0.178 C 
ATOM      6  O   UNL     1       6.642   4.515   2.809  1.00  0.00    -0.341 OA
ENDROOT
BRANCH   1   7
ATOM      7  O   UNL     1       5.936   3.195   0.997  1.00  0.00    -0.350 OA
BRANCH   7   8
ATOM      8  C   UNL     1       4.625   2.741   1.262  1.00  0.00     0.160 C 
ATOM      9  C   UNL     1       4.673   1.698   2.366  1.00  0.00     0.035 C 
ENDBRANCH   7   8
ENDBRANCH   1   7
BRANCH   2  10
ATOM     10  O   UNL     1       8.843   2.637   3.125  1.00  0.00    -0.385 OA
ATOM     11  H   UNL     1       8.180   2.310   3.786  1.00  0.00     0.211 HD
ENDBRANCH   2  10
BRANCH   3  12
ATOM     12  O   UNL     1       8.388   3.859  -0.242  1.00  0.00    -0.387 OA
ATOM     13  H   UNL     1       9.077   4.282  -0.818  1.00  0.00     0.211 HD
ENDBRANCH   3  12
BRANCH   5  14
ATOM     14  C   UNL     1       6.953   6.885   2.643  1.00  0.00     0.191 C 
BRANCH  14  15
ATOM     15  O   UNL     1       6.727   7.881   1.683  1.00  0.00    -0.394 OA
ATOM     16  H   UNL     1       6.451   8.697   2.179  1.00  0.00     0.210 HD
ENDBRANCH  14  15
ENDBRANCH   5  14
BRANCH   4  17
ATOM     17  O   UNL     1       9.182   6.274   0.847  1.00  0.00    -0.387 OA
ATOM     18  H   UNL     1       9.107   7.135   1.336  1.00  0.00     0.211 HD
ENDBRANCH   4  17
TORSDOF 7
ENDMDL
MODEL 6
REMARK VINA RESULT:    -2.658      1.701      4.531
REMARK INTER + INTRA:          -3.828
REMARK INTER:                  -3.396
REMARK INTRA:                  -0.432
REMARK UNBOUND:                -0.393
REMARK SMILES CCO[C@@H]1O[C@@H](CO)[C@H](O)[C@H](O)[C@H]1O
REMARK SMILES IDX 4 1 13 2 11 3 9 4 6 5 5 6 3 7 2 8 1 9 14 10 12 12 7 14 8 15
REMARK SMILES IDX 10 17
REMARK H PARENT 14 11 12 13 8 16 10 18
REMARK Flexibility Score: inf
ROOT
ATOM      1  C   UNL     1       7.372   5.062   1.255  1.00  0.00     0.281 C 
ATOM      2  C   UNL     1       8.385   3.950   0.899  1.00  0.00     0.202 C 
ATOM      3  C   UNL     1       8.261   2.766   1.870  1.00  0.00     0.179 C 
ATOM      4  C   UNL     1       6.787   2.332   1.999  1.00  0.00     0.177 C 
ATOM      5  C   UNL     1       5.902   3.560   2.311  1.00  0.00     0.178 C 
ATOM      6  O   UNL     1       6.047   4.548   1.302  1.00  0.00    -0.341 OA
ENDROOT
BRANCH   1   7
ATOM      7  O   UNL     1       7.738   5.680   2.479  1.00  0.00    -0.350 OA
BRANCH   7   8
ATOM      8  C   UNL     1       8.407   6.900   2.231  1.00  0.00     0.160 C 
ATOM      9  C   UNL     1       7.427   7.887   1.618  1.00  0.00     0.035 C 
ENDBRANCH   7   8
ENDBRANCH   1   7
BRANCH   2  10
ATOM     10  O   UNL     1       8.153   3.499  -0.412  1.00  0.00    -0.385 OA
ATOM     11  H   UNL     1       7.512   4.133  -0.827  1.00  0.00     0.211 HD
ENDBRANCH   2  10
BRANCH   3  12
ATOM     12  O   UNL     1       8.779   3.134   3.124  1.00  0.00    -0.387 OA
ATOM     13  H   UNL     1       8.133   2.820   3.810  1.00  0.00     0.211 HD
ENDBRANCH   3  12
BRANCH   5  14
ATOM     14  C   UNL     1       4.422   3.159   2.382  1.00  0.00     0.191 C 
BRANCH  14  15
ATOM     15  O   UNL     1       4.190   2.004   1.624  1.00  0.00    -0.394 OA
ATOM     16  H   UNL     1       4.348   2.250   0.674  1.00  0.00     0.210 HD
ENDBRANCH  14  15
ENDBRANCH   5  14
BRANCH   4  17
ATOM     17  O   UNL     1       6.651   1.371   3.014  1.00  0.00    -0.387 OA
ATOM     18  H   UNL     1       7.465   0.804   2.981  1.00  0.00     0.211 HD
ENDBRANCH   4  17
TORSDOF 7
ENDMDL
MODEL 7
REMARK VINA RESULT:    -2.634      2.822      4.316
REMARK INTER + INTRA:          -3.797
REMARK INTER:                  -3.351
REMARK INTRA:                  -0.447
REMARK UNBOUND:                -0.393
REMARK SMILES CCO[C@@H]1O[C@@H](CO)[C@H](O)[C@H](O)[C@H]1O
REMARK SMILES IDX 4 1 13 2 11 3 9 4 6 5 5 6 3 7 2 8 1 9 14 10 12 12 7 14 8 15
REMARK SMILES IDX 10 17
REMARK H PARENT 14 11 12 13 8 16 10 18
REMARK Flexibility Score: inf
ROOT
ATOM      1  C   UNL     1       9.953   5.700   1.896  1.00  0.00     0.281 C 
ATOM      2  C   UNL     1      10.401   6.911   1.047  1.00  0.00     0.202 C 
ATOM      3  C   UNL     1      11.617   7.604   1.680  1.00  0.00     0.179 C 
ATOM      4  C   UNL     1      12.706   6.566   2.020  1.00  0.00     0.177 C 
ATOM      5  C   UNL     1      12.091   5.402   2.829  1.00  0.00     0.178 C 
ATOM      6  O   UNL     1      11.031   4.797   2.104  1.00  0.00    -0.341 OA
ENDROOT
BRANCH   1   7
ATOM      7  O   UNL     1       9.398   6.146   3.124  1.00  0.00    -0.350 OA
BRANCH   7   8
ATOM      8  C   UNL     1       7.997   6.288   3.006  1.00  0.00     0.160 C 
ATOM      9  C   UNL     1       7.392   4.947   2.623  1.00  0.00     0.035 C 
ENDBRANCH   7   8
ENDBRANCH   1   7
BRANCH   2  10
ATOM     10  O   UNL     1      10.736   6.483  -0.250  1.00  0.00    -0.385 OA
ATOM     11  H   UNL     1      11.185   7.246  -0.698  1.00  0.00     0.211 HD
ENDBRANCH   2  10
BRANCH   3  12
ATOM     12  O   UNL     1      11.213   8.292   2.838  1.00  0.00    -0.387 OA
ATOM     13  H   UNL     1      10.975   9.215   2.561  1.00  0.00     0.211 HD
ENDBRANCH   3  12
BRANCH   5  14
ATOM     14  C   UNL     1      13.147   4.327   3.125  1.00  0.00     0.191 C 
BRANCH  14  15
ATOM     15  O   UNL     1      14.084   4.262   2.085  1.00  0.00    -0.394 OA
ATOM     16  H   UNL     1      14.666   3.479   2.275  1.00  0.00     0.210 HD
ENDBRANCH  14  15
ENDBRANCH   5  14
BRANCH   4  17
ATOM     17  O   UNL     1      13.739   7.170   2.756  1.00  0.00    -0.387 OA
ATOM     18  H   UNL     1      13.475   8.117   2.894  1.00  0.00     0.211 HD
ENDBRANCH   4  17
TORSDOF 7
ENDMDL
MODEL 8
REMARK VINA RESULT:    -2.484      2.107      4.145
REMARK INTER + INTRA:          -3.603
REMARK INTER:                  -3.341
REMARK INTRA:                  -0.263
REMARK UNBOUND:                -0.393
REMARK SMILES CCO[C@@H]1O[C@@H](CO)[C@H](O)[C@H](O)[C@H]1O
REMARK SMILES IDX 4 1 13 2 11 3 9 4 6 5 5 6 3 7 2 8 1 9 14 10 12 12 7 14 8 15
REMARK SMILES IDX 10 17
REMARK H PARENT 14 11 12 13 8 16 10 18
REMARK Flexibility Score: inf
ROOT
ATOM      1  C   UNL     1       9.840   5.118   2.710  1.00  0.00     0.281 C 
ATOM      2  C   UNL     1      11.123   5.756   2.131  1.00  0.00     0.202 C 
ATOM      3  C   UNL     1      10.791   6.668   0.939  1.00  0.00     0.179 C 
ATOM      4  C   UNL     1       9.652   7.639   1.310  1.00  0.00     0.177 C 
ATOM      5  C   UNL     1       8.466   6.854   1.914  1.00  0.00     0.178 C 
ATOM      6  O   UNL     1       8.885   6.115   3.051  1.00  0.00    -0.341 OA
ENDROOT
BRANCH   1   7
ATOM      7  O   UNL     1       9.308   4.176   1.791  1.00  0.00    -0.350 OA
BRANCH   7   8
ATOM      8  C   UNL     1       8.231   3.473   2.378  1.00  0.00     0.160 C 
ATOM      9  C   UNL     1       7.041   3.509   1.434  1.00  0.00     0.035 C 
ENDBRANCH   7   8
ENDBRANCH   1   7
BRANCH   2  10
ATOM     10  O   UNL     1      11.768   6.512   3.125  1.00  0.00    -0.385 OA
ATOM     11  H   UNL     1      12.740   6.474   2.931  1.00  0.00     0.211 HD
ENDBRANCH   2  10
BRANCH   3  12
ATOM     12  O   UNL     1      10.427   5.878  -0.167  1.00  0.00    -0.387 OA
ATOM     13  H   UNL     1      10.487   6.457  -0.971  1.00  0.00     0.211 HD
ENDBRANCH   3  12
BRANCH   5  14
ATOM     14  C   UNL     1       7.345   7.809   2.347  1.00  0.00     0.191 C 
BRANCH  14  15
ATOM     15  O   UNL     1       6.639   8.275   1.229  1.00  0.00    -0.394 OA
ATOM     16  H   UNL     1       6.415   9.226   1.410  1.00  0.00     0.210 HD
ENDBRANCH  14  15
ENDBRANCH   5  14
BRANCH   4  17
ATOM     17  O   UNL     1       9.230   8.348   0.173  1.00  0.00    -0.387 OA
ATOM     18  H   UNL     1       8.783   7.692  -0.423  1.00  0.00     0.211 HD
ENDBRANCH   4  17
TORSDOF 7
ENDMDL
MODEL 9
REMARK VINA RESULT:    -2.474      2.881      5.827
REMARK INTER + INTRA:          -3.591
REMARK INTER:                  -3.207
REMARK INTRA:                  -0.384
REMARK UNBOUND:                -0.393
REMARK SMILES CCO[C@@H]1O[C@@H](CO)[C@H](O)[C@H](O)[C@H]1O
REMARK SMILES IDX 4 1 13 2 11 3 9 4 6 5 5 6 3 7 2 8 1 9 14 10 12 12 7 14 8 15
REMARK SMILES IDX 10 17
REMARK H PARENT 14 11 12 13 8 16 10 18
REMARK Flexibility Score: inf
ROOT
ATOM      1  C   UNL     1      12.124   6.888   2.417  1.00  0.00     0.281 C 
ATOM      2  C   UNL     1      11.101   7.963   1.987  1.00  0.00     0.202 C 
ATOM      3  C   UNL     1       9.955   7.336   1.177  1.00  0.00     0.179 C 
ATOM      4  C   UNL     1       9.387   6.108   1.918  1.00  0.00     0.177 C 
ATOM      5  C   UNL     1      10.536   5.155   2.317  1.00  0.00     0.178 C 
ATOM      6  O   UNL     1      11.487   5.832   3.125  1.00  0.00    -0.341 OA
ENDROOT
BRANCH   1   7
ATOM      7  O   UNL     1      12.830   6.406   1.283  1.00  0.00    -0.350 OA
BRANCH   7   8
ATOM      8  C   UNL     1      14.170   6.121   1.625  1.00  0.00     0.160 C 
ATOM      9  C   UNL     1      14.701   7.226   2.523  1.00  0.00     0.035 C 
ENDBRANCH   7   8
ENDBRANCH   1   7
BRANCH   2  10
ATOM     10  O   UNL     1      10.570   8.595   3.125  1.00  0.00    -0.385 OA
ATOM     11  H   UNL     1      11.340   8.911   3.664  1.00  0.00     0.211 HD
ENDBRANCH   2  10
BRANCH   3  12
ATOM     12  O   UNL     1      10.428   6.969  -0.096  1.00  0.00    -0.387 OA
ATOM     13  H   UNL     1       9.763   7.293  -0.758  1.00  0.00     0.211 HD
ENDBRANCH   3  12
BRANCH   5  14
ATOM     14  C   UNL     1       9.998   3.956   3.110  1.00  0.00     0.191 C 
BRANCH  14  15
ATOM     15  O   UNL     1       9.313   3.075   2.261  1.00  0.00    -0.394 OA
ATOM     16  H   UNL     1       8.971   3.619   1.503  1.00  0.00     0.210 HD
ENDBRANCH  14  15
ENDBRANCH   5  14
BRANCH   4  17
ATOM     17  O   UNL     1       8.465   5.433   1.101  1.00  0.00    -0.387 OA
ATOM     18  H   UNL     1       7.892   4.891   1.706  1.00  0.00     0.211 HD
ENDBRANCH   4  17
TORSDOF 7
ENDMDL
