MODEL 1
REMARK VINA RESULT:    -3.634      0.000      0.000
REMARK INTER + INTRA:          -8.556
REMARK INTER:                  -6.396
REMARK INTRA:                  -2.160
REMARK UNBOUND:                -2.160
REMARK SMILES CCCCCCCCCCCCCCC(=O)[O-]
REMARK SMILES IDX 9 1 10 2 11 3 12 4 13 5 14 6 15 7 16 8 17 9 8 10 7 11 6 12
REMARK SMILES IDX 5 13 4 14 3 15 2 16 1 17
REMARK H PARENT
REMARK Flexibility Score: inf
ROOT
ATOM      1  C   UNL     1      21.149  37.081  33.976  1.00  0.00     0.000 C 
ENDROOT
BRANCH   1   2
ATOM      2  C   UNL     1      21.867  38.128  34.847  1.00  0.00     0.000 C 
BRANCH   2   3
ATOM      3  C   UNL     1      20.933  38.805  35.865  1.00  0.00     0.000 C 
BRANCH   3   4
ATOM      4  C   UNL     1      20.024  37.799  36.588  1.00  0.00     0.000 C 
BRANCH   4   5
ATOM      5  C   UNL     1      18.916  38.482  37.408  1.00  0.00     0.006 C 
BRANCH   5   6
ATOM      6  C   UNL     1      19.483  39.300  38.577  1.00  0.00     0.053 C 
BRANCH   6   7
ATOM      7  C   UNL     1      19.759  38.441  39.771  1.00  0.00     0.041 C 
ATOM      8  O   UNL     1      18.874  37.658  40.208  1.00  0.00    -0.550 OA
ATOM      9  O   UNL     1      20.984  38.526  40.422  1.00  0.00    -0.550 OA
ENDBRANCH   6   7
ENDBRANCH   5   6
ENDBRANCH   4   5
ENDBRANCH   3   4
ENDBRANCH   2   3
ENDBRANCH   1   2
BRANCH   1  10
ATOM     10  C   UNL     1      20.847  37.521  32.532  1.00  0.00     0.000 C 
BRANCH  10  11
ATOM     11  C   UNL     1      19.493  37.004  32.017  1.00  0.00    -0.000 C 
BRANCH  11  12
ATOM     12  C   UNL     1      18.657  36.341  33.123  1.00  0.00    -0.000 C 
BRANCH  12  13
ATOM     13  C   UNL     1      17.217  36.875  33.182  1.00  0.00    -0.000 C 
BRANCH  13  14
ATOM     14  C   UNL     1      17.020  37.782  34.406  1.00  0.00    -0.000 C 
BRANCH  14  15
ATOM     15  C   UNL     1      16.616  39.215  34.024  1.00  0.00    -0.000 C 
BRANCH  15  16
ATOM     16  C   UNL     1      17.649  40.260  34.473  1.00  0.00    -0.003 C 
ATOM     17  C   UNL     1      18.714  40.474  33.401  1.00  0.00     0.004 C 
ENDBRANCH  15  16
ENDBRANCH  14  15
ENDBRANCH  13  14
ENDBRANCH  12  13
ENDBRANCH  11  12
ENDBRANCH  10  11
ENDBRANCH   1  10
TORSDOF 13
ENDMDL
MODEL 2
REMARK VINA RESULT:    -3.626      1.430      2.466
REMARK INTER + INTRA:          -8.542
REMARK INTER:                  -6.493
REMARK INTRA:                  -2.049
REMARK UNBOUND:                -2.160
REMARK SMILES CCCCCCCCCCCCCCC(=O)[O-]
REMARK SMILES IDX 9 1 10 2 11 3 12 4 13 5 14 6 15 7 16 8 17 9 8 10 7 11 6 12
REMARK SMILES IDX 5 13 4 14 3 15 2 16 1 17
REMARK H PARENT
REMARK Flexibility Score: inf
ROOT
ATOM      1  C   UNL     1      21.338  37.049  34.494  1.00  0.00     0.000 C 
ENDROOT
BRANCH   1   2
ATOM      2  C   UNL     1      21.878  36.606  35.866  1.00  0.00     0.000 C 
BRANCH   2   3
ATOM      3  C   UNL     1      22.450  37.773  36.691  1.00  0.00     0.000 C 
BRANCH   3   4
ATOM      4  C   UNL     1      21.854  37.841  38.106  1.00  0.00     0.000 C 
BRANCH   4   5
ATOM      5  C   UNL     1      20.403  37.330  38.164  1.00  0.00     0.006 C 
BRANCH   5   6
ATOM      6  C   UNL     1      19.430  38.411  38.657  1.00  0.00     0.053 C 
BRANCH   6   7
ATOM      7  C   UNL     1      19.948  39.107  39.877  1.00  0.00     0.041 C 
ATOM      8  O   UNL     1      20.064  38.481  40.963  1.00  0.00    -0.550 OA
ATOM      9  O   UNL     1      20.273  40.457  39.822  1.00  0.00    -0.550 OA
ENDBRANCH   6   7
ENDBRANCH   5   6
ENDBRANCH   4   5
ENDBRANCH   3   4
ENDBRANCH   2   3
ENDBRANCH   1   2
BRANCH   1  10
ATOM     10  C   UNL     1      21.727  38.474  34.062  1.00  0.00     0.000 C 
BRANCH  10  11
ATOM     11  C   UNL     1      20.511  39.394  33.861  1.00  0.00    -0.000 C 
BRANCH  11  12
ATOM     12  C   UNL     1      19.869  39.822  35.191  1.00  0.00    -0.000 C 
BRANCH  12  13
ATOM     13  C   UNL     1      18.340  39.663  35.192  1.00  0.00    -0.000 C 
BRANCH  13  14
ATOM     14  C   UNL     1      17.944  38.189  35.360  1.00  0.00    -0.000 C 
BRANCH  14  15
ATOM     15  C   UNL     1      16.748  37.792  34.478  1.00  0.00    -0.000 C 
BRANCH  15  16
ATOM     16  C   UNL     1      17.164  37.435  33.043  1.00  0.00    -0.003 C 
ATOM     17  C   UNL     1      18.187  36.303  33.034  1.00  0.00     0.004 C 
ENDBRANCH  15  16
ENDBRANCH  14  15
ENDBRANCH  13  14
ENDBRANCH  12  13
ENDBRANCH  11  12
ENDBRANCH  10  11
ENDBRANCH   1  10
TORSDOF 13
ENDMDL
MODEL 3
REMARK VINA RESULT:    -3.626      3.073      5.434
REMARK INTER + INTRA:          -8.542
REMARK INTER:                  -6.243
REMARK INTRA:                  -2.299
REMARK UNBOUND:                -2.160
REMARK SMILES CCCCCCCCCCCCCCC(=O)[O-]
REMARK SMILES IDX 9 1 10 2 11 3 12 4 13 5 14 6 15 7 16 8 17 9 8 10 7 11 6 12
REMARK SMILES IDX 5 13 4 14 3 15 2 16 1 17
REMARK H PARENT
REMARK Flexibility Score: inf
ROOT
ATOM      1  C   UNL     1      21.189  39.114  34.885  1.00  0.00     0.000 C 
ENDROOT
BRANCH   1   2
ATOM      2  C   UNL     1      20.499  39.764  36.098  1.00  0.00     0.000 C 
BRANCH   2   3
ATOM      3  C   UNL     1      18.986  39.487  36.148  1.00  0.00     0.000 C 
BRANCH   3   4
ATOM      4  C   UNL     1      18.627  38.087  35.625  1.00  0.00     0.000 C 
BRANCH   4   5
ATOM      5  C   UNL     1      17.449  38.108  34.635  1.00  0.00     0.006 C 
BRANCH   5   6
ATOM      6  C   UNL     1      17.919  38.029  33.176  1.00  0.00     0.053 C 
BRANCH   6   7
ATOM      7  C   UNL     1      18.561  36.711  32.872  1.00  0.00     0.041 C 
ATOM      8  O   UNL     1      17.890  35.648  32.940  1.00  0.00    -0.550 OA
ATOM      9  O   UNL     1      19.910  36.654  32.543  1.00  0.00    -0.550 OA
ENDBRANCH   6   7
ENDBRANCH   5   6
ENDBRANCH   4   5
ENDBRANCH   3   4
ENDBRANCH   2   3
ENDBRANCH   1   2
BRANCH   1  10
ATOM     10  C   UNL     1      22.372  38.188  35.219  1.00  0.00     0.000 C 
BRANCH  10  11
ATOM     11  C   UNL     1      21.965  36.708  35.328  1.00  0.00    -0.000 C 
BRANCH  11  12
ATOM     12  C   UNL     1      22.062  36.175  36.766  1.00  0.00    -0.000 C 
BRANCH  12  13
ATOM     13  C   UNL     1      22.731  37.170  37.726  1.00  0.00    -0.000 C 
BRANCH  13  14
ATOM     14  C   UNL     1      21.790  37.528  38.886  1.00  0.00    -0.000 C 
BRANCH  14  15
ATOM     15  C   UNL     1      20.353  37.031  38.658  1.00  0.00    -0.000 C 
BRANCH  15  16
ATOM     16  C   UNL     1      19.306  37.900  39.372  1.00  0.00    -0.003 C 
ATOM     17  C   UNL     1      19.928  39.193  39.890  1.00  0.00     0.004 C 
ENDBRANCH  15  16
ENDBRANCH  14  15
ENDBRANCH  13  14
ENDBRANCH  12  13
ENDBRANCH  11  12
ENDBRANCH  10  11
ENDBRANCH   1  10
TORSDOF 13
ENDMDL
MODEL 4
REMARK VINA RESULT:    -3.580      1.642      3.081
REMARK INTER + INTRA:          -8.461
REMARK INTER:                  -6.442
REMARK INTRA:                  -2.019
REMARK UNBOUND:                -2.160
REMARK SMILES CCCCCCCCCCCCCCC(=O)[O-]
REMARK SMILES IDX 9 1 10 2 11 3 12 4 13 5 14 6 15 7 16 8 17 9 8 10 7 11 6 12
REMARK SMILES IDX 5 13 4 14 3 15 2 16 1 17
REMARK H PARENT
REMARK Flexibility Score: inf
ROOT
ATOM      1  C   UNL     1      20.489  38.881  35.425  1.00  0.00     0.000 C 
ENDROOT
BRANCH   1   2
ATOM      2  C   UNL     1      21.781  38.065  35.238  1.00  0.00     0.000 C 
BRANCH   2   3
ATOM      3  C   UNL     1      21.629  36.594  35.667  1.00  0.00     0.000 C 
BRANCH   3   4
ATOM      4  C   UNL     1      22.414  36.270  36.947  1.00  0.00     0.000 C 
BRANCH   4   5
ATOM      5  C   UNL     1      21.539  36.327  38.211  1.00  0.00     0.006 C 
BRANCH   5   6
ATOM      6  C   UNL     1      21.948  37.473  39.147  1.00  0.00     0.053 C 
BRANCH   6   7
ATOM      7  C   UNL     1      20.840  38.465  39.325  1.00  0.00     0.041 C 
ATOM      8  O   UNL     1      19.810  38.154  39.980  1.00  0.00    -0.550 OA
ATOM      9  O   UNL     1      20.931  39.722  38.741  1.00  0.00    -0.550 OA
ENDBRANCH   6   7
ENDBRANCH   5   6
ENDBRANCH   4   5
ENDBRANCH   3   4
ENDBRANCH   2   3
ENDBRANCH   1   2
BRANCH   1  10
ATOM     10  C   UNL     1      19.280  38.089  35.954  1.00  0.00     0.000 C 
BRANCH  10  11
ATOM     11  C   UNL     1      18.062  38.156  35.017  1.00  0.00    -0.000 C 
BRANCH  11  12
ATOM     12  C   UNL     1      18.385  38.839  33.678  1.00  0.00    -0.000 C 
BRANCH  12  13
ATOM     13  C   UNL     1      18.065  37.952  32.465  1.00  0.00    -0.000 C 
BRANCH  13  14
ATOM     14  C   UNL     1      18.690  36.559  32.626  1.00  0.00    -0.000 C 
BRANCH  14  15
ATOM     15  C   UNL     1      20.204  36.553  32.358  1.00  0.00    -0.000 C 
BRANCH  15  16
ATOM     16  C   UNL     1      20.579  37.299  31.069  1.00  0.00    -0.003 C 
ATOM     17  C   UNL     1      21.716  38.285  31.317  1.00  0.00     0.004 C 
ENDBRANCH  15  16
ENDBRANCH  14  15
ENDBRANCH  13  14
ENDBRANCH  12  13
ENDBRANCH  11  12
ENDBRANCH  10  11
ENDBRANCH   1  10
TORSDOF 13
ENDMDL
MODEL 5
REMARK VINA RESULT:    -3.552      3.253      5.788
REMARK INTER + INTRA:          -8.411
REMARK INTER:                  -6.325
REMARK INTRA:                  -2.085
REMARK UNBOUND:                -2.160
REMARK SMILES CCCCCCCCCCCCCCC(=O)[O-]
REMARK SMILES IDX 9 1 10 2 11 3 12 4 13 5 14 6 15 7 16 8 17 9 8 10 7 11 6 12
REMARK SMILES IDX 5 13 4 14 3 15 2 16 1 17
REMARK H PARENT
REMARK Flexibility Score: inf
ROOT
ATOM      1  C   UNL     1      19.276  38.794  38.362  1.00  0.00     0.000 C 
ENDROOT
BRANCH   1   2
ATOM      2  C   UNL     1      19.212  39.223  36.884  1.00  0.00     0.000 C 
BRANCH   2   3
ATOM      3  C   UNL     1      18.789  38.080  35.945  1.00  0.00     0.000 C 
BRANCH   3   4
ATOM      4  C   UNL     1      17.501  38.401  35.171  1.00  0.00     0.000 C 
BRANCH   4   5
ATOM      5  C   UNL     1      17.350  37.556  33.894  1.00  0.00     0.006 C 
BRANCH   5   6
ATOM      6  C   UNL     1      18.604  36.721  33.602  1.00  0.00     0.053 C 
BRANCH   6   7
ATOM      7  C   UNL     1      19.301  37.185  32.361  1.00  0.00     0.041 C 
ATOM      8  O   UNL     1      20.295  36.551  31.917  1.00  0.00    -0.550 OA
ATOM      9  O   UNL     1      18.875  38.337  31.712  1.00  0.00    -0.550 OA
ENDBRANCH   6   7
ENDBRANCH   5   6
ENDBRANCH   4   5
ENDBRANCH   3   4
ENDBRANCH   2   3
ENDBRANCH   1   2
BRANCH   1  10
ATOM     10  C   UNL     1      20.113  37.534  38.645  1.00  0.00     0.000 C 
BRANCH  10  11
ATOM     11  C   UNL     1      21.591  37.847  38.936  1.00  0.00    -0.000 C 
BRANCH  11  12
ATOM     12  C   UNL     1      22.542  37.200  37.916  1.00  0.00    -0.000 C 
BRANCH  12  13
ATOM     13  C   UNL     1      21.830  36.201  36.990  1.00  0.00    -0.000 C 
BRANCH  13  14
ATOM     14  C   UNL     1      21.983  36.616  35.519  1.00  0.00    -0.000 C 
BRANCH  14  15
ATOM     15  C   UNL     1      22.390  38.090  35.358  1.00  0.00    -0.000 C 
BRANCH  15  16
ATOM     16  C   UNL     1      22.180  38.609  33.927  1.00  0.00    -0.003 C 
ATOM     17  C   UNL     1      21.372  39.903  33.926  1.00  0.00     0.004 C 
ENDBRANCH  15  16
ENDBRANCH  14  15
ENDBRANCH  13  14
ENDBRANCH  12  13
ENDBRANCH  11  12
ENDBRANCH  10  11
ENDBRANCH   1  10
TORSDOF 13
ENDMDL
MODEL 6
REMARK VINA RESULT:    -3.535      2.823      6.130
REMARK INTER + INTRA:          -8.382
REMARK INTER:                  -6.430
REMARK INTRA:                  -1.952
REMARK UNBOUND:                -2.160
REMARK SMILES CCCCCCCCCCCCCCC(=O)[O-]
REMARK SMILES IDX 9 1 10 2 11 3 12 4 13 5 14 6 15 7 16 8 17 9 8 10 7 11 6 12
REMARK SMILES IDX 5 13 4 14 3 15 2 16 1 17
REMARK H PARENT
REMARK Flexibility Score: inf
ROOT
ATOM      1  C   UNL     1      20.085  39.011  35.763  1.00  0.00     0.000 C 
ENDROOT
BRANCH   1   2
ATOM      2  C   UNL     1      21.366  38.396  35.170  1.00  0.00     0.000 C 
BRANCH   2   3
ATOM      3  C   UNL     1      21.104  37.086  34.405  1.00  0.00     0.000 C 
BRANCH   3   4
ATOM      4  C   UNL     1      20.954  37.308  32.892  1.00  0.00     0.000 C 
BRANCH   4   5
ATOM      5  C   UNL     1      19.654  36.706  32.330  1.00  0.00     0.006 C 
BRANCH   5   6
ATOM      6  C   UNL     1      18.598  36.489  33.423  1.00  0.00     0.053 C 
BRANCH   6   7
ATOM      7  C   UNL     1      17.566  37.573  33.418  1.00  0.00     0.041 C 
ATOM      8  O   UNL     1      17.555  38.435  32.499  1.00  0.00    -0.550 OA
ATOM      9  O   UNL     1      16.634  37.652  34.445  1.00  0.00    -0.550 OA
ENDBRANCH   6   7
ENDBRANCH   5   6
ENDBRANCH   4   5
ENDBRANCH   3   4
ENDBRANCH   2   3
ENDBRANCH   1   2
BRANCH   1  10
ATOM     10  C   UNL     1      19.322  38.114  36.754  1.00  0.00     0.000 C 
BRANCH  10  11
ATOM     11  C   UNL     1      18.945  38.842  38.055  1.00  0.00    -0.000 C 
BRANCH  11  12
ATOM     12  C   UNL     1      19.055  37.936  39.292  1.00  0.00    -0.000 C 
BRANCH  12  13
ATOM     13  C   UNL     1      20.022  38.489  40.351  1.00  0.00    -0.000 C 
BRANCH  13  14
ATOM     14  C   UNL     1      21.361  38.887  39.713  1.00  0.00    -0.000 C 
BRANCH  14  15
ATOM     15  C   UNL     1      22.389  37.744  39.730  1.00  0.00    -0.000 C 
BRANCH  15  16
ATOM     16  C   UNL     1      22.704  37.210  38.324  1.00  0.00    -0.003 C 
ATOM     17  C   UNL     1      21.979  35.894  38.062  1.00  0.00     0.004 C 
ENDBRANCH  15  16
ENDBRANCH  14  15
ENDBRANCH  13  14
ENDBRANCH  12  13
ENDBRANCH  11  12
ENDBRANCH  10  11
ENDBRANCH   1  10
TORSDOF 13
ENDMDL
MODEL 7
REMARK VINA RESULT:    -3.496      3.149      6.381
REMARK INTER + INTRA:          -8.313
REMARK INTER:                  -6.375
REMARK INTRA:                  -1.938
REMARK UNBOUND:                -2.160
REMARK SMILES CCCCCCCCCCCCCCC(=O)[O-]
REMARK SMILES IDX 9 1 10 2 11 3 12 4 13 5 14 6 15 7 16 8 17 9 8 10 7 11 6 12
REMARK SMILES IDX 5 13 4 14 3 15 2 16 1 17
REMARK H PARENT
REMARK Flexibility Score: inf
ROOT
ATOM      1  C   UNL     1      18.921  38.059  38.673  1.00  0.00     0.000 C 
ENDROOT
BRANCH   1   2
ATOM      2  C   UNL     1      19.249  38.948  37.459  1.00  0.00     0.000 C 
BRANCH   2   3
ATOM      3  C   UNL     1      18.519  38.508  36.178  1.00  0.00     0.000 C 
BRANCH   3   4
ATOM      4  C   UNL     1      18.715  39.498  35.019  1.00  0.00     0.000 C 
BRANCH   4   5
ATOM      5  C   UNL     1      18.479  38.854  33.641  1.00  0.00     0.006 C 
BRANCH   5   6
ATOM      6  C   UNL     1      17.480  37.690  33.712  1.00  0.00     0.053 C 
BRANCH   6   7
ATOM      7  C   UNL     1      18.035  36.447  33.088  1.00  0.00     0.041 C 
ATOM      8  O   UNL     1      19.279  36.254  33.056  1.00  0.00    -0.550 OA
ATOM      9  O   UNL     1      17.180  35.515  32.514  1.00  0.00    -0.550 OA
ENDBRANCH   6   7
ENDBRANCH   5   6
ENDBRANCH   4   5
ENDBRANCH   3   4
ENDBRANCH   2   3
ENDBRANCH   1   2
BRANCH   1  10
ATOM     10  C   UNL     1      19.889  38.188  39.863  1.00  0.00     0.000 C 
BRANCH  10  11
ATOM     11  C   UNL     1      20.799  39.424  39.766  1.00  0.00    -0.000 C 
BRANCH  11  12
ATOM     12  C   UNL     1      22.256  39.059  39.441  1.00  0.00    -0.000 C 
BRANCH  12  13
ATOM     13  C   UNL     1      22.485  37.542  39.358  1.00  0.00    -0.000 C 
BRANCH  13  14
ATOM     14  C   UNL     1      22.978  37.139  37.960  1.00  0.00    -0.000 C 
BRANCH  14  15
ATOM     15  C   UNL     1      22.000  36.201  37.234  1.00  0.00    -0.000 C 
BRANCH  15  16
ATOM     16  C   UNL     1      21.721  36.641  35.789  1.00  0.00    -0.003 C 
ATOM     17  C   UNL     1      22.292  38.029  35.518  1.00  0.00     0.004 C 
ENDBRANCH  15  16
ENDBRANCH  14  15
ENDBRANCH  13  14
ENDBRANCH  12  13
ENDBRANCH  11  12
ENDBRANCH  10  11
ENDBRANCH   1  10
TORSDOF 13
ENDMDL
MODEL 8
REMARK VINA RESULT:    -3.447      1.234      2.884
REMARK INTER + INTRA:          -8.227
REMARK INTER:                  -6.021
REMARK INTRA:                  -2.206
REMARK UNBOUND:                -2.160
REMARK SMILES CCCCCCCCCCCCCCC(=O)[O-]
REMARK SMILES IDX 9 1 10 2 11 3 12 4 13 5 14 6 15 7 16 8 17 9 8 10 7 11 6 12
REMARK SMILES IDX 5 13 4 14 3 15 2 16 1 17
REMARK H PARENT
REMARK Flexibility Score: inf
ROOT
ATOM      1  C   UNL     1      17.260  38.136  34.673  1.00  0.00     0.000 C 
ENDROOT
BRANCH   1   2
ATOM      2  C   UNL     1      17.858  39.527  34.955  1.00  0.00     0.000 C 
BRANCH   2   3
ATOM      3  C   UNL     1      19.033  39.485  35.948  1.00  0.00     0.000 C 
BRANCH   3   4
ATOM      4  C   UNL     1      19.162  38.125  36.650  1.00  0.00     0.000 C 
BRANCH   4   5
ATOM      5  C   UNL     1      20.606  37.811  37.077  1.00  0.00     0.006 C 
BRANCH   5   6
ATOM      6  C   UNL     1      20.672  37.189  38.479  1.00  0.00     0.053 C 
BRANCH   6   7
ATOM      7  C   UNL     1      20.712  38.237  39.548  1.00  0.00     0.041 C 
ATOM      8  O   UNL     1      19.667  38.533  40.185  1.00  0.00    -0.550 OA
ATOM      9  O   UNL     1      21.897  38.910  39.820  1.00  0.00    -0.550 OA
ENDBRANCH   6   7
ENDBRANCH   5   6
ENDBRANCH   4   5
ENDBRANCH   3   4
ENDBRANCH   2   3
ENDBRANCH   1   2
BRANCH   1  10
ATOM     10  C   UNL     1      16.754  37.917  33.236  1.00  0.00     0.000 C 
BRANCH  10  11
ATOM     11  C   UNL     1      17.480  36.770  32.512  1.00  0.00    -0.000 C 
BRANCH  11  12
ATOM     12  C   UNL     1      18.733  36.297  33.266  1.00  0.00    -0.000 C 
BRANCH  12  13
ATOM     13  C   UNL     1      20.038  36.667  32.544  1.00  0.00    -0.000 C 
BRANCH  13  14
ATOM     14  C   UNL     1      21.012  37.370  33.502  1.00  0.00    -0.000 C 
BRANCH  14  15
ATOM     15  C   UNL     1      21.462  38.746  32.985  1.00  0.00    -0.000 C 
BRANCH  15  16
ATOM     16  C   UNL     1      20.371  39.458  32.170  1.00  0.00    -0.003 C 
ATOM     17  C   UNL     1      20.287  40.935  32.539  1.00  0.00     0.004 C 
ENDBRANCH  15  16
ENDBRANCH  14  15
ENDBRANCH  13  14
ENDBRANCH  12  13
ENDBRANCH  11  12
ENDBRANCH  10  11
ENDBRANCH   1  10
TORSDOF 13
ENDMDL
MODEL 9
REMARK VINA RESULT:    -3.437      3.389      6.136
REMARK INTER + INTRA:          -8.210
REMARK INTER:                  -5.742
REMARK INTRA:                  -2.468
REMARK UNBOUND:                -2.160
REMARK SMILES CCCCCCCCCCCCCCC(=O)[O-]
REMARK SMILES IDX 9 1 10 2 11 3 12 4 13 5 14 6 15 7 16 8 17 9 8 10 7 11 6 12
REMARK SMILES IDX 5 13 4 14 3 15 2 16 1 17
REMARK H PARENT
REMARK Flexibility Score: inf
ROOT
ATOM      1  C   UNL     1      22.080  36.871  38.448  1.00  0.00     0.000 C 
ENDROOT
BRANCH   1   2
ATOM      2  C   UNL     1      22.759  37.391  37.168  1.00  0.00     0.000 C 
BRANCH   2   3
ATOM      3  C   UNL     1      21.997  37.007  35.887  1.00  0.00     0.000 C 
BRANCH   3   4
ATOM      4  C   UNL     1      21.761  38.210  34.960  1.00  0.00     0.000 C 
BRANCH   4   5
ATOM      5  C   UNL     1      20.300  38.320  34.490  1.00  0.00     0.006 C 
BRANCH   5   6
ATOM      6  C   UNL     1      19.620  36.948  34.393  1.00  0.00     0.053 C 
BRANCH   6   7
ATOM      7  C   UNL     1      19.350  36.563  32.971  1.00  0.00     0.041 C 
ATOM      8  O   UNL     1      20.294  36.506  32.140  1.00  0.00    -0.550 OA
ATOM      9  O   UNL     1      18.051  36.299  32.556  1.00  0.00    -0.550 OA
ENDBRANCH   6   7
ENDBRANCH   5   6
ENDBRANCH   4   5
ENDBRANCH   3   4
ENDBRANCH   2   3
ENDBRANCH   1   2
BRANCH   1  10
ATOM     10  C   UNL     1      20.575  36.576  38.322  1.00  0.00     0.000 C 
BRANCH  10  11
ATOM     11  C   UNL     1      19.694  37.660  38.966  1.00  0.00    -0.000 C 
BRANCH  11  12
ATOM     12  C   UNL     1      19.051  38.591  37.925  1.00  0.00    -0.000 C 
BRANCH  12  13
ATOM     13  C   UNL     1      19.735  39.965  37.853  1.00  0.00    -0.000 C 
BRANCH  13  14
ATOM     14  C   UNL     1      20.513  40.257  39.145  1.00  0.00    -0.000 C 
BRANCH  14  15
ATOM     15  C   UNL     1      21.978  40.641  38.881  1.00  0.00    -0.000 C 
BRANCH  15  16
ATOM     16  C   UNL     1      22.934  40.100  39.955  1.00  0.00    -0.003 C 
ATOM     17  C   UNL     1      22.161  39.510  41.130  1.00  0.00     0.004 C 
ENDBRANCH  15  16
ENDBRANCH  14  15
ENDBRANCH  13  14
ENDBRANCH  12  13
ENDBRANCH  11  12
ENDBRANCH  10  11
ENDBRANCH   1  10
TORSDOF 13
ENDMDL
