MODEL 1
REMARK VINA RESULT:    -3.717      0.000      0.000
REMARK INTER + INTRA:         -13.959
REMARK INTER:                  -9.694
REMARK INTRA:                  -4.265
REMARK UNBOUND:                -4.265
REMARK SMILES CCCCCCCCCCCCCCCCCCCCCCCCCCCCCO
REMARK SMILES IDX 16 1 15 2 14 3 13 4 12 5 11 6 10 7 9 8 8 9 7 10 6 11 5 12
REMARK SMILES IDX 4 13 3 14 2 15 1 16 17 17 18 18 19 19 20 20 21 21 22 22
REMARK SMILES IDX 23 23 24 24 25 25 26 26 27 27 28 28 29 29 30 30
REMARK H PARENT 30 31
REMARK Flexibility Score: inf
ROOT
ATOM      1  C   UNL     1     114.653 114.956 119.965  1.00  0.00     0.000 C 
ENDROOT
BRANCH   1   2
ATOM      2  C   UNL     1     115.261 116.017 120.900  1.00  0.00     0.000 C 
BRANCH   2   3
ATOM      3  C   UNL     1     116.189 115.454 121.998  1.00  0.00     0.000 C 
BRANCH   3   4
ATOM      4  C   UNL     1     117.207 116.484 122.540  1.00  0.00     0.000 C 
BRANCH   4   5
ATOM      5  C   UNL     1     117.102 117.834 121.811  1.00  0.00     0.000 C 
BRANCH   5   6
ATOM      6  C   UNL     1     118.435 118.296 121.205  1.00  0.00     0.000 C 
BRANCH   6   7
ATOM      7  C   UNL     1     118.538 117.993 119.698  1.00  0.00     0.000 C 
BRANCH   7   8
ATOM      8  C   UNL     1     119.188 116.622 119.420  1.00  0.00    -0.000 C 
BRANCH   8   9
ATOM      9  C   UNL     1     118.462 115.792 118.344  1.00  0.00    -0.000 C 
BRANCH   9  10
ATOM     10  C   UNL     1     118.103 114.355 118.765  1.00  0.00    -0.000 C 
BRANCH  10  11
ATOM     11  C   UNL     1     117.195 113.593 117.779  1.00  0.00    -0.000 C 
BRANCH  11  12
ATOM     12  C   UNL     1     117.880 112.376 117.118  1.00  0.00    -0.000 C 
BRANCH  12  13
ATOM     13  C   UNL     1     119.234 112.040 117.769  1.00  0.00    -0.000 C 
BRANCH  13  14
ATOM     14  C   UNL     1     119.692 110.595 117.493  1.00  0.00    -0.000 C 
BRANCH  14  15
ATOM     15  C   UNL     1     118.676 109.727 116.733  1.00  0.00    -0.003 C 
ATOM     16  C   UNL     1     119.066 109.491 115.274  1.00  0.00     0.004 C 
ENDBRANCH  14  15
ENDBRANCH  13  14
ENDBRANCH  12  13
ENDBRANCH  11  12
ENDBRANCH  10  11
ENDBRANCH   9  10
ENDBRANCH   8   9
ENDBRANCH   7   8
ENDBRANCH   6   7
ENDBRANCH   5   6
ENDBRANCH   4   5
ENDBRANCH   3   4
ENDBRANCH   2   3
ENDBRANCH   1   2
BRANCH   1  17
ATOM     17  C   UNL     1     113.140 115.145 119.750  1.00  0.00     0.000 C 
BRANCH  17  18
ATOM     18  C   UNL     1     112.682 114.635 118.366  1.00  0.00     0.000 C 
BRANCH  18  19
ATOM     19  C   UNL     1     113.626 115.020 117.213  1.00  0.00     0.000 C 
BRANCH  19  20
ATOM     20  C   UNL     1     113.648 116.530 116.930  1.00  0.00     0.000 C 
BRANCH  20  21
ATOM     21  C   UNL     1     115.026 117.037 116.468  1.00  0.00     0.000 C 
BRANCH  21  22
ATOM     22  C   UNL     1     115.705 118.004 117.464  1.00  0.00     0.000 C 
BRANCH  22  23
ATOM     23  C   UNL     1     114.755 118.583 118.531  1.00  0.00     0.000 C 
BRANCH  23  24
ATOM     24  C   UNL     1     115.290 119.878 119.164  1.00  0.00     0.000 C 
BRANCH  24  25
ATOM     25  C   UNL     1     114.403 121.077 118.793  1.00  0.00     0.000 C 
BRANCH  25  26
ATOM     26  C   UNL     1     114.711 121.639 117.396  1.00  0.00     0.000 C 
BRANCH  26  27
ATOM     27  C   UNL     1     113.597 121.431 116.352  1.00  0.00     0.002 C 
BRANCH  27  28
ATOM     28  C   UNL     1     112.490 122.506 116.402  1.00  0.00     0.028 C 
BRANCH  28  29
ATOM     29  C   UNL     1     111.301 122.160 115.501  1.00  0.00     0.156 C 
BRANCH  29  30
ATOM     30  O   UNL     1     110.727 120.956 115.930  1.00  0.00    -0.396 OA
ATOM     31  H   UNL     1     109.747 121.106 115.948  1.00  0.00     0.210 HD
ENDBRANCH  29  30
ENDBRANCH  28  29
ENDBRANCH  27  28
ENDBRANCH  26  27
ENDBRANCH  25  26
ENDBRANCH  24  25
ENDBRANCH  23  24
ENDBRANCH  22  23
ENDBRANCH  21  22
ENDBRANCH  20  21
ENDBRANCH  19  20
ENDBRANCH  18  19
ENDBRANCH  17  18
ENDBRANCH   1  17
TORSDOF 28
ENDMDL
MODEL 2
REMARK VINA RESULT:    -3.712      3.364      6.877
REMARK INTER + INTRA:         -13.945
REMARK INTER:                  -9.080
REMARK INTRA:                  -4.865
REMARK UNBOUND:                -4.265
REMARK SMILES CCCCCCCCCCCCCCCCCCCCCCCCCCCCCO
REMARK SMILES IDX 16 1 15 2 14 3 13 4 12 5 11 6 10 7 9 8 8 9 7 10 6 11 5 12
REMARK SMILES IDX 4 13 3 14 2 15 1 16 17 17 18 18 19 19 20 20 21 21 22 22
REMARK SMILES IDX 23 23 24 24 25 25 26 26 27 27 28 28 29 29 30 30
REMARK H PARENT 30 31
REMARK Flexibility Score: inf
ROOT
ATOM      1  C   UNL     1     117.172 115.821 115.731  1.00  0.00     0.000 C 
ENDROOT
BRANCH   1   2
ATOM      2  C   UNL     1     116.551 117.224 115.606  1.00  0.00     0.000 C 
BRANCH   2   3
ATOM      3  C   UNL     1     117.506 118.306 115.060  1.00  0.00     0.000 C 
BRANCH   3   4
ATOM      4  C   UNL     1     117.288 119.702 115.689  1.00  0.00     0.000 C 
BRANCH   4   5
ATOM      5  C   UNL     1     116.613 119.612 117.069  1.00  0.00     0.000 C 
BRANCH   5   6
ATOM      6  C   UNL     1     115.331 120.451 117.167  1.00  0.00     0.000 C 
BRANCH   6   7
ATOM      7  C   UNL     1     114.578 120.232 118.492  1.00  0.00     0.000 C 
BRANCH   7   8
ATOM      8  C   UNL     1     115.473 119.598 119.576  1.00  0.00    -0.000 C 
BRANCH   8   9
ATOM      9  C   UNL     1     114.893 118.309 120.190  1.00  0.00    -0.000 C 
BRANCH   9  10
ATOM     10  C   UNL     1     114.784 117.119 119.220  1.00  0.00    -0.000 C 
BRANCH  10  11
ATOM     11  C   UNL     1     113.685 116.094 119.563  1.00  0.00    -0.000 C 
BRANCH  11  12
ATOM     12  C   UNL     1     113.894 114.713 118.901  1.00  0.00    -0.000 C 
BRANCH  12  13
ATOM     13  C   UNL     1     113.604 114.738 117.389  1.00  0.00    -0.000 C 
BRANCH  13  14
ATOM     14  C   UNL     1     112.167 115.185 117.061  1.00  0.00    -0.000 C 
BRANCH  14  15
ATOM     15  C   UNL     1     111.063 114.239 117.561  1.00  0.00    -0.003 C 
ATOM     16  C   UNL     1     111.213 112.814 117.033  1.00  0.00     0.004 C 
ENDBRANCH  14  15
ENDBRANCH  13  14
ENDBRANCH  12  13
ENDBRANCH  11  12
ENDBRANCH  10  11
ENDBRANCH   9  10
ENDBRANCH   8   9
ENDBRANCH   7   8
ENDBRANCH   6   7
ENDBRANCH   5   6
ENDBRANCH   4   5
ENDBRANCH   3   4
ENDBRANCH   2   3
ENDBRANCH   1   2
BRANCH   1  17
ATOM     17  C   UNL     1     117.177 115.296 117.178  1.00  0.00     0.000 C 
BRANCH  17  18
ATOM     18  C   UNL     1     118.395 114.390 117.463  1.00  0.00     0.000 C 
BRANCH  18  19
ATOM     19  C   UNL     1     118.488 113.907 118.920  1.00  0.00     0.000 C 
BRANCH  19  20
ATOM     20  C   UNL     1     117.482 114.599 119.852  1.00  0.00     0.000 C 
BRANCH  20  21
ATOM     21  C   UNL     1     118.147 115.564 120.849  1.00  0.00     0.000 C 
BRANCH  21  22
ATOM     22  C   UNL     1     118.330 116.999 120.307  1.00  0.00     0.000 C 
BRANCH  22  23
ATOM     23  C   UNL     1     119.667 117.235 119.579  1.00  0.00     0.000 C 
BRANCH  23  24
ATOM     24  C   UNL     1     119.509 118.079 118.304  1.00  0.00     0.000 C 
BRANCH  24  25
ATOM     25  C   UNL     1     120.354 117.503 117.157  1.00  0.00     0.000 C 
BRANCH  25  26
ATOM     26  C   UNL     1     121.583 118.365 116.828  1.00  0.00     0.000 C 
BRANCH  26  27
ATOM     27  C   UNL     1     121.722 119.647 117.673  1.00  0.00     0.002 C 
BRANCH  27  28
ATOM     28  C   UNL     1     122.931 120.523 117.278  1.00  0.00     0.028 C 
BRANCH  28  29
ATOM     29  C   UNL     1     122.699 121.278 115.966  1.00  0.00     0.156 C 
BRANCH  29  30
ATOM     30  O   UNL     1     123.057 122.622 116.132  1.00  0.00    -0.396 OA
ATOM     31  H   UNL     1     122.285 123.157 115.813  1.00  0.00     0.210 HD
ENDBRANCH  29  30
ENDBRANCH  28  29
ENDBRANCH  27  28
ENDBRANCH  26  27
ENDBRANCH  25  26
ENDBRANCH  24  25
ENDBRANCH  23  24
ENDBRANCH  22  23
ENDBRANCH  21  22
ENDBRANCH  20  21
ENDBRANCH  19  20
ENDBRANCH  18  19
ENDBRANCH  17  18
ENDBRANCH   1  17
TORSDOF 28
ENDMDL
MODEL 3
REMARK VINA RESULT:    -3.710      2.359      4.084
REMARK INTER + INTRA:         -13.940
REMARK INTER:                  -9.129
REMARK INTRA:                  -4.810
REMARK UNBOUND:                -4.265
REMARK SMILES CCCCCCCCCCCCCCCCCCCCCCCCCCCCCO
REMARK SMILES IDX 16 1 15 2 14 3 13 4 12 5 11 6 10 7 9 8 8 9 7 10 6 11 5 12
REMARK SMILES IDX 4 13 3 14 2 15 1 16 17 17 18 18 19 19 20 20 21 21 22 22
REMARK SMILES IDX 23 23 24 24 25 25 26 26 27 27 28 28 29 29 30 30
REMARK H PARENT 30 31
REMARK Flexibility Score: inf
ROOT
ATOM      1  C   UNL     1     118.837 117.499 116.742  1.00  0.00     0.000 C 
ENDROOT
BRANCH   1   2
ATOM      2  C   UNL     1     119.627 116.839 117.886  1.00  0.00     0.000 C 
BRANCH   2   3
ATOM      3  C   UNL     1     118.883 116.787 119.237  1.00  0.00     0.000 C 
BRANCH   3   4
ATOM      4  C   UNL     1     118.817 118.149 119.964  1.00  0.00     0.000 C 
BRANCH   4   5
ATOM      5  C   UNL     1     117.758 118.155 121.080  1.00  0.00     0.000 C 
BRANCH   5   6
ATOM      6  C   UNL     1     117.565 116.779 121.733  1.00  0.00     0.000 C 
BRANCH   6   7
ATOM      7  C   UNL     1     116.082 116.432 121.960  1.00  0.00     0.000 C 
BRANCH   7   8
ATOM      8  C   UNL     1     115.149 117.200 121.002  1.00  0.00    -0.000 C 
BRANCH   8   9
ATOM      9  C   UNL     1     114.797 116.426 119.717  1.00  0.00    -0.000 C 
BRANCH   9  10
ATOM     10  C   UNL     1     115.018 114.904 119.794  1.00  0.00    -0.000 C 
BRANCH  10  11
ATOM     11  C   UNL     1     116.165 114.365 118.916  1.00  0.00    -0.000 C 
BRANCH  11  12
ATOM     12  C   UNL     1     117.267 113.633 119.714  1.00  0.00    -0.000 C 
BRANCH  12  13
ATOM     13  C   UNL     1     118.438 113.185 118.821  1.00  0.00    -0.000 C 
BRANCH  13  14
ATOM     14  C   UNL     1     118.003 112.855 117.380  1.00  0.00    -0.000 C 
BRANCH  14  15
ATOM     15  C   UNL     1     118.913 111.864 116.638  1.00  0.00    -0.003 C 
ATOM     16  C   UNL     1     119.890 111.142 117.565  1.00  0.00     0.004 C 
ENDBRANCH  14  15
ENDBRANCH  13  14
ENDBRANCH  12  13
ENDBRANCH  11  12
ENDBRANCH  10  11
ENDBRANCH   9  10
ENDBRANCH   8   9
ENDBRANCH   7   8
ENDBRANCH   6   7
ENDBRANCH   5   6
ENDBRANCH   4   5
ENDBRANCH   3   4
ENDBRANCH   2   3
ENDBRANCH   1   2
BRANCH   1  17
ATOM     17  C   UNL     1     117.613 116.674 116.306  1.00  0.00     0.000 C 
BRANCH  17  18
ATOM     18  C   UNL     1     116.289 117.439 116.523  1.00  0.00     0.000 C 
BRANCH  18  19
ATOM     19  C   UNL     1     116.215 118.785 115.783  1.00  0.00     0.000 C 
BRANCH  19  20
ATOM     20  C   UNL     1     116.219 119.996 116.729  1.00  0.00     0.000 C 
BRANCH  20  21
ATOM     21  C   UNL     1     115.933 119.618 118.193  1.00  0.00     0.000 C 
BRANCH  21  22
ATOM     22  C   UNL     1     114.590 120.161 118.730  1.00  0.00     0.000 C 
BRANCH  22  23
ATOM     23  C   UNL     1     114.319 121.637 118.382  1.00  0.00     0.000 C 
BRANCH  23  24
ATOM     24  C   UNL     1     113.061 121.824 117.518  1.00  0.00     0.000 C 
BRANCH  24  25
ATOM     25  C   UNL     1     113.233 123.001 116.545  1.00  0.00     0.000 C 
BRANCH  25  26
ATOM     26  C   UNL     1     114.613 123.668 116.651  1.00  0.00     0.000 C 
BRANCH  26  27
ATOM     27  C   UNL     1     115.420 123.702 115.339  1.00  0.00     0.002 C 
BRANCH  27  28
ATOM     28  C   UNL     1     116.932 123.455 115.532  1.00  0.00     0.028 C 
BRANCH  28  29
ATOM     29  C   UNL     1     117.719 124.758 115.697  1.00  0.00     0.156 C 
BRANCH  29  30
ATOM     30  O   UNL     1     118.582 124.646 116.795  1.00  0.00    -0.396 OA
ATOM     31  H   UNL     1     118.054 124.912 117.592  1.00  0.00     0.210 HD
ENDBRANCH  29  30
ENDBRANCH  28  29
ENDBRANCH  27  28
ENDBRANCH  26  27
ENDBRANCH  25  26
ENDBRANCH  24  25
ENDBRANCH  23  24
ENDBRANCH  22  23
ENDBRANCH  21  22
ENDBRANCH  20  21
ENDBRANCH  19  20
ENDBRANCH  18  19
ENDBRANCH  17  18
ENDBRANCH   1  17
TORSDOF 28
ENDMDL
MODEL 4
REMARK VINA RESULT:    -3.651      2.749      5.054
REMARK INTER + INTRA:         -13.785
REMARK INTER:                  -8.928
REMARK INTRA:                  -4.857
REMARK UNBOUND:                -4.265
REMARK SMILES CCCCCCCCCCCCCCCCCCCCCCCCCCCCCO
REMARK SMILES IDX 16 1 15 2 14 3 13 4 12 5 11 6 10 7 9 8 8 9 7 10 6 11 5 12
REMARK SMILES IDX 4 13 3 14 2 15 1 16 17 17 18 18 19 19 20 20 21 21 22 22
REMARK SMILES IDX 23 23 24 24 25 25 26 26 27 27 28 28 29 29 30 30
REMARK H PARENT 30 31
REMARK Flexibility Score: inf
ROOT
ATOM      1  C   UNL     1     119.343 117.636 119.856  1.00  0.00     0.000 C 
ENDROOT
BRANCH   1   2
ATOM      2  C   UNL     1     117.991 118.127 120.405  1.00  0.00     0.000 C 
BRANCH   2   3
ATOM      3  C   UNL     1     117.105 118.860 119.377  1.00  0.00     0.000 C 
BRANCH   3   4
ATOM      4  C   UNL     1     115.599 118.836 119.725  1.00  0.00     0.000 C 
BRANCH   4   5
ATOM      5  C   UNL     1     115.269 117.768 120.782  1.00  0.00     0.000 C 
BRANCH   5   6
ATOM      6  C   UNL     1     114.527 116.556 120.200  1.00  0.00     0.000 C 
BRANCH   6   7
ATOM      7  C   UNL     1     115.025 115.220 120.781  1.00  0.00     0.000 C 
BRANCH   7   8
ATOM      8  C   UNL     1     115.955 114.469 119.806  1.00  0.00    -0.000 C 
BRANCH   8   9
ATOM      9  C   UNL     1     117.431 114.438 120.249  1.00  0.00    -0.000 C 
BRANCH   9  10
ATOM     10  C   UNL     1     118.443 114.184 119.117  1.00  0.00    -0.000 C 
BRANCH  10  11
ATOM     11  C   UNL     1     118.461 112.744 118.567  1.00  0.00    -0.000 C 
BRANCH  11  12
ATOM     12  C   UNL     1     117.802 112.601 117.177  1.00  0.00    -0.000 C 
BRANCH  12  13
ATOM     13  C   UNL     1     118.154 111.267 116.495  1.00  0.00    -0.000 C 
BRANCH  13  14
ATOM     14  C   UNL     1     119.442 111.344 115.653  1.00  0.00    -0.000 C 
BRANCH  14  15
ATOM     15  C   UNL     1     120.741 111.070 116.427  1.00  0.00    -0.003 C 
ATOM     16  C   UNL     1     120.625 109.888 117.388  1.00  0.00     0.004 C 
ENDBRANCH  14  15
ENDBRANCH  13  14
ENDBRANCH  12  13
ENDBRANCH  11  12
ENDBRANCH  10  11
ENDBRANCH   9  10
ENDBRANCH   8   9
ENDBRANCH   7   8
ENDBRANCH   6   7
ENDBRANCH   5   6
ENDBRANCH   4   5
ENDBRANCH   3   4
ENDBRANCH   2   3
ENDBRANCH   1   2
BRANCH   1  17
ATOM     17  C   UNL     1     119.804 118.419 118.614  1.00  0.00     0.000 C 
BRANCH  17  18
ATOM     18  C   UNL     1     119.959 117.508 117.376  1.00  0.00     0.000 C 
BRANCH  18  19
ATOM     19  C   UNL     1     119.513 118.162 116.057  1.00  0.00     0.000 C 
BRANCH  19  20
ATOM     20  C   UNL     1     118.229 117.545 115.481  1.00  0.00     0.000 C 
BRANCH  20  21
ATOM     21  C   UNL     1     117.803 116.254 116.202  1.00  0.00     0.000 C 
BRANCH  21  22
ATOM     22  C   UNL     1     116.389 116.320 116.822  1.00  0.00     0.000 C 
BRANCH  22  23
ATOM     23  C   UNL     1     115.485 117.413 116.221  1.00  0.00     0.000 C 
BRANCH  23  24
ATOM     24  C   UNL     1     114.017 117.276 116.657  1.00  0.00     0.000 C 
BRANCH  24  25
ATOM     25  C   UNL     1     113.296 116.201 115.828  1.00  0.00     0.000 C 
BRANCH  25  26
ATOM     26  C   UNL     1     112.123 115.553 116.580  1.00  0.00     0.000 C 
BRANCH  26  27
ATOM     27  C   UNL     1     112.520 114.748 117.833  1.00  0.00     0.002 C 
BRANCH  27  28
ATOM     28  C   UNL     1     111.390 113.846 118.376  1.00  0.00     0.028 C 
BRANCH  28  29
ATOM     29  C   UNL     1     110.899 112.837 117.334  1.00  0.00     0.156 C 
BRANCH  29  30
ATOM     30  O   UNL     1     111.996 112.158 116.789  1.00  0.00    -0.396 OA
ATOM     31  H   UNL     1     112.402 111.643 117.533  1.00  0.00     0.210 HD
ENDBRANCH  29  30
ENDBRANCH  28  29
ENDBRANCH  27  28
ENDBRANCH  26  27
ENDBRANCH  25  26
ENDBRANCH  24  25
ENDBRANCH  23  24
ENDBRANCH  22  23
ENDBRANCH  21  22
ENDBRANCH  20  21
ENDBRANCH  19  20
ENDBRANCH  18  19
ENDBRANCH  17  18
ENDBRANCH   1  17
TORSDOF 28
ENDMDL
MODEL 5
REMARK VINA RESULT:    -3.642      3.382      7.899
REMARK INTER + INTRA:         -13.761
REMARK INTER:                  -8.778
REMARK INTRA:                  -4.983
REMARK UNBOUND:                -4.265
REMARK SMILES CCCCCCCCCCCCCCCCCCCCCCCCCCCCCO
REMARK SMILES IDX 16 1 15 2 14 3 13 4 12 5 11 6 10 7 9 8 8 9 7 10 6 11 5 12
REMARK SMILES IDX 4 13 3 14 2 15 1 16 17 17 18 18 19 19 20 20 21 21 22 22
REMARK SMILES IDX 23 23 24 24 25 25 26 26 27 27 28 28 29 29 30 30
REMARK H PARENT 30 31
REMARK Flexibility Score: inf
ROOT
ATOM      1  C   UNL     1     115.016 118.045 118.604  1.00  0.00     0.000 C 
ENDROOT
BRANCH   1   2
ATOM      2  C   UNL     1     114.378 117.282 119.779  1.00  0.00     0.000 C 
BRANCH   2   3
ATOM      3  C   UNL     1     113.705 115.948 119.393  1.00  0.00     0.000 C 
BRANCH   3   4
ATOM      4  C   UNL     1     114.693 114.766 119.268  1.00  0.00     0.000 C 
BRANCH   4   5
ATOM      5  C   UNL     1     115.016 114.438 117.800  1.00  0.00     0.000 C 
BRANCH   5   6
ATOM      6  C   UNL     1     113.933 114.920 116.825  1.00  0.00     0.000 C 
BRANCH   6   7
ATOM      7  C   UNL     1     114.521 115.566 115.557  1.00  0.00     0.000 C 
BRANCH   7   8
ATOM      8  C   UNL     1     116.032 115.844 115.688  1.00  0.00    -0.000 C 
BRANCH   8   9
ATOM      9  C   UNL     1     116.447 117.264 115.255  1.00  0.00    -0.000 C 
BRANCH   9  10
ATOM     10  C   UNL     1     117.936 117.596 115.456  1.00  0.00    -0.000 C 
BRANCH  10  11
ATOM     11  C   UNL     1     118.798 116.434 115.989  1.00  0.00    -0.000 C 
BRANCH  11  12
ATOM     12  C   UNL     1     120.099 116.894 116.686  1.00  0.00    -0.000 C 
BRANCH  12  13
ATOM     13  C   UNL     1     119.962 118.291 117.319  1.00  0.00    -0.000 C 
BRANCH  13  14
ATOM     14  C   UNL     1     121.009 119.293 116.797  1.00  0.00    -0.000 C 
BRANCH  14  15
ATOM     15  C   UNL     1     122.258 119.444 117.679  1.00  0.00    -0.003 C 
ATOM     16  C   UNL     1     123.135 120.628 117.275  1.00  0.00     0.004 C 
ENDBRANCH  14  15
ENDBRANCH  13  14
ENDBRANCH  12  13
ENDBRANCH  11  12
ENDBRANCH  10  11
ENDBRANCH   9  10
ENDBRANCH   8   9
ENDBRANCH   7   8
ENDBRANCH   6   7
ENDBRANCH   5   6
ENDBRANCH   4   5
ENDBRANCH   3   4
ENDBRANCH   2   3
ENDBRANCH   1   2
BRANCH   1  17
ATOM     17  C   UNL     1     116.519 118.309 118.808  1.00  0.00     0.000 C 
BRANCH  17  18
ATOM     18  C   UNL     1     116.822 118.894 120.205  1.00  0.00     0.000 C 
BRANCH  18  19
ATOM     19  C   UNL     1     117.914 118.134 120.978  1.00  0.00     0.000 C 
BRANCH  19  20
ATOM     20  C   UNL     1     117.357 116.994 121.846  1.00  0.00     0.000 C 
BRANCH  20  21
ATOM     21  C   UNL     1     117.746 115.598 121.330  1.00  0.00     0.000 C 
BRANCH  21  22
ATOM     22  C   UNL     1     118.719 115.621 120.129  1.00  0.00     0.000 C 
BRANCH  22  23
ATOM     23  C   UNL     1     118.357 114.634 119.003  1.00  0.00     0.000 C 
BRANCH  23  24
ATOM     24  C   UNL     1     118.088 113.212 119.522  1.00  0.00     0.000 C 
BRANCH  24  25
ATOM     25  C   UNL     1     118.739 112.162 118.608  1.00  0.00     0.000 C 
BRANCH  25  26
ATOM     26  C   UNL     1     118.733 112.572 117.127  1.00  0.00     0.000 C 
BRANCH  26  27
ATOM     27  C   UNL     1     119.306 111.519 116.159  1.00  0.00     0.002 C 
BRANCH  27  28
ATOM     28  C   UNL     1     119.776 110.224 116.857  1.00  0.00     0.028 C 
BRANCH  28  29
ATOM     29  C   UNL     1     118.915 109.014 116.483  1.00  0.00     0.156 C 
BRANCH  29  30
ATOM     30  O   UNL     1     117.656 109.134 117.088  1.00  0.00    -0.396 OA
ATOM     31  H   UNL     1     117.815 109.117 118.067  1.00  0.00     0.210 HD
ENDBRANCH  29  30
ENDBRANCH  28  29
ENDBRANCH  27  28
ENDBRANCH  26  27
ENDBRANCH  25  26
ENDBRANCH  24  25
ENDBRANCH  23  24
ENDBRANCH  22  23
ENDBRANCH  21  22
ENDBRANCH  20  21
ENDBRANCH  19  20
ENDBRANCH  18  19
ENDBRANCH  17  18
ENDBRANCH   1  17
TORSDOF 28
ENDMDL
MODEL 6
REMARK VINA RESULT:    -3.610      3.090      8.125
REMARK INTER + INTRA:         -13.679
REMARK INTER:                  -8.911
REMARK INTRA:                  -4.768
REMARK UNBOUND:                -4.265
REMARK SMILES CCCCCCCCCCCCCCCCCCCCCCCCCCCCCO
REMARK SMILES IDX 16 1 15 2 14 3 13 4 12 5 11 6 10 7 9 8 8 9 7 10 6 11 5 12
REMARK SMILES IDX 4 13 3 14 2 15 1 16 17 17 18 18 19 19 20 20 21 21 22 22
REMARK SMILES IDX 23 23 24 24 25 25 26 26 27 27 28 28 29 29 30 30
REMARK H PARENT 30 31
REMARK Flexibility Score: inf
ROOT
ATOM      1  C   UNL     1     114.990 117.810 120.925  1.00  0.00     0.000 C 
ENDROOT
BRANCH   1   2
ATOM      2  C   UNL     1     114.396 117.473 119.545  1.00  0.00     0.000 C 
BRANCH   2   3
ATOM      3  C   UNL     1     114.297 115.965 119.237  1.00  0.00     0.000 C 
BRANCH   3   4
ATOM      4  C   UNL     1     114.429 115.628 117.733  1.00  0.00     0.000 C 
BRANCH   4   5
ATOM      5  C   UNL     1     113.382 116.369 116.884  1.00  0.00     0.000 C 
BRANCH   5   6
ATOM      6  C   UNL     1     114.005 117.191 115.746  1.00  0.00     0.000 C 
BRANCH   6   7
ATOM      7  C   UNL     1     114.006 118.703 116.038  1.00  0.00     0.000 C 
BRANCH   7   8
ATOM      8  C   UNL     1     115.433 119.284 116.111  1.00  0.00    -0.000 C 
BRANCH   8   9
ATOM      9  C   UNL     1     115.695 120.143 117.363  1.00  0.00    -0.000 C 
BRANCH   9  10
ATOM     10  C   UNL     1     114.430 120.681 118.058  1.00  0.00    -0.000 C 
BRANCH  10  11
ATOM     11  C   UNL     1     114.163 122.185 117.856  1.00  0.00    -0.000 C 
BRANCH  11  12
ATOM     12  C   UNL     1     112.750 122.498 117.315  1.00  0.00    -0.000 C 
BRANCH  12  13
ATOM     13  C   UNL     1     112.631 122.241 115.802  1.00  0.00    -0.000 C 
BRANCH  13  14
ATOM     14  C   UNL     1     111.180 121.985 115.348  1.00  0.00    -0.000 C 
BRANCH  14  15
ATOM     15  C   UNL     1     110.853 120.521 115.015  1.00  0.00    -0.003 C 
ATOM     16  C   UNL     1     109.356 120.221 115.051  1.00  0.00     0.004 C 
ENDBRANCH  14  15
ENDBRANCH  13  14
ENDBRANCH  12  13
ENDBRANCH  11  12
ENDBRANCH  10  11
ENDBRANCH   9  10
ENDBRANCH   8   9
ENDBRANCH   7   8
ENDBRANCH   6   7
ENDBRANCH   5   6
ENDBRANCH   4   5
ENDBRANCH   3   4
ENDBRANCH   2   3
ENDBRANCH   1   2
BRANCH   1  17
ATOM     17  C   UNL     1     116.430 118.348 120.842  1.00  0.00     0.000 C 
BRANCH  17  18
ATOM     18  C   UNL     1     117.415 117.504 121.680  1.00  0.00     0.000 C 
BRANCH  18  19
ATOM     19  C   UNL     1     117.140 115.991 121.632  1.00  0.00     0.000 C 
BRANCH  19  20
ATOM     20  C   UNL     1     118.228 115.203 120.885  1.00  0.00     0.000 C 
BRANCH  20  21
ATOM     21  C   UNL     1     117.825 114.835 119.446  1.00  0.00     0.000 C 
BRANCH  21  22
ATOM     22  C   UNL     1     118.601 115.612 118.359  1.00  0.00     0.000 C 
BRANCH  22  23
ATOM     23  C   UNL     1     117.907 116.904 117.887  1.00  0.00     0.000 C 
BRANCH  23  24
ATOM     24  C   UNL     1     118.787 118.152 118.065  1.00  0.00     0.000 C 
BRANCH  24  25
ATOM     25  C   UNL     1     119.979 117.856 118.989  1.00  0.00     0.000 C 
BRANCH  25  26
ATOM     26  C   UNL     1     121.139 118.846 118.805  1.00  0.00     0.000 C 
BRANCH  26  27
ATOM     27  C   UNL     1     121.685 118.946 117.367  1.00  0.00     0.002 C 
BRANCH  27  28
ATOM     28  C   UNL     1     122.869 119.927 117.219  1.00  0.00     0.028 C 
BRANCH  28  29
ATOM     29  C   UNL     1     122.603 121.004 116.164  1.00  0.00     0.156 C 
BRANCH  29  30
ATOM     30  O   UNL     1     121.353 121.592 116.401  1.00  0.00    -0.396 OA
ATOM     31  H   UNL     1     120.675 120.919 116.133  1.00  0.00     0.210 HD
ENDBRANCH  29  30
ENDBRANCH  28  29
ENDBRANCH  27  28
ENDBRANCH  26  27
ENDBRANCH  25  26
ENDBRANCH  24  25
ENDBRANCH  23  24
ENDBRANCH  22  23
ENDBRANCH  21  22
ENDBRANCH  20  21
ENDBRANCH  19  20
ENDBRANCH  18  19
ENDBRANCH  17  18
ENDBRANCH   1  17
TORSDOF 28
ENDMDL
MODEL 7
REMARK VINA RESULT:    -3.593      3.252      8.105
REMARK INTER + INTRA:         -13.634
REMARK INTER:                  -8.182
REMARK INTRA:                  -5.452
REMARK UNBOUND:                -4.265
REMARK SMILES CCCCCCCCCCCCCCCCCCCCCCCCCCCCCO
REMARK SMILES IDX 16 1 15 2 14 3 13 4 12 5 11 6 10 7 9 8 8 9 7 10 6 11 5 12
REMARK SMILES IDX 4 13 3 14 2 15 1 16 17 17 18 18 19 19 20 20 21 21 22 22
REMARK SMILES IDX 23 23 24 24 25 25 26 26 27 27 28 28 29 29 30 30
REMARK H PARENT 30 31
REMARK Flexibility Score: inf
ROOT
ATOM      1  C   UNL     1     115.847 117.470 116.973  1.00  0.00     0.000 C 
ENDROOT
BRANCH   1   2
ATOM      2  C   UNL     1     115.609 116.502 115.799  1.00  0.00     0.000 C 
BRANCH   2   3
ATOM      3  C   UNL     1     114.346 116.799 114.965  1.00  0.00     0.000 C 
BRANCH   3   4
ATOM      4  C   UNL     1     113.434 115.568 114.759  1.00  0.00     0.000 C 
BRANCH   4   5
ATOM      5  C   UNL     1     113.238 114.772 116.061  1.00  0.00     0.000 C 
BRANCH   5   6
ATOM      6  C   UNL     1     112.165 115.375 116.979  1.00  0.00     0.000 C 
BRANCH   6   7
ATOM      7  C   UNL     1     111.313 114.301 117.680  1.00  0.00     0.000 C 
BRANCH   7   8
ATOM      8  C   UNL     1     111.548 112.893 117.096  1.00  0.00    -0.000 C 
BRANCH   8   9
ATOM      9  C   UNL     1     110.282 112.241 116.508  1.00  0.00    -0.000 C 
BRANCH   9  10
ATOM     10  C   UNL     1     110.375 111.874 115.016  1.00  0.00    -0.000 C 
BRANCH  10  11
ATOM     11  C   UNL     1     109.565 112.780 114.068  1.00  0.00    -0.000 C 
BRANCH  11  12
ATOM     12  C   UNL     1     110.114 114.221 113.966  1.00  0.00    -0.000 C 
BRANCH  12  13
ATOM     13  C   UNL     1     109.188 115.250 114.640  1.00  0.00    -0.000 C 
BRANCH  13  14
ATOM     14  C   UNL     1     109.744 116.686 114.583  1.00  0.00    -0.000 C 
BRANCH  14  15
ATOM     15  C   UNL     1     109.107 117.668 115.578  1.00  0.00    -0.003 C 
ATOM     16  C   UNL     1     107.975 117.044 116.392  1.00  0.00     0.004 C 
ENDBRANCH  14  15
ENDBRANCH  13  14
ENDBRANCH  12  13
ENDBRANCH  11  12
ENDBRANCH  10  11
ENDBRANCH   9  10
ENDBRANCH   8   9
ENDBRANCH   7   8
ENDBRANCH   6   7
ENDBRANCH   5   6
ENDBRANCH   4   5
ENDBRANCH   3   4
ENDBRANCH   2   3
ENDBRANCH   1   2
BRANCH   1  17
ATOM     17  C   UNL     1     114.544 118.079 117.520  1.00  0.00     0.000 C 
BRANCH  17  18
ATOM     18  C   UNL     1     114.771 118.847 118.841  1.00  0.00     0.000 C 
BRANCH  18  19
ATOM     19  C   UNL     1     116.253 119.060 119.195  1.00  0.00     0.000 C 
BRANCH  19  20
ATOM     20  C   UNL     1     116.644 118.448 120.549  1.00  0.00     0.000 C 
BRANCH  20  21
ATOM     21  C   UNL     1     118.116 118.004 120.608  1.00  0.00     0.000 C 
BRANCH  21  22
ATOM     22  C   UNL     1     118.856 118.104 119.255  1.00  0.00     0.000 C 
BRANCH  22  23
ATOM     23  C   UNL     1     119.205 116.742 118.623  1.00  0.00     0.000 C 
BRANCH  23  24
ATOM     24  C   UNL     1     118.685 115.553 119.447  1.00  0.00     0.000 C 
BRANCH  24  25
ATOM     25  C   UNL     1     117.701 114.705 118.626  1.00  0.00     0.000 C 
BRANCH  25  26
ATOM     26  C   UNL     1     116.573 114.104 119.480  1.00  0.00     0.000 C 
BRANCH  26  27
ATOM     27  C   UNL     1     115.164 114.644 119.169  1.00  0.00     0.002 C 
BRANCH  27  28
ATOM     28  C   UNL     1     114.517 115.405 120.346  1.00  0.00     0.028 C 
BRANCH  28  29
ATOM     29  C   UNL     1     115.265 115.185 121.664  1.00  0.00     0.156 C 
BRANCH  29  30
ATOM     30  O   UNL     1     114.878 116.164 122.589  1.00  0.00    -0.396 OA
ATOM     31  H   UNL     1     114.022 116.538 122.256  1.00  0.00     0.210 HD
ENDBRANCH  29  30
ENDBRANCH  28  29
ENDBRANCH  27  28
ENDBRANCH  26  27
ENDBRANCH  25  26
ENDBRANCH  24  25
ENDBRANCH  23  24
ENDBRANCH  22  23
ENDBRANCH  21  22
ENDBRANCH  20  21
ENDBRANCH  19  20
ENDBRANCH  18  19
ENDBRANCH  17  18
ENDBRANCH   1  17
TORSDOF 28
ENDMDL
MODEL 8
REMARK VINA RESULT:    -3.588      3.006      6.140
REMARK INTER + INTRA:         -13.620
REMARK INTER:                  -8.937
REMARK INTRA:                  -4.684
REMARK UNBOUND:                -4.265
REMARK SMILES CCCCCCCCCCCCCCCCCCCCCCCCCCCCCO
REMARK SMILES IDX 16 1 15 2 14 3 13 4 12 5 11 6 10 7 9 8 8 9 7 10 6 11 5 12
REMARK SMILES IDX 4 13 3 14 2 15 1 16 17 17 18 18 19 19 20 20 21 21 22 22
REMARK SMILES IDX 23 23 24 24 25 25 26 26 27 27 28 28 29 29 30 30
REMARK H PARENT 30 31
REMARK Flexibility Score: inf
ROOT
ATOM      1  C   UNL     1     119.260 116.561 118.153  1.00  0.00     0.000 C 
ENDROOT
BRANCH   1   2
ATOM      2  C   UNL     1     118.571 115.197 117.968  1.00  0.00     0.000 C 
BRANCH   2   3
ATOM      3  C   UNL     1     118.220 114.468 119.282  1.00  0.00     0.000 C 
BRANCH   3   4
ATOM      4  C   UNL     1     118.229 112.927 119.159  1.00  0.00     0.000 C 
BRANCH   4   5
ATOM      5  C   UNL     1     118.692 112.463 117.767  1.00  0.00     0.000 C 
BRANCH   5   6
ATOM      6  C   UNL     1     118.969 110.955 117.697  1.00  0.00     0.000 C 
BRANCH   6   7
ATOM      7  C   UNL     1     120.392 110.635 117.202  1.00  0.00     0.000 C 
BRANCH   7   8
ATOM      8  C   UNL     1     120.853 111.595 116.086  1.00  0.00    -0.000 C 
BRANCH   8   9
ATOM      9  C   UNL     1     122.009 111.045 115.228  1.00  0.00    -0.000 C 
BRANCH   9  10
ATOM     10  C   UNL     1     121.646 110.755 113.760  1.00  0.00    -0.000 C 
BRANCH  10  11
ATOM     11  C   UNL     1     121.421 109.268 113.424  1.00  0.00    -0.000 C 
BRANCH  11  12
ATOM     12  C   UNL     1     119.978 108.943 112.975  1.00  0.00    -0.000 C 
BRANCH  12  13
ATOM     13  C   UNL     1     119.115 108.397 114.127  1.00  0.00    -0.000 C 
BRANCH  13  14
ATOM     14  C   UNL     1     118.007 109.374 114.564  1.00  0.00    -0.000 C 
BRANCH  14  15
ATOM     15  C   UNL     1     117.642 110.447 113.525  1.00  0.00    -0.003 C 
ATOM     16  C   UNL     1     117.874 111.870 114.030  1.00  0.00     0.004 C 
ENDBRANCH  14  15
ENDBRANCH  13  14
ENDBRANCH  12  13
ENDBRANCH  11  12
ENDBRANCH  10  11
ENDBRANCH   9  10
ENDBRANCH   8   9
ENDBRANCH   7   8
ENDBRANCH   6   7
ENDBRANCH   5   6
ENDBRANCH   4   5
ENDBRANCH   3   4
ENDBRANCH   2   3
ENDBRANCH   1   2
BRANCH   1  17
ATOM     17  C   UNL     1     119.208 117.066 119.606  1.00  0.00     0.000 C 
BRANCH  17  18
ATOM     18  C   UNL     1     118.611 118.487 119.707  1.00  0.00     0.000 C 
BRANCH  18  19
ATOM     19  C   UNL     1     117.392 118.719 118.797  1.00  0.00     0.000 C 
BRANCH  19  20
ATOM     20  C   UNL     1     116.162 117.898 119.213  1.00  0.00     0.000 C 
BRANCH  20  21
ATOM     21  C   UNL     1     115.283 118.612 120.254  1.00  0.00     0.000 C 
BRANCH  21  22
ATOM     22  C   UNL     1     115.246 117.912 121.631  1.00  0.00     0.000 C 
BRANCH  22  23
ATOM     23  C   UNL     1     116.121 116.647 121.721  1.00  0.00     0.000 C 
BRANCH  23  24
ATOM     24  C   UNL     1     115.304 115.379 122.016  1.00  0.00     0.000 C 
BRANCH  24  25
ATOM     25  C   UNL     1     114.948 114.640 120.716  1.00  0.00     0.000 C 
BRANCH  25  26
ATOM     26  C   UNL     1     113.604 115.090 120.123  1.00  0.00     0.000 C 
BRANCH  26  27
ATOM     27  C   UNL     1     113.525 115.044 118.584  1.00  0.00     0.002 C 
BRANCH  27  28
ATOM     28  C   UNL     1     114.885 114.785 117.900  1.00  0.00     0.028 C 
BRANCH  28  29
ATOM     29  C   UNL     1     114.727 114.266 116.468  1.00  0.00     0.156 C 
BRANCH  29  30
ATOM     30  O   UNL     1     115.491 113.103 116.307  1.00  0.00    -0.396 OA
ATOM     31  H   UNL     1     116.435 113.399 116.226  1.00  0.00     0.210 HD
ENDBRANCH  29  30
ENDBRANCH  28  29
ENDBRANCH  27  28
ENDBRANCH  26  27
ENDBRANCH  25  26
ENDBRANCH  24  25
ENDBRANCH  23  24
ENDBRANCH  22  23
ENDBRANCH  21  22
ENDBRANCH  20  21
ENDBRANCH  19  20
ENDBRANCH  18  19
ENDBRANCH  17  18
ENDBRANCH   1  17
TORSDOF 28
ENDMDL
MODEL 9
REMARK VINA RESULT:    -3.539      3.122      5.297
REMARK INTER + INTRA:         -13.493
REMARK INTER:                  -7.867
REMARK INTRA:                  -5.626
REMARK UNBOUND:                -4.265
REMARK SMILES CCCCCCCCCCCCCCCCCCCCCCCCCCCCCO
REMARK SMILES IDX 16 1 15 2 14 3 13 4 12 5 11 6 10 7 9 8 8 9 7 10 6 11 5 12
REMARK SMILES IDX 4 13 3 14 2 15 1 16 17 17 18 18 19 19 20 20 21 21 22 22
REMARK SMILES IDX 23 23 24 24 25 25 26 26 27 27 28 28 29 29 30 30
REMARK H PARENT 30 31
REMARK Flexibility Score: inf
ROOT
ATOM      1  C   UNL     1     113.286 114.496 116.576  1.00  0.00     0.000 C 
ENDROOT
BRANCH   1   2
ATOM      2  C   UNL     1     112.793 115.037 117.930  1.00  0.00     0.000 C 
BRANCH   2   3
ATOM      3  C   UNL     1     113.733 114.752 119.120  1.00  0.00     0.000 C 
BRANCH   3   4
ATOM      4  C   UNL     1     113.928 115.963 120.062  1.00  0.00     0.000 C 
BRANCH   4   5
ATOM      5  C   UNL     1     114.923 116.985 119.486  1.00  0.00     0.000 C 
BRANCH   5   6
ATOM      6  C   UNL     1     115.565 117.872 120.562  1.00  0.00     0.000 C 
BRANCH   6   7
ATOM      7  C   UNL     1     116.936 118.427 120.134  1.00  0.00     0.000 C 
BRANCH   7   8
ATOM      8  C   UNL     1     118.104 117.719 120.850  1.00  0.00    -0.000 C 
BRANCH   8   9
ATOM      9  C   UNL     1     118.523 116.389 120.196  1.00  0.00    -0.000 C 
BRANCH   9  10
ATOM     10  C   UNL     1     118.111 115.125 120.971  1.00  0.00    -0.000 C 
BRANCH  10  11
ATOM     11  C   UNL     1     117.281 114.105 120.166  1.00  0.00    -0.000 C 
BRANCH  11  12
ATOM     12  C   UNL     1     118.140 113.107 119.357  1.00  0.00    -0.000 C 
BRANCH  12  13
ATOM     13  C   UNL     1     117.846 113.169 117.847  1.00  0.00    -0.000 C 
BRANCH  13  14
ATOM     14  C   UNL     1     116.729 114.170 117.494  1.00  0.00    -0.000 C 
BRANCH  14  15
ATOM     15  C   UNL     1     117.207 115.458 116.804  1.00  0.00    -0.003 C 
ATOM     16  C   UNL     1     118.282 115.206 115.749  1.00  0.00     0.004 C 
ENDBRANCH  14  15
ENDBRANCH  13  14
ENDBRANCH  12  13
ENDBRANCH  11  12
ENDBRANCH  10  11
ENDBRANCH   9  10
ENDBRANCH   8   9
ENDBRANCH   7   8
ENDBRANCH   6   7
ENDBRANCH   5   6
ENDBRANCH   4   5
ENDBRANCH   3   4
ENDBRANCH   2   3
ENDBRANCH   1   2
BRANCH   1  17
ATOM     17  C   UNL     1     113.523 115.608 115.538  1.00  0.00     0.000 C 
BRANCH  17  18
ATOM     18  C   UNL     1     113.556 117.010 116.186  1.00  0.00     0.000 C 
BRANCH  18  19
ATOM     19  C   UNL     1     114.675 117.920 115.651  1.00  0.00     0.000 C 
BRANCH  19  20
ATOM     20  C   UNL     1     114.932 119.148 116.539  1.00  0.00     0.000 C 
BRANCH  20  21
ATOM     21  C   UNL     1     116.425 119.491 116.678  1.00  0.00     0.000 C 
BRANCH  21  22
ATOM     22  C   UNL     1     117.315 118.878 115.573  1.00  0.00     0.000 C 
BRANCH  22  23
ATOM     23  C   UNL     1     118.828 119.015 115.831  1.00  0.00     0.000 C 
BRANCH  23  24
ATOM     24  C   UNL     1     119.202 118.794 117.305  1.00  0.00     0.000 C 
BRANCH  24  25
ATOM     25  C   UNL     1     120.358 117.789 117.433  1.00  0.00     0.000 C 
BRANCH  25  26
ATOM     26  C   UNL     1     121.512 118.078 116.461  1.00  0.00     0.000 C 
BRANCH  26  27
ATOM     27  C   UNL     1     122.711 118.823 117.078  1.00  0.00     0.002 C 
BRANCH  27  28
ATOM     28  C   UNL     1     122.474 120.338 117.261  1.00  0.00     0.028 C 
BRANCH  28  29
ATOM     29  C   UNL     1     122.100 121.031 115.948  1.00  0.00     0.156 C 
BRANCH  29  30
ATOM     30  O   UNL     1     121.097 121.979 116.191  1.00  0.00    -0.396 OA
ATOM     31  H   UNL     1     120.239 121.545 115.947  1.00  0.00     0.210 HD
ENDBRANCH  29  30
ENDBRANCH  28  29
ENDBRANCH  27  28
ENDBRANCH  26  27
ENDBRANCH  25  26
ENDBRANCH  24  25
ENDBRANCH  23  24
ENDBRANCH  22  23
ENDBRANCH  21  22
ENDBRANCH  20  21
ENDBRANCH  19  20
ENDBRANCH  18  19
ENDBRANCH  17  18
ENDBRANCH   1  17
TORSDOF 28
ENDMDL
