MODEL 1
REMARK VINA RESULT:    -6.594      0.000      0.000
REMARK INTER + INTRA:          -9.780
REMARK INTER:                  -8.906
REMARK INTRA:                  -0.874
REMARK UNBOUND:                -0.874
REMARK SMILES O=c1c(-c2ccc(O)cc2)coc2c([C@H]3O[C@H](CO)[C@H](O)[C@@H](O)[C@@H]3O)c(O)ccc12
REMARK SMILES IDX 3 1 11 2 12 3 13 4 30 5 2 6 1 7 29 8 28 9 26 10 14 11 4 12
REMARK SMILES IDX 5 13 6 14 7 15 10 16 9 17 8 18 15 20 24 21 16 22 22 23 17 24
REMARK SMILES IDX 20 25 25 26 23 28 18 30 19 31 21 33 27 35
REMARK H PARENT 8 19 25 27 23 29 19 32 21 34 27 36
REMARK Flexibility Score: inf
ROOT
ATOM      1  C   UNL     1      26.583  38.366  34.062  1.00  0.00     0.065 A 
ATOM      2  C   UNL     1      27.932  38.656  34.306  1.00  0.00     0.208 A 
ATOM      3  O   UNL     1      28.758  38.952  33.311  1.00  0.00    -0.463 OA
ATOM      4  C   UNL     1      28.376  38.996  32.037  1.00  0.00     0.147 A 
ATOM      5  C   UNL     1      27.029  38.727  31.700  1.00  0.00     0.066 A 
ATOM      6  C   UNL     1      26.126  38.412  32.732  1.00  0.00     0.200 A 
ATOM      7  O   UNL     1      24.910  38.195  32.470  1.00  0.00    -0.288 OA
ATOM      8  C   UNL     1      26.623  38.790  30.358  1.00  0.00     0.020 A 
ATOM      9  C   UNL     1      27.540  39.123  29.363  1.00  0.00     0.047 A 
ATOM     10  C   UNL     1      28.875  39.394  29.684  1.00  0.00     0.125 A 
ATOM     11  C   UNL     1      29.314  39.316  31.026  1.00  0.00     0.069 A 
ENDROOT
BRANCH   1  12
ATOM     12  C   UNL     1      25.681  38.030  35.192  1.00  0.00    -0.011 A 
ATOM     13  C   UNL     1      26.031  37.014  36.100  1.00  0.00     0.013 A 
ATOM     14  C   UNL     1      25.179  36.690  37.160  1.00  0.00     0.047 A 
ATOM     15  C   UNL     1      23.969  37.369  37.325  1.00  0.00     0.115 A 
ATOM     16  C   UNL     1      24.459  38.705  35.360  1.00  0.00     0.013 A 
ATOM     17  C   UNL     1      23.610  38.377  36.421  1.00  0.00     0.047 A 
BRANCH  15  18
ATOM     18  O   UNL     1      23.131  37.035  38.386  1.00  0.00    -0.508 OA
ATOM     19  H   UNL     1      22.466  37.699  38.765  1.00  0.00     0.293 HD
ENDBRANCH  15  18
ENDBRANCH   1  12
BRANCH  11  20
ATOM     20  C   UNL     1      30.760  39.632  31.386  1.00  0.00     0.188 C 
ATOM     21  C   UNL     1      30.969  41.164  31.442  1.00  0.00     0.179 C 
ATOM     22  O   UNL     1      31.619  39.024  30.431  1.00  0.00    -0.362 OA
ATOM     23  C   UNL     1      32.442  41.483  31.758  1.00  0.00     0.177 C 
ATOM     24  C   UNL     1      32.999  39.224  30.717  1.00  0.00     0.176 C 
ATOM     25  C   UNL     1      33.361  40.732  30.781  1.00  0.00     0.177 C 
BRANCH  21  26
ATOM     26  O   UNL     1      30.119  41.760  32.391  1.00  0.00    -0.387 OA
ATOM     27  H   UNL     1      29.195  41.737  32.026  1.00  0.00     0.211 HD
ENDBRANCH  21  26
BRANCH  23  28
ATOM     28  O   UNL     1      32.678  42.868  31.706  1.00  0.00    -0.387 OA
ATOM     29  H   UNL     1      33.528  43.014  31.214  1.00  0.00     0.211 HD
ENDBRANCH  23  28
BRANCH  24  30
ATOM     30  C   UNL     1      33.463  38.395  31.939  1.00  0.00     0.191 C 
BRANCH  30  31
ATOM     31  O   UNL     1      34.844  38.157  31.890  1.00  0.00    -0.394 OA
ATOM     32  H   UNL     1      35.183  38.244  32.819  1.00  0.00     0.210 HD
ENDBRANCH  30  31
ENDBRANCH  24  30
BRANCH  25  33
ATOM     33  O   UNL     1      34.701  40.917  31.160  1.00  0.00    -0.388 OA
ATOM     34  H   UNL     1      35.213  40.157  30.777  1.00  0.00     0.211 HD
ENDBRANCH  25  33
ENDBRANCH  11  20
BRANCH  10  35
ATOM     35  O   UNL     1      29.766  39.745  28.669  1.00  0.00    -0.507 OA
ATOM     36  H   UNL     1      29.521  39.653  27.690  1.00  0.00     0.293 HD
ENDBRANCH  10  35
TORSDOF 9
ENDMDL
MODEL 2
REMARK VINA RESULT:    -6.158      2.203      4.232
REMARK INTER + INTRA:          -9.191
REMARK INTER:                  -8.366
REMARK INTRA:                  -0.825
REMARK UNBOUND:                -0.874
REMARK SMILES O=c1c(-c2ccc(O)cc2)coc2c([C@H]3O[C@H](CO)[C@H](O)[C@@H](O)[C@@H]3O)c(O)ccc12
REMARK SMILES IDX 3 1 11 2 12 3 13 4 30 5 2 6 1 7 29 8 28 9 26 10 14 11 4 12
REMARK SMILES IDX 5 13 6 14 7 15 10 16 9 17 8 18 15 20 24 21 16 22 22 23 17 24
REMARK SMILES IDX 20 25 25 26 23 28 18 30 19 31 21 33 27 35
REMARK H PARENT 8 19 25 27 23 29 19 32 21 34 27 36
REMARK Flexibility Score: inf
ROOT
ATOM      1  C   UNL     1      24.342  39.516  34.994  1.00  0.00     0.065 A 
ATOM      2  C   UNL     1      24.971  40.238  33.970  1.00  0.00     0.208 A 
ATOM      3  O   UNL     1      26.170  39.885  33.524  1.00  0.00    -0.463 OA
ATOM      4  C   UNL     1      26.848  38.845  34.003  1.00  0.00     0.147 A 
ATOM      5  C   UNL     1      26.283  38.054  35.031  1.00  0.00     0.066 A 
ATOM      6  C   UNL     1      25.012  38.399  35.525  1.00  0.00     0.200 A 
ATOM      7  O   UNL     1      24.466  37.697  36.422  1.00  0.00    -0.288 OA
ATOM      8  C   UNL     1      26.991  36.947  35.523  1.00  0.00     0.020 A 
ATOM      9  C   UNL     1      28.241  36.623  34.997  1.00  0.00     0.047 A 
ATOM     10  C   UNL     1      28.808  37.396  33.978  1.00  0.00     0.125 A 
ATOM     11  C   UNL     1      28.125  38.530  33.480  1.00  0.00     0.069 A 
ENDROOT
BRANCH   1  12
ATOM     12  C   UNL     1      23.004  39.936  35.482  1.00  0.00    -0.011 A 
ATOM     13  C   UNL     1      21.894  39.085  35.328  1.00  0.00     0.013 A 
ATOM     14  C   UNL     1      20.631  39.482  35.779  1.00  0.00     0.047 A 
ATOM     15  C   UNL     1      20.459  40.730  36.383  1.00  0.00     0.115 A 
ATOM     16  C   UNL     1      22.822  41.193  36.085  1.00  0.00     0.013 A 
ATOM     17  C   UNL     1      21.558  41.586  36.534  1.00  0.00     0.047 A 
BRANCH  15  18
ATOM     18  O   UNL     1      19.195  41.111  36.828  1.00  0.00    -0.508 OA
ATOM     19  H   UNL     1      18.700  40.579  37.534  1.00  0.00     0.293 HD
ENDBRANCH  15  18
ENDBRANCH   1  12
BRANCH  11  20
ATOM     20  C   UNL     1      28.726  39.363  32.356  1.00  0.00     0.188 C 
ATOM     21  C   UNL     1      28.451  38.688  30.992  1.00  0.00     0.179 C 
ATOM     22  O   UNL     1      30.120  39.519  32.589  1.00  0.00    -0.362 OA
ATOM     23  C   UNL     1      29.101  39.505  29.860  1.00  0.00     0.177 C 
ATOM     24  C   UNL     1      30.760  40.331  31.610  1.00  0.00     0.176 C 
ATOM     25  C   UNL     1      30.584  39.755  30.179  1.00  0.00     0.177 C 
BRANCH  21  26
ATOM     26  O   UNL     1      27.071  38.539  30.765  1.00  0.00    -0.387 OA
ATOM     27  H   UNL     1      26.832  37.596  30.962  1.00  0.00     0.211 HD
ENDBRANCH  21  26
BRANCH  23  28
ATOM     28  O   UNL     1      28.957  38.852  28.622  1.00  0.00    -0.387 OA
ATOM     29  H   UNL     1      28.953  39.545  27.911  1.00  0.00     0.211 HD
ENDBRANCH  23  28
BRANCH  24  30
ATOM     30  C   UNL     1      30.379  41.824  31.758  1.00  0.00     0.191 C 
BRANCH  30  31
ATOM     31  O   UNL     1      31.175  42.452  32.727  1.00  0.00    -0.394 OA
ATOM     32  H   UNL     1      31.487  43.307  32.331  1.00  0.00     0.210 HD
ENDBRANCH  30  31
ENDBRANCH  24  30
BRANCH  25  33
ATOM     33  O   UNL     1      31.135  40.615  29.214  1.00  0.00    -0.388 OA
ATOM     34  H   UNL     1      30.580  41.438  29.217  1.00  0.00     0.211 HD
ENDBRANCH  25  33
ENDBRANCH  11  20
BRANCH  10  35
ATOM     35  O   UNL     1      30.052  37.037  33.458  1.00  0.00    -0.507 OA
ATOM     36  H   UNL     1      30.854  36.878  34.056  1.00  0.00     0.293 HD
ENDBRANCH  10  35
TORSDOF 9
ENDMDL
MODEL 3
REMARK VINA RESULT:    -6.093      1.994      8.420
REMARK INTER + INTRA:          -9.103
REMARK INTER:                  -7.893
REMARK INTRA:                  -1.211
REMARK UNBOUND:                -0.874
REMARK SMILES O=c1c(-c2ccc(O)cc2)coc2c([C@H]3O[C@H](CO)[C@H](O)[C@@H](O)[C@@H]3O)c(O)ccc12
REMARK SMILES IDX 3 1 11 2 12 3 13 4 30 5 2 6 1 7 29 8 28 9 26 10 14 11 4 12
REMARK SMILES IDX 5 13 6 14 7 15 10 16 9 17 8 18 15 20 24 21 16 22 22 23 17 24
REMARK SMILES IDX 20 25 25 26 23 28 18 30 19 31 21 33 27 35
REMARK H PARENT 8 19 25 27 23 29 19 32 21 34 27 36
REMARK Flexibility Score: inf
ROOT
ATOM      1  C   UNL     1      29.152  39.326  32.120  1.00  0.00     0.065 A 
ATOM      2  C   UNL     1      28.662  39.130  33.419  1.00  0.00     0.208 A 
ATOM      3  O   UNL     1      27.664  38.287  33.652  1.00  0.00    -0.463 OA
ATOM      4  C   UNL     1      27.068  37.581  32.694  1.00  0.00     0.147 A 
ATOM      5  C   UNL     1      27.506  37.709  31.354  1.00  0.00     0.066 A 
ATOM      6  C   UNL     1      28.564  38.593  31.074  1.00  0.00     0.200 A 
ATOM      7  O   UNL     1      28.999  38.710  29.893  1.00  0.00    -0.288 OA
ATOM      8  C   UNL     1      26.888  36.952  30.347  1.00  0.00     0.020 A 
ATOM      9  C   UNL     1      25.856  36.072  30.665  1.00  0.00     0.047 A 
ATOM     10  C   UNL     1      25.416  35.934  31.986  1.00  0.00     0.125 A 
ATOM     11  C   UNL     1      26.006  36.702  33.016  1.00  0.00     0.069 A 
ENDROOT
BRANCH   1  12
ATOM     12  C   UNL     1      30.263  40.281  31.884  1.00  0.00    -0.011 A 
ATOM     13  C   UNL     1      31.599  39.853  31.984  1.00  0.00     0.013 A 
ATOM     14  C   UNL     1      32.648  40.752  31.770  1.00  0.00     0.047 A 
ATOM     15  C   UNL     1      32.379  42.088  31.460  1.00  0.00     0.115 A 
ATOM     16  C   UNL     1      29.999  41.628  31.578  1.00  0.00     0.013 A 
ATOM     17  C   UNL     1      31.050  42.525  31.366  1.00  0.00     0.047 A 
BRANCH  15  18
ATOM     18  O   UNL     1      33.433  42.973  31.250  1.00  0.00    -0.508 OA
ATOM     19  H   UNL     1      33.391  43.686  30.531  1.00  0.00     0.293 HD
ENDBRANCH  15  18
ENDBRANCH   1  12
BRANCH  11  20
ATOM     20  C   UNL     1      25.549  36.542  34.460  1.00  0.00     0.188 C 
ATOM     21  C   UNL     1      26.201  35.286  35.085  1.00  0.00     0.179 C 
ATOM     22  O   UNL     1      24.130  36.461  34.490  1.00  0.00    -0.362 OA
ATOM     23  C   UNL     1      25.701  35.097  36.529  1.00  0.00     0.177 C 
ATOM     24  C   UNL     1      23.607  36.359  35.810  1.00  0.00     0.176 C 
ATOM     25  C   UNL     1      24.164  35.118  36.557  1.00  0.00     0.177 C 
BRANCH  21  26
ATOM     26  O   UNL     1      27.605  35.373  35.056  1.00  0.00    -0.387 OA
ATOM     27  H   UNL     1      27.967  34.458  35.192  1.00  0.00     0.211 HD
ENDBRANCH  21  26
BRANCH  23  28
ATOM     28  O   UNL     1      26.197  33.901  37.080  1.00  0.00    -0.387 OA
ATOM     29  H   UNL     1      26.075  33.182  36.405  1.00  0.00     0.211 HD
ENDBRANCH  23  28
BRANCH  24  30
ATOM     30  C   UNL     1      23.733  37.692  36.587  1.00  0.00     0.191 C 
BRANCH  30  31
ATOM     31  O   UNL     1      22.844  37.728  37.671  1.00  0.00    -0.394 OA
ATOM     32  H   UNL     1      22.375  36.853  37.685  1.00  0.00     0.210 HD
ENDBRANCH  30  31
ENDBRANCH  24  30
BRANCH  25  33
ATOM     33  O   UNL     1      23.717  35.083  37.888  1.00  0.00    -0.388 OA
ATOM     34  H   UNL     1      24.374  35.602  38.423  1.00  0.00     0.211 HD
ENDBRANCH  25  33
ENDBRANCH  11  20
BRANCH  10  35
ATOM     35  O   UNL     1      24.393  35.031  32.277  1.00  0.00    -0.507 OA
ATOM     36  H   UNL     1      23.508  35.053  31.784  1.00  0.00     0.293 HD
ENDBRANCH  10  35
TORSDOF 9
ENDMDL
MODEL 4
REMARK VINA RESULT:    -5.897      3.899      9.147
REMARK INTER + INTRA:          -8.840
REMARK INTER:                  -7.868
REMARK INTRA:                  -0.972
REMARK UNBOUND:                -0.874
REMARK SMILES O=c1c(-c2ccc(O)cc2)coc2c([C@H]3O[C@H](CO)[C@H](O)[C@@H](O)[C@@H]3O)c(O)ccc12
REMARK SMILES IDX 3 1 11 2 12 3 13 4 30 5 2 6 1 7 29 8 28 9 26 10 14 11 4 12
REMARK SMILES IDX 5 13 6 14 7 15 10 16 9 17 8 18 15 20 24 21 16 22 22 23 17 24
REMARK SMILES IDX 20 25 25 26 23 28 18 30 19 31 21 33 27 35
REMARK H PARENT 8 19 25 27 23 29 19 32 21 34 27 36
REMARK Flexibility Score: inf
ROOT
ATOM      1  C   UNL     1      32.957  45.047  30.924  1.00  0.00     0.065 A 
ATOM      2  C   UNL     1      31.752  44.336  30.849  1.00  0.00     0.208 A 
ATOM      3  O   UNL     1      31.746  43.015  30.718  1.00  0.00    -0.463 OA
ATOM      4  C   UNL     1      32.857  42.285  30.650  1.00  0.00     0.147 A 
ATOM      5  C   UNL     1      34.118  42.921  30.729  1.00  0.00     0.066 A 
ATOM      6  C   UNL     1      34.160  44.319  30.871  1.00  0.00     0.200 A 
ATOM      7  O   UNL     1      35.269  44.916  30.974  1.00  0.00    -0.288 OA
ATOM      8  C   UNL     1      35.288  42.148  30.676  1.00  0.00     0.020 A 
ATOM      9  C   UNL     1      35.209  40.762  30.554  1.00  0.00     0.047 A 
ATOM     10  C   UNL     1      33.967  40.122  30.478  1.00  0.00     0.125 A 
ATOM     11  C   UNL     1      32.773  40.879  30.507  1.00  0.00     0.069 A 
ENDROOT
BRANCH   1  12
ATOM     12  C   UNL     1      32.938  46.525  31.062  1.00  0.00    -0.011 A 
ATOM     13  C   UNL     1      33.057  47.345  29.926  1.00  0.00     0.013 A 
ATOM     14  C   UNL     1      33.047  48.737  30.055  1.00  0.00     0.047 A 
ATOM     15  C   UNL     1      32.924  49.328  31.315  1.00  0.00     0.115 A 
ATOM     16  C   UNL     1      32.820  47.126  32.329  1.00  0.00     0.013 A 
ATOM     17  C   UNL     1      32.811  48.518  32.453  1.00  0.00     0.047 A 
BRANCH  15  18
ATOM     18  O   UNL     1      32.915  50.716  31.428  1.00  0.00    -0.508 OA
ATOM     19  H   UNL     1      32.139  51.270  31.084  1.00  0.00     0.293 HD
ENDBRANCH  15  18
ENDBRANCH   1  12
BRANCH  11  20
ATOM     20  C   UNL     1      31.417  40.188  30.447  1.00  0.00     0.188 C 
ATOM     21  C   UNL     1      30.983  39.751  31.867  1.00  0.00     0.179 C 
ATOM     22  O   UNL     1      31.501  39.078  29.564  1.00  0.00    -0.362 OA
ATOM     23  C   UNL     1      29.636  39.010  31.800  1.00  0.00     0.177 C 
ATOM     24  C   UNL     1      30.261  38.398  29.405  1.00  0.00     0.176 C 
ATOM     25  C   UNL     1      29.712  37.879  30.761  1.00  0.00     0.177 C 
BRANCH  21  26
ATOM     26  O   UNL     1      30.899  40.853  32.736  1.00  0.00    -0.387 OA
ATOM     27  H   UNL     1      30.087  40.736  33.296  1.00  0.00     0.211 HD
ENDBRANCH  21  26
BRANCH  23  28
ATOM     28  O   UNL     1      29.275  38.508  33.064  1.00  0.00    -0.387 OA
ATOM     29  H   UNL     1      28.304  38.669  33.189  1.00  0.00     0.211 HD
ENDBRANCH  23  28
BRANCH  24  30
ATOM     30  C   UNL     1      29.251  39.224  28.572  1.00  0.00     0.191 C 
BRANCH  30  31
ATOM     31  O   UNL     1      29.769  39.519  27.303  1.00  0.00    -0.394 OA
ATOM     32  H   UNL     1      28.994  39.588  26.686  1.00  0.00     0.210 HD
ENDBRANCH  30  31
ENDBRANCH  24  30
BRANCH  25  33
ATOM     33  O   UNL     1      28.443  37.297  30.606  1.00  0.00    -0.388 OA
ATOM     34  H   UNL     1      28.041  37.243  31.512  1.00  0.00     0.211 HD
ENDBRANCH  25  33
ENDBRANCH  11  20
BRANCH  10  35
ATOM     35  O   UNL     1      33.918  38.731  30.376  1.00  0.00    -0.507 OA
ATOM     36  H   UNL     1      33.851  38.265  29.478  1.00  0.00     0.293 HD
ENDBRANCH  10  35
TORSDOF 9
ENDMDL
MODEL 5
REMARK VINA RESULT:    -5.817      2.055      3.319
REMARK INTER + INTRA:          -8.731
REMARK INTER:                  -8.134
REMARK INTRA:                  -0.596
REMARK UNBOUND:                -0.874
REMARK SMILES O=c1c(-c2ccc(O)cc2)coc2c([C@H]3O[C@H](CO)[C@H](O)[C@@H](O)[C@@H]3O)c(O)ccc12
REMARK SMILES IDX 3 1 11 2 12 3 13 4 30 5 2 6 1 7 29 8 28 9 26 10 14 11 4 12
REMARK SMILES IDX 5 13 6 14 7 15 10 16 9 17 8 18 15 20 24 21 16 22 22 23 17 24
REMARK SMILES IDX 20 25 25 26 23 28 18 30 19 31 21 33 27 35
REMARK H PARENT 8 19 25 27 23 29 19 32 21 34 27 36
REMARK Flexibility Score: inf
ROOT
ATOM      1  C   UNL     1      26.491  37.570  35.256  1.00  0.00     0.065 A 
ATOM      2  C   UNL     1      26.872  38.658  34.458  1.00  0.00     0.208 A 
ATOM      3  O   UNL     1      27.979  38.613  33.729  1.00  0.00    -0.463 OA
ATOM      4  C   UNL     1      28.790  37.558  33.699  1.00  0.00     0.147 A 
ATOM      5  C   UNL     1      28.476  36.412  34.467  1.00  0.00     0.066 A 
ATOM      6  C   UNL     1      27.307  36.425  35.250  1.00  0.00     0.200 A 
ATOM      7  O   UNL     1      26.982  35.408  35.924  1.00  0.00    -0.288 OA
ATOM      8  C   UNL     1      29.323  35.293  34.421  1.00  0.00     0.020 A 
ATOM      9  C   UNL     1      30.462  35.308  33.619  1.00  0.00     0.047 A 
ATOM     10  C   UNL     1      30.782  36.435  32.854  1.00  0.00     0.125 A 
ATOM     11  C   UNL     1      29.958  37.583  32.899  1.00  0.00     0.069 A 
ENDROOT
BRANCH   1  12
ATOM     12  C   UNL     1      25.252  37.648  36.071  1.00  0.00    -0.011 A 
ATOM     13  C   UNL     1      25.170  36.974  37.302  1.00  0.00     0.013 A 
ATOM     14  C   UNL     1      24.000  37.039  38.067  1.00  0.00     0.047 A 
ATOM     15  C   UNL     1      22.901  37.770  37.612  1.00  0.00     0.115 A 
ATOM     16  C   UNL     1      24.138  38.377  35.615  1.00  0.00     0.013 A 
ATOM     17  C   UNL     1      22.972  38.439  36.382  1.00  0.00     0.047 A 
BRANCH  15  18
ATOM     18  O   UNL     1      21.743  37.826  38.384  1.00  0.00    -0.508 OA
ATOM     19  H   UNL     1      20.872  38.181  38.008  1.00  0.00     0.293 HD
ENDBRANCH  15  18
ENDBRANCH   1  12
BRANCH  11  20
ATOM     20  C   UNL     1      30.286  38.805  32.051  1.00  0.00     0.188 C 
ATOM     21  C   UNL     1      29.787  38.594  30.602  1.00  0.00     0.179 C 
ATOM     22  O   UNL     1      31.689  39.033  32.090  1.00  0.00    -0.362 OA
ATOM     23  C   UNL     1      30.163  39.809  29.734  1.00  0.00     0.177 C 
ATOM     24  C   UNL     1      32.085  40.190  31.364  1.00  0.00     0.176 C 
ATOM     25  C   UNL     1      31.665  40.106  29.872  1.00  0.00     0.177 C 
BRANCH  21  26
ATOM     26  O   UNL     1      28.398  38.372  30.568  1.00  0.00    -0.387 OA
ATOM     27  H   UNL     1      28.216  37.522  31.047  1.00  0.00     0.211 HD
ENDBRANCH  21  26
BRANCH  23  28
ATOM     28  O   UNL     1      29.815  39.591  28.388  1.00  0.00    -0.387 OA
ATOM     29  H   UNL     1      30.178  38.707  28.119  1.00  0.00     0.211 HD
ENDBRANCH  23  28
BRANCH  24  30
ATOM     30  C   UNL     1      31.665  41.496  32.081  1.00  0.00     0.191 C 
BRANCH  30  31
ATOM     31  O   UNL     1      32.667  42.472  31.975  1.00  0.00    -0.394 OA
ATOM     32  H   UNL     1      33.177  42.269  31.147  1.00  0.00     0.210 HD
ENDBRANCH  30  31
ENDBRANCH  24  30
BRANCH  25  33
ATOM     33  O   UNL     1      31.974  41.294  29.189  1.00  0.00    -0.388 OA
ATOM     34  H   UNL     1      31.639  41.185  28.260  1.00  0.00     0.211 HD
ENDBRANCH  25  33
ENDBRANCH  11  20
BRANCH  10  35
ATOM     35  O   UNL     1      31.919  36.414  32.045  1.00  0.00    -0.507 OA
ATOM     36  H   UNL     1      32.817  36.105  32.398  1.00  0.00     0.293 HD
ENDBRANCH  10  35
TORSDOF 9
ENDMDL
MODEL 6
REMARK VINA RESULT:    -5.806      2.792      4.771
REMARK INTER + INTRA:          -8.717
REMARK INTER:                  -7.811
REMARK INTRA:                  -0.906
REMARK UNBOUND:                -0.874
REMARK SMILES O=c1c(-c2ccc(O)cc2)coc2c([C@H]3O[C@H](CO)[C@H](O)[C@@H](O)[C@@H]3O)c(O)ccc12
REMARK SMILES IDX 3 1 11 2 12 3 13 4 30 5 2 6 1 7 29 8 28 9 26 10 14 11 4 12
REMARK SMILES IDX 5 13 6 14 7 15 10 16 9 17 8 18 15 20 24 21 16 22 22 23 17 24
REMARK SMILES IDX 20 25 25 26 23 28 18 30 19 31 21 33 27 35
REMARK H PARENT 8 19 25 27 23 29 19 32 21 34 27 36
REMARK Flexibility Score: inf
ROOT
ATOM      1  C   UNL     1      27.196  38.827  31.345  1.00  0.00     0.065 A 
ATOM      2  C   UNL     1      27.530  38.481  30.029  1.00  0.00     0.208 A 
ATOM      3  O   UNL     1      28.725  38.770  29.529  1.00  0.00    -0.463 OA
ATOM      4  C   UNL     1      29.673  39.394  30.224  1.00  0.00     0.147 A 
ATOM      5  C   UNL     1      29.425  39.771  31.565  1.00  0.00     0.066 A 
ATOM      6  C   UNL     1      28.169  39.477  32.126  1.00  0.00     0.200 A 
ATOM      7  O   UNL     1      27.925  39.773  33.329  1.00  0.00    -0.288 OA
ATOM      8  C   UNL     1      30.432  40.413  32.302  1.00  0.00     0.020 A 
ATOM      9  C   UNL     1      31.671  40.672  31.720  1.00  0.00     0.047 A 
ATOM     10  C   UNL     1      31.929  40.301  30.396  1.00  0.00     0.125 A 
ATOM     11  C   UNL     1      30.925  39.673  29.624  1.00  0.00     0.069 A 
ENDROOT
BRANCH   1  12
ATOM     12  C   UNL     1      25.849  38.501  31.878  1.00  0.00    -0.011 A 
ATOM     13  C   UNL     1      25.587  37.226  32.409  1.00  0.00     0.013 A 
ATOM     14  C   UNL     1      24.317  36.913  32.905  1.00  0.00     0.047 A 
ATOM     15  C   UNL     1      23.295  37.864  32.871  1.00  0.00     0.115 A 
ATOM     16  C   UNL     1      24.814  39.452  31.842  1.00  0.00     0.013 A 
ATOM     17  C   UNL     1      23.545  39.135  32.337  1.00  0.00     0.047 A 
BRANCH  15  18
ATOM     18  O   UNL     1      22.035  37.539  33.368  1.00  0.00    -0.508 OA
ATOM     19  H   UNL     1      21.541  38.155  34.003  1.00  0.00     0.293 HD
ENDBRANCH  15  18
ENDBRANCH   1  12
BRANCH  11  20
ATOM     20  C   UNL     1      31.205  39.246  28.189  1.00  0.00     0.188 C 
ATOM     21  C   UNL     1      32.255  38.109  28.170  1.00  0.00     0.179 C 
ATOM     22  O   UNL     1      31.647  40.375  27.448  1.00  0.00    -0.362 OA
ATOM     23  C   UNL     1      32.574  37.712  26.717  1.00  0.00     0.177 C 
ATOM     24  C   UNL     1      31.886  40.081  26.076  1.00  0.00     0.176 C 
ATOM     25  C   UNL     1      32.947  38.961  25.903  1.00  0.00     0.177 C 
BRANCH  21  26
ATOM     26  O   UNL     1      31.811  36.993  28.903  1.00  0.00    -0.387 OA
ATOM     27  H   UNL     1      30.888  37.184  29.215  1.00  0.00     0.211 HD
ENDBRANCH  21  26
BRANCH  23  28
ATOM     28  O   UNL     1      33.605  36.757  26.673  1.00  0.00    -0.387 OA
ATOM     29  H   UNL     1      33.255  35.912  27.061  1.00  0.00     0.211 HD
ENDBRANCH  23  28
BRANCH  24  30
ATOM     30  C   UNL     1      30.569  39.850  25.295  1.00  0.00     0.191 C 
BRANCH  30  31
ATOM     31  O   UNL     1      29.658  40.892  25.528  1.00  0.00    -0.394 OA
ATOM     32  H   UNL     1      28.759  40.544  25.290  1.00  0.00     0.210 HD
ENDBRANCH  30  31
ENDBRANCH  24  30
BRANCH  25  33
ATOM     33  O   UNL     1      33.102  38.613  24.551  1.00  0.00    -0.388 OA
ATOM     34  H   UNL     1      33.943  39.040  24.241  1.00  0.00     0.211 HD
ENDBRANCH  25  33
ENDBRANCH  11  20
BRANCH  10  35
ATOM     35  O   UNL     1      33.186  40.555  29.846  1.00  0.00    -0.507 OA
ATOM     36  H   UNL     1      33.966  40.859  30.417  1.00  0.00     0.293 HD
ENDBRANCH  10  35
TORSDOF 9
ENDMDL
MODEL 7
REMARK VINA RESULT:    -5.678      2.284      8.736
REMARK INTER + INTRA:          -8.544
REMARK INTER:                  -7.405
REMARK INTRA:                  -1.138
REMARK UNBOUND:                -0.874
REMARK SMILES O=c1c(-c2ccc(O)cc2)coc2c([C@H]3O[C@H](CO)[C@H](O)[C@@H](O)[C@@H]3O)c(O)ccc12
REMARK SMILES IDX 3 1 11 2 12 3 13 4 30 5 2 6 1 7 29 8 28 9 26 10 14 11 4 12
REMARK SMILES IDX 5 13 6 14 7 15 10 16 9 17 8 18 15 20 24 21 16 22 22 23 17 24
REMARK SMILES IDX 20 25 25 26 23 28 18 30 19 31 21 33 27 35
REMARK H PARENT 8 19 25 27 23 29 19 32 21 34 27 36
REMARK Flexibility Score: inf
ROOT
ATOM      1  C   UNL     1      28.628  39.209  32.035  1.00  0.00     0.065 A 
ATOM      2  C   UNL     1      27.674  39.467  33.028  1.00  0.00     0.208 A 
ATOM      3  O   UNL     1      26.596  38.704  33.154  1.00  0.00    -0.463 OA
ATOM      4  C   UNL     1      26.346  37.661  32.366  1.00  0.00     0.147 A 
ATOM      5  C   UNL     1      27.262  37.322  31.342  1.00  0.00     0.066 A 
ATOM      6  C   UNL     1      28.417  38.109  31.184  1.00  0.00     0.200 A 
ATOM      7  O   UNL     1      29.269  37.817  30.299  1.00  0.00    -0.288 OA
ATOM      8  C   UNL     1      27.006  36.212  30.523  1.00  0.00     0.020 A 
ATOM      9  C   UNL     1      25.861  35.442  30.721  1.00  0.00     0.047 A 
ATOM     10  C   UNL     1      24.949  35.766  31.732  1.00  0.00     0.125 A 
ATOM     11  C   UNL     1      25.172  36.893  32.557  1.00  0.00     0.069 A 
ENDROOT
BRANCH   1  12
ATOM     12  C   UNL     1      29.822  40.083  31.909  1.00  0.00    -0.011 A 
ATOM     13  C   UNL     1      29.706  41.364  31.341  1.00  0.00     0.013 A 
ATOM     14  C   UNL     1      30.830  42.186  31.214  1.00  0.00     0.047 A 
ATOM     15  C   UNL     1      32.081  41.739  31.646  1.00  0.00     0.115 A 
ATOM     16  C   UNL     1      31.085  39.637  32.336  1.00  0.00     0.013 A 
ATOM     17  C   UNL     1      32.207  40.461  32.207  1.00  0.00     0.047 A 
BRANCH  15  18
ATOM     18  O   UNL     1      33.192  42.569  31.513  1.00  0.00    -0.508 OA
ATOM     19  H   UNL     1      33.100  43.535  31.221  1.00  0.00     0.293 HD
ENDBRANCH  15  18
ENDBRANCH   1  12
BRANCH  11  20
ATOM     20  C   UNL     1      24.197  37.239  33.674  1.00  0.00     0.188 C 
ATOM     21  C   UNL     1      24.452  36.330  34.900  1.00  0.00     0.179 C 
ATOM     22  O   UNL     1      22.868  37.098  33.189  1.00  0.00    -0.362 OA
ATOM     23  C   UNL     1      23.434  36.647  36.011  1.00  0.00     0.177 C 
ATOM     24  C   UNL     1      21.883  37.451  34.154  1.00  0.00     0.176 C 
ATOM     25  C   UNL     1      22.006  36.594  35.443  1.00  0.00     0.177 C 
BRANCH  21  26
ATOM     26  O   UNL     1      25.767  36.476  35.378  1.00  0.00    -0.387 OA
ATOM     27  H   UNL     1      25.721  36.575  36.365  1.00  0.00     0.211 HD
ENDBRANCH  21  26
BRANCH  23  28
ATOM     28  O   UNL     1      23.578  35.759  37.092  1.00  0.00    -0.387 OA
ATOM     29  H   UNL     1      24.443  35.284  36.983  1.00  0.00     0.211 HD
ENDBRANCH  23  28
BRANCH  24  30
ATOM     30  C   UNL     1      21.832  38.979  34.396  1.00  0.00     0.191 C 
BRANCH  30  31
ATOM     31  O   UNL     1      20.551  39.379  34.806  1.00  0.00    -0.394 OA
ATOM     32  H   UNL     1      20.510  40.365  34.695  1.00  0.00     0.210 HD
ENDBRANCH  30  31
ENDBRANCH  24  30
BRANCH  25  33
ATOM     33  O   UNL     1      21.094  37.018  36.424  1.00  0.00    -0.388 OA
ATOM     34  H   UNL     1      20.965  37.993  36.291  1.00  0.00     0.211 HD
ENDBRANCH  25  33
ENDBRANCH  11  20
BRANCH  10  35
ATOM     35  O   UNL     1      23.822  34.966  31.920  1.00  0.00    -0.507 OA
ATOM     36  H   UNL     1      22.919  35.365  32.152  1.00  0.00     0.293 HD
ENDBRANCH  10  35
TORSDOF 9
ENDMDL
MODEL 8
REMARK VINA RESULT:    -5.657      2.719      4.236
REMARK INTER + INTRA:          -8.514
REMARK INTER:                  -7.375
REMARK INTRA:                  -1.139
REMARK UNBOUND:                -0.874
REMARK SMILES O=c1c(-c2ccc(O)cc2)coc2c([C@H]3O[C@H](CO)[C@H](O)[C@@H](O)[C@@H]3O)c(O)ccc12
REMARK SMILES IDX 3 1 11 2 12 3 13 4 30 5 2 6 1 7 29 8 28 9 26 10 14 11 4 12
REMARK SMILES IDX 5 13 6 14 7 15 10 16 9 17 8 18 15 20 24 21 16 22 22 23 17 24
REMARK SMILES IDX 20 25 25 26 23 28 18 30 19 31 21 33 27 35
REMARK H PARENT 8 19 25 27 23 29 19 32 21 34 27 36
REMARK Flexibility Score: inf
ROOT
ATOM      1  C   UNL     1      23.560  39.158  33.783  1.00  0.00     0.065 A 
ATOM      2  C   UNL     1      24.671  39.897  33.353  1.00  0.00     0.208 A 
ATOM      3  O   UNL     1      25.688  39.306  32.740  1.00  0.00    -0.463 OA
ATOM      4  C   UNL     1      25.729  37.998  32.493  1.00  0.00     0.147 A 
ATOM      5  C   UNL     1      24.645  37.178  32.884  1.00  0.00     0.066 A 
ATOM      6  C   UNL     1      23.549  37.774  33.534  1.00  0.00     0.200 A 
ATOM      7  O   UNL     1      22.552  37.076  33.870  1.00  0.00    -0.288 OA
ATOM      8  C   UNL     1      24.682  35.802  32.608  1.00  0.00     0.020 A 
ATOM      9  C   UNL     1      25.775  35.249  31.946  1.00  0.00     0.047 A 
ATOM     10  C   UNL     1      26.852  36.050  31.551  1.00  0.00     0.125 A 
ATOM     11  C   UNL     1      26.850  37.435  31.837  1.00  0.00     0.069 A 
ENDROOT
BRANCH   1  12
ATOM     12  C   UNL     1      22.438  39.842  34.474  1.00  0.00    -0.011 A 
ATOM     13  C   UNL     1      21.350  40.342  33.736  1.00  0.00     0.013 A 
ATOM     14  C   UNL     1      20.296  40.994  34.384  1.00  0.00     0.047 A 
ATOM     15  C   UNL     1      20.316  41.159  35.771  1.00  0.00     0.115 A 
ATOM     16  C   UNL     1      22.455  40.018  35.869  1.00  0.00     0.013 A 
ATOM     17  C   UNL     1      21.400  40.670  36.513  1.00  0.00     0.047 A 
BRANCH  15  18
ATOM     18  O   UNL     1      19.259  41.810  36.403  1.00  0.00    -0.508 OA
ATOM     19  H   UNL     1      18.576  41.301  36.951  1.00  0.00     0.293 HD
ENDBRANCH  15  18
ENDBRANCH   1  12
BRANCH  11  20
ATOM     20  C   UNL     1      28.008  38.319  31.392  1.00  0.00     0.188 C 
ATOM     21  C   UNL     1      27.962  38.517  29.858  1.00  0.00     0.179 C 
ATOM     22  O   UNL     1      29.231  37.723  31.803  1.00  0.00    -0.362 OA
ATOM     23  C   UNL     1      29.161  39.370  29.402  1.00  0.00     0.177 C 
ATOM     24  C   UNL     1      30.371  38.508  31.473  1.00  0.00     0.176 C 
ATOM     25  C   UNL     1      30.467  38.769  29.946  1.00  0.00     0.177 C 
BRANCH  21  26
ATOM     26  O   UNL     1      26.752  39.110  29.456  1.00  0.00    -0.387 OA
ATOM     27  H   UNL     1      26.335  38.516  28.778  1.00  0.00     0.211 HD
ENDBRANCH  21  26
BRANCH  23  28
ATOM     28  O   UNL     1      29.200  39.471  27.999  1.00  0.00    -0.387 OA
ATOM     29  H   UNL     1      29.240  38.551  27.629  1.00  0.00     0.211 HD
ENDBRANCH  23  28
BRANCH  24  30
ATOM     30  C   UNL     1      30.476  39.776  32.354  1.00  0.00     0.191 C 
BRANCH  30  31
ATOM     31  O   UNL     1      31.782  40.287  32.344  1.00  0.00    -0.394 OA
ATOM     32  H   UNL     1      32.011  40.507  33.285  1.00  0.00     0.210 HD
ENDBRANCH  30  31
ENDBRANCH  24  30
BRANCH  25  33
ATOM     33  O   UNL     1      31.540  39.625  29.643  1.00  0.00    -0.388 OA
ATOM     34  H   UNL     1      31.914  39.931  30.511  1.00  0.00     0.211 HD
ENDBRANCH  25  33
ENDBRANCH  11  20
BRANCH  10  35
ATOM     35  O   UNL     1      27.925  35.472  30.872  1.00  0.00    -0.507 OA
ATOM     36  H   UNL     1      28.675  35.001  31.365  1.00  0.00     0.293 HD
ENDBRANCH  10  35
TORSDOF 9
ENDMDL
MODEL 9
REMARK VINA RESULT:    -5.606      2.477      8.897
REMARK INTER + INTRA:          -8.445
REMARK INTER:                  -7.308
REMARK INTRA:                  -1.138
REMARK UNBOUND:                -0.874
REMARK SMILES O=c1c(-c2ccc(O)cc2)coc2c([C@H]3O[C@H](CO)[C@H](O)[C@@H](O)[C@@H]3O)c(O)ccc12
REMARK SMILES IDX 3 1 11 2 12 3 13 4 30 5 2 6 1 7 29 8 28 9 26 10 14 11 4 12
REMARK SMILES IDX 5 13 6 14 7 15 10 16 9 17 8 18 15 20 24 21 16 22 22 23 17 24
REMARK SMILES IDX 20 25 25 26 23 28 18 30 19 31 21 33 27 35
REMARK H PARENT 8 19 25 27 23 29 19 32 21 34 27 36
REMARK Flexibility Score: inf
ROOT
ATOM      1  C   UNL     1      28.747  38.973  31.671  1.00  0.00     0.065 A 
ATOM      2  C   UNL     1      27.414  39.383  31.523  1.00  0.00     0.208 A 
ATOM      3  O   UNL     1      26.518  39.147  32.472  1.00  0.00    -0.463 OA
ATOM      4  C   UNL     1      26.809  38.518  33.609  1.00  0.00     0.147 A 
ATOM      5  C   UNL     1      28.133  38.079  33.846  1.00  0.00     0.066 A 
ATOM      6  C   UNL     1      29.108  38.316  32.861  1.00  0.00     0.200 A 
ATOM      7  O   UNL     1      30.306  37.963  33.053  1.00  0.00    -0.288 OA
ATOM      8  C   UNL     1      28.443  37.432  35.053  1.00  0.00     0.020 A 
ATOM      9  C   UNL     1      27.455  37.231  36.015  1.00  0.00     0.047 A 
ATOM     10  C   UNL     1      26.143  37.664  35.792  1.00  0.00     0.125 A 
ATOM     11  C   UNL     1      25.799  38.298  34.576  1.00  0.00     0.069 A 
ENDROOT
BRANCH   1  12
ATOM     12  C   UNL     1      29.729  39.241  30.591  1.00  0.00    -0.011 A 
ATOM     13  C   UNL     1      29.739  38.449  29.429  1.00  0.00     0.013 A 
ATOM     14  C   UNL     1      30.669  38.695  28.414  1.00  0.00     0.047 A 
ATOM     15  C   UNL     1      31.600  39.727  28.546  1.00  0.00     0.115 A 
ATOM     16  C   UNL     1      30.673  40.275  30.721  1.00  0.00     0.013 A 
ATOM     17  C   UNL     1      31.601  40.517  29.704  1.00  0.00     0.047 A 
BRANCH  15  18
ATOM     18  O   UNL     1      32.520  39.961  27.527  1.00  0.00    -0.508 OA
ATOM     19  H   UNL     1      32.851  40.895  27.316  1.00  0.00     0.293 HD
ENDBRANCH  15  18
ENDBRANCH   1  12
BRANCH  11  20
ATOM     20  C   UNL     1      24.379  38.793  34.336  1.00  0.00     0.188 C 
ATOM     21  C   UNL     1      24.136  40.105  35.118  1.00  0.00     0.179 C 
ATOM     22  O   UNL     1      23.463  37.778  34.724  1.00  0.00    -0.362 OA
ATOM     23  C   UNL     1      22.685  40.579  34.914  1.00  0.00     0.177 C 
ATOM     24  C   UNL     1      22.106  38.133  34.487  1.00  0.00     0.176 C 
ATOM     25  C   UNL     1      21.711  39.434  35.237  1.00  0.00     0.177 C 
BRANCH  21  26
ATOM     26  O   UNL     1      25.043  41.107  34.727  1.00  0.00    -0.387 OA
ATOM     27  H   UNL     1      25.938  40.686  34.635  1.00  0.00     0.211 HD
ENDBRANCH  21  26
BRANCH  23  28
ATOM     28  O   UNL     1      22.410  41.710  35.703  1.00  0.00    -0.387 OA
ATOM     29  H   UNL     1      21.622  42.170  35.311  1.00  0.00     0.211 HD
ENDBRANCH  23  28
BRANCH  24  30
ATOM     30  C   UNL     1      21.761  38.127  32.978  1.00  0.00     0.191 C 
BRANCH  30  31
ATOM     31  O   UNL     1      20.392  37.893  32.777  1.00  0.00    -0.394 OA
ATOM     32  H   UNL     1      19.940  38.775  32.834  1.00  0.00     0.210 HD
ENDBRANCH  30  31
ENDBRANCH  24  30
BRANCH  25  33
ATOM     33  O   UNL     1      20.401  39.827  34.917  1.00  0.00    -0.388 OA
ATOM     34  H   UNL     1      19.977  39.058  34.453  1.00  0.00     0.211 HD
ENDBRANCH  25  33
ENDBRANCH  11  20
BRANCH  10  35
ATOM     35  O   UNL     1      25.179  37.467  36.782  1.00  0.00    -0.507 OA
ATOM     36  H   UNL     1      24.388  36.850  36.639  1.00  0.00     0.293 HD
ENDBRANCH  10  35
TORSDOF 9
ENDMDL
