MODEL 1
REMARK VINA RESULT:    -4.552      0.000      0.000
REMARK INTER + INTRA:          -5.266
REMARK INTER:                  -5.084
REMARK INTRA:                  -0.182
REMARK UNBOUND:                -0.182
REMARK SMILES CC(C)c1ccc(C=O)cc1
REMARK SMILES IDX 4 1 5 2 6 3 7 4 10 5 11 6 2 7 1 8 3 9 8 10 9 11
REMARK H PARENT
REMARK Flexibility Score: inf
ROOT
ATOM      1  C   UNL     1     -17.639  44.005  32.318  1.00  0.00    -0.045 A 
ATOM      2  C   UNL     1     -16.459  44.015  33.084  1.00  0.00     0.005 A 
ATOM      3  C   UNL     1     -15.226  44.285  32.485  1.00  0.00     0.012 A 
ATOM      4  C   UNL     1     -15.147  44.550  31.110  1.00  0.00     0.014 A 
ATOM      5  C   UNL     1     -16.322  44.542  30.341  1.00  0.00     0.012 A 
ATOM      6  C   UNL     1     -17.556  44.271  30.940  1.00  0.00     0.005 A 
ENDROOT
BRANCH   1   7
ATOM      7  C   UNL     1     -18.985  43.713  32.955  1.00  0.00     0.013 C 
ATOM      8  C   UNL     1     -19.368  44.805  33.960  1.00  0.00     0.012 C 
ATOM      9  C   UNL     1     -18.996  42.328  33.612  1.00  0.00     0.012 C 
ENDBRANCH   1   7
BRANCH   4  10
ATOM     10  C   UNL     1     -13.837  44.833  30.496  1.00  0.00     0.260 C 
ATOM     11  O   UNL     1     -12.763  44.578  31.103  1.00  0.00    -0.298 OA
ENDBRANCH   4  10
TORSDOF 2
ENDMDL
MODEL 2
REMARK VINA RESULT:    -4.549      0.035      1.460
REMARK INTER + INTRA:          -5.263
REMARK INTER:                  -5.079
REMARK INTRA:                  -0.184
REMARK UNBOUND:                -0.182
REMARK SMILES CC(C)c1ccc(C=O)cc1
REMARK SMILES IDX 4 1 5 2 6 3 7 4 10 5 11 6 2 7 1 8 3 9 8 10 9 11
REMARK H PARENT
REMARK Flexibility Score: inf
ROOT
ATOM      1  C   UNL     1     -17.651  43.996  32.302  1.00  0.00    -0.045 A 
ATOM      2  C   UNL     1     -17.547  44.301  30.932  1.00  0.00     0.005 A 
ATOM      3  C   UNL     1     -16.302  44.578  30.359  1.00  0.00     0.012 A 
ATOM      4  C   UNL     1     -15.139  44.555  31.141  1.00  0.00     0.014 A 
ATOM      5  C   UNL     1     -15.238  44.250  32.509  1.00  0.00     0.012 A 
ATOM      6  C   UNL     1     -16.483  43.974  33.083  1.00  0.00     0.005 A 
ENDROOT
BRANCH   1   7
ATOM      7  C   UNL     1     -18.995  43.694  32.937  1.00  0.00     0.013 C 
ATOM      8  C   UNL     1     -19.384  44.777  33.949  1.00  0.00     0.012 C 
ATOM      9  C   UNL     1     -18.999  42.304  33.585  1.00  0.00     0.012 C 
ENDBRANCH   1   7
BRANCH   4  10
ATOM     10  C   UNL     1     -13.835  44.849  30.519  1.00  0.00     0.260 C 
ATOM     11  O   UNL     1     -12.756  44.556  31.099  1.00  0.00    -0.298 OA
ENDBRANCH   4  10
TORSDOF 2
ENDMDL
MODEL 3
REMARK VINA RESULT:    -4.535      3.324      4.199
REMARK INTER + INTRA:          -5.248
REMARK INTER:                  -5.061
REMARK INTRA:                  -0.186
REMARK UNBOUND:                -0.182
REMARK SMILES CC(C)c1ccc(C=O)cc1
REMARK SMILES IDX 4 1 5 2 6 3 7 4 10 5 11 6 2 7 1 8 3 9 8 10 9 11
REMARK H PARENT
REMARK Flexibility Score: inf
ROOT
ATOM      1  C   UNL     1     -17.528  42.542  32.128  1.00  0.00    -0.045 A 
ATOM      2  C   UNL     1     -16.612  42.319  31.083  1.00  0.00     0.005 A 
ATOM      3  C   UNL     1     -16.342  41.021  30.640  1.00  0.00     0.012 A 
ATOM      4  C   UNL     1     -16.981  39.922  31.230  1.00  0.00     0.014 A 
ATOM      5  C   UNL     1     -17.897  40.139  32.272  1.00  0.00     0.012 A 
ATOM      6  C   UNL     1     -18.167  41.436  32.717  1.00  0.00     0.005 A 
ENDROOT
BRANCH   1   7
ATOM      7  C   UNL     1     -17.832  43.944  32.619  1.00  0.00     0.013 C 
ATOM      8  C   UNL     1     -16.709  44.469  33.521  1.00  0.00     0.012 C 
ATOM      9  C   UNL     1     -19.187  43.998  33.334  1.00  0.00     0.012 C 
ENDBRANCH   1   7
BRANCH   4  10
ATOM     10  C   UNL     1     -16.682  38.560  30.749  1.00  0.00     0.260 C 
ATOM     11  O   UNL     1     -15.531  38.250  30.343  1.00  0.00    -0.298 OA
ENDBRANCH   4  10
TORSDOF 2
ENDMDL
MODEL 4
REMARK VINA RESULT:    -4.515      3.452      4.159
REMARK INTER + INTRA:          -5.225
REMARK INTER:                  -5.040
REMARK INTRA:                  -0.185
REMARK UNBOUND:                -0.182
REMARK SMILES CC(C)c1ccc(C=O)cc1
REMARK SMILES IDX 4 1 5 2 6 3 7 4 10 5 11 6 2 7 1 8 3 9 8 10 9 11
REMARK H PARENT
REMARK Flexibility Score: inf
ROOT
ATOM      1  C   UNL     1     -17.640  42.461  32.156  1.00  0.00    -0.045 A 
ATOM      2  C   UNL     1     -18.244  41.293  32.659  1.00  0.00     0.005 A 
ATOM      3  C   UNL     1     -17.870  40.036  32.176  1.00  0.00     0.012 A 
ATOM      4  C   UNL     1     -16.886  39.920  31.184  1.00  0.00     0.014 A 
ATOM      5  C   UNL     1     -16.279  41.082  30.680  1.00  0.00     0.012 A 
ATOM      6  C   UNL     1     -16.653  42.340  31.162  1.00  0.00     0.005 A 
ENDROOT
BRANCH   1   7
ATOM      7  C   UNL     1     -18.035  43.832  32.671  1.00  0.00     0.013 C 
ATOM      8  C   UNL     1     -16.881  44.489  33.437  1.00  0.00     0.012 C 
ATOM      9  C   UNL     1     -19.299  43.753  33.537  1.00  0.00     0.012 C 
ENDBRANCH   1   7
BRANCH   4  10
ATOM     10  C   UNL     1     -16.504  38.586  30.687  1.00  0.00     0.260 C 
ATOM     11  O   UNL     1     -16.420  38.350  29.453  1.00  0.00    -0.298 OA
ENDBRANCH   4  10
TORSDOF 2
ENDMDL
MODEL 5
REMARK VINA RESULT:    -4.486      2.390      4.732
REMARK INTER + INTRA:          -5.193
REMARK INTER:                  -5.005
REMARK INTRA:                  -0.187
REMARK UNBOUND:                -0.182
REMARK SMILES CC(C)c1ccc(C=O)cc1
REMARK SMILES IDX 4 1 5 2 6 3 7 4 10 5 11 6 2 7 1 8 3 9 8 10 9 11
REMARK H PARENT
REMARK Flexibility Score: inf
ROOT
ATOM      1  C   UNL     1     -15.170  44.501  31.623  1.00  0.00    -0.045 A 
ATOM      2  C   UNL     1     -15.340  44.202  32.988  1.00  0.00     0.005 A 
ATOM      3  C   UNL     1     -16.621  44.071  33.531  1.00  0.00     0.012 A 
ATOM      4  C   UNL     1     -17.755  44.235  32.724  1.00  0.00     0.014 A 
ATOM      5  C   UNL     1     -17.591  44.532  31.361  1.00  0.00     0.012 A 
ATOM      6  C   UNL     1     -16.310  44.665  30.817  1.00  0.00     0.005 A 
ENDROOT
BRANCH   1   7
ATOM      7  C   UNL     1     -13.786  44.646  31.020  1.00  0.00     0.013 C 
ATOM      8  C   UNL     1     -13.559  43.620  29.903  1.00  0.00     0.012 C 
ATOM      9  C   UNL     1     -12.700  44.540  32.097  1.00  0.00     0.012 C 
ENDBRANCH   1   7
BRANCH   4  10
ATOM     10  C   UNL     1     -19.099  44.092  33.315  1.00  0.00     0.260 C 
ATOM     11  O   UNL     1     -19.473  43.003  33.826  1.00  0.00    -0.298 OA
ENDBRANCH   4  10
TORSDOF 2
ENDMDL
MODEL 6
REMARK VINA RESULT:    -4.482      2.378      4.957
REMARK INTER + INTRA:          -5.188
REMARK INTER:                  -5.000
REMARK INTRA:                  -0.188
REMARK UNBOUND:                -0.182
REMARK SMILES CC(C)c1ccc(C=O)cc1
REMARK SMILES IDX 4 1 5 2 6 3 7 4 10 5 11 6 2 7 1 8 3 9 8 10 9 11
REMARK H PARENT
REMARK Flexibility Score: inf
ROOT
ATOM      1  C   UNL     1     -15.143  44.511  31.567  1.00  0.00    -0.045 A 
ATOM      2  C   UNL     1     -16.308  44.546  30.779  1.00  0.00     0.005 A 
ATOM      3  C   UNL     1     -17.569  44.439  31.371  1.00  0.00     0.012 A 
ATOM      4  C   UNL     1     -17.692  44.295  32.760  1.00  0.00     0.014 A 
ATOM      5  C   UNL     1     -16.532  44.261  33.552  1.00  0.00     0.012 A 
ATOM      6  C   UNL     1     -15.270  44.367  32.960  1.00  0.00     0.005 A 
ENDROOT
BRANCH   1   7
ATOM      7  C   UNL     1     -13.767  44.627  30.938  1.00  0.00     0.013 C 
ATOM      8  C   UNL     1     -13.563  43.561  29.855  1.00  0.00     0.012 C 
ATOM      9  C   UNL     1     -12.665  44.551  32.002  1.00  0.00     0.012 C 
ENDBRANCH   1   7
BRANCH   4  10
ATOM     10  C   UNL     1     -19.031  44.183  33.367  1.00  0.00     0.260 C 
ATOM     11  O   UNL     1     -19.454  43.084  33.814  1.00  0.00    -0.298 OA
ENDBRANCH   4  10
TORSDOF 2
ENDMDL
MODEL 7
REMARK VINA RESULT:    -4.458      1.205      1.989
REMARK INTER + INTRA:          -5.161
REMARK INTER:                  -4.980
REMARK INTRA:                  -0.181
REMARK UNBOUND:                -0.182
REMARK SMILES CC(C)c1ccc(C=O)cc1
REMARK SMILES IDX 4 1 5 2 6 3 7 4 10 5 11 6 2 7 1 8 3 9 8 10 9 11
REMARK H PARENT
REMARK Flexibility Score: inf
ROOT
ATOM      1  C   UNL     1     -17.051  43.625  32.677  1.00  0.00    -0.045 A 
ATOM      2  C   UNL     1     -16.409  44.191  31.559  1.00  0.00     0.005 A 
ATOM      3  C   UNL     1     -15.068  44.576  31.631  1.00  0.00     0.012 A 
ATOM      4  C   UNL     1     -14.342  44.403  32.818  1.00  0.00     0.014 A 
ATOM      5  C   UNL     1     -14.977  43.837  33.935  1.00  0.00     0.012 A 
ATOM      6  C   UNL     1     -16.320  43.453  33.865  1.00  0.00     0.005 A 
ENDROOT
BRANCH   1   7
ATOM      7  C   UNL     1     -18.507  43.202  32.613  1.00  0.00     0.013 C 
ATOM      8  C   UNL     1     -19.376  44.072  33.529  1.00  0.00     0.012 C 
ATOM      9  C   UNL     1     -18.665  41.714  32.951  1.00  0.00     0.012 C 
ENDBRANCH   1   7
BRANCH   4  10
ATOM     10  C   UNL     1     -12.927  44.815  32.875  1.00  0.00     0.260 C 
ATOM     11  O   UNL     1     -12.086  44.373  32.048  1.00  0.00    -0.298 OA
ENDBRANCH   4  10
TORSDOF 2
ENDMDL
MODEL 8
REMARK VINA RESULT:    -4.402      3.057      4.689
REMARK INTER + INTRA:          -5.099
REMARK INTER:                  -4.909
REMARK INTRA:                  -0.191
REMARK UNBOUND:                -0.182
REMARK SMILES CC(C)c1ccc(C=O)cc1
REMARK SMILES IDX 4 1 5 2 6 3 7 4 10 5 11 6 2 7 1 8 3 9 8 10 9 11
REMARK H PARENT
REMARK Flexibility Score: inf
ROOT
ATOM      1  C   UNL     1     -15.024  43.769  32.804  1.00  0.00    -0.045 A 
ATOM      2  C   UNL     1     -15.801  43.346  33.899  1.00  0.00     0.005 A 
ATOM      3  C   UNL     1     -16.717  42.301  33.757  1.00  0.00     0.012 A 
ATOM      4  C   UNL     1     -16.876  41.658  32.521  1.00  0.00     0.014 A 
ATOM      5  C   UNL     1     -16.102  42.075  31.426  1.00  0.00     0.012 A 
ATOM      6  C   UNL     1     -15.185  43.121  31.567  1.00  0.00     0.005 A 
ENDROOT
BRANCH   1   7
ATOM      7  C   UNL     1     -14.025  44.902  32.943  1.00  0.00     0.013 C 
ATOM      8  C   UNL     1     -12.685  44.541  32.290  1.00  0.00     0.012 C 
ATOM      9  C   UNL     1     -13.835  45.293  34.413  1.00  0.00     0.012 C 
ENDBRANCH   1   7
BRANCH   4  10
ATOM     10  C   UNL     1     -17.848  40.557  32.391  1.00  0.00     0.260 C 
ATOM     11  O   UNL     1     -17.490  39.415  31.997  1.00  0.00    -0.298 OA
ENDBRANCH   4  10
TORSDOF 2
ENDMDL
MODEL 9
REMARK VINA RESULT:    -4.274      1.459      2.617
REMARK INTER + INTRA:          -4.956
REMARK INTER:                  -4.766
REMARK INTRA:                  -0.190
REMARK UNBOUND:                -0.182
REMARK SMILES CC(C)c1ccc(C=O)cc1
REMARK SMILES IDX 4 1 5 2 6 3 7 4 10 5 11 6 2 7 1 8 3 9 8 10 9 11
REMARK H PARENT
REMARK Flexibility Score: inf
ROOT
ATOM      1  C   UNL     1     -15.727  44.542  31.859  1.00  0.00    -0.045 A 
ATOM      2  C   UNL     1     -15.169  44.512  30.567  1.00  0.00     0.005 A 
ATOM      3  C   UNL     1     -13.782  44.542  30.392  1.00  0.00     0.012 A 
ATOM      4  C   UNL     1     -12.927  44.600  31.501  1.00  0.00     0.014 A 
ATOM      5  C   UNL     1     -13.479  44.629  32.793  1.00  0.00     0.012 A 
ATOM      6  C   UNL     1     -14.866  44.600  32.969  1.00  0.00     0.005 A 
ENDROOT
BRANCH   1   7
ATOM      7  C   UNL     1     -17.229  44.510  32.064  1.00  0.00     0.013 C 
ATOM      8  C   UNL     1     -17.584  44.547  33.555  1.00  0.00     0.012 C 
ATOM      9  C   UNL     1     -17.855  43.289  31.377  1.00  0.00     0.012 C 
ENDBRANCH   1   7
BRANCH   4  10
ATOM     10  C   UNL     1     -11.467  44.631  31.297  1.00  0.00     0.260 C 
ATOM     11  O   UNL     1     -10.957  45.277  30.344  1.00  0.00    -0.298 OA
ENDBRANCH   4  10
TORSDOF 2
ENDMDL
