MODEL 1
REMARK VINA RESULT:    -3.991      0.000      0.000
REMARK INTER + INTRA:          -4.610
REMARK INTER:                  -4.924
REMARK INTRA:                   0.314
REMARK UNBOUND:                 0.314
REMARK SMILES O=C1c2c(O)cc(O)cc2O[C@@H](c2cc(O)c(O)c(O)c2)[C@H]1O
REMARK SMILES IDX 12 1 22 2 2 3 1 4 3 5 4 6 6 7 7 8 9 9 10 10 11 11 13 12
REMARK SMILES IDX 14 13 15 14 21 15 17 16 19 17 16 18 18 20 20 22 23 24 5 26
REMARK SMILES IDX 8 28
REMARK H PARENT 16 19 18 21 20 23 23 25 5 27 8 29
REMARK Flexibility Score: inf
ROOT
ATOM      1  C   UNL     1       5.412  10.856   7.276  1.00  0.00     0.240 C 
ATOM      2  C   UNL     1       5.778   9.735   8.271  1.00  0.00     0.231 C 
ATOM      3  C   UNL     1       4.525   9.243   8.946  1.00  0.00     0.202 C 
ATOM      4  O   UNL     1       4.425   8.024   9.251  1.00  0.00    -0.291 OA
ATOM      5  C   UNL     1       3.456  10.211   9.294  1.00  0.00     0.105 A 
ATOM      6  C   UNL     1       2.373   9.883  10.137  1.00  0.00     0.133 A 
ATOM      7  C   UNL     1       1.424  10.864  10.463  1.00  0.00     0.093 A 
ATOM      8  C   UNL     1       1.548  12.165   9.966  1.00  0.00     0.123 A 
ATOM      9  C   UNL     1       2.620  12.491   9.126  1.00  0.00     0.093 A 
ATOM     10  C   UNL     1       3.560  11.518   8.778  1.00  0.00     0.138 A 
ATOM     11  O   UNL     1       4.611  11.854   7.916  1.00  0.00    -0.481 OA
ENDROOT
BRANCH   1  12
ATOM     12  C   UNL     1       6.645  11.477   6.660  1.00  0.00     0.003 A 
ATOM     13  C   UNL     1       7.654  12.033   7.465  1.00  0.00     0.058 A 
ATOM     14  C   UNL     1       8.808  12.575   6.890  1.00  0.00     0.161 A 
ATOM     15  C   UNL     1       6.822  11.446   5.268  1.00  0.00     0.058 A 
ATOM     16  C   UNL     1       8.972  12.555   5.494  1.00  0.00     0.200 A 
ATOM     17  C   UNL     1       7.975  11.986   4.683  1.00  0.00     0.161 A 
BRANCH  14  18
ATOM     18  O   UNL     1       9.783  13.125   7.722  1.00  0.00    -0.504 OA
ATOM     19  H   UNL     1      10.768  12.924   7.604  1.00  0.00     0.293 HD
ENDBRANCH  14  18
BRANCH  16  20
ATOM     20  O   UNL     1      10.125  13.100   4.928  1.00  0.00    -0.502 OA
ATOM     21  H   UNL     1      10.829  13.570   5.483  1.00  0.00     0.293 HD
ENDBRANCH  16  20
BRANCH  17  22
ATOM     22  O   UNL     1       8.136  11.957   3.298  1.00  0.00    -0.504 OA
ATOM     23  H   UNL     1       8.336  12.798   2.770  1.00  0.00     0.293 HD
ENDBRANCH  17  22
ENDBRANCH   1  12
BRANCH   2  24
ATOM     24  O   UNL     1       6.665  10.223   9.243  1.00  0.00    -0.381 OA
ATOM     25  H   UNL     1       6.694  11.210   9.136  1.00  0.00     0.211 HD
ENDBRANCH   2  24
BRANCH   6  26
ATOM     26  O   UNL     1       2.241   8.597  10.659  1.00  0.00    -0.507 OA
ATOM     27  H   UNL     1       1.366   8.089  10.609  1.00  0.00     0.293 HD
ENDBRANCH   6  26
BRANCH   8  28
ATOM     28  O   UNL     1       0.599  13.125  10.312  1.00  0.00    -0.508 OA
ATOM     29  H   UNL     1      -0.383  12.892  10.399  1.00  0.00     0.293 HD
ENDBRANCH   8  28
TORSDOF 7
ENDMDL
MODEL 2
REMARK VINA RESULT:    -3.953      0.086      1.757
REMARK INTER + INTRA:          -4.564
REMARK INTER:                  -4.846
REMARK INTRA:                   0.282
REMARK UNBOUND:                 0.314
REMARK SMILES O=C1c2c(O)cc(O)cc2O[C@@H](c2cc(O)c(O)c(O)c2)[C@H]1O
REMARK SMILES IDX 12 1 22 2 2 3 1 4 3 5 4 6 6 7 7 8 9 9 10 10 11 11 13 12
REMARK SMILES IDX 14 13 15 14 21 15 17 16 19 17 16 18 18 20 20 22 23 24 5 26
REMARK SMILES IDX 8 28
REMARK H PARENT 16 19 18 21 20 23 23 25 5 27 8 29
REMARK Flexibility Score: inf
ROOT
ATOM      1  C   UNL     1       5.460  10.760   7.261  1.00  0.00     0.240 C 
ATOM      2  C   UNL     1       5.804   9.626   8.247  1.00  0.00     0.231 C 
ATOM      3  C   UNL     1       4.542   9.159   8.924  1.00  0.00     0.202 C 
ATOM      4  O   UNL     1       4.415   7.941   9.223  1.00  0.00    -0.291 OA
ATOM      5  C   UNL     1       3.498  10.150   9.283  1.00  0.00     0.105 A 
ATOM      6  C   UNL     1       2.411   9.843  10.130  1.00  0.00     0.133 A 
ATOM      7  C   UNL     1       1.488  10.844  10.467  1.00  0.00     0.093 A 
ATOM      8  C   UNL     1       1.640  12.144   9.977  1.00  0.00     0.123 A 
ATOM      9  C   UNL     1       2.716  12.450   9.134  1.00  0.00     0.093 A 
ATOM     10  C   UNL     1       3.631  11.458   8.775  1.00  0.00     0.138 A 
ATOM     11  O   UNL     1       4.686  11.773   7.910  1.00  0.00    -0.481 OA
ENDROOT
BRANCH   1  12
ATOM     12  C   UNL     1       6.704  11.356   6.642  1.00  0.00     0.003 A 
ATOM     13  C   UNL     1       6.878  11.381   5.248  1.00  0.00     0.058 A 
ATOM     14  C   UNL     1       8.015  11.965   4.681  1.00  0.00     0.161 A 
ATOM     15  C   UNL     1       7.675  11.953   7.462  1.00  0.00     0.058 A 
ATOM     16  C   UNL     1       8.992  12.547   5.508  1.00  0.00     0.200 A 
ATOM     17  C   UNL     1       8.817  12.541   6.903  1.00  0.00     0.161 A 
BRANCH  14  18
ATOM     18  O   UNL     1       8.155  11.962   3.293  1.00  0.00    -0.504 OA
ATOM     19  H   UNL     1       9.061  11.987   2.843  1.00  0.00     0.293 HD
ENDBRANCH  14  18
BRANCH  16  20
ATOM     20  O   UNL     1      10.125  13.125   4.935  1.00  0.00    -0.502 OA
ATOM     21  H   UNL     1      10.074  13.953   4.355  1.00  0.00     0.293 HD
ENDBRANCH  16  20
BRANCH  17  22
ATOM     22  O   UNL     1       9.779  13.123   7.728  1.00  0.00    -0.504 OA
ATOM     23  H   UNL     1       9.631  14.029   8.157  1.00  0.00     0.293 HD
ENDBRANCH  17  22
ENDBRANCH   1  12
BRANCH   2  24
ATOM     24  O   UNL     1       6.706  10.085   9.218  1.00  0.00    -0.381 OA
ATOM     25  H   UNL     1       7.258   9.305   9.488  1.00  0.00     0.211 HD
ENDBRANCH   2  24
BRANCH   6  26
ATOM     26  O   UNL     1       2.252   8.557  10.645  1.00  0.00    -0.507 OA
ATOM     27  H   UNL     1       2.603   7.741  10.158  1.00  0.00     0.293 HD
ENDBRANCH   6  26
BRANCH   8  28
ATOM     28  O   UNL     1       0.717  13.125  10.333  1.00  0.00    -0.508 OA
ATOM     29  H   UNL     1       0.829  14.089  10.041  1.00  0.00     0.293 HD
ENDBRANCH   8  28
TORSDOF 7
ENDMDL
MODEL 3
REMARK VINA RESULT:    -3.464      1.081      7.146
REMARK INTER + INTRA:          -3.960
REMARK INTER:                  -4.164
REMARK INTRA:                   0.204
REMARK UNBOUND:                 0.314
REMARK SMILES O=C1c2c(O)cc(O)cc2O[C@@H](c2cc(O)c(O)c(O)c2)[C@H]1O
REMARK SMILES IDX 12 1 22 2 2 3 1 4 3 5 4 6 6 7 7 8 9 9 10 10 11 11 13 12
REMARK SMILES IDX 14 13 15 14 21 15 17 16 19 17 16 18 18 20 20 22 23 24 5 26
REMARK SMILES IDX 8 28
REMARK H PARENT 16 19 18 21 20 23 23 25 5 27 8 29
REMARK Flexibility Score: inf
ROOT
ATOM      1  C   UNL     1       5.283  12.347   8.069  1.00  0.00     0.240 C 
ATOM      2  C   UNL     1       6.571  12.154   8.895  1.00  0.00     0.231 C 
ATOM      3  C   UNL     1       7.757  12.581   8.069  1.00  0.00     0.202 C 
ATOM      4  O   UNL     1       8.742  13.125   8.638  1.00  0.00    -0.291 OA
ATOM      5  C   UNL     1       7.772  12.299   6.613  1.00  0.00     0.105 A 
ATOM      6  C   UNL     1       8.930  12.438   5.819  1.00  0.00     0.133 A 
ATOM      7  C   UNL     1       8.882  12.106   4.456  1.00  0.00     0.093 A 
ATOM      8  C   UNL     1       7.700  11.631   3.882  1.00  0.00     0.123 A 
ATOM      9  C   UNL     1       6.548  11.496   4.668  1.00  0.00     0.093 A 
ATOM     10  C   UNL     1       6.577  11.842   6.021  1.00  0.00     0.138 A 
ATOM     11  O   UNL     1       5.411  11.726   6.786  1.00  0.00    -0.481 OA
ENDROOT
BRANCH   1  12
ATOM     12  C   UNL     1       4.070  11.816   8.799  1.00  0.00     0.003 A 
ATOM     13  C   UNL     1       3.948  10.450   9.101  1.00  0.00     0.058 A 
ATOM     14  C   UNL     1       2.840   9.971   9.807  1.00  0.00     0.161 A 
ATOM     15  C   UNL     1       3.077  12.704   9.241  1.00  0.00     0.058 A 
ATOM     16  C   UNL     1       1.840  10.863  10.233  1.00  0.00     0.200 A 
ATOM     17  C   UNL     1       1.963  12.234   9.950  1.00  0.00     0.161 A 
BRANCH  14  18
ATOM     18  O   UNL     1       2.751   8.606  10.080  1.00  0.00    -0.504 OA
ATOM     19  H   UNL     1       2.491   7.931   9.372  1.00  0.00     0.293 HD
ENDBRANCH  14  18
BRANCH  16  20
ATOM     20  O   UNL     1       0.736  10.377  10.935  1.00  0.00    -0.502 OA
ATOM     21  H   UNL     1      -0.187  10.780  10.834  1.00  0.00     0.293 HD
ENDBRANCH  16  20
BRANCH  17  22
ATOM     22  O   UNL     1       0.979  13.125  10.376  1.00  0.00    -0.504 OA
ATOM     23  H   UNL     1       1.079  13.655  11.234  1.00  0.00     0.293 HD
ENDBRANCH  17  22
ENDBRANCH   1  12
BRANCH   2  24
ATOM     24  O   UNL     1       6.719  10.805   9.252  1.00  0.00    -0.381 OA
ATOM     25  H   UNL     1       7.376  10.411   8.619  1.00  0.00     0.211 HD
ENDBRANCH   2  24
BRANCH   6  26
ATOM     26  O   UNL     1      10.125  12.891   6.376  1.00  0.00    -0.507 OA
ATOM     27  H   UNL     1      10.585  12.391   7.127  1.00  0.00     0.293 HD
ENDBRANCH   6  26
BRANCH   8  28
ATOM     28  O   UNL     1       7.679  11.298   2.530  1.00  0.00    -0.508 OA
ATOM     29  H   UNL     1       8.424  11.580   1.903  1.00  0.00     0.293 HD
ENDBRANCH   8  28
TORSDOF 7
ENDMDL
