MODEL 1
REMARK VINA RESULT:    -3.080      0.000      0.000
REMARK INTER + INTRA:          -7.715
REMARK INTER:                  -5.421
REMARK INTRA:                  -2.294
REMARK UNBOUND:                -2.294
REMARK SMILES CCCCCCC=CCCCCCCCC(=O)[O-]
REMARK SMILES IDX 10 1 11 2 12 3 13 4 14 5 15 6 16 7 17 8 18 9 9 10 8 11 7 12
REMARK SMILES IDX 6 13 5 14 4 15 3 16 2 17 1 18
REMARK H PARENT
REMARK Flexibility Score: inf
ROOT
ATOM      1  C   UNL     1    -103.984 -27.775 -12.793  1.00  0.00     0.004 C 
ENDROOT
BRANCH   1   2
ATOM      2  C   UNL     1    -102.771 -27.077 -12.144  1.00  0.00     0.000 C 
BRANCH   2   3
ATOM      3  C   UNL     1    -101.575 -27.998 -11.829  1.00  0.00     0.000 C 
BRANCH   3   4
ATOM      4  C   UNL     1    -101.765 -29.473 -12.222  1.00  0.00     0.000 C 
BRANCH   4   5
ATOM      5  C   UNL     1    -100.443 -30.168 -12.591  1.00  0.00     0.006 C 
BRANCH   5   6
ATOM      6  C   UNL     1     -99.302 -29.164 -12.805  1.00  0.00     0.053 C 
BRANCH   6   7
ATOM      7  C   UNL     1     -97.984 -29.718 -12.359  1.00  0.00     0.041 C 
ATOM      8  O   UNL     1     -97.133 -30.094 -13.207  1.00  0.00    -0.550 OA
ATOM      9  O   UNL     1     -97.684 -29.794 -11.004  1.00  0.00    -0.550 OA
ENDBRANCH   6   7
ENDBRANCH   5   6
ENDBRANCH   4   5
ENDBRANCH   3   4
ENDBRANCH   2   3
ENDBRANCH   1   2
BRANCH   1  10
ATOM     10  C   UNL     1    -105.092 -26.817 -13.263  1.00  0.00     0.027 C 
BRANCH  10  11
ATOM     11  C   UNL     1    -104.595 -25.399 -13.402  1.00  0.00    -0.031 C 
ATOM     12  C   UNL     1    -104.477 -24.739 -14.569  1.00  0.00    -0.031 C 
BRANCH  12  13
ATOM     13  C   UNL     1    -104.736 -25.346 -15.925  1.00  0.00     0.027 C 
BRANCH  13  14
ATOM     14  C   UNL     1    -103.418 -25.767 -16.591  1.00  0.00     0.004 C 
BRANCH  14  15
ATOM     15  C   UNL     1    -103.189 -27.286 -16.538  1.00  0.00     0.000 C 
BRANCH  15  16
ATOM     16  C   UNL     1    -101.867 -27.662 -15.853  1.00  0.00    -0.000 C 
BRANCH  16  17
ATOM     17  C   UNL     1    -101.635 -29.177 -15.903  1.00  0.00    -0.003 C 
ATOM     18  C   UNL     1    -102.954 -29.940 -15.827  1.00  0.00     0.004 C 
ENDBRANCH  16  17
ENDBRANCH  15  16
ENDBRANCH  14  15
ENDBRANCH  13  14
ENDBRANCH  12  13
ENDBRANCH  10  11
ENDBRANCH   1  10
TORSDOF 13
ENDMDL
MODEL 2
REMARK VINA RESULT:    -3.072      3.366      6.240
REMARK INTER + INTRA:          -7.701
REMARK INTER:                  -5.186
REMARK INTRA:                  -2.514
REMARK UNBOUND:                -2.294
REMARK SMILES CCCCCCC=CCCCCCCCC(=O)[O-]
REMARK SMILES IDX 10 1 11 2 12 3 13 4 14 5 15 6 16 7 17 8 18 9 9 10 8 11 7 12
REMARK SMILES IDX 6 13 5 14 4 15 3 16 2 17 1 18
REMARK H PARENT
REMARK Flexibility Score: inf
ROOT
ATOM      1  C   UNL     1    -100.551 -31.467 -14.764  1.00  0.00     0.004 C 
ENDROOT
BRANCH   1   2
ATOM      2  C   UNL     1    -101.784 -30.935 -15.522  1.00  0.00     0.000 C 
BRANCH   2   3
ATOM      3  C   UNL     1    -101.565 -29.615 -16.288  1.00  0.00     0.000 C 
BRANCH   3   4
ATOM      4  C   UNL     1    -102.778 -28.669 -16.321  1.00  0.00     0.000 C 
BRANCH   4   5
ATOM      5  C   UNL     1    -102.404 -27.207 -16.023  1.00  0.00     0.006 C 
BRANCH   5   6
ATOM      6  C   UNL     1    -103.330 -26.215 -16.739  1.00  0.00     0.053 C 
BRANCH   6   7
ATOM      7  C   UNL     1    -104.250 -25.523 -15.781  1.00  0.00     0.041 C 
ATOM      8  O   UNL     1    -105.295 -24.960 -16.200  1.00  0.00    -0.550 OA
ATOM      9  O   UNL     1    -103.967 -25.524 -14.421  1.00  0.00    -0.550 OA
ENDBRANCH   6   7
ENDBRANCH   5   6
ENDBRANCH   4   5
ENDBRANCH   3   4
ENDBRANCH   2   3
ENDBRANCH   1   2
BRANCH   1  10
ATOM     10  C   UNL     1     -99.284 -30.611 -14.934  1.00  0.00     0.027 C 
BRANCH  10  11
ATOM     11  C   UNL     1     -98.664 -30.244 -13.608  1.00  0.00    -0.031 C 
ATOM     12  C   UNL     1     -98.899 -29.097 -12.944  1.00  0.00    -0.031 C 
BRANCH  12  13
ATOM     13  C   UNL     1     -99.746 -27.964 -13.466  1.00  0.00     0.027 C 
BRANCH  13  14
ATOM     14  C   UNL     1    -101.109 -27.936 -12.760  1.00  0.00     0.004 C 
BRANCH  14  15
ATOM     15  C   UNL     1    -101.265 -29.064 -11.729  1.00  0.00     0.000 C 
BRANCH  15  16
ATOM     16  C   UNL     1    -102.601 -29.808 -11.862  1.00  0.00    -0.000 C 
BRANCH  16  17
ATOM     17  C   UNL     1    -103.580 -29.024 -12.744  1.00  0.00    -0.003 C 
ATOM     18  C   UNL     1    -104.627 -29.947 -13.361  1.00  0.00     0.004 C 
ENDBRANCH  16  17
ENDBRANCH  15  16
ENDBRANCH  14  15
ENDBRANCH  13  14
ENDBRANCH  12  13
ENDBRANCH  10  11
ENDBRANCH   1  10
TORSDOF 13
ENDMDL
MODEL 3
REMARK VINA RESULT:    -3.067      1.354      3.281
REMARK INTER + INTRA:          -7.691
REMARK INTER:                  -5.278
REMARK INTRA:                  -2.414
REMARK UNBOUND:                -2.294
REMARK SMILES CCCCCCC=CCCCCCCCC(=O)[O-]
REMARK SMILES IDX 10 1 11 2 12 3 13 4 14 5 15 6 16 7 17 8 18 9 9 10 8 11 7 12
REMARK SMILES IDX 6 13 5 14 4 15 3 16 2 17 1 18
REMARK H PARENT
REMARK Flexibility Score: inf
ROOT
ATOM      1  C   UNL     1    -103.173 -30.483 -13.929  1.00  0.00     0.004 C 
ENDROOT
BRANCH   1   2
ATOM      2  C   UNL     1    -102.708 -29.905 -12.577  1.00  0.00     0.000 C 
BRANCH   2   3
ATOM      3  C   UNL     1    -102.616 -28.366 -12.518  1.00  0.00     0.000 C 
BRANCH   3   4
ATOM      4  C   UNL     1    -101.208 -27.805 -12.259  1.00  0.00     0.000 C 
BRANCH   4   5
ATOM      5  C   UNL     1    -100.238 -28.061 -13.425  1.00  0.00     0.006 C 
BRANCH   5   6
ATOM      6  C   UNL     1     -99.089 -28.996 -13.028  1.00  0.00     0.053 C 
BRANCH   6   7
ATOM      7  C   UNL     1     -98.899 -30.099 -14.024  1.00  0.00     0.041 C 
ATOM      8  O   UNL     1     -97.955 -30.920 -13.890  1.00  0.00    -0.550 OA
ATOM      9  O   UNL     1     -99.783 -30.234 -15.088  1.00  0.00    -0.550 OA
ENDBRANCH   6   7
ENDBRANCH   5   6
ENDBRANCH   4   5
ENDBRANCH   3   4
ENDBRANCH   2   3
ENDBRANCH   1   2
BRANCH   1  10
ATOM     10  C   UNL     1    -103.779 -29.445 -14.889  1.00  0.00     0.027 C 
BRANCH  10  11
ATOM     11  C   UNL     1    -102.968 -29.300 -16.154  1.00  0.00    -0.031 C 
ATOM     12  C   UNL     1    -102.376 -28.161 -16.559  1.00  0.00    -0.031 C 
BRANCH  12  13
ATOM     13  C   UNL     1    -102.510 -26.832 -15.859  1.00  0.00     0.027 C 
BRANCH  13  14
ATOM     14  C   UNL     1    -103.603 -25.979 -16.519  1.00  0.00     0.004 C 
BRANCH  14  15
ATOM     15  C   UNL     1    -104.218 -24.955 -15.552  1.00  0.00     0.000 C 
BRANCH  15  16
ATOM     16  C   UNL     1    -104.508 -25.549 -14.166  1.00  0.00    -0.000 C 
BRANCH  16  17
ATOM     17  C   UNL     1    -105.793 -26.385 -14.185  1.00  0.00    -0.003 C 
ATOM     18  C   UNL     1    -105.971 -27.154 -12.879  1.00  0.00     0.004 C 
ENDBRANCH  16  17
ENDBRANCH  15  16
ENDBRANCH  14  15
ENDBRANCH  13  14
ENDBRANCH  12  13
ENDBRANCH  10  11
ENDBRANCH   1  10
TORSDOF 13
ENDMDL
MODEL 4
REMARK VINA RESULT:    -3.060      2.179      4.435
REMARK INTER + INTRA:          -7.680
REMARK INTER:                  -5.714
REMARK INTRA:                  -1.966
REMARK UNBOUND:                -2.294
REMARK SMILES CCCCCCC=CCCCCCCCC(=O)[O-]
REMARK SMILES IDX 10 1 11 2 12 3 13 4 14 5 15 6 16 7 17 8 18 9 9 10 8 11 7 12
REMARK SMILES IDX 6 13 5 14 4 15 3 16 2 17 1 18
REMARK H PARENT
REMARK Flexibility Score: inf
ROOT
ATOM      1  C   UNL     1     -99.198 -31.036 -11.792  1.00  0.00     0.004 C 
ENDROOT
BRANCH   1   2
ATOM      2  C   UNL     1     -98.640 -30.063 -10.733  1.00  0.00     0.000 C 
BRANCH   2   3
ATOM      3  C   UNL     1     -97.107 -30.079 -10.571  1.00  0.00     0.000 C 
BRANCH   3   4
ATOM      4  C   UNL     1     -96.310 -29.952 -11.880  1.00  0.00     0.000 C 
BRANCH   4   5
ATOM      5  C   UNL     1     -95.376 -31.149 -12.130  1.00  0.00     0.006 C 
BRANCH   5   6
ATOM      6  C   UNL     1     -96.021 -32.207 -13.034  1.00  0.00     0.053 C 
BRANCH   6   7
ATOM      7  C   UNL     1     -96.136 -31.732 -14.450  1.00  0.00     0.041 C 
ATOM      8  O   UNL     1     -95.108 -31.613 -15.166  1.00  0.00    -0.550 OA
ATOM      9  O   UNL     1     -97.386 -31.448 -14.988  1.00  0.00    -0.550 OA
ENDBRANCH   6   7
ENDBRANCH   5   6
ENDBRANCH   4   5
ENDBRANCH   3   4
ENDBRANCH   2   3
ENDBRANCH   1   2
BRANCH   1  10
ATOM     10  C   UNL     1    -100.137 -30.384 -12.822  1.00  0.00     0.027 C 
BRANCH  10  11
ATOM     11  C   UNL     1     -99.637 -29.032 -13.270  1.00  0.00    -0.031 C 
ATOM     12  C   UNL     1    -100.354 -27.894 -13.218  1.00  0.00    -0.031 C 
BRANCH  12  13
ATOM     13  C   UNL     1    -101.797 -27.810 -12.790  1.00  0.00     0.027 C 
BRANCH  13  14
ATOM     14  C   UNL     1    -102.720 -27.714 -14.014  1.00  0.00     0.004 C 
BRANCH  14  15
ATOM     15  C   UNL     1    -102.000 -27.167 -15.256  1.00  0.00     0.000 C 
BRANCH  15  16
ATOM     16  C   UNL     1    -102.201 -28.051 -16.495  1.00  0.00    -0.000 C 
BRANCH  16  17
ATOM     17  C   UNL     1    -102.386 -29.521 -16.097  1.00  0.00    -0.003 C 
ATOM     18  C   UNL     1    -101.120 -30.328 -16.368  1.00  0.00     0.004 C 
ENDBRANCH  16  17
ENDBRANCH  15  16
ENDBRANCH  14  15
ENDBRANCH  13  14
ENDBRANCH  12  13
ENDBRANCH  10  11
ENDBRANCH   1  10
TORSDOF 13
ENDMDL
MODEL 5
REMARK VINA RESULT:    -3.056      1.278      3.237
REMARK INTER + INTRA:          -7.673
REMARK INTER:                  -5.098
REMARK INTRA:                  -2.575
REMARK UNBOUND:                -2.294
REMARK SMILES CCCCCCC=CCCCCCCCC(=O)[O-]
REMARK SMILES IDX 10 1 11 2 12 3 13 4 14 5 15 6 16 7 17 8 18 9 9 10 8 11 7 12
REMARK SMILES IDX 6 13 5 14 4 15 3 16 2 17 1 18
REMARK H PARENT
REMARK Flexibility Score: inf
ROOT
ATOM      1  C   UNL     1    -102.780 -30.500 -12.611  1.00  0.00     0.004 C 
ENDROOT
BRANCH   1   2
ATOM      2  C   UNL     1    -102.670 -29.020 -12.190  1.00  0.00     0.000 C 
BRANCH   2   3
ATOM      3  C   UNL     1    -101.241 -28.531 -11.880  1.00  0.00     0.000 C 
BRANCH   3   4
ATOM      4  C   UNL     1    -100.493 -27.903 -13.069  1.00  0.00     0.000 C 
BRANCH   4   5
ATOM      5  C   UNL     1     -99.132 -28.569 -13.337  1.00  0.00     0.006 C 
BRANCH   5   6
ATOM      6  C   UNL     1     -98.944 -29.852 -12.518  1.00  0.00     0.053 C 
BRANCH   6   7
ATOM      7  C   UNL     1     -97.647 -29.850 -11.770  1.00  0.00     0.041 C 
ATOM      8  O   UNL     1     -96.554 -29.805 -12.393  1.00  0.00    -0.550 OA
ATOM      9  O   UNL     1     -97.646 -29.869 -10.380  1.00  0.00    -0.550 OA
ENDBRANCH   6   7
ENDBRANCH   5   6
ENDBRANCH   4   5
ENDBRANCH   3   4
ENDBRANCH   2   3
ENDBRANCH   1   2
BRANCH   1  10
ATOM     10  C   UNL     1    -103.077 -30.715 -14.104  1.00  0.00     0.027 C 
BRANCH  10  11
ATOM     11  C   UNL     1    -101.815 -30.864 -14.919  1.00  0.00    -0.031 C 
ATOM     12  C   UNL     1    -101.501 -30.112 -15.990  1.00  0.00    -0.031 C 
BRANCH  12  13
ATOM     13  C   UNL     1    -102.403 -29.067 -16.596  1.00  0.00     0.027 C 
BRANCH  13  14
ATOM     14  C   UNL     1    -101.921 -27.656 -16.229  1.00  0.00     0.004 C 
BRANCH  14  15
ATOM     15  C   UNL     1    -103.078 -26.652 -16.099  1.00  0.00     0.000 C 
BRANCH  15  16
ATOM     16  C   UNL     1    -103.469 -26.384 -14.639  1.00  0.00    -0.000 C 
BRANCH  16  17
ATOM     17  C   UNL     1    -104.982 -26.531 -14.441  1.00  0.00    -0.003 C 
ATOM     18  C   UNL     1    -105.432 -27.970 -14.676  1.00  0.00     0.004 C 
ENDBRANCH  16  17
ENDBRANCH  15  16
ENDBRANCH  14  15
ENDBRANCH  13  14
ENDBRANCH  12  13
ENDBRANCH  10  11
ENDBRANCH   1  10
TORSDOF 13
ENDMDL
MODEL 6
REMARK VINA RESULT:    -3.051      1.241      3.221
REMARK INTER + INTRA:          -7.664
REMARK INTER:                  -5.976
REMARK INTRA:                  -1.688
REMARK UNBOUND:                -2.294
REMARK SMILES CCCCCCC=CCCCCCCCC(=O)[O-]
REMARK SMILES IDX 10 1 11 2 12 3 13 4 14 5 15 6 16 7 17 8 18 9 9 10 8 11 7 12
REMARK SMILES IDX 6 13 5 14 4 15 3 16 2 17 1 18
REMARK H PARENT
REMARK Flexibility Score: inf
ROOT
ATOM      1  C   UNL     1    -102.134 -28.718 -14.663  1.00  0.00     0.004 C 
ENDROOT
BRANCH   1   2
ATOM      2  C   UNL     1    -101.210 -27.521 -14.356  1.00  0.00     0.000 C 
BRANCH   2   3
ATOM      3  C   UNL     1    -100.118 -27.789 -13.301  1.00  0.00     0.000 C 
BRANCH   3   4
ATOM      4  C   UNL     1    -100.366 -29.010 -12.399  1.00  0.00     0.000 C 
BRANCH   4   5
ATOM      5  C   UNL     1     -99.088 -29.825 -12.132  1.00  0.00     0.006 C 
BRANCH   5   6
ATOM      6  C   UNL     1     -98.526 -30.455 -13.413  1.00  0.00     0.053 C 
BRANCH   6   7
ATOM      7  C   UNL     1     -97.028 -30.470 -13.414  1.00  0.00     0.041 C 
ATOM      8  O   UNL     1     -96.385 -29.764 -12.594  1.00  0.00    -0.550 OA
ATOM      9  O   UNL     1     -96.342 -31.286 -14.305  1.00  0.00    -0.550 OA
ENDBRANCH   6   7
ENDBRANCH   5   6
ENDBRANCH   4   5
ENDBRANCH   3   4
ENDBRANCH   2   3
ENDBRANCH   1   2
BRANCH   1  10
ATOM     10  C   UNL     1    -103.216 -28.431 -15.717  1.00  0.00     0.027 C 
BRANCH  10  11
ATOM     11  C   UNL     1    -102.802 -27.339 -16.674  1.00  0.00    -0.031 C 
ATOM     12  C   UNL     1    -103.403 -26.138 -16.773  1.00  0.00    -0.031 C 
BRANCH  12  13
ATOM     13  C   UNL     1    -104.637 -25.733 -16.008  1.00  0.00     0.027 C 
BRANCH  13  14
ATOM     14  C   UNL     1    -104.417 -24.392 -15.293  1.00  0.00     0.004 C 
BRANCH  14  15
ATOM     15  C   UNL     1    -104.651 -24.485 -13.778  1.00  0.00     0.000 C 
BRANCH  15  16
ATOM     16  C   UNL     1    -104.304 -25.868 -13.208  1.00  0.00    -0.000 C 
BRANCH  16  17
ATOM     17  C   UNL     1    -104.059 -25.793 -11.696  1.00  0.00    -0.003 C 
ATOM     18  C   UNL     1    -103.216 -26.970 -11.214  1.00  0.00     0.004 C 
ENDBRANCH  16  17
ENDBRANCH  15  16
ENDBRANCH  14  15
ENDBRANCH  13  14
ENDBRANCH  12  13
ENDBRANCH  10  11
ENDBRANCH   1  10
TORSDOF 13
ENDMDL
MODEL 7
REMARK VINA RESULT:    -3.012      1.351      3.110
REMARK INTER + INTRA:          -7.596
REMARK INTER:                  -5.110
REMARK INTRA:                  -2.486
REMARK UNBOUND:                -2.294
REMARK SMILES CCCCCCC=CCCCCCCCC(=O)[O-]
REMARK SMILES IDX 10 1 11 2 12 3 13 4 14 5 15 6 16 7 17 8 18 9 9 10 8 11 7 12
REMARK SMILES IDX 6 13 5 14 4 15 3 16 2 17 1 18
REMARK H PARENT
REMARK Flexibility Score: inf
ROOT
ATOM      1  C   UNL     1    -105.337 -29.307 -12.851  1.00  0.00     0.004 C 
ENDROOT
BRANCH   1   2
ATOM      2  C   UNL     1    -104.126 -29.010 -11.943  1.00  0.00     0.000 C 
BRANCH   2   3
ATOM      3  C   UNL     1    -103.432 -27.656 -12.197  1.00  0.00     0.000 C 
BRANCH   3   4
ATOM      4  C   UNL     1    -101.985 -27.556 -11.683  1.00  0.00     0.000 C 
BRANCH   4   5
ATOM      5  C   UNL     1    -100.944 -27.912 -12.759  1.00  0.00     0.006 C 
BRANCH   5   6
ATOM      6  C   UNL     1    -100.339 -29.305 -12.541  1.00  0.00     0.053 C 
BRANCH   6   7
ATOM      7  C   UNL     1     -99.209 -29.574 -13.486  1.00  0.00     0.041 C 
ATOM      8  O   UNL     1     -99.428 -30.114 -14.601  1.00  0.00    -0.550 OA
ATOM      9  O   UNL     1     -97.914 -29.203 -13.144  1.00  0.00    -0.550 OA
ENDBRANCH   6   7
ENDBRANCH   5   6
ENDBRANCH   4   5
ENDBRANCH   3   4
ENDBRANCH   2   3
ENDBRANCH   1   2
BRANCH   1  10
ATOM     10  C   UNL     1    -105.401 -28.448 -14.125  1.00  0.00     0.027 C 
BRANCH  10  11
ATOM     11  C   UNL     1    -105.335 -29.285 -15.379  1.00  0.00    -0.031 C 
ATOM     12  C   UNL     1    -104.198 -29.731 -15.944  1.00  0.00    -0.031 C 
BRANCH  12  13
ATOM     13  C   UNL     1    -102.811 -29.385 -15.464  1.00  0.00     0.027 C 
BRANCH  13  14
ATOM     14  C   UNL     1    -102.193 -28.285 -16.340  1.00  0.00     0.004 C 
BRANCH  14  15
ATOM     15  C   UNL     1    -102.578 -26.872 -15.875  1.00  0.00     0.000 C 
BRANCH  15  16
ATOM     16  C   UNL     1    -103.495 -26.149 -16.872  1.00  0.00    -0.000 C 
BRANCH  16  17
ATOM     17  C   UNL     1    -104.590 -25.364 -16.140  1.00  0.00    -0.003 C 
ATOM     18  C   UNL     1    -104.172 -25.039 -14.709  1.00  0.00     0.004 C 
ENDBRANCH  16  17
ENDBRANCH  15  16
ENDBRANCH  14  15
ENDBRANCH  13  14
ENDBRANCH  12  13
ENDBRANCH  10  11
ENDBRANCH   1  10
TORSDOF 13
ENDMDL
MODEL 8
REMARK VINA RESULT:    -3.008      3.229      6.454
REMARK INTER + INTRA:          -7.588
REMARK INTER:                  -5.148
REMARK INTRA:                  -2.440
REMARK UNBOUND:                -2.294
REMARK SMILES CCCCCCC=CCCCCCCCC(=O)[O-]
REMARK SMILES IDX 10 1 11 2 12 3 13 4 14 5 15 6 16 7 17 8 18 9 9 10 8 11 7 12
REMARK SMILES IDX 6 13 5 14 4 15 3 16 2 17 1 18
REMARK H PARENT
REMARK Flexibility Score: inf
ROOT
ATOM      1  C   UNL     1    -101.870 -29.706 -16.253  1.00  0.00     0.004 C 
ENDROOT
BRANCH   1   2
ATOM      2  C   UNL     1    -101.958 -28.179 -16.448  1.00  0.00     0.000 C 
BRANCH   2   3
ATOM      3  C   UNL     1    -103.388 -27.602 -16.477  1.00  0.00     0.000 C 
BRANCH   3   4
ATOM      4  C   UNL     1    -103.474 -26.067 -16.519  1.00  0.00     0.000 C 
BRANCH   4   5
ATOM      5  C   UNL     1    -103.902 -25.455 -15.174  1.00  0.00     0.006 C 
BRANCH   5   6
ATOM      6  C   UNL     1    -105.240 -26.019 -14.682  1.00  0.00     0.053 C 
BRANCH   6   7
ATOM      7  C   UNL     1    -105.421 -25.818 -13.208  1.00  0.00     0.041 C 
ATOM      8  O   UNL     1    -106.560 -25.937 -12.686  1.00  0.00    -0.550 OA
ATOM      9  O   UNL     1    -104.324 -25.525 -12.408  1.00  0.00    -0.550 OA
ENDBRANCH   6   7
ENDBRANCH   5   6
ENDBRANCH   4   5
ENDBRANCH   3   4
ENDBRANCH   2   3
ENDBRANCH   1   2
BRANCH   1  10
ATOM     10  C   UNL     1    -100.436 -30.258 -16.201  1.00  0.00     0.027 C 
BRANCH  10  11
ATOM     11  C   UNL     1    -100.268 -31.303 -15.125  1.00  0.00    -0.031 C 
ATOM     12  C   UNL     1     -99.527 -31.146 -14.012  1.00  0.00    -0.031 C 
BRANCH  12  13
ATOM     13  C   UNL     1     -98.677 -29.937 -13.714  1.00  0.00     0.027 C 
BRANCH  13  14
ATOM     14  C   UNL     1     -99.363 -29.033 -12.680  1.00  0.00     0.004 C 
BRANCH  14  15
ATOM     15  C   UNL     1    -100.128 -27.868 -13.328  1.00  0.00     0.000 C 
BRANCH  15  16
ATOM     16  C   UNL     1    -101.550 -27.710 -12.772  1.00  0.00    -0.000 C 
BRANCH  16  17
ATOM     17  C   UNL     1    -102.211 -29.077 -12.559  1.00  0.00    -0.003 C 
ATOM     18  C   UNL     1    -103.659 -29.071 -13.040  1.00  0.00     0.004 C 
ENDBRANCH  16  17
ENDBRANCH  15  16
ENDBRANCH  14  15
ENDBRANCH  13  14
ENDBRANCH  12  13
ENDBRANCH  10  11
ENDBRANCH   1  10
TORSDOF 13
ENDMDL
MODEL 9
REMARK VINA RESULT:    -3.003      1.986      4.065
REMARK INTER + INTRA:          -7.579
REMARK INTER:                  -5.267
REMARK INTRA:                  -2.311
REMARK UNBOUND:                -2.294
REMARK SMILES CCCCCCC=CCCCCCCCC(=O)[O-]
REMARK SMILES IDX 10 1 11 2 12 3 13 4 14 5 15 6 16 7 17 8 18 9 9 10 8 11 7 12
REMARK SMILES IDX 6 13 5 14 4 15 3 16 2 17 1 18
REMARK H PARENT
REMARK Flexibility Score: inf
ROOT
ATOM      1  C   UNL     1    -101.918 -30.917 -15.048  1.00  0.00     0.004 C 
ENDROOT
BRANCH   1   2
ATOM      2  C   UNL     1    -100.701 -31.295 -15.917  1.00  0.00     0.000 C 
BRANCH   2   3
ATOM      3  C   UNL     1     -99.342 -30.779 -15.403  1.00  0.00     0.000 C 
BRANCH   3   4
ATOM      4  C   UNL     1     -99.215 -30.683 -13.873  1.00  0.00     0.000 C 
BRANCH   4   5
ATOM      5  C   UNL     1     -98.249 -29.574 -13.422  1.00  0.00     0.006 C 
BRANCH   5   6
ATOM      6  C   UNL     1     -97.681 -29.836 -12.022  1.00  0.00     0.053 C 
BRANCH   6   7
ATOM      7  C   UNL     1     -96.211 -30.124 -12.063  1.00  0.00     0.041 C 
ATOM      8  O   UNL     1     -95.436 -29.591 -11.226  1.00  0.00    -0.550 OA
ATOM      9  O   UNL     1     -95.701 -31.004 -13.009  1.00  0.00    -0.550 OA
ENDBRANCH   6   7
ENDBRANCH   5   6
ENDBRANCH   4   5
ENDBRANCH   3   4
ENDBRANCH   2   3
ENDBRANCH   1   2
BRANCH   1  10
ATOM     10  C   UNL     1    -102.922 -29.977 -15.735  1.00  0.00     0.027 C 
BRANCH  10  11
ATOM     11  C   UNL     1    -102.237 -28.833 -16.443  1.00  0.00    -0.031 C 
ATOM     12  C   UNL     1    -101.945 -27.646 -15.877  1.00  0.00    -0.031 C 
BRANCH  12  13
ATOM     13  C   UNL     1    -102.341 -27.245 -14.479  1.00  0.00     0.027 C 
BRANCH  13  14
ATOM     14  C   UNL     1    -101.222 -27.580 -13.482  1.00  0.00     0.004 C 
BRANCH  14  15
ATOM     15  C   UNL     1    -101.725 -27.650 -12.032  1.00  0.00     0.000 C 
BRANCH  15  16
ATOM     16  C   UNL     1    -101.227 -28.900 -11.291  1.00  0.00    -0.000 C 
BRANCH  16  17
ATOM     17  C   UNL     1    -102.174 -30.085 -11.518  1.00  0.00    -0.003 C 
ATOM     18  C   UNL     1    -103.612 -29.614 -11.709  1.00  0.00     0.004 C 
ENDBRANCH  16  17
ENDBRANCH  15  16
ENDBRANCH  14  15
ENDBRANCH  13  14
ENDBRANCH  12  13
ENDBRANCH  10  11
ENDBRANCH   1  10
TORSDOF 13
ENDMDL
