MODEL 1
REMARK VINA RESULT:    -4.711      0.000      0.000
REMARK INTER + INTRA:         -15.154
REMARK INTER:                 -10.770
REMARK INTRA:                  -4.384
REMARK UNBOUND:                -4.384
REMARK SMILES CCCCCCCCCCCCCCCCCCCCCCCC(=O)[O-]
REMARK SMILES IDX 13 1 14 2 15 3 16 4 17 5 18 6 19 7 20 8 21 9 22 10 23 11
REMARK SMILES IDX 24 12 25 13 26 14 12 15 11 16 10 17 9 18 8 19 7 20 6 21 5 22
REMARK SMILES IDX 4 23 3 24 2 25 1 26
REMARK H PARENT
REMARK Flexibility Score: inf
ROOT
ATOM      1  C   UNL     1      11.853  15.185   6.230  1.00  0.00     0.000 C 
ENDROOT
BRANCH   1   2
ATOM      2  C   UNL     1      12.694  13.899   6.188  1.00  0.00     0.000 C 
BRANCH   2   3
ATOM      3  C   UNL     1      11.833  12.634   6.022  1.00  0.00     0.000 C 
BRANCH   3   4
ATOM      4  C   UNL     1      12.238  11.810   4.788  1.00  0.00     0.000 C 
BRANCH   4   5
ATOM      5  C   UNL     1      13.141  12.599   3.824  1.00  0.00     0.000 C 
BRANCH   5   6
ATOM      6  C   UNL     1      12.534  12.731   2.418  1.00  0.00     0.000 C 
BRANCH   6   7
ATOM      7  C   UNL     1      12.859  14.077   1.752  1.00  0.00     0.000 C 
BRANCH   7   8
ATOM      8  C   UNL     1      12.550  15.245   2.701  1.00  0.00     0.000 C 
BRANCH   8   9
ATOM      9  C   UNL     1      13.742  16.200   2.884  1.00  0.00     0.000 C 
BRANCH   9  10
ATOM     10  C   UNL     1      14.905  15.637   3.727  1.00  0.00     0.006 C 
BRANCH  10  11
ATOM     11  C   UNL     1      16.196  15.373   2.936  1.00  0.00     0.053 C 
BRANCH  11  12
ATOM     12  C   UNL     1      16.655  13.954   3.069  1.00  0.00     0.041 C 
ATOM     13  O   UNL     1      16.142  13.052   2.355  1.00  0.00    -0.550 OA
ATOM     14  O   UNL     1      17.671  13.632   3.960  1.00  0.00    -0.550 OA
ENDBRANCH  11  12
ENDBRANCH  10  11
ENDBRANCH   9  10
ENDBRANCH   8   9
ENDBRANCH   7   8
ENDBRANCH   6   7
ENDBRANCH   5   6
ENDBRANCH   4   5
ENDBRANCH   3   4
ENDBRANCH   2   3
ENDBRANCH   1   2
BRANCH   1  15
ATOM     15  C   UNL     1      10.343  14.913   6.162  1.00  0.00     0.000 C 
BRANCH  15  16
ATOM     16  C   UNL     1       9.692  15.722   5.030  1.00  0.00     0.000 C 
BRANCH  16  17
ATOM     17  C   UNL     1       8.649  14.913   4.242  1.00  0.00     0.000 C 
BRANCH  17  18
ATOM     18  C   UNL     1       9.215  13.593   3.691  1.00  0.00    -0.000 C 
BRANCH  18  19
ATOM     19  C   UNL     1       8.243  12.408   3.855  1.00  0.00    -0.000 C 
BRANCH  19  20
ATOM     20  C   UNL     1       8.594  11.429   4.990  1.00  0.00    -0.000 C 
BRANCH  20  21
ATOM     21  C   UNL     1       7.994  11.842   6.344  1.00  0.00    -0.000 C 
BRANCH  21  22
ATOM     22  C   UNL     1       8.907  11.492   7.531  1.00  0.00    -0.000 C 
BRANCH  22  23
ATOM     23  C   UNL     1       8.870  12.499   8.699  1.00  0.00    -0.000 C 
BRANCH  23  24
ATOM     24  C   UNL     1       7.526  12.587   9.448  1.00  0.00    -0.000 C 
BRANCH  24  25
ATOM     25  C   UNL     1       6.857  13.972   9.415  1.00  0.00    -0.003 C 
ATOM     26  C   UNL     1       7.646  14.994   8.598  1.00  0.00     0.004 C 
ENDBRANCH  24  25
ENDBRANCH  23  24
ENDBRANCH  22  23
ENDBRANCH  21  22
ENDBRANCH  20  21
ENDBRANCH  19  20
ENDBRANCH  18  19
ENDBRANCH  17  18
ENDBRANCH  16  17
ENDBRANCH  15  16
ENDBRANCH   1  15
TORSDOF 22
ENDMDL
MODEL 2
REMARK VINA RESULT:    -4.651      1.333      2.872
REMARK INTER + INTRA:         -15.016
REMARK INTER:                 -11.011
REMARK INTRA:                  -4.006
REMARK UNBOUND:                -4.384
REMARK SMILES CCCCCCCCCCCCCCCCCCCCCCCC(=O)[O-]
REMARK SMILES IDX 13 1 14 2 15 3 16 4 17 5 18 6 19 7 20 8 21 9 22 10 23 11
REMARK SMILES IDX 24 12 25 13 26 14 12 15 11 16 10 17 9 18 8 19 7 20 6 21 5 22
REMARK SMILES IDX 4 23 3 24 2 25 1 26
REMARK H PARENT
REMARK Flexibility Score: inf
ROOT
ATOM      1  C   UNL     1      11.201  15.697   6.271  1.00  0.00     0.000 C 
ENDROOT
BRANCH   1   2
ATOM      2  C   UNL     1       9.942  14.814   6.268  1.00  0.00     0.000 C 
BRANCH   2   3
ATOM      3  C   UNL     1       8.814  15.393   5.396  1.00  0.00     0.000 C 
BRANCH   3   4
ATOM      4  C   UNL     1       8.934  14.960   3.924  1.00  0.00     0.000 C 
BRANCH   4   5
ATOM      5  C   UNL     1       9.813  15.917   3.100  1.00  0.00     0.000 C 
BRANCH   5   6
ATOM      6  C   UNL     1      10.626  15.189   2.017  1.00  0.00     0.000 C 
BRANCH   6   7
ATOM      7  C   UNL     1      12.135  15.456   2.126  1.00  0.00     0.000 C 
BRANCH   7   8
ATOM      8  C   UNL     1      12.870  14.961   0.871  1.00  0.00     0.000 C 
BRANCH   8   9
ATOM      9  C   UNL     1      13.906  13.865   1.175  1.00  0.00     0.000 C 
BRANCH   9  10
ATOM     10  C   UNL     1      14.781  14.123   2.419  1.00  0.00     0.006 C 
BRANCH  10  11
ATOM     11  C   UNL     1      15.786  15.275   2.265  1.00  0.00     0.053 C 
BRANCH  11  12
ATOM     12  C   UNL     1      17.076  14.992   2.971  1.00  0.00     0.041 C 
ATOM     13  O   UNL     1      17.303  13.846   3.443  1.00  0.00    -0.550 OA
ATOM     14  O   UNL     1      18.042  15.984   3.080  1.00  0.00    -0.550 OA
ENDBRANCH  11  12
ENDBRANCH  10  11
ENDBRANCH   9  10
ENDBRANCH   8   9
ENDBRANCH   7   8
ENDBRANCH   6   7
ENDBRANCH   5   6
ENDBRANCH   4   5
ENDBRANCH   3   4
ENDBRANCH   2   3
ENDBRANCH   1   2
BRANCH   1  15
ATOM     15  C   UNL     1      12.457  14.947   5.808  1.00  0.00     0.000 C 
BRANCH  15  16
ATOM     16  C   UNL     1      12.294  13.432   6.006  1.00  0.00     0.000 C 
BRANCH  16  17
ATOM     17  C   UNL     1      13.304  12.611   5.189  1.00  0.00     0.000 C 
BRANCH  17  18
ATOM     18  C   UNL     1      12.625  11.591   4.259  1.00  0.00    -0.000 C 
BRANCH  18  19
ATOM     19  C   UNL     1      11.316  12.121   3.641  1.00  0.00    -0.000 C 
BRANCH  19  20
ATOM     20  C   UNL     1      10.078  11.240   3.881  1.00  0.00    -0.000 C 
BRANCH  20  21
ATOM     21  C   UNL     1      10.304  10.172   4.965  1.00  0.00    -0.000 C 
BRANCH  21  22
ATOM     22  C   UNL     1       9.668  10.550   6.314  1.00  0.00    -0.000 C 
BRANCH  22  23
ATOM     23  C   UNL     1       8.548  11.607   6.230  1.00  0.00    -0.000 C 
BRANCH  23  24
ATOM     24  C   UNL     1       7.616  11.674   7.456  1.00  0.00    -0.000 C 
BRANCH  24  25
ATOM     25  C   UNL     1       7.950  12.790   8.462  1.00  0.00    -0.003 C 
ATOM     26  C   UNL     1       6.986  13.972   8.381  1.00  0.00     0.004 C 
ENDBRANCH  24  25
ENDBRANCH  23  24
ENDBRANCH  22  23
ENDBRANCH  21  22
ENDBRANCH  20  21
ENDBRANCH  19  20
ENDBRANCH  18  19
ENDBRANCH  17  18
ENDBRANCH  16  17
ENDBRANCH  15  16
ENDBRANCH   1  15
TORSDOF 22
ENDMDL
MODEL 3
REMARK VINA RESULT:    -4.593      3.359      7.352
REMARK INTER + INTRA:         -14.883
REMARK INTER:                 -10.558
REMARK INTRA:                  -4.325
REMARK UNBOUND:                -4.384
REMARK SMILES CCCCCCCCCCCCCCCCCCCCCCCC(=O)[O-]
REMARK SMILES IDX 13 1 14 2 15 3 16 4 17 5 18 6 19 7 20 8 21 9 22 10 23 11
REMARK SMILES IDX 24 12 25 13 26 14 12 15 11 16 10 17 9 18 8 19 7 20 6 21 5 22
REMARK SMILES IDX 4 23 3 24 2 25 1 26
REMARK H PARENT
REMARK Flexibility Score: inf
ROOT
ATOM      1  C   UNL     1      12.323  13.651   6.657  1.00  0.00     0.000 C 
ENDROOT
BRANCH   1   2
ATOM      2  C   UNL     1      13.150  12.973   5.552  1.00  0.00     0.000 C 
BRANCH   2   3
ATOM      3  C   UNL     1      12.460  13.027   4.178  1.00  0.00     0.000 C 
BRANCH   3   4
ATOM      4  C   UNL     1      12.116  11.628   3.641  1.00  0.00     0.000 C 
BRANCH   4   5
ATOM      5  C   UNL     1      10.876  11.024   4.323  1.00  0.00     0.000 C 
BRANCH   5   6
ATOM      6  C   UNL     1       9.595  11.824   4.037  1.00  0.00     0.000 C 
BRANCH   6   7
ATOM      7  C   UNL     1       8.559  11.712   5.166  1.00  0.00     0.000 C 
BRANCH   7   8
ATOM      8  C   UNL     1       9.224  11.265   6.477  1.00  0.00     0.000 C 
BRANCH   8   9
ATOM      9  C   UNL     1       8.311  11.439   7.703  1.00  0.00     0.000 C 
BRANCH   9  10
ATOM     10  C   UNL     1       7.355  12.647   7.637  1.00  0.00     0.006 C 
BRANCH  10  11
ATOM     11  C   UNL     1       7.343  13.521   8.901  1.00  0.00     0.053 C 
BRANCH  11  12
ATOM     12  C   UNL     1       7.168  14.973   8.577  1.00  0.00     0.041 C 
ATOM     13  O   UNL     1       7.577  15.855   9.379  1.00  0.00    -0.550 OA
ATOM     14  O   UNL     1       6.583  15.353   7.376  1.00  0.00    -0.550 OA
ENDBRANCH  11  12
ENDBRANCH  10  11
ENDBRANCH   9  10
ENDBRANCH   8   9
ENDBRANCH   7   8
ENDBRANCH   6   7
ENDBRANCH   5   6
ENDBRANCH   4   5
ENDBRANCH   3   4
ENDBRANCH   2   3
ENDBRANCH   1   2
BRANCH   1  15
ATOM     15  C   UNL     1      11.616  14.926   6.176  1.00  0.00     0.000 C 
BRANCH  15  16
ATOM     16  C   UNL     1      10.108  14.855   6.458  1.00  0.00     0.000 C 
BRANCH  16  17
ATOM     17  C   UNL     1       9.257  15.413   5.306  1.00  0.00     0.000 C 
BRANCH  17  18
ATOM     18  C   UNL     1      10.112  15.963   4.151  1.00  0.00    -0.000 C 
BRANCH  18  19
ATOM     19  C   UNL     1       9.731  15.364   2.783  1.00  0.00    -0.000 C 
BRANCH  19  20
ATOM     20  C   UNL     1      10.859  15.359   1.736  1.00  0.00    -0.000 C 
BRANCH  20  21
ATOM     21  C   UNL     1      12.181  15.927   2.278  1.00  0.00    -0.000 C 
BRANCH  21  22
ATOM     22  C   UNL     1      13.159  16.328   1.160  1.00  0.00    -0.000 C 
BRANCH  22  23
ATOM     23  C   UNL     1      13.750  15.148   0.361  1.00  0.00    -0.000 C 
BRANCH  23  24
ATOM     24  C   UNL     1      14.317  13.996   1.214  1.00  0.00    -0.000 C 
BRANCH  24  25
ATOM     25  C   UNL     1      15.449  14.401   2.175  1.00  0.00    -0.003 C 
ATOM     26  C   UNL     1      15.974  13.228   3.002  1.00  0.00     0.004 C 
ENDBRANCH  24  25
ENDBRANCH  23  24
ENDBRANCH  22  23
ENDBRANCH  21  22
ENDBRANCH  20  21
ENDBRANCH  19  20
ENDBRANCH  18  19
ENDBRANCH  17  18
ENDBRANCH  16  17
ENDBRANCH  15  16
ENDBRANCH   1  15
TORSDOF 22
ENDMDL
MODEL 4
REMARK VINA RESULT:    -4.592      3.279      7.387
REMARK INTER + INTRA:         -14.882
REMARK INTER:                 -10.167
REMARK INTRA:                  -4.716
REMARK UNBOUND:                -4.384
REMARK SMILES CCCCCCCCCCCCCCCCCCCCCCCC(=O)[O-]
REMARK SMILES IDX 13 1 14 2 15 3 16 4 17 5 18 6 19 7 20 8 21 9 22 10 23 11
REMARK SMILES IDX 24 12 25 13 26 14 12 15 11 16 10 17 9 18 8 19 7 20 6 21 5 22
REMARK SMILES IDX 4 23 3 24 2 25 1 26
REMARK H PARENT
REMARK Flexibility Score: inf
ROOT
ATOM      1  C   UNL     1      11.888  15.666   5.173  1.00  0.00     0.000 C 
ENDROOT
BRANCH   1   2
ATOM      2  C   UNL     1      11.139  14.860   6.247  1.00  0.00     0.000 C 
BRANCH   2   3
ATOM      3  C   UNL     1      11.790  13.493   6.523  1.00  0.00     0.000 C 
BRANCH   3   4
ATOM      4  C   UNL     1      12.913  13.169   5.523  1.00  0.00     0.000 C 
BRANCH   4   5
ATOM      5  C   UNL     1      12.648  11.869   4.743  1.00  0.00     0.000 C 
BRANCH   5   6
ATOM      6  C   UNL     1      11.425  11.973   3.816  1.00  0.00     0.000 C 
BRANCH   6   7
ATOM      7  C   UNL     1      10.295  11.011   4.212  1.00  0.00     0.000 C 
BRANCH   7   8
ATOM      8  C   UNL     1       8.927  11.577   3.803  1.00  0.00     0.000 C 
BRANCH   8   9
ATOM      9  C   UNL     1       8.925  13.111   3.676  1.00  0.00     0.000 C 
BRANCH   9  10
ATOM     10  C   UNL     1       8.034  13.848   4.696  1.00  0.00     0.006 C 
BRANCH  10  11
ATOM     11  C   UNL     1       7.541  12.976   5.860  1.00  0.00     0.053 C 
BRANCH  11  12
ATOM     12  C   UNL     1       7.433  13.752   7.136  1.00  0.00     0.041 C 
ATOM     13  O   UNL     1       8.309  13.624   8.033  1.00  0.00    -0.550 OA
ATOM     14  O   UNL     1       6.381  14.640   7.324  1.00  0.00    -0.550 OA
ENDBRANCH  11  12
ENDBRANCH  10  11
ENDBRANCH   9  10
ENDBRANCH   8   9
ENDBRANCH   7   8
ENDBRANCH   6   7
ENDBRANCH   5   6
ENDBRANCH   4   5
ENDBRANCH   3   4
ENDBRANCH   2   3
ENDBRANCH   1   2
BRANCH   1  15
ATOM     15  C   UNL     1      10.966  16.165   4.051  1.00  0.00     0.000 C 
BRANCH  15  16
ATOM     16  C   UNL     1      11.732  16.280   2.724  1.00  0.00     0.000 C 
BRANCH  16  17
ATOM     17  C   UNL     1      11.721  14.975   1.913  1.00  0.00     0.000 C 
BRANCH  17  18
ATOM     18  C   UNL     1      12.666  15.023   0.700  1.00  0.00    -0.000 C 
BRANCH  18  19
ATOM     19  C   UNL     1      13.676  13.859   0.679  1.00  0.00    -0.000 C 
BRANCH  19  20
ATOM     20  C   UNL     1      14.263  13.480   2.050  1.00  0.00    -0.000 C 
BRANCH  20  21
ATOM     21  C   UNL     1      15.510  14.303   2.414  1.00  0.00    -0.000 C 
BRANCH  21  22
ATOM     22  C   UNL     1      15.239  15.333   3.524  1.00  0.00    -0.000 C 
BRANCH  22  23
ATOM     23  C   UNL     1      15.767  16.753   3.235  1.00  0.00    -0.000 C 
BRANCH  23  24
ATOM     24  C   UNL     1      15.198  17.419   1.966  1.00  0.00    -0.000 C 
BRANCH  24  25
ATOM     25  C   UNL     1      16.160  17.449   0.766  1.00  0.00    -0.003 C 
ATOM     26  C   UNL     1      15.508  16.971  -0.531  1.00  0.00     0.004 C 
ENDBRANCH  24  25
ENDBRANCH  23  24
ENDBRANCH  22  23
ENDBRANCH  21  22
ENDBRANCH  20  21
ENDBRANCH  19  20
ENDBRANCH  18  19
ENDBRANCH  17  18
ENDBRANCH  16  17
ENDBRANCH  15  16
ENDBRANCH   1  15
TORSDOF 22
ENDMDL
MODEL 5
REMARK VINA RESULT:    -4.560      2.319      3.704
REMARK INTER + INTRA:         -14.809
REMARK INTER:                 -10.489
REMARK INTRA:                  -4.320
REMARK UNBOUND:                -4.384
REMARK SMILES CCCCCCCCCCCCCCCCCCCCCCCC(=O)[O-]
REMARK SMILES IDX 13 1 14 2 15 3 16 4 17 5 18 6 19 7 20 8 21 9 22 10 23 11
REMARK SMILES IDX 24 12 25 13 26 14 12 15 11 16 10 17 9 18 8 19 7 20 6 21 5 22
REMARK SMILES IDX 4 23 3 24 2 25 1 26
REMARK H PARENT
REMARK Flexibility Score: inf
ROOT
ATOM      1  C   UNL     1       8.815  12.315   3.619  1.00  0.00     0.000 C 
ENDROOT
BRANCH   1   2
ATOM      2  C   UNL     1       9.132  11.175   4.601  1.00  0.00     0.000 C 
BRANCH   2   3
ATOM      3  C   UNL     1      10.617  10.770   4.579  1.00  0.00     0.000 C 
BRANCH   3   4
ATOM      4  C   UNL     1      11.446  11.643   3.621  1.00  0.00     0.000 C 
BRANCH   4   5
ATOM      5  C   UNL     1      12.900  11.816   4.093  1.00  0.00     0.000 C 
BRANCH   5   6
ATOM      6  C   UNL     1      13.652  12.902   3.306  1.00  0.00     0.000 C 
BRANCH   6   7
ATOM      7  C   UNL     1      13.047  13.158   1.918  1.00  0.00     0.000 C 
BRANCH   7   8
ATOM      8  C   UNL     1      13.937  14.105   1.099  1.00  0.00     0.000 C 
BRANCH   8   9
ATOM      9  C   UNL     1      14.758  15.066   1.978  1.00  0.00     0.000 C 
BRANCH   9  10
ATOM     10  C   UNL     1      15.452  16.213   1.216  1.00  0.00     0.006 C 
BRANCH  10  11
ATOM     11  C   UNL     1      14.493  17.178   0.503  1.00  0.00     0.053 C 
BRANCH  11  12
ATOM     12  C   UNL     1      14.798  17.296  -0.958  1.00  0.00     0.041 C 
ATOM     13  O   UNL     1      14.772  18.422  -1.523  1.00  0.00    -0.550 OA
ATOM     14  O   UNL     1      15.143  16.167  -1.691  1.00  0.00    -0.550 OA
ENDBRANCH  11  12
ENDBRANCH  10  11
ENDBRANCH   9  10
ENDBRANCH   8   9
ENDBRANCH   7   8
ENDBRANCH   6   7
ENDBRANCH   5   6
ENDBRANCH   4   5
ENDBRANCH   3   4
ENDBRANCH   2   3
ENDBRANCH   1   2
BRANCH   1  15
ATOM     15  C   UNL     1       8.017  13.456   4.267  1.00  0.00     0.000 C 
BRANCH  15  16
ATOM     16  C   UNL     1       8.582  14.823   3.851  1.00  0.00     0.000 C 
BRANCH  16  17
ATOM     17  C   UNL     1       9.754  14.710   2.863  1.00  0.00     0.000 C 
BRANCH  17  18
ATOM     18  C   UNL     1      10.726  15.899   2.958  1.00  0.00    -0.000 C 
BRANCH  18  19
ATOM     19  C   UNL     1      11.692  15.791   4.153  1.00  0.00    -0.000 C 
BRANCH  19  20
ATOM     20  C   UNL     1      11.292  16.613   5.392  1.00  0.00    -0.000 C 
BRANCH  20  21
ATOM     21  C   UNL     1      10.950  15.736   6.607  1.00  0.00    -0.000 C 
BRANCH  21  22
ATOM     22  C   UNL     1      11.116  14.233   6.322  1.00  0.00    -0.000 C 
BRANCH  22  23
ATOM     23  C   UNL     1      10.371  13.300   7.298  1.00  0.00    -0.000 C 
BRANCH  23  24
ATOM     24  C   UNL     1       8.982  13.795   7.746  1.00  0.00    -0.000 C 
BRANCH  24  25
ATOM     25  C   UNL     1       8.130  12.747   8.484  1.00  0.00    -0.003 C 
ATOM     26  C   UNL     1       7.296  11.885   7.538  1.00  0.00     0.004 C 
ENDBRANCH  24  25
ENDBRANCH  23  24
ENDBRANCH  22  23
ENDBRANCH  21  22
ENDBRANCH  20  21
ENDBRANCH  19  20
ENDBRANCH  18  19
ENDBRANCH  17  18
ENDBRANCH  16  17
ENDBRANCH  15  16
ENDBRANCH   1  15
TORSDOF 22
ENDMDL
MODEL 6
REMARK VINA RESULT:    -4.556      2.965      5.259
REMARK INTER + INTRA:         -14.799
REMARK INTER:                 -10.287
REMARK INTRA:                  -4.512
REMARK UNBOUND:                -4.384
REMARK SMILES CCCCCCCCCCCCCCCCCCCCCCCC(=O)[O-]
REMARK SMILES IDX 13 1 14 2 15 3 16 4 17 5 18 6 19 7 20 8 21 9 22 10 23 11
REMARK SMILES IDX 24 12 25 13 26 14 12 15 11 16 10 17 9 18 8 19 7 20 6 21 5 22
REMARK SMILES IDX 4 23 3 24 2 25 1 26
REMARK H PARENT
REMARK Flexibility Score: inf
ROOT
ATOM      1  C   UNL     1      11.630  13.976   2.875  1.00  0.00     0.000 C 
ENDROOT
BRANCH   1   2
ATOM      2  C   UNL     1      11.455  15.308   2.128  1.00  0.00     0.000 C 
BRANCH   2   3
ATOM      3  C   UNL     1      12.461  15.477   0.975  1.00  0.00     0.000 C 
BRANCH   3   4
ATOM      4  C   UNL     1      13.026  16.906   0.898  1.00  0.00     0.000 C 
BRANCH   4   5
ATOM      5  C   UNL     1      14.557  16.942   1.054  1.00  0.00     0.000 C 
BRANCH   5   6
ATOM      6  C   UNL     1      15.095  15.762   1.880  1.00  0.00     0.000 C 
BRANCH   6   7
ATOM      7  C   UNL     1      15.544  16.178   3.289  1.00  0.00     0.000 C 
BRANCH   7   8
ATOM      8  C   UNL     1      14.333  16.384   4.211  1.00  0.00     0.000 C 
BRANCH   8   9
ATOM      9  C   UNL     1      14.236  17.816   4.765  1.00  0.00     0.000 C 
BRANCH   9  10
ATOM     10  C   UNL     1      13.037  18.073   5.700  1.00  0.00     0.006 C 
BRANCH  10  11
ATOM     11  C   UNL     1      11.779  17.257   5.364  1.00  0.00     0.053 C 
BRANCH  11  12
ATOM     12  C   UNL     1      10.667  17.515   6.334  1.00  0.00     0.041 C 
ATOM     13  O   UNL     1       9.474  17.563   5.933  1.00  0.00    -0.550 OA
ATOM     14  O   UNL     1      10.945  17.671   7.686  1.00  0.00    -0.550 OA
ENDBRANCH  11  12
ENDBRANCH  10  11
ENDBRANCH   9  10
ENDBRANCH   8   9
ENDBRANCH   7   8
ENDBRANCH   6   7
ENDBRANCH   5   6
ENDBRANCH   4   5
ENDBRANCH   3   4
ENDBRANCH   2   3
ENDBRANCH   1   2
BRANCH   1  15
ATOM     15  C   UNL     1      12.762  13.113   2.299  1.00  0.00     0.000 C 
BRANCH  15  16
ATOM     16  C   UNL     1      13.737  12.681   3.405  1.00  0.00     0.000 C 
BRANCH  16  17
ATOM     17  C   UNL     1      13.036  12.405   4.745  1.00  0.00     0.000 C 
BRANCH  17  18
ATOM     18  C   UNL     1      13.573  13.285   5.887  1.00  0.00    -0.000 C 
BRANCH  18  19
ATOM     19  C   UNL     1      12.455  13.977   6.689  1.00  0.00    -0.000 C 
BRANCH  19  20
ATOM     20  C   UNL     1      11.140  13.184   6.792  1.00  0.00    -0.000 C 
BRANCH  20  21
ATOM     21  C   UNL     1       9.950  13.910   6.141  1.00  0.00    -0.000 C 
BRANCH  21  22
ATOM     22  C   UNL     1       8.597  13.270   6.495  1.00  0.00    -0.000 C 
BRANCH  22  23
ATOM     23  C   UNL     1       8.225  12.030   5.658  1.00  0.00    -0.000 C 
BRANCH  23  24
ATOM     24  C   UNL     1       8.821  11.996   4.236  1.00  0.00    -0.000 C 
BRANCH  24  25
ATOM     25  C   UNL     1       9.869  10.893   4.001  1.00  0.00    -0.003 C 
ATOM     26  C   UNL     1      10.106  10.026   5.237  1.00  0.00     0.004 C 
ENDBRANCH  24  25
ENDBRANCH  23  24
ENDBRANCH  22  23
ENDBRANCH  21  22
ENDBRANCH  20  21
ENDBRANCH  19  20
ENDBRANCH  18  19
ENDBRANCH  17  18
ENDBRANCH  16  17
ENDBRANCH  15  16
ENDBRANCH   1  15
TORSDOF 22
ENDMDL
MODEL 7
REMARK VINA RESULT:    -4.554      3.627      7.952
REMARK INTER + INTRA:         -14.795
REMARK INTER:                 -10.901
REMARK INTRA:                  -3.894
REMARK UNBOUND:                -4.384
REMARK SMILES CCCCCCCCCCCCCCCCCCCCCCCC(=O)[O-]
REMARK SMILES IDX 13 1 14 2 15 3 16 4 17 5 18 6 19 7 20 8 21 9 22 10 23 11
REMARK SMILES IDX 24 12 25 13 26 14 12 15 11 16 10 17 9 18 8 19 7 20 6 21 5 22
REMARK SMILES IDX 4 23 3 24 2 25 1 26
REMARK H PARENT
REMARK Flexibility Score: inf
ROOT
ATOM      1  C   UNL     1      12.974  13.630   1.112  1.00  0.00     0.000 C 
ENDROOT
BRANCH   1   2
ATOM      2  C   UNL     1      14.459  13.853   1.444  1.00  0.00     0.000 C 
BRANCH   2   3
ATOM      3  C   UNL     1      14.792  13.534   2.912  1.00  0.00     0.000 C 
BRANCH   3   4
ATOM      4  C   UNL     1      13.851  12.472   3.507  1.00  0.00     0.000 C 
BRANCH   4   5
ATOM      5  C   UNL     1      13.466  12.779   4.965  1.00  0.00     0.000 C 
BRANCH   5   6
ATOM      6  C   UNL     1      12.015  12.388   5.289  1.00  0.00     0.000 C 
BRANCH   6   7
ATOM      7  C   UNL     1      11.332  11.631   4.139  1.00  0.00     0.000 C 
BRANCH   7   8
ATOM      8  C   UNL     1      10.638  10.362   4.656  1.00  0.00     0.000 C 
BRANCH   8   9
ATOM      9  C   UNL     1       9.457  10.664   5.594  1.00  0.00     0.000 C 
BRANCH   9  10
ATOM     10  C   UNL     1       8.420  11.660   5.036  1.00  0.00     0.006 C 
BRANCH  10  11
ATOM     11  C   UNL     1       8.340  12.992   5.799  1.00  0.00     0.053 C 
BRANCH  11  12
ATOM     12  C   UNL     1       7.110  13.078   6.650  1.00  0.00     0.041 C 
ATOM     13  O   UNL     1       6.499  12.030   6.989  1.00  0.00    -0.550 OA
ATOM     14  O   UNL     1       6.657  14.313   7.094  1.00  0.00    -0.550 OA
ENDBRANCH  11  12
ENDBRANCH  10  11
ENDBRANCH   9  10
ENDBRANCH   8   9
ENDBRANCH   7   8
ENDBRANCH   6   7
ENDBRANCH   5   6
ENDBRANCH   4   5
ENDBRANCH   3   4
ENDBRANCH   2   3
ENDBRANCH   1   2
BRANCH   1  15
ATOM     15  C   UNL     1      12.368  14.776   0.289  1.00  0.00     0.000 C 
BRANCH  15  16
ATOM     16  C   UNL     1      11.533  15.708   1.181  1.00  0.00     0.000 C 
BRANCH  16  17
ATOM     17  C   UNL     1      11.015  15.014   2.451  1.00  0.00     0.000 C 
BRANCH  17  18
ATOM     18  C   UNL     1      11.489  15.708   3.740  1.00  0.00    -0.000 C 
BRANCH  18  19
ATOM     19  C   UNL     1      12.674  16.665   3.506  1.00  0.00    -0.000 C 
BRANCH  19  20
ATOM     20  C   UNL     1      13.779  16.609   4.575  1.00  0.00    -0.000 C 
BRANCH  20  21
ATOM     21  C   UNL     1      14.790  17.761   4.452  1.00  0.00    -0.000 C 
BRANCH  21  22
ATOM     22  C   UNL     1      14.708  18.483   3.096  1.00  0.00    -0.000 C 
BRANCH  22  23
ATOM     23  C   UNL     1      15.875  18.188   2.132  1.00  0.00    -0.000 C 
BRANCH  23  24
ATOM     24  C   UNL     1      15.615  17.063   1.112  1.00  0.00    -0.000 C 
BRANCH  24  25
ATOM     25  C   UNL     1      15.284  17.545  -0.312  1.00  0.00    -0.003 C 
ATOM     26  C   UNL     1      15.029  16.394  -1.285  1.00  0.00     0.004 C 
ENDBRANCH  24  25
ENDBRANCH  23  24
ENDBRANCH  22  23
ENDBRANCH  21  22
ENDBRANCH  20  21
ENDBRANCH  19  20
ENDBRANCH  18  19
ENDBRANCH  17  18
ENDBRANCH  16  17
ENDBRANCH  15  16
ENDBRANCH   1  15
TORSDOF 22
ENDMDL
MODEL 8
REMARK VINA RESULT:    -4.547      3.472      6.716
REMARK INTER + INTRA:         -14.779
REMARK INTER:                 -10.610
REMARK INTRA:                  -4.169
REMARK UNBOUND:                -4.384
REMARK SMILES CCCCCCCCCCCCCCCCCCCCCCCC(=O)[O-]
REMARK SMILES IDX 13 1 14 2 15 3 16 4 17 5 18 6 19 7 20 8 21 9 22 10 23 11
REMARK SMILES IDX 24 12 25 13 26 14 12 15 11 16 10 17 9 18 8 19 7 20 6 21 5 22
REMARK SMILES IDX 4 23 3 24 2 25 1 26
REMARK H PARENT
REMARK Flexibility Score: inf
ROOT
ATOM      1  C   UNL     1      13.578  16.169   3.891  1.00  0.00     0.000 C 
ENDROOT
BRANCH   1   2
ATOM      2  C   UNL     1      12.837  15.448   5.029  1.00  0.00     0.000 C 
BRANCH   2   3
ATOM      3  C   UNL     1      12.162  14.145   4.564  1.00  0.00     0.000 C 
BRANCH   3   4
ATOM      4  C   UNL     1      12.798  12.899   5.203  1.00  0.00     0.000 C 
BRANCH   4   5
ATOM      5  C   UNL     1      12.574  11.629   4.363  1.00  0.00     0.000 C 
BRANCH   5   6
ATOM      6  C   UNL     1      11.373  11.754   3.411  1.00  0.00     0.000 C 
BRANCH   6   7
ATOM      7  C   UNL     1      10.045  11.351   4.072  1.00  0.00     0.000 C 
BRANCH   7   8
ATOM      8  C   UNL     1      10.261  10.220   5.087  1.00  0.00     0.000 C 
BRANCH   8   9
ATOM      9  C   UNL     1       9.705  10.552   6.483  1.00  0.00     0.000 C 
BRANCH   9  10
ATOM     10  C   UNL     1       9.637  12.057   6.816  1.00  0.00     0.006 C 
BRANCH  10  11
ATOM     11  C   UNL     1       8.651  12.418   7.937  1.00  0.00     0.053 C 
BRANCH  11  12
ATOM     12  C   UNL     1       7.283  11.866   7.681  1.00  0.00     0.041 C 
ATOM     13  O   UNL     1       6.690  12.116   6.597  1.00  0.00    -0.550 OA
ATOM     14  O   UNL     1       6.674  11.048   8.625  1.00  0.00    -0.550 OA
ENDBRANCH  11  12
ENDBRANCH  10  11
ENDBRANCH   9  10
ENDBRANCH   8   9
ENDBRANCH   7   8
ENDBRANCH   6   7
ENDBRANCH   5   6
ENDBRANCH   4   5
ENDBRANCH   3   4
ENDBRANCH   2   3
ENDBRANCH   1   2
BRANCH   1  15
ATOM     15  C   UNL     1      14.937  15.531   3.566  1.00  0.00     0.000 C 
BRANCH  15  16
ATOM     16  C   UNL     1      15.029  15.167   2.077  1.00  0.00     0.000 C 
BRANCH  16  17
ATOM     17  C   UNL     1      14.640  13.708   1.793  1.00  0.00     0.000 C 
BRANCH  17  18
ATOM     18  C   UNL     1      13.320  13.588   1.013  1.00  0.00    -0.000 C 
BRANCH  18  19
ATOM     19  C   UNL     1      12.784  14.948   0.525  1.00  0.00    -0.000 C 
BRANCH  19  20
ATOM     20  C   UNL     1      11.415  15.354   1.099  1.00  0.00    -0.000 C 
BRANCH  20  21
ATOM     21  C   UNL     1      11.131  16.859   0.961  1.00  0.00    -0.000 C 
BRANCH  21  22
ATOM     22  C   UNL     1      10.395  17.440   2.181  1.00  0.00    -0.000 C 
BRANCH  22  23
ATOM     23  C   UNL     1       8.856  17.420   2.082  1.00  0.00    -0.000 C 
BRANCH  23  24
ATOM     24  C   UNL     1       8.130  16.771   3.277  1.00  0.00    -0.000 C 
BRANCH  24  25
ATOM     25  C   UNL     1       8.987  15.792   4.099  1.00  0.00    -0.003 C 
ATOM     26  C   UNL     1       8.274  14.469   4.378  1.00  0.00     0.004 C 
ENDBRANCH  24  25
ENDBRANCH  23  24
ENDBRANCH  22  23
ENDBRANCH  21  22
ENDBRANCH  20  21
ENDBRANCH  19  20
ENDBRANCH  18  19
ENDBRANCH  17  18
ENDBRANCH  16  17
ENDBRANCH  15  16
ENDBRANCH   1  15
TORSDOF 22
ENDMDL
MODEL 9
REMARK VINA RESULT:    -4.524      2.953      3.739
REMARK INTER + INTRA:         -14.726
REMARK INTER:                 -10.161
REMARK INTRA:                  -4.565
REMARK UNBOUND:                -4.384
REMARK SMILES CCCCCCCCCCCCCCCCCCCCCCCC(=O)[O-]
REMARK SMILES IDX 13 1 14 2 15 3 16 4 17 5 18 6 19 7 20 8 21 9 22 10 23 11
REMARK SMILES IDX 24 12 25 13 26 14 12 15 11 16 10 17 9 18 8 19 7 20 6 21 5 22
REMARK SMILES IDX 4 23 3 24 2 25 1 26
REMARK H PARENT
REMARK Flexibility Score: inf
ROOT
ATOM      1  C   UNL     1      12.521  14.040   6.186  1.00  0.00     0.000 C 
ENDROOT
BRANCH   1   2
ATOM      2  C   UNL     1      13.081  12.766   5.532  1.00  0.00     0.000 C 
BRANCH   2   3
ATOM      3  C   UNL     1      14.048  13.070   4.375  1.00  0.00     0.000 C 
BRANCH   3   4
ATOM      4  C   UNL     1      13.431  12.757   3.001  1.00  0.00     0.000 C 
BRANCH   4   5
ATOM      5  C   UNL     1      13.978  13.671   1.890  1.00  0.00     0.000 C 
BRANCH   5   6
ATOM      6  C   UNL     1      13.322  15.061   1.890  1.00  0.00     0.000 C 
BRANCH   6   7
ATOM      7  C   UNL     1      14.348  16.204   1.882  1.00  0.00     0.000 C 
BRANCH   7   8
ATOM      8  C   UNL     1      13.951  17.303   2.879  1.00  0.00     0.000 C 
BRANCH   8   9
ATOM      9  C   UNL     1      14.052  16.847   4.346  1.00  0.00     0.000 C 
BRANCH   9  10
ATOM     10  C   UNL     1      13.310  17.742   5.359  1.00  0.00     0.006 C 
BRANCH  10  11
ATOM     11  C   UNL     1      11.958  18.280   4.864  1.00  0.00     0.053 C 
BRANCH  11  12
ATOM     12  C   UNL     1      11.069  18.691   5.997  1.00  0.00     0.041 C 
ATOM     13  O   UNL     1      11.539  19.341   6.969  1.00  0.00    -0.550 OA
ATOM     14  O   UNL     1       9.715  18.383   5.966  1.00  0.00    -0.550 OA
ENDBRANCH  11  12
ENDBRANCH  10  11
ENDBRANCH   9  10
ENDBRANCH   8   9
ENDBRANCH   7   8
ENDBRANCH   6   7
ENDBRANCH   5   6
ENDBRANCH   4   5
ENDBRANCH   3   4
ENDBRANCH   2   3
ENDBRANCH   1   2
BRANCH   1  15
ATOM     15  C   UNL     1      10.991  14.133   6.099  1.00  0.00     0.000 C 
BRANCH  15  16
ATOM     16  C   UNL     1      10.563  15.046   4.940  1.00  0.00     0.000 C 
BRANCH  16  17
ATOM     17  C   UNL     1      10.213  14.267   3.663  1.00  0.00     0.000 C 
BRANCH  17  18
ATOM     18  C   UNL     1       8.771  13.732   3.672  1.00  0.00    -0.000 C 
BRANCH  18  19
ATOM     19  C   UNL     1       8.701  12.193   3.708  1.00  0.00    -0.000 C 
BRANCH  19  20
ATOM     20  C   UNL     1      10.060  11.476   3.617  1.00  0.00    -0.000 C 
BRANCH  20  21
ATOM     21  C   UNL     1      10.324  10.540   4.809  1.00  0.00    -0.000 C 
BRANCH  21  22
ATOM     22  C   UNL     1       9.157  10.509   5.810  1.00  0.00    -0.000 C 
BRANCH  22  23
ATOM     23  C   UNL     1       9.483  11.079   7.206  1.00  0.00    -0.000 C 
BRANCH  23  24
ATOM     24  C   UNL     1       8.273  11.627   7.989  1.00  0.00    -0.000 C 
BRANCH  24  25
ATOM     25  C   UNL     1       7.122  12.154   7.115  1.00  0.00    -0.003 C 
ATOM     26  C   UNL     1       7.126  13.675   6.978  1.00  0.00     0.004 C 
ENDBRANCH  24  25
ENDBRANCH  23  24
ENDBRANCH  22  23
ENDBRANCH  21  22
ENDBRANCH  20  21
ENDBRANCH  19  20
ENDBRANCH  18  19
ENDBRANCH  17  18
ENDBRANCH  16  17
ENDBRANCH  15  16
ENDBRANCH   1  15
TORSDOF 22
ENDMDL
