MODEL 1
REMARK VINA RESULT:    -5.685      0.000      0.000
REMARK INTER + INTRA:          -9.226
REMARK INTER:                  -8.843
REMARK INTRA:                  -0.383
REMARK UNBOUND:                -0.383
REMARK SMILES C[C@]12C[C@H](O)[C@@H]3C[C@@]1(O[C@H]1O[C@H](CO)[C@@H](O)[C@H](O)[C@H]1O)[C@]3(COC(=O)c1ccccc1)C(=O)O2
REMARK SMILES IDX 1 1 2 2 3 3 4 4 6 5 7 6 8 7 21 8 32 9 33 10 34 11 9 12 10 13
REMARK SMILES IDX 19 14 11 15 17 16 12 17 15 18 20 19 18 21 13 23 14 24 16 26
REMARK SMILES IDX 5 28 22 30 23 31 24 32 25 33 26 34 27 35 31 36 28 37 30 38
REMARK SMILES IDX 29 39
REMARK H PARENT 20 20 18 22 14 25 16 27 5 29
REMARK Flexibility Score: inf
ROOT
ATOM      1  C   UNL     1      20.451   2.445  15.540  1.00  0.00     0.060 C 
ATOM      2  C   UNL     1      19.496   3.356  14.764  1.00  0.00     0.142 C 
ATOM      3  C   UNL     1      18.711   4.303  15.742  1.00  0.00     0.083 C 
ATOM      4  C   UNL     1      17.540   5.049  14.998  1.00  0.00     0.123 C 
ATOM      5  C   UNL     1      17.022   4.200  13.783  1.00  0.00     0.045 C 
ATOM      6  C   UNL     1      16.985   2.737  14.240  1.00  0.00     0.049 C 
ATOM      7  C   UNL     1      18.455   2.646  13.774  1.00  0.00     0.131 C 
ATOM      8  C   UNL     1      18.189   3.830  12.818  1.00  0.00     0.140 C 
ATOM      9  C   UNL     1      19.450   4.628  12.883  1.00  0.00     0.319 C 
ATOM     10  O   UNL     1      19.753   5.579  12.109  1.00  0.00    -0.251 OA
ATOM     11  O   UNL     1      20.246   4.221  13.924  1.00  0.00    -0.456 OA
ENDROOT
BRANCH   7  12
ATOM     12  O   UNL     1      18.866   1.463  13.093  1.00  0.00    -0.338 OA
BRANCH  12  13
ATOM     13  C   UNL     1      17.904   0.416  13.199  1.00  0.00     0.282 C 
ATOM     14  C   UNL     1      18.442  -0.738  14.078  1.00  0.00     0.202 C 
ATOM     15  O   UNL     1      17.503  -0.073  11.923  1.00  0.00    -0.341 OA
ATOM     16  C   UNL     1      19.590  -1.472  13.371  1.00  0.00     0.179 C 
ATOM     17  C   UNL     1      18.575  -0.663  11.204  1.00  0.00     0.178 C 
ATOM     18  C   UNL     1      19.133  -1.895  11.965  1.00  0.00     0.177 C 
BRANCH  14  19
ATOM     19  O   UNL     1      18.842  -0.280  15.347  1.00  0.00    -0.385 OA
ATOM     20  H   UNL     1      18.144  -0.549  16.003  1.00  0.00     0.211 HD
ENDBRANCH  14  19
BRANCH  16  21
ATOM     21  O   UNL     1      19.963  -2.598  14.125  1.00  0.00    -0.387 OA
ATOM     22  H   UNL     1      19.798  -2.369  15.079  1.00  0.00     0.211 HD
ENDBRANCH  16  21
BRANCH  17  23
ATOM     23  C   UNL     1      18.046  -1.049   9.815  1.00  0.00     0.191 C 
BRANCH  23  24
ATOM     24  O   UNL     1      17.643  -2.392   9.795  1.00  0.00    -0.394 OA
ATOM     25  H   UNL     1      16.747  -2.417  10.224  1.00  0.00     0.210 HD
ENDBRANCH  23  24
ENDBRANCH  17  23
BRANCH  18  26
ATOM     26  O   UNL     1      20.193  -2.502  11.268  1.00  0.00    -0.387 OA
ATOM     27  H   UNL     1      20.875  -1.804  11.082  1.00  0.00     0.211 HD
ENDBRANCH  18  26
ENDBRANCH  12  13
ENDBRANCH   7  12
BRANCH   4  28
ATOM     28  O   UNL     1      16.491   5.290  15.900  1.00  0.00    -0.393 OA
ATOM     29  H   UNL     1      16.912   5.555  16.760  1.00  0.00     0.210 HD
ENDBRANCH   4  28
BRANCH   8  30
ATOM     30  C   UNL     1      17.738   3.488  11.375  1.00  0.00     0.255 C 
BRANCH  30  31
ATOM     31  O   UNL     1      17.600   4.685  10.606  1.00  0.00    -0.461 OA
BRANCH  31  32
ATOM     32  C   UNL     1      16.510   4.972   9.770  1.00  0.00     0.338 C 
ATOM     33  O   UNL     1      16.516   4.616   8.557  1.00  0.00    -0.246 OA
BRANCH  32  34
ATOM     34  C   UNL     1      15.346   5.689  10.329  1.00  0.00     0.060 A 
ATOM     35  C   UNL     1      15.540   6.700  11.296  1.00  0.00     0.015 A 
ATOM     36  C   UNL     1      14.039   5.397   9.894  1.00  0.00     0.015 A 
ATOM     37  C   UNL     1      14.451   7.404  11.807  1.00  0.00     0.001 A 
ATOM     38  C   UNL     1      12.955   6.118  10.396  1.00  0.00     0.001 A 
ATOM     39  C   UNL     1      13.158   7.116  11.358  1.00  0.00     0.000 A 
ENDBRANCH  32  34
ENDBRANCH  31  32
ENDBRANCH  30  31
ENDBRANCH   8  30
TORSDOF 12
ENDMDL
MODEL 2
REMARK VINA RESULT:    -5.594      2.873      6.122
REMARK INTER + INTRA:          -9.083
REMARK INTER:                  -8.642
REMARK INTRA:                  -0.441
REMARK UNBOUND:                -0.383
REMARK SMILES C[C@]12C[C@H](O)[C@@H]3C[C@@]1(O[C@H]1O[C@H](CO)[C@@H](O)[C@H](O)[C@H]1O)[C@]3(COC(=O)c1ccccc1)C(=O)O2
REMARK SMILES IDX 1 1 2 2 3 3 4 4 6 5 7 6 8 7 21 8 32 9 33 10 34 11 9 12 10 13
REMARK SMILES IDX 19 14 11 15 17 16 12 17 15 18 20 19 18 21 13 23 14 24 16 26
REMARK SMILES IDX 5 28 22 30 23 31 24 32 25 33 26 34 27 35 31 36 28 37 30 38
REMARK SMILES IDX 29 39
REMARK H PARENT 20 20 18 22 14 25 16 27 5 29
REMARK Flexibility Score: inf
ROOT
ATOM      1  C   UNL     1      18.854  -2.404   8.910  1.00  0.00     0.060 C 
ATOM      2  C   UNL     1      18.863  -1.184   9.835  1.00  0.00     0.142 C 
ATOM      3  C   UNL     1      18.898   0.147   9.001  1.00  0.00     0.083 C 
ATOM      4  C   UNL     1      19.179   1.392   9.925  1.00  0.00     0.123 C 
ATOM      5  C   UNL     1      20.009   0.971  11.189  1.00  0.00     0.045 C 
ATOM      6  C   UNL     1      21.068  -0.034  10.719  1.00  0.00     0.049 C 
ATOM      7  C   UNL     1      20.005  -1.129  10.957  1.00  0.00     0.131 C 
ATOM      8  C   UNL     1      19.308  -0.186  11.963  1.00  0.00     0.140 C 
ATOM      9  C   UNL     1      17.853  -0.425  11.723  1.00  0.00     0.319 C 
ATOM     10  O   UNL     1      16.914  -0.012  12.458  1.00  0.00    -0.251 OA
ATOM     11  O   UNL     1      17.648  -1.138  10.568  1.00  0.00    -0.456 OA
ENDROOT
BRANCH   7  12
ATOM     12  O   UNL     1      20.433  -2.354  11.550  1.00  0.00    -0.338 OA
BRANCH  12  13
ATOM     13  C   UNL     1      21.810  -2.625  11.297  1.00  0.00     0.282 C 
ATOM     14  C   UNL     1      22.034  -4.134  11.038  1.00  0.00     0.202 C 
ATOM     15  O   UNL     1      22.648  -2.169  12.355  1.00  0.00    -0.341 OA
ATOM     16  C   UNL     1      21.811  -4.946  12.321  1.00  0.00     0.179 C 
ATOM     17  C   UNL     1      22.387  -2.834  13.581  1.00  0.00     0.178 C 
ATOM     18  C   UNL     1      22.669  -4.354  13.453  1.00  0.00     0.177 C 
BRANCH  14  19
ATOM     19  O   UNL     1      21.218  -4.607   9.994  1.00  0.00    -0.385 OA
ATOM     20  H   UNL     1      20.777  -3.821   9.571  1.00  0.00     0.211 HD
ENDBRANCH  14  19
BRANCH  16  21
ATOM     21  O   UNL     1      22.159  -6.289  12.094  1.00  0.00    -0.387 OA
ATOM     22  H   UNL     1      22.297  -6.702  12.990  1.00  0.00     0.211 HD
ENDBRANCH  16  21
BRANCH  17  23
ATOM     23  C   UNL     1      23.269  -2.185  14.657  1.00  0.00     0.191 C 
BRANCH  23  24
ATOM     24  O   UNL     1      22.881  -0.855  14.879  1.00  0.00    -0.394 OA
ATOM     25  H   UNL     1      22.929  -0.715  15.862  1.00  0.00     0.210 HD
ENDBRANCH  23  24
ENDBRANCH  17  23
BRANCH  18  26
ATOM     26  O   UNL     1      22.423  -5.034  14.659  1.00  0.00    -0.387 OA
ATOM     27  H   UNL     1      23.271  -5.468  14.943  1.00  0.00     0.211 HD
ENDBRANCH  18  26
ENDBRANCH  12  13
ENDBRANCH   7  12
BRANCH   4  28
ATOM     28  O   UNL     1      19.875   2.369   9.194  1.00  0.00    -0.393 OA
ATOM     29  H   UNL     1      19.946   2.029   8.263  1.00  0.00     0.210 HD
ENDBRANCH   4  28
BRANCH   8  30
ATOM     30  C   UNL     1      19.725  -0.302  13.451  1.00  0.00     0.255 C 
BRANCH  30  31
ATOM     31  O   UNL     1      19.758   0.994  14.055  1.00  0.00    -0.461 OA
BRANCH  31  32
ATOM     32  C   UNL     1      18.918   1.405  15.102  1.00  0.00     0.338 C 
ATOM     33  O   UNL     1      18.748   0.672  16.117  1.00  0.00    -0.246 OA
BRANCH  32  34
ATOM     34  C   UNL     1      18.241   2.714  15.008  1.00  0.00     0.060 A 
ATOM     35  C   UNL     1      18.216   3.574  16.127  1.00  0.00     0.015 A 
ATOM     36  C   UNL     1      17.638   3.132  13.807  1.00  0.00     0.015 A 
ATOM     37  C   UNL     1      17.607   4.826  16.040  1.00  0.00     0.001 A 
ATOM     38  C   UNL     1      17.046   4.393  13.720  1.00  0.00     0.001 A 
ATOM     39  C   UNL     1      17.023   5.238  14.838  1.00  0.00     0.000 A 
ENDBRANCH  32  34
ENDBRANCH  31  32
ENDBRANCH  30  31
ENDBRANCH   8  30
TORSDOF 12
ENDMDL
MODEL 3
REMARK VINA RESULT:    -5.592     11.416     14.528
REMARK INTER + INTRA:          -9.081
REMARK INTER:                  -8.583
REMARK INTRA:                  -0.498
REMARK UNBOUND:                -0.383
REMARK SMILES C[C@]12C[C@H](O)[C@@H]3C[C@@]1(O[C@H]1O[C@H](CO)[C@@H](O)[C@H](O)[C@H]1O)[C@]3(COC(=O)c1ccccc1)C(=O)O2
REMARK SMILES IDX 1 1 2 2 3 3 4 4 6 5 7 6 8 7 21 8 32 9 33 10 34 11 9 12 10 13
REMARK SMILES IDX 19 14 11 15 17 16 12 17 15 18 20 19 18 21 13 23 14 24 16 26
REMARK SMILES IDX 5 28 22 30 23 31 24 32 25 33 26 34 27 35 31 36 28 37 30 38
REMARK SMILES IDX 29 39
REMARK H PARENT 20 20 18 22 14 25 16 27 5 29
REMARK Flexibility Score: inf
ROOT
ATOM      1  C   UNL     1       7.455  -4.552  11.376  1.00  0.00     0.060 C 
ATOM      2  C   UNL     1       7.787  -4.924  12.824  1.00  0.00     0.142 C 
ATOM      3  C   UNL     1       7.641  -6.472  13.049  1.00  0.00     0.083 C 
ATOM      4  C   UNL     1       7.712  -6.836  14.580  1.00  0.00     0.123 C 
ATOM      5  C   UNL     1       7.212  -5.637  15.461  1.00  0.00     0.045 C 
ATOM      6  C   UNL     1       5.991  -5.037  14.754  1.00  0.00     0.049 C 
ATOM      7  C   UNL     1       6.987  -4.150  13.977  1.00  0.00     0.131 C 
ATOM      8  C   UNL     1       7.997  -4.331  15.132  1.00  0.00     0.140 C 
ATOM      9  C   UNL     1       9.314  -4.447  14.437  1.00  0.00     0.319 C 
ATOM     10  O   UNL     1      10.443  -4.410  15.000  1.00  0.00    -0.251 OA
ATOM     11  O   UNL     1       9.151  -4.632  13.086  1.00  0.00    -0.456 OA
ENDROOT
BRANCH   7  12
ATOM     12  O   UNL     1       6.634  -2.786  13.758  1.00  0.00    -0.338 OA
BRANCH  12  13
ATOM     13  C   UNL     1       5.222  -2.585  13.766  1.00  0.00     0.282 C 
ATOM     14  C   UNL     1       4.803  -1.583  12.663  1.00  0.00     0.202 C 
ATOM     15  O   UNL     1       4.750  -2.154  15.039  1.00  0.00    -0.341 OA
ATOM     16  C   UNL     1       5.297  -0.169  12.996  1.00  0.00     0.179 C 
ATOM     17  C   UNL     1       5.278  -0.892  15.416  1.00  0.00     0.178 C 
ATOM     18  C   UNL     1       4.839   0.209  14.415  1.00  0.00     0.177 C 
BRANCH  14  19
ATOM     19  O   UNL     1       5.255  -1.991  11.395  1.00  0.00    -0.385 OA
ATOM     20  H   UNL     1       4.485  -1.942  10.766  1.00  0.00     0.211 HD
ENDBRANCH  14  19
BRANCH  16  21
ATOM     21  O   UNL     1       4.783   0.742  12.056  1.00  0.00    -0.387 OA
ATOM     22  H   UNL     1       4.020   1.203  12.497  1.00  0.00     0.211 HD
ENDBRANCH  16  21
BRANCH  17  23
ATOM     23  C   UNL     1       4.787  -0.589  16.839  1.00  0.00     0.191 C 
BRANCH  23  24
ATOM     24  O   UNL     1       3.877   0.478  16.832  1.00  0.00    -0.394 OA
ATOM     25  H   UNL     1       3.068   0.153  17.308  1.00  0.00     0.210 HD
ENDBRANCH  23  24
ENDBRANCH  17  23
BRANCH  18  26
ATOM     26  O   UNL     1       5.345   1.472  14.772  1.00  0.00    -0.387 OA
ATOM     27  H   UNL     1       6.237   1.336  15.189  1.00  0.00     0.211 HD
ENDBRANCH  18  26
ENDBRANCH  12  13
ENDBRANCH   7  12
BRANCH   4  28
ATOM     28  O   UNL     1       6.929  -7.976  14.827  1.00  0.00    -0.393 OA
ATOM     29  H   UNL     1       7.344  -8.720  14.316  1.00  0.00     0.210 HD
ENDBRANCH   4  28
BRANCH   8  30
ATOM     30  C   UNL     1       7.977  -3.274  16.265  1.00  0.00     0.255 C 
BRANCH  30  31
ATOM     31  O   UNL     1       8.358  -3.873  17.505  1.00  0.00    -0.461 OA
BRANCH  31  32
ATOM     32  C   UNL     1       9.471  -3.485  18.267  1.00  0.00     0.338 C 
ATOM     33  O   UNL     1       9.818  -2.272  18.330  1.00  0.00    -0.246 OA
BRANCH  32  34
ATOM     34  C   UNL     1      10.228  -4.515  19.007  1.00  0.00     0.060 A 
ATOM     35  C   UNL     1      10.619  -5.705  18.355  1.00  0.00     0.015 A 
ATOM     36  C   UNL     1      10.590  -4.319  20.353  1.00  0.00     0.015 A 
ATOM     37  C   UNL     1      11.362  -6.670  19.036  1.00  0.00     0.001 A 
ATOM     38  C   UNL     1      11.349  -5.280  21.024  1.00  0.00     0.001 A 
ATOM     39  C   UNL     1      11.728  -6.459  20.369  1.00  0.00     0.000 A 
ENDBRANCH  32  34
ENDBRANCH  31  32
ENDBRANCH  30  31
ENDBRANCH   8  30
TORSDOF 12
ENDMDL
MODEL 4
REMARK VINA RESULT:    -5.554     11.690     13.628
REMARK INTER + INTRA:          -9.022
REMARK INTER:                  -8.725
REMARK INTRA:                  -0.297
REMARK UNBOUND:                -0.383
REMARK SMILES C[C@]12C[C@H](O)[C@@H]3C[C@@]1(O[C@H]1O[C@H](CO)[C@@H](O)[C@H](O)[C@H]1O)[C@]3(COC(=O)c1ccccc1)C(=O)O2
REMARK SMILES IDX 1 1 2 2 3 3 4 4 6 5 7 6 8 7 21 8 32 9 33 10 34 11 9 12 10 13
REMARK SMILES IDX 19 14 11 15 17 16 12 17 15 18 20 19 18 21 13 23 14 24 16 26
REMARK SMILES IDX 5 28 22 30 23 31 24 32 25 33 26 34 27 35 31 36 28 37 30 38
REMARK SMILES IDX 29 39
REMARK H PARENT 20 20 18 22 14 25 16 27 5 29
REMARK Flexibility Score: inf
ROOT
ATOM      1  C   UNL     1      11.222  -3.765  16.148  1.00  0.00     0.060 C 
ATOM      2  C   UNL     1      10.440  -4.517  17.228  1.00  0.00     0.142 C 
ATOM      3  C   UNL     1      11.363  -5.556  17.962  1.00  0.00     0.083 C 
ATOM      4  C   UNL     1      10.520  -6.520  18.880  1.00  0.00     0.123 C 
ATOM      5  C   UNL     1       9.061  -6.682  18.325  1.00  0.00     0.045 C 
ATOM      6  C   UNL     1       9.168  -6.789  16.799  1.00  0.00     0.049 C 
ATOM      7  C   UNL     1       9.088  -5.247  16.774  1.00  0.00     0.131 C 
ATOM      8  C   UNL     1       8.371  -5.296  18.142  1.00  0.00     0.140 C 
ATOM      9  C   UNL     1       8.927  -4.120  18.876  1.00  0.00     0.319 C 
ATOM     10  O   UNL     1       8.480  -3.659  19.962  1.00  0.00    -0.251 OA
ATOM     11  O   UNL     1      10.026  -3.605  18.234  1.00  0.00    -0.456 OA
ENDROOT
BRANCH   7  12
ATOM     12  O   UNL     1       8.298  -4.638  15.755  1.00  0.00    -0.338 OA
BRANCH  12  13
ATOM     13  C   UNL     1       8.975  -3.556  15.119  1.00  0.00     0.282 C 
ATOM     14  C   UNL     1       8.207  -2.229  15.326  1.00  0.00     0.202 C 
ATOM     15  O   UNL     1       9.188  -3.799  13.732  1.00  0.00    -0.341 OA
ATOM     16  C   UNL     1       6.884  -2.238  14.548  1.00  0.00     0.179 C 
ATOM     17  C   UNL     1       7.974  -3.917  13.007  1.00  0.00     0.178 C 
ATOM     18  C   UNL     1       7.162  -2.597  13.078  1.00  0.00     0.177 C 
BRANCH  14  19
ATOM     19  O   UNL     1       7.987  -1.965  16.691  1.00  0.00    -0.385 OA
ATOM     20  H   UNL     1       8.100  -2.819  17.189  1.00  0.00     0.211 HD
ENDBRANCH  14  19
BRANCH  16  21
ATOM     21  O   UNL     1       6.277  -0.973  14.637  1.00  0.00    -0.387 OA
ATOM     22  H   UNL     1       5.393  -1.050  14.187  1.00  0.00     0.211 HD
ENDBRANCH  16  21
BRANCH  17  23
ATOM     23  C   UNL     1       8.331  -4.283  11.560  1.00  0.00     0.191 C 
BRANCH  23  24
ATOM     24  O   UNL     1       9.260  -3.373  11.034  1.00  0.00    -0.394 OA
ATOM     25  H   UNL     1      10.014  -3.920  10.688  1.00  0.00     0.210 HD
ENDBRANCH  23  24
ENDBRANCH  17  23
BRANCH  18  26
ATOM     26  O   UNL     1       5.955  -2.687  12.361  1.00  0.00    -0.387 OA
ATOM     27  H   UNL     1       6.074  -2.203  11.502  1.00  0.00     0.211 HD
ENDBRANCH  18  26
ENDBRANCH  12  13
ENDBRANCH   7  12
BRANCH   4  28
ATOM     28  O   UNL     1      11.152  -7.772  18.948  1.00  0.00    -0.393 OA
ATOM     29  H   UNL     1      11.266  -7.980  19.913  1.00  0.00     0.210 HD
ENDBRANCH   4  28
BRANCH   8  30
ATOM     30  C   UNL     1       6.822  -5.352  18.129  1.00  0.00     0.255 C 
BRANCH  30  31
ATOM     31  O   UNL     1       6.283  -4.033  18.011  1.00  0.00    -0.461 OA
BRANCH  31  32
ATOM     32  C   UNL     1       5.143  -3.576  18.689  1.00  0.00     0.338 C 
ATOM     33  O   UNL     1       4.065  -4.235  18.654  1.00  0.00    -0.246 OA
BRANCH  32  34
ATOM     34  C   UNL     1       5.221  -2.316  19.456  1.00  0.00     0.060 A 
ATOM     35  C   UNL     1       4.974  -1.084  18.812  1.00  0.00     0.015 A 
ATOM     36  C   UNL     1       5.515  -2.325  20.832  1.00  0.00     0.015 A 
ATOM     37  C   UNL     1       5.014   0.108  19.534  1.00  0.00     0.001 A 
ATOM     38  C   UNL     1       5.536  -1.130  21.554  1.00  0.00     0.001 A 
ATOM     39  C   UNL     1       5.293   0.088  20.904  1.00  0.00     0.000 A 
ENDBRANCH  32  34
ENDBRANCH  31  32
ENDBRANCH  30  31
ENDBRANCH   8  30
TORSDOF 12
ENDMDL
MODEL 5
REMARK VINA RESULT:    -5.540      2.751      6.268
REMARK INTER + INTRA:          -9.000
REMARK INTER:                  -8.623
REMARK INTRA:                  -0.376
REMARK UNBOUND:                -0.383
REMARK SMILES C[C@]12C[C@H](O)[C@@H]3C[C@@]1(O[C@H]1O[C@H](CO)[C@@H](O)[C@H](O)[C@H]1O)[C@]3(COC(=O)c1ccccc1)C(=O)O2
REMARK SMILES IDX 1 1 2 2 3 3 4 4 6 5 7 6 8 7 21 8 32 9 33 10 34 11 9 12 10 13
REMARK SMILES IDX 19 14 11 15 17 16 12 17 15 18 20 19 18 21 13 23 14 24 16 26
REMARK SMILES IDX 5 28 22 30 23 31 24 32 25 33 26 34 27 35 31 36 28 37 30 38
REMARK SMILES IDX 29 39
REMARK H PARENT 20 20 18 22 14 25 16 27 5 29
REMARK Flexibility Score: inf
ROOT
ATOM      1  C   UNL     1      16.608   0.840  13.850  1.00  0.00     0.060 C 
ATOM      2  C   UNL     1      17.664   1.946  13.923  1.00  0.00     0.142 C 
ATOM      3  C   UNL     1      16.985   3.361  13.994  1.00  0.00     0.083 C 
ATOM      4  C   UNL     1      18.042   4.513  13.798  1.00  0.00     0.123 C 
ATOM      5  C   UNL     1      19.251   4.016  12.928  1.00  0.00     0.045 C 
ATOM      6  C   UNL     1      18.672   3.151  11.802  1.00  0.00     0.049 C 
ATOM      7  C   UNL     1      18.786   1.960  12.779  1.00  0.00     0.131 C 
ATOM      8  C   UNL     1      19.890   2.730  13.536  1.00  0.00     0.140 C 
ATOM      9  C   UNL     1      19.626   2.412  14.971  1.00  0.00     0.319 C 
ATOM     10  O   UNL     1      20.402   2.670  15.932  1.00  0.00    -0.251 OA
ATOM     11  O   UNL     1      18.397   1.820  15.132  1.00  0.00    -0.456 OA
ENDROOT
BRANCH   7  12
ATOM     12  O   UNL     1      19.237   0.712  12.257  1.00  0.00    -0.338 OA
BRANCH  12  13
ATOM     13  C   UNL     1      18.441  -0.383  12.707  1.00  0.00     0.282 C 
ATOM     14  C   UNL     1      19.291  -1.376  13.535  1.00  0.00     0.202 C 
ATOM     15  O   UNL     1      17.797  -1.053  11.628  1.00  0.00    -0.341 OA
ATOM     16  C   UNL     1      20.304  -2.104  12.641  1.00  0.00     0.179 C 
ATOM     17  C   UNL     1      18.719  -1.647  10.727  1.00  0.00     0.178 C 
ATOM     18  C   UNL     1      19.567  -2.731  11.444  1.00  0.00     0.177 C 
BRANCH  14  19
ATOM     19  O   UNL     1      19.935  -0.736  14.610  1.00  0.00    -0.385 OA
ATOM     20  H   UNL     1      20.222  -1.437  15.255  1.00  0.00     0.211 HD
ENDBRANCH  14  19
BRANCH  16  21
ATOM     21  O   UNL     1      20.960  -3.098  13.387  1.00  0.00    -0.387 OA
ATOM     22  H   UNL     1      20.539  -3.965  13.137  1.00  0.00     0.211 HD
ENDBRANCH  16  21
BRANCH  17  23
ATOM     23  C   UNL     1      17.914  -2.239   9.562  1.00  0.00     0.191 C 
BRANCH  23  24
ATOM     24  O   UNL     1      17.303  -3.443   9.944  1.00  0.00    -0.394 OA
ATOM     25  H   UNL     1      17.932  -3.882  10.575  1.00  0.00     0.210 HD
ENDBRANCH  23  24
ENDBRANCH  17  23
BRANCH  18  26
ATOM     26  O   UNL     1      20.485  -3.338  10.569  1.00  0.00    -0.387 OA
ATOM     27  H   UNL     1      19.981  -3.962   9.983  1.00  0.00     0.211 HD
ENDBRANCH  18  26
ENDBRANCH  12  13
ENDBRANCH   7  12
BRANCH   4  28
ATOM     28  O   UNL     1      17.425   5.614  13.182  1.00  0.00    -0.393 OA
ATOM     29  H   UNL     1      17.866   6.426  13.548  1.00  0.00     0.210 HD
ENDBRANCH   4  28
BRANCH   8  30
ATOM     30  C   UNL     1      21.356   2.481  13.099  1.00  0.00     0.255 C 
BRANCH  30  31
ATOM     31  O   UNL     1      21.828   1.246  13.643  1.00  0.00    -0.461 OA
BRANCH  31  32
ATOM     32  C   UNL     1      23.140   1.022  14.087  1.00  0.00     0.338 C 
ATOM     33  O   UNL     1      24.107   1.034  13.273  1.00  0.00    -0.246 OA
BRANCH  32  34
ATOM     34  C   UNL     1      23.381   0.783  15.524  1.00  0.00     0.060 A 
ATOM     35  C   UNL     1      23.534  -0.537  16.002  1.00  0.00     0.015 A 
ATOM     36  C   UNL     1      23.485   1.857  16.428  1.00  0.00     0.015 A 
ATOM     37  C   UNL     1      23.792  -0.772  17.352  1.00  0.00     0.001 A 
ATOM     38  C   UNL     1      23.763   1.616  17.775  1.00  0.00     0.001 A 
ATOM     39  C   UNL     1      23.908   0.302  18.240  1.00  0.00     0.000 A 
ENDBRANCH  32  34
ENDBRANCH  31  32
ENDBRANCH  30  31
ENDBRANCH   8  30
TORSDOF 12
ENDMDL
MODEL 6
REMARK VINA RESULT:    -5.497      3.618      7.315
REMARK INTER + INTRA:          -8.933
REMARK INTER:                  -7.912
REMARK INTRA:                  -1.021
REMARK UNBOUND:                -0.383
REMARK SMILES C[C@]12C[C@H](O)[C@@H]3C[C@@]1(O[C@H]1O[C@H](CO)[C@@H](O)[C@H](O)[C@H]1O)[C@]3(COC(=O)c1ccccc1)C(=O)O2
REMARK SMILES IDX 1 1 2 2 3 3 4 4 6 5 7 6 8 7 21 8 32 9 33 10 34 11 9 12 10 13
REMARK SMILES IDX 19 14 11 15 17 16 12 17 15 18 20 19 18 21 13 23 14 24 16 26
REMARK SMILES IDX 5 28 22 30 23 31 24 32 25 33 26 34 27 35 31 36 28 37 30 38
REMARK SMILES IDX 29 39
REMARK H PARENT 20 20 18 22 14 25 16 27 5 29
REMARK Flexibility Score: inf
ROOT
ATOM      1  C   UNL     1      17.111   0.366  14.264  1.00  0.00     0.060 C 
ATOM      2  C   UNL     1      18.418   1.126  14.504  1.00  0.00     0.142 C 
ATOM      3  C   UNL     1      18.131   2.620  14.895  1.00  0.00     0.083 C 
ATOM      4  C   UNL     1      19.451   3.479  14.881  1.00  0.00     0.123 C 
ATOM      5  C   UNL     1      20.491   2.883  13.866  1.00  0.00     0.045 C 
ATOM      6  C   UNL     1      19.709   2.449  12.621  1.00  0.00     0.049 C 
ATOM      7  C   UNL     1      19.507   1.091  13.329  1.00  0.00     0.131 C 
ATOM      8  C   UNL     1      20.773   1.379  14.167  1.00  0.00     0.140 C 
ATOM      9  C   UNL     1      20.431   0.846  15.520  1.00  0.00     0.319 C 
ATOM     10  O   UNL     1      21.246   0.691  16.471  1.00  0.00    -0.251 OA
ATOM     11  O   UNL     1      19.091   0.567  15.623  1.00  0.00    -0.456 OA
ENDROOT
BRANCH   7  12
ATOM     12  O   UNL     1      19.620  -0.093  12.543  1.00  0.00    -0.338 OA
BRANCH  12  13
ATOM     13  C   UNL     1      19.361   0.149  11.161  1.00  0.00     0.282 C 
ATOM     14  C   UNL     1      18.216  -0.758  10.650  1.00  0.00     0.202 C 
ATOM     15  O   UNL     1      20.527  -0.019  10.362  1.00  0.00    -0.341 OA
ATOM     16  C   UNL     1      18.661  -2.226  10.608  1.00  0.00     0.179 C 
ATOM     17  C   UNL     1      21.021  -1.350  10.391  1.00  0.00     0.178 C 
ATOM     18  C   UNL     1      19.973  -2.337   9.811  1.00  0.00     0.177 C 
BRANCH  14  19
ATOM     19  O   UNL     1      17.050  -0.606  11.424  1.00  0.00    -0.385 OA
ATOM     20  H   UNL     1      16.270  -0.817  10.844  1.00  0.00     0.211 HD
ENDBRANCH  14  19
BRANCH  16  21
ATOM     21  O   UNL     1      17.657  -3.005  10.008  1.00  0.00    -0.387 OA
ATOM     22  H   UNL     1      18.100  -3.832   9.675  1.00  0.00     0.211 HD
ENDBRANCH  16  21
BRANCH  17  23
ATOM     23  C   UNL     1      22.328  -1.378   9.587  1.00  0.00     0.191 C 
BRANCH  23  24
ATOM     24  O   UNL     1      23.144  -2.439  10.006  1.00  0.00    -0.394 OA
ATOM     25  H   UNL     1      23.454  -2.203  10.920  1.00  0.00     0.210 HD
ENDBRANCH  23  24
ENDBRANCH  17  23
BRANCH  18  26
ATOM     26  O   UNL     1      20.442  -3.662   9.824  1.00  0.00    -0.387 OA
ATOM     27  H   UNL     1      21.250  -3.706   9.248  1.00  0.00     0.211 HD
ENDBRANCH  18  26
ENDBRANCH  12  13
ENDBRANCH   7  12
BRANCH   4  28
ATOM     28  O   UNL     1      19.144   4.805  14.533  1.00  0.00    -0.393 OA
ATOM     29  H   UNL     1      18.323   5.045  15.038  1.00  0.00     0.210 HD
ENDBRANCH   4  28
BRANCH   8  30
ATOM     30  C   UNL     1      22.124   0.861  13.613  1.00  0.00     0.255 C 
BRANCH  30  31
ATOM     31  O   UNL     1      22.396  -0.447  14.122  1.00  0.00    -0.461 OA
BRANCH  31  32
ATOM     32  C   UNL     1      23.149  -1.421  13.450  1.00  0.00     0.338 C 
ATOM     33  O   UNL     1      24.018  -1.088  12.594  1.00  0.00    -0.246 OA
BRANCH  32  34
ATOM     34  C   UNL     1      22.923  -2.846  13.763  1.00  0.00     0.060 A 
ATOM     35  C   UNL     1      21.960  -3.582  13.038  1.00  0.00     0.015 A 
ATOM     36  C   UNL     1      23.672  -3.495  14.763  1.00  0.00     0.015 A 
ATOM     37  C   UNL     1      21.760  -4.936  13.305  1.00  0.00     0.001 A 
ATOM     38  C   UNL     1      23.481  -4.855  15.012  1.00  0.00     0.001 A 
ATOM     39  C   UNL     1      22.519  -5.574  14.290  1.00  0.00     0.000 A 
ENDBRANCH  32  34
ENDBRANCH  31  32
ENDBRANCH  30  31
ENDBRANCH   8  30
TORSDOF 12
ENDMDL
MODEL 7
REMARK VINA RESULT:    -5.481     11.787     14.495
REMARK INTER + INTRA:          -8.908
REMARK INTER:                  -8.469
REMARK INTRA:                  -0.438
REMARK UNBOUND:                -0.383
REMARK SMILES C[C@]12C[C@H](O)[C@@H]3C[C@@]1(O[C@H]1O[C@H](CO)[C@@H](O)[C@H](O)[C@H]1O)[C@]3(COC(=O)c1ccccc1)C(=O)O2
REMARK SMILES IDX 1 1 2 2 3 3 4 4 6 5 7 6 8 7 21 8 32 9 33 10 34 11 9 12 10 13
REMARK SMILES IDX 19 14 11 15 17 16 12 17 15 18 20 19 18 21 13 23 14 24 16 26
REMARK SMILES IDX 5 28 22 30 23 31 24 32 25 33 26 34 27 35 31 36 28 37 30 38
REMARK SMILES IDX 29 39
REMARK H PARENT 20 20 18 22 14 25 16 27 5 29
REMARK Flexibility Score: inf
ROOT
ATOM      1  C   UNL     1       4.471  -3.858  12.176  1.00  0.00     0.060 C 
ATOM      2  C   UNL     1       5.886  -4.374  12.456  1.00  0.00     0.142 C 
ATOM      3  C   UNL     1       6.015  -5.889  12.063  1.00  0.00     0.083 C 
ATOM      4  C   UNL     1       7.366  -6.503  12.590  1.00  0.00     0.123 C 
ATOM      5  C   UNL     1       7.855  -5.750  13.877  1.00  0.00     0.045 C 
ATOM      6  C   UNL     1       6.616  -5.479  14.739  1.00  0.00     0.049 C 
ATOM      7  C   UNL     1       6.456  -4.167  13.939  1.00  0.00     0.131 C 
ATOM      8  C   UNL     1       7.968  -4.216  13.623  1.00  0.00     0.140 C 
ATOM      9  C   UNL     1       8.051  -3.731  12.213  1.00  0.00     0.319 C 
ATOM     10  O   UNL     1       9.115  -3.421  11.609  1.00  0.00    -0.251 OA
ATOM     11  O   UNL     1       6.811  -3.689  11.625  1.00  0.00    -0.456 OA
ENDROOT
BRANCH   7  12
ATOM     12  O   UNL     1       6.077  -2.993  14.654  1.00  0.00    -0.338 OA
BRANCH  12  13
ATOM     13  C   UNL     1       4.713  -3.030  15.069  1.00  0.00     0.282 C 
ATOM     14  C   UNL     1       4.126  -1.601  15.158  1.00  0.00     0.202 C 
ATOM     15  O   UNL     1       4.549  -3.715  16.307  1.00  0.00    -0.341 OA
ATOM     16  C   UNL     1       4.760  -0.822  16.319  1.00  0.00     0.179 C 
ATOM     17  C   UNL     1       5.217  -3.069  17.380  1.00  0.00     0.178 C 
ATOM     18  C   UNL     1       4.638  -1.648  17.611  1.00  0.00     0.177 C 
BRANCH  14  19
ATOM     19  O   UNL     1       4.274  -0.904  13.944  1.00  0.00    -0.385 OA
ATOM     20  H   UNL     1       4.213   0.069  14.141  1.00  0.00     0.211 HD
ENDBRANCH  14  19
BRANCH  16  21
ATOM     21  O   UNL     1       4.111   0.416  16.465  1.00  0.00    -0.387 OA
ATOM     22  H   UNL     1       4.752   1.019  16.930  1.00  0.00     0.211 HD
ENDBRANCH  16  21
BRANCH  17  23
ATOM     23  C   UNL     1       5.059  -3.953  18.625  1.00  0.00     0.191 C 
BRANCH  23  24
ATOM     24  O   UNL     1       6.055  -3.662  19.568  1.00  0.00    -0.394 OA
ATOM     25  H   UNL     1       5.900  -2.722  19.850  1.00  0.00     0.210 HD
ENDBRANCH  23  24
ENDBRANCH  17  23
BRANCH  18  26
ATOM     26  O   UNL     1       5.280  -0.990  18.675  1.00  0.00    -0.387 OA
ATOM     27  H   UNL     1       6.258  -1.132  18.576  1.00  0.00     0.211 HD
ENDBRANCH  18  26
ENDBRANCH  12  13
ENDBRANCH   7  12
BRANCH   4  28
ATOM     28  O   UNL     1       7.183  -7.868  12.869  1.00  0.00    -0.393 OA
ATOM     29  H   UNL     1       7.205  -8.341  11.996  1.00  0.00     0.210 HD
ENDBRANCH   4  28
BRANCH   8  30
ATOM     30  C   UNL     1       8.920  -3.477  14.597  1.00  0.00     0.255 C 
BRANCH  30  31
ATOM     31  O   UNL     1      10.137  -4.213  14.748  1.00  0.00    -0.461 OA
BRANCH  31  32
ATOM     32  C   UNL     1      11.075  -3.998  15.770  1.00  0.00     0.338 C 
ATOM     33  O   UNL     1      12.274  -3.711  15.494  1.00  0.00    -0.246 OA
BRANCH  32  34
ATOM     34  C   UNL     1      10.639  -4.098  17.177  1.00  0.00     0.060 A 
ATOM     35  C   UNL     1      11.004  -5.225  17.947  1.00  0.00     0.015 A 
ATOM     36  C   UNL     1       9.882  -3.074  17.775  1.00  0.00     0.015 A 
ATOM     37  C   UNL     1      10.624  -5.315  19.286  1.00  0.00     0.001 A 
ATOM     38  C   UNL     1       9.521  -3.162  19.121  1.00  0.00     0.001 A 
ATOM     39  C   UNL     1       9.884  -4.285  19.875  1.00  0.00     0.000 A 
ENDBRANCH  32  34
ENDBRANCH  31  32
ENDBRANCH  30  31
ENDBRANCH   8  30
TORSDOF 12
ENDMDL
MODEL 8
REMARK VINA RESULT:    -5.434      3.457      6.635
REMARK INTER + INTRA:          -8.834
REMARK INTER:                  -8.251
REMARK INTRA:                  -0.583
REMARK UNBOUND:                -0.383
REMARK SMILES C[C@]12C[C@H](O)[C@@H]3C[C@@]1(O[C@H]1O[C@H](CO)[C@@H](O)[C@H](O)[C@H]1O)[C@]3(COC(=O)c1ccccc1)C(=O)O2
REMARK SMILES IDX 1 1 2 2 3 3 4 4 6 5 7 6 8 7 21 8 32 9 33 10 34 11 9 12 10 13
REMARK SMILES IDX 19 14 11 15 17 16 12 17 15 18 20 19 18 21 13 23 14 24 16 26
REMARK SMILES IDX 5 28 22 30 23 31 24 32 25 33 26 34 27 35 31 36 28 37 30 38
REMARK SMILES IDX 29 39
REMARK H PARENT 20 20 18 22 14 25 16 27 5 29
REMARK Flexibility Score: inf
ROOT
ATOM      1  C   UNL     1      22.021  -2.275   9.158  1.00  0.00     0.060 C 
ATOM      2  C   UNL     1      20.620  -1.713   9.418  1.00  0.00     0.142 C 
ATOM      3  C   UNL     1      20.158  -0.797   8.228  1.00  0.00     0.083 C 
ATOM      4  C   UNL     1      18.849  -0.001   8.596  1.00  0.00     0.123 C 
ATOM      5  C   UNL     1      18.757   0.233  10.146  1.00  0.00     0.045 C 
ATOM      6  C   UNL     1      20.168   0.585  10.633  1.00  0.00     0.049 C 
ATOM      7  C   UNL     1      20.393  -0.934  10.799  1.00  0.00     0.131 C 
ATOM      8  C   UNL     1      18.864  -1.112  10.926  1.00  0.00     0.140 C 
ATOM      9  C   UNL     1      18.594  -2.385  10.193  1.00  0.00     0.319 C 
ATOM     10  O   UNL     1      17.502  -3.019  10.208  1.00  0.00    -0.251 OA
ATOM     11  O   UNL     1      19.684  -2.779   9.458  1.00  0.00    -0.456 OA
ENDROOT
BRANCH   7  12
ATOM     12  O   UNL     1      21.102  -1.379  11.954  1.00  0.00    -0.338 OA
BRANCH  12  13
ATOM     13  C   UNL     1      22.480  -1.012  11.918  1.00  0.00     0.282 C 
ATOM     14  C   UNL     1      23.337  -2.021  12.720  1.00  0.00     0.202 C 
ATOM     15  O   UNL     1      22.692   0.313  12.393  1.00  0.00    -0.341 OA
ATOM     16  C   UNL     1      23.048  -1.909  14.223  1.00  0.00     0.179 C 
ATOM     17  C   UNL     1      22.331   0.469  13.756  1.00  0.00     0.178 C 
ATOM     18  C   UNL     1      23.202  -0.442  14.662  1.00  0.00     0.177 C 
BRANCH  14  19
ATOM     19  O   UNL     1      23.146  -3.339  12.266  1.00  0.00    -0.385 OA
ATOM     20  H   UNL     1      22.170  -3.476  12.131  1.00  0.00     0.211 HD
ENDBRANCH  14  19
BRANCH  16  21
ATOM     21  O   UNL     1      23.939  -2.730  14.936  1.00  0.00    -0.387 OA
ATOM     22  H   UNL     1      24.538  -3.151  14.262  1.00  0.00     0.211 HD
ENDBRANCH  16  21
BRANCH  17  23
ATOM     23  C   UNL     1      22.501   1.951  14.116  1.00  0.00     0.191 C 
BRANCH  23  24
ATOM     24  O   UNL     1      23.628   2.136  14.931  1.00  0.00    -0.394 OA
ATOM     25  H   UNL     1      23.650   3.104  15.154  1.00  0.00     0.210 HD
ENDBRANCH  23  24
ENDBRANCH  17  23
BRANCH  18  26
ATOM     26  O   UNL     1      22.866  -0.301  16.020  1.00  0.00    -0.387 OA
ATOM     27  H   UNL     1      22.970  -1.189  16.454  1.00  0.00     0.211 HD
ENDBRANCH  18  26
ENDBRANCH  12  13
ENDBRANCH   7  12
BRANCH   4  28
ATOM     28  O   UNL     1      18.845   1.231   7.921  1.00  0.00    -0.393 OA
ATOM     29  H   UNL     1      19.605   1.755   8.285  1.00  0.00     0.210 HD
ENDBRANCH   4  28
BRANCH   8  30
ATOM     30  C   UNL     1      18.261  -1.070  12.353  1.00  0.00     0.255 C 
BRANCH  30  31
ATOM     31  O   UNL     1      17.042  -0.324  12.350  1.00  0.00    -0.461 OA
BRANCH  31  32
ATOM     32  C   UNL     1      16.544   0.390  13.451  1.00  0.00     0.338 C 
ATOM     33  O   UNL     1      15.379   0.171  13.889  1.00  0.00    -0.246 OA
BRANCH  32  34
ATOM     34  C   UNL     1      17.406   1.398  14.102  1.00  0.00     0.060 A 
ATOM     35  C   UNL     1      17.216   2.770  13.825  1.00  0.00     0.015 A 
ATOM     36  C   UNL     1      18.403   1.013  15.018  1.00  0.00     0.015 A 
ATOM     37  C   UNL     1      18.004   3.731  14.458  1.00  0.00     0.001 A 
ATOM     38  C   UNL     1      19.176   1.982  15.662  1.00  0.00     0.001 A 
ATOM     39  C   UNL     1      18.982   3.340  15.377  1.00  0.00     0.000 A 
ENDBRANCH  32  34
ENDBRANCH  31  32
ENDBRANCH  30  31
ENDBRANCH   8  30
TORSDOF 12
ENDMDL
MODEL 9
REMARK VINA RESULT:    -5.314     11.607     13.785
REMARK INTER + INTRA:          -8.648
REMARK INTER:                  -8.027
REMARK INTRA:                  -0.621
REMARK UNBOUND:                -0.383
REMARK SMILES C[C@]12C[C@H](O)[C@@H]3C[C@@]1(O[C@H]1O[C@H](CO)[C@@H](O)[C@H](O)[C@H]1O)[C@]3(COC(=O)c1ccccc1)C(=O)O2
REMARK SMILES IDX 1 1 2 2 3 3 4 4 6 5 7 6 8 7 21 8 32 9 33 10 34 11 9 12 10 13
REMARK SMILES IDX 19 14 11 15 17 16 12 17 15 18 20 19 18 21 13 23 14 24 16 26
REMARK SMILES IDX 5 28 22 30 23 31 24 32 25 33 26 34 27 35 31 36 28 37 30 38
REMARK SMILES IDX 29 39
REMARK H PARENT 20 20 18 22 14 25 16 27 5 29
REMARK Flexibility Score: inf
ROOT
ATOM      1  C   UNL     1       5.663  -3.121  17.654  1.00  0.00     0.060 C 
ATOM      2  C   UNL     1       7.013  -3.770  17.336  1.00  0.00     0.142 C 
ATOM      3  C   UNL     1       7.889  -3.899  18.634  1.00  0.00     0.083 C 
ATOM      4  C   UNL     1       9.370  -4.310  18.285  1.00  0.00     0.123 C 
ATOM      5  C   UNL     1       9.761  -3.813  16.849  1.00  0.00     0.045 C 
ATOM      6  C   UNL     1       9.176  -2.406  16.683  1.00  0.00     0.049 C 
ATOM      7  C   UNL     1       7.890  -3.097  16.177  1.00  0.00     0.131 C 
ATOM      8  C   UNL     1       8.745  -4.321  15.781  1.00  0.00     0.140 C 
ATOM      9  C   UNL     1       7.875  -5.486  16.122  1.00  0.00     0.319 C 
ATOM     10  O   UNL     1       8.091  -6.683  15.784  1.00  0.00    -0.251 OA
ATOM     11  O   UNL     1       6.803  -5.101  16.890  1.00  0.00    -0.456 OA
ENDROOT
BRANCH   7  12
ATOM     12  O   UNL     1       7.213  -2.511  15.067  1.00  0.00    -0.338 OA
BRANCH  12  13
ATOM     13  C   UNL     1       5.816  -2.349  15.310  1.00  0.00     0.282 C 
ATOM     14  C   UNL     1       4.983  -3.145  14.277  1.00  0.00     0.202 C 
ATOM     15  O   UNL     1       5.430  -0.978  15.314  1.00  0.00    -0.341 OA
ATOM     16  C   UNL     1       5.108  -2.522  12.880  1.00  0.00     0.179 C 
ATOM     17  C   UNL     1       5.635  -0.351  14.058  1.00  0.00     0.178 C 
ATOM     18  C   UNL     1       4.769  -1.024  12.960  1.00  0.00     0.177 C 
BRANCH  14  19
ATOM     19  O   UNL     1       5.346  -4.505  14.257  1.00  0.00    -0.385 OA
ATOM     20  H   UNL     1       5.092  -4.901  15.134  1.00  0.00     0.211 HD
ENDBRANCH  14  19
BRANCH  16  21
ATOM     21  O   UNL     1       4.233  -3.175  11.994  1.00  0.00    -0.387 OA
ATOM     22  H   UNL     1       3.768  -3.880  12.522  1.00  0.00     0.211 HD
ENDBRANCH  16  21
BRANCH  17  23
ATOM     23  C   UNL     1       5.287   1.136  14.219  1.00  0.00     0.191 C 
BRANCH  23  24
ATOM     24  O   UNL     1       5.781   1.880  13.137  1.00  0.00    -0.394 OA
ATOM     25  H   UNL     1       5.138   1.742  12.392  1.00  0.00     0.210 HD
ENDBRANCH  23  24
ENDBRANCH  17  23
BRANCH  18  26
ATOM     26  O   UNL     1       4.951  -0.414  11.705  1.00  0.00    -0.387 OA
ATOM     27  H   UNL     1       5.583  -0.974  11.183  1.00  0.00     0.211 HD
ENDBRANCH  18  26
ENDBRANCH  12  13
ENDBRANCH   7  12
BRANCH   4  28
ATOM     28  O   UNL     1      10.244  -3.765  19.240  1.00  0.00    -0.393 OA
ATOM     29  H   UNL     1      11.058  -4.333  19.234  1.00  0.00     0.210 HD
ENDBRANCH   4  28
BRANCH   8  30
ATOM     30  C   UNL     1       9.305  -4.358  14.336  1.00  0.00     0.255 C 
BRANCH  30  31
ATOM     31  O   UNL     1       8.247  -4.599  13.405  1.00  0.00    -0.461 OA
BRANCH  31  32
ATOM     32  C   UNL     1       8.275  -4.219  12.054  1.00  0.00     0.338 C 
ATOM     33  O   UNL     1       9.075  -3.327  11.652  1.00  0.00    -0.246 OA
BRANCH  32  34
ATOM     34  C   UNL     1       7.361  -4.883  11.103  1.00  0.00     0.060 A 
ATOM     35  C   UNL     1       6.946  -4.203   9.937  1.00  0.00     0.015 A 
ATOM     36  C   UNL     1       6.914  -6.198  11.327  1.00  0.00     0.015 A 
ATOM     37  C   UNL     1       6.108  -4.832   9.016  1.00  0.00     0.001 A 
ATOM     38  C   UNL     1       6.091  -6.829  10.392  1.00  0.00     0.001 A 
ATOM     39  C   UNL     1       5.681  -6.145   9.241  1.00  0.00     0.000 A 
ENDBRANCH  32  34
ENDBRANCH  31  32
ENDBRANCH  30  31
ENDBRANCH   8  30
TORSDOF 12
ENDMDL
