MODEL 1
REMARK VINA RESULT:    -4.642      0.000      0.000
REMARK INTER + INTRA:          -4.642
REMARK INTER:                  -4.642
REMARK INTRA:                   0.000
REMARK UNBOUND:                 0.000
REMARK SMILES CC1=CC(=O)[C@@H]2C[C@H]1C2(C)C
REMARK SMILES IDX 1 1 2 2 3 3 4 4 5 5 6 6 7 7 8 8 9 9 10 10 11 11
REMARK H PARENT
REMARK Flexibility Score: inf
ROOT
ATOM      1  C   UNL     1     -65.746 -77.650 222.869  1.00  0.00     0.040 C 
ATOM      2  C   UNL     1     -64.316 -77.365 222.539  1.00  0.00    -0.066 C 
ATOM      3  C   UNL     1     -63.299 -77.931 223.247  1.00  0.00     0.047 C 
ATOM      4  C   UNL     1     -61.910 -77.592 222.799  1.00  0.00     0.159 C 
ATOM      5  O   UNL     1     -60.888 -78.082 223.347  1.00  0.00    -0.295 OA
ATOM      6  C   UNL     1     -61.821 -76.608 221.631  1.00  0.00     0.067 C 
ATOM      7  C   UNL     1     -62.826 -75.495 221.998  1.00  0.00     0.021 C 
ATOM      8  C   UNL     1     -63.921 -76.404 221.398  1.00  0.00     0.022 C 
ATOM      9  C   UNL     1     -62.814 -77.064 220.525  1.00  0.00    -0.019 C 
ATOM     10  C   UNL     1     -62.592 -76.313 219.187  1.00  0.00     0.012 C 
ATOM     11  C   UNL     1     -62.931 -78.584 220.216  1.00  0.00     0.012 C 
ENDROOT
TORSDOF 0
ENDMDL
MODEL 2
REMARK VINA RESULT:    -4.601      1.757      2.444
REMARK INTER + INTRA:          -4.601
REMARK INTER:                  -4.601
REMARK INTRA:                   0.000
REMARK UNBOUND:                 0.000
REMARK SMILES CC1=CC(=O)[C@@H]2C[C@H]1C2(C)C
REMARK SMILES IDX 1 1 2 2 3 3 4 4 5 5 6 6 7 7 8 8 9 9 10 10 11 11
REMARK H PARENT
REMARK Flexibility Score: inf
ROOT
ATOM      1  C   UNL     1     -65.320 -79.206 221.915  1.00  0.00     0.040 C 
ATOM      2  C   UNL     1     -64.471 -77.990 221.723  1.00  0.00    -0.066 C 
ATOM      3  C   UNL     1     -64.714 -76.840 222.413  1.00  0.00     0.047 C 
ATOM      4  C   UNL     1     -63.774 -75.702 222.156  1.00  0.00     0.159 C 
ATOM      5  O   UNL     1     -63.869 -74.601 222.760  1.00  0.00    -0.295 OA
ATOM      6  C   UNL     1     -62.692 -75.970 221.109  1.00  0.00     0.067 C 
ATOM      7  C   UNL     1     -63.451 -76.644 219.946  1.00  0.00     0.021 C 
ATOM      8  C   UNL     1     -63.295 -77.968 220.725  1.00  0.00     0.022 C 
ATOM      9  C   UNL     1     -62.042 -77.350 221.413  1.00  0.00    -0.019 C 
ATOM     10  C   UNL     1     -60.746 -77.584 220.596  1.00  0.00     0.012 C 
ATOM     11  C   UNL     1     -61.758 -77.725 222.895  1.00  0.00     0.012 C 
ENDROOT
TORSDOF 0
ENDMDL
MODEL 3
REMARK VINA RESULT:    -4.514      1.880      3.119
REMARK INTER + INTRA:          -4.514
REMARK INTER:                  -4.514
REMARK INTRA:                   0.000
REMARK UNBOUND:                 0.000
REMARK SMILES CC1=CC(=O)[C@@H]2C[C@H]1C2(C)C
REMARK SMILES IDX 1 1 2 2 3 3 4 4 5 5 6 6 7 7 8 8 9 9 10 10 11 11
REMARK H PARENT
REMARK Flexibility Score: inf
ROOT
ATOM      1  C   UNL     1     -61.719 -79.288 223.304  1.00  0.00     0.040 C 
ATOM      2  C   UNL     1     -62.295 -78.445 222.212  1.00  0.00    -0.066 C 
ATOM      3  C   UNL     1     -62.958 -79.003 221.161  1.00  0.00     0.047 C 
ATOM      4  C   UNL     1     -63.517 -78.051 220.148  1.00  0.00     0.159 C 
ATOM      5  O   UNL     1     -64.183 -78.441 219.153  1.00  0.00    -0.295 OA
ATOM      6  C   UNL     1     -63.221 -76.573 220.406  1.00  0.00     0.067 C 
ATOM      7  C   UNL     1     -61.720 -76.546 220.771  1.00  0.00     0.021 C 
ATOM      8  C   UNL     1     -62.152 -76.909 222.209  1.00  0.00     0.022 C 
ATOM      9  C   UNL     1     -63.533 -76.260 221.898  1.00  0.00    -0.019 C 
ATOM     10  C   UNL     1     -63.548 -74.738 222.190  1.00  0.00     0.012 C 
ATOM     11  C   UNL     1     -64.802 -76.892 222.537  1.00  0.00     0.012 C 
ENDROOT
TORSDOF 0
ENDMDL
MODEL 4
REMARK VINA RESULT:    -4.474     10.610     11.622
REMARK INTER + INTRA:          -4.474
REMARK INTER:                  -4.474
REMARK INTRA:                   0.000
REMARK UNBOUND:                 0.000
REMARK SMILES CC1=CC(=O)[C@@H]2C[C@H]1C2(C)C
REMARK SMILES IDX 1 1 2 2 3 3 4 4 5 5 6 6 7 7 8 8 9 9 10 10 11 11
REMARK H PARENT
REMARK Flexibility Score: inf
ROOT
ATOM      1  C   UNL     1     -74.749 -74.754 216.361  1.00  0.00     0.040 C 
ATOM      2  C   UNL     1     -73.414 -74.414 215.780  1.00  0.00    -0.066 C 
ATOM      3  C   UNL     1     -73.127 -73.153 215.352  1.00  0.00     0.047 C 
ATOM      4  C   UNL     1     -71.744 -72.932 214.819  1.00  0.00     0.159 C 
ATOM      5  O   UNL     1     -71.345 -71.802 214.431  1.00  0.00    -0.295 OA
ATOM      6  C   UNL     1     -70.851 -74.173 214.780  1.00  0.00     0.067 C 
ATOM      7  C   UNL     1     -71.759 -75.272 214.186  1.00  0.00     0.021 C 
ATOM      8  C   UNL     1     -72.304 -75.474 215.617  1.00  0.00     0.022 C 
ATOM      9  C   UNL     1     -70.958 -74.901 216.150  1.00  0.00    -0.019 C 
ATOM     10  C   UNL     1     -69.876 -75.999 216.320  1.00  0.00     0.012 C 
ATOM     11  C   UNL     1     -70.987 -74.041 217.445  1.00  0.00     0.012 C 
ENDROOT
TORSDOF 0
ENDMDL
MODEL 5
REMARK VINA RESULT:    -4.470      1.765      3.379
REMARK INTER + INTRA:          -4.470
REMARK INTER:                  -4.470
REMARK INTRA:                   0.000
REMARK UNBOUND:                 0.000
REMARK SMILES CC1=CC(=O)[C@@H]2C[C@H]1C2(C)C
REMARK SMILES IDX 1 1 2 2 3 3 4 4 5 5 6 6 7 7 8 8 9 9 10 10 11 11
REMARK H PARENT
REMARK Flexibility Score: inf
ROOT
ATOM      1  C   UNL     1     -63.546 -74.458 222.257  1.00  0.00     0.040 C 
ATOM      2  C   UNL     1     -63.608 -75.907 221.892  1.00  0.00    -0.066 C 
ATOM      3  C   UNL     1     -63.461 -76.319 220.601  1.00  0.00     0.047 C 
ATOM      4  C   UNL     1     -63.511 -77.798 220.368  1.00  0.00     0.159 C 
ATOM      5  O   UNL     1     -63.350 -78.305 219.227  1.00  0.00    -0.295 OA
ATOM      6  C   UNL     1     -63.772 -78.649 221.612  1.00  0.00     0.067 C 
ATOM      7  C   UNL     1     -64.932 -77.924 222.329  1.00  0.00     0.021 C 
ATOM      8  C   UNL     1     -63.859 -77.002 222.949  1.00  0.00     0.022 C 
ATOM      9  C   UNL     1     -62.834 -78.158 222.751  1.00  0.00    -0.019 C 
ATOM     10  C   UNL     1     -62.807 -79.134 223.955  1.00  0.00     0.012 C 
ATOM     11  C   UNL     1     -61.367 -77.786 222.394  1.00  0.00     0.012 C 
ENDROOT
TORSDOF 0
ENDMDL
MODEL 6
REMARK VINA RESULT:    -4.382     10.492     11.523
REMARK INTER + INTRA:          -4.382
REMARK INTER:                  -4.382
REMARK INTRA:                   0.000
REMARK UNBOUND:                 0.000
REMARK SMILES CC1=CC(=O)[C@@H]2C[C@H]1C2(C)C
REMARK SMILES IDX 1 1 2 2 3 3 4 4 5 5 6 6 7 7 8 8 9 9 10 10 11 11
REMARK H PARENT
REMARK Flexibility Score: inf
ROOT
ATOM      1  C   UNL     1     -71.304 -71.938 214.328  1.00  0.00     0.040 C 
ATOM      2  C   UNL     1     -71.695 -73.166 215.086  1.00  0.00    -0.066 C 
ATOM      3  C   UNL     1     -73.003 -73.466 215.322  1.00  0.00     0.047 C 
ATOM      4  C   UNL     1     -73.267 -74.741 216.065  1.00  0.00     0.159 C 
ATOM      5  O   UNL     1     -74.433 -75.147 216.310  1.00  0.00    -0.295 OA
ATOM      6  C   UNL     1     -72.022 -75.513 216.503  1.00  0.00     0.067 C 
ATOM      7  C   UNL     1     -71.096 -74.430 217.100  1.00  0.00     0.021 C 
ATOM      8  C   UNL     1     -70.642 -74.142 215.652  1.00  0.00     0.022 C 
ATOM      9  C   UNL     1     -71.046 -75.603 215.296  1.00  0.00    -0.019 C 
ATOM     10  C   UNL     1     -69.893 -76.610 215.543  1.00  0.00     0.012 C 
ATOM     11  C   UNL     1     -71.638 -75.878 213.884  1.00  0.00     0.012 C 
ENDROOT
TORSDOF 0
ENDMDL
MODEL 7
REMARK VINA RESULT:    -4.381      1.199      2.176
REMARK INTER + INTRA:          -4.381
REMARK INTER:                  -4.381
REMARK INTRA:                   0.000
REMARK UNBOUND:                 0.000
REMARK SMILES CC1=CC(=O)[C@@H]2C[C@H]1C2(C)C
REMARK SMILES IDX 1 1 2 2 3 3 4 4 5 5 6 6 7 7 8 8 9 9 10 10 11 11
REMARK H PARENT
REMARK Flexibility Score: inf
ROOT
ATOM      1  C   UNL     1     -64.942 -79.295 220.456  1.00  0.00     0.040 C 
ATOM      2  C   UNL     1     -63.836 -78.540 221.121  1.00  0.00    -0.066 C 
ATOM      3  C   UNL     1     -62.541 -78.954 221.031  1.00  0.00     0.047 C 
ATOM      4  C   UNL     1     -61.521 -78.096 221.715  1.00  0.00     0.159 C 
ATOM      5  O   UNL     1     -60.289 -78.351 221.671  1.00  0.00    -0.295 OA
ATOM      6  C   UNL     1     -62.081 -76.889 222.470  1.00  0.00     0.067 C 
ATOM      7  C   UNL     1     -63.285 -77.458 223.252  1.00  0.00     0.021 C 
ATOM      8  C   UNL     1     -64.105 -77.271 221.956  1.00  0.00     0.022 C 
ATOM      9  C   UNL     1     -63.096 -76.158 221.546  1.00  0.00    -0.019 C 
ATOM     10  C   UNL     1     -63.498 -74.766 222.098  1.00  0.00     0.012 C 
ATOM     11  C   UNL     1     -62.747 -76.001 220.039  1.00  0.00     0.012 C 
ENDROOT
TORSDOF 0
ENDMDL
MODEL 8
REMARK VINA RESULT:    -4.319     10.497     11.598
REMARK INTER + INTRA:          -4.319
REMARK INTER:                  -4.319
REMARK INTRA:                   0.000
REMARK UNBOUND:                 0.000
REMARK SMILES CC1=CC(=O)[C@@H]2C[C@H]1C2(C)C
REMARK SMILES IDX 1 1 2 2 3 3 4 4 5 5 6 6 7 7 8 8 9 9 10 10 11 11
REMARK H PARENT
REMARK Flexibility Score: inf
ROOT
ATOM      1  C   UNL     1     -71.009 -76.623 213.112  1.00  0.00     0.040 C 
ATOM      2  C   UNL     1     -71.365 -75.865 214.350  1.00  0.00    -0.066 C 
ATOM      3  C   UNL     1     -70.429 -75.571 215.295  1.00  0.00     0.047 C 
ATOM      4  C   UNL     1     -70.903 -74.779 216.475  1.00  0.00     0.159 C 
ATOM      5  O   UNL     1     -70.126 -74.412 217.396  1.00  0.00    -0.295 OA
ATOM      6  C   UNL     1     -72.397 -74.449 216.484  1.00  0.00     0.067 C 
ATOM      7  C   UNL     1     -73.080 -75.780 216.101  1.00  0.00     0.021 C 
ATOM      8  C   UNL     1     -72.808 -75.396 214.629  1.00  0.00     0.022 C 
ATOM      9  C   UNL     1     -72.791 -73.906 215.081  1.00  0.00    -0.019 C 
ATOM     10  C   UNL     1     -74.204 -73.270 215.071  1.00  0.00     0.012 C 
ATOM     11  C   UNL     1     -71.813 -72.932 214.363  1.00  0.00     0.012 C 
ENDROOT
TORSDOF 0
ENDMDL
MODEL 9
REMARK VINA RESULT:    -4.314     10.466     11.442
REMARK INTER + INTRA:          -4.314
REMARK INTER:                  -4.314
REMARK INTRA:                   0.000
REMARK UNBOUND:                 0.000
REMARK SMILES CC1=CC(=O)[C@@H]2C[C@H]1C2(C)C
REMARK SMILES IDX 1 1 2 2 3 3 4 4 5 5 6 6 7 7 8 8 9 9 10 10 11 11
REMARK H PARENT
REMARK Flexibility Score: inf
ROOT
ATOM      1  C   UNL     1     -71.924 -75.279 218.547  1.00  0.00     0.040 C 
ATOM      2  C   UNL     1     -71.863 -75.194 217.056  1.00  0.00    -0.066 C 
ATOM      3  C   UNL     1     -72.474 -76.123 216.268  1.00  0.00     0.047 C 
ATOM      4  C   UNL     1     -72.367 -75.911 214.788  1.00  0.00     0.159 C 
ATOM      5  O   UNL     1     -72.921 -76.677 213.957  1.00  0.00    -0.295 OA
ATOM      6  C   UNL     1     -71.538 -74.699 214.359  1.00  0.00     0.067 C 
ATOM      7  C   UNL     1     -70.271 -74.778 215.238  1.00  0.00     0.021 C 
ATOM      8  C   UNL     1     -71.093 -74.068 216.336  1.00  0.00     0.022 C 
ATOM      9  C   UNL     1     -71.982 -73.472 215.205  1.00  0.00    -0.019 C 
ATOM     10  C   UNL     1     -71.418 -72.139 214.652  1.00  0.00     0.012 C 
ATOM     11  C   UNL     1     -73.499 -73.278 215.489  1.00  0.00     0.012 C 
ENDROOT
TORSDOF 0
ENDMDL
