MODEL 1
REMARK VINA RESULT:    -5.973      0.000      0.000
REMARK INTER + INTRA:          -7.656
REMARK INTER:                  -7.369
REMARK INTRA:                  -0.287
REMARK UNBOUND:                -0.287
REMARK SMILES O=c1c(O)c(-c2cc(O)c(O)c(O)c2)oc2cc(O)cc(O)c12
REMARK SMILES IDX 5 1 3 2 2 3 1 4 23 5 21 6 20 7 18 8 17 9 16 10 15 11 6 12
REMARK SMILES IDX 7 13 8 14 14 15 10 16 12 17 9 18 11 20 13 22 4 24 22 26
REMARK SMILES IDX 19 28
REMARK H PARENT 9 19 11 21 13 23 4 25 22 27 19 29
REMARK Flexibility Score: inf
ROOT
ATOM      1  C   UNL     1       2.715  37.210 -18.784  1.00  0.00     0.180 A 
ATOM      2  C   UNL     1       1.507  37.771 -19.234  1.00  0.00     0.208 A 
ATOM      3  C   UNL     1       0.317  37.043 -19.075  1.00  0.00     0.238 A 
ATOM      4  O   UNL     1      -0.748  37.518 -19.547  1.00  0.00    -0.285 OA
ATOM      5  C   UNL     1       0.340  35.789 -18.418  1.00  0.00     0.111 A 
ATOM      6  C   UNL     1      -0.812  34.985 -18.161  1.00  0.00     0.134 A 
ATOM      7  C   UNL     1      -0.654  33.712 -17.599  1.00  0.00     0.093 A 
ATOM      8  C   UNL     1       0.606  33.241 -17.224  1.00  0.00     0.123 A 
ATOM      9  C   UNL     1       1.729  34.039 -17.419  1.00  0.00     0.094 A 
ATOM     10  C   UNL     1       1.609  35.298 -18.014  1.00  0.00     0.146 A 
ATOM     11  O   UNL     1       2.710  36.017 -18.201  1.00  0.00    -0.452 OA
ENDROOT
BRANCH   1  12
ATOM     12  C   UNL     1       4.011  37.910 -18.930  1.00  0.00     0.029 A 
ATOM     13  C   UNL     1       4.905  37.506 -19.932  1.00  0.00     0.062 A 
ATOM     14  C   UNL     1       6.129  38.158 -20.113  1.00  0.00     0.162 A 
ATOM     15  C   UNL     1       4.343  39.009 -18.125  1.00  0.00     0.062 A 
ATOM     16  C   UNL     1       6.468  39.253 -19.281  1.00  0.00     0.200 A 
ATOM     17  C   UNL     1       5.561  39.674 -18.292  1.00  0.00     0.162 A 
BRANCH  14  18
ATOM     18  O   UNL     1       6.971  37.690 -21.125  1.00  0.00    -0.504 OA
ATOM     19  H   UNL     1       6.742  36.929 -21.745  1.00  0.00     0.293 HD
ENDBRANCH  14  18
BRANCH  16  20
ATOM     20  O   UNL     1       7.679  39.940 -19.409  1.00  0.00    -0.502 OA
ATOM     21  H   UNL     1       8.244  39.941 -20.245  1.00  0.00     0.293 HD
ENDBRANCH  16  20
BRANCH  17  22
ATOM     22  O   UNL     1       5.850  40.758 -17.463  1.00  0.00    -0.504 OA
ATOM     23  H   UNL     1       5.296  41.607 -17.467  1.00  0.00     0.293 HD
ENDBRANCH  17  22
ENDBRANCH   1  12
BRANCH   2  24
ATOM     24  O   UNL     1       1.495  39.044 -19.811  1.00  0.00    -0.502 OA
ATOM     25  H   UNL     1       2.308  39.648 -19.813  1.00  0.00     0.293 HD
ENDBRANCH   2  24
BRANCH   6  26
ATOM     26  O   UNL     1      -2.125  35.394 -18.415  1.00  0.00    -0.507 OA
ATOM     27  H   UNL     1      -2.952  34.896 -18.121  1.00  0.00     0.293 HD
ENDBRANCH   6  26
BRANCH   8  28
ATOM     28  O   UNL     1       0.751  31.980 -16.649  1.00  0.00    -0.508 OA
ATOM     29  H   UNL     1      -0.005  31.540 -16.138  1.00  0.00     0.293 HD
ENDBRANCH   8  28
TORSDOF 7
ENDMDL
MODEL 2
REMARK VINA RESULT:    -5.890      1.683      6.933
REMARK INTER + INTRA:          -7.555
REMARK INTER:                  -7.585
REMARK INTRA:                   0.030
REMARK UNBOUND:                -0.287
REMARK SMILES O=c1c(O)c(-c2cc(O)c(O)c(O)c2)oc2cc(O)cc(O)c12
REMARK SMILES IDX 5 1 3 2 2 3 1 4 23 5 21 6 20 7 18 8 17 9 16 10 15 11 6 12
REMARK SMILES IDX 7 13 8 14 14 15 10 16 12 17 9 18 11 20 13 22 4 24 22 26
REMARK SMILES IDX 19 28
REMARK H PARENT 9 19 11 21 13 23 4 25 22 27 19 29
REMARK Flexibility Score: inf
ROOT
ATOM      1  C   UNL     1       2.603  38.037 -18.314  1.00  0.00     0.180 A 
ATOM      2  C   UNL     1       1.943  39.273 -18.210  1.00  0.00     0.208 A 
ATOM      3  C   UNL     1       2.679  40.455 -18.395  1.00  0.00     0.238 A 
ATOM      4  O   UNL     1       2.098  41.559 -18.226  1.00  0.00    -0.285 OA
ATOM      5  C   UNL     1       4.051  40.386 -18.738  1.00  0.00     0.111 A 
ATOM      6  C   UNL     1       4.883  41.518 -18.992  1.00  0.00     0.134 A 
ATOM      7  C   UNL     1       6.253  41.332 -19.218  1.00  0.00     0.093 A 
ATOM      8  C   UNL     1       6.808  40.052 -19.262  1.00  0.00     0.123 A 
ATOM      9  C   UNL     1       5.995  38.938 -19.069  1.00  0.00     0.094 A 
ATOM     10  C   UNL     1       4.632  39.093 -18.804  1.00  0.00     0.146 A 
ATOM     11  O   UNL     1       3.898  38.004 -18.605  1.00  0.00    -0.452 OA
ENDROOT
BRANCH   1  12
ATOM     12  C   UNL     1       1.899  36.749 -18.119  1.00  0.00     0.029 A 
ATOM     13  C   UNL     1       0.694  36.513 -18.796  1.00  0.00     0.062 A 
ATOM     14  C   UNL     1       0.011  35.299 -18.652  1.00  0.00     0.162 A 
ATOM     15  C   UNL     1       2.440  35.735 -17.317  1.00  0.00     0.062 A 
ATOM     16  C   UNL     1       0.552  34.288 -17.822  1.00  0.00     0.200 A 
ATOM     17  C   UNL     1       1.773  34.516 -17.162  1.00  0.00     0.162 A 
BRANCH  14  18
ATOM     18  O   UNL     1      -1.188  35.143 -19.349  1.00  0.00    -0.504 OA
ATOM     19  H   UNL     1      -1.436  35.665 -20.176  1.00  0.00     0.293 HD
ENDBRANCH  14  18
BRANCH  16  20
ATOM     20  O   UNL     1      -0.086  33.059 -17.633  1.00  0.00    -0.502 OA
ATOM     21  H   UNL     1       0.390  32.205 -17.384  1.00  0.00     0.293 HD
ENDBRANCH  16  20
BRANCH  17  22
ATOM     22  O   UNL     1       2.346  33.538 -16.348  1.00  0.00    -0.504 OA
ATOM     23  H   UNL     1       2.895  32.773 -16.725  1.00  0.00     0.293 HD
ENDBRANCH  17  22
ENDBRANCH   1  12
BRANCH   2  24
ATOM     24  O   UNL     1       0.571  39.319 -17.947  1.00  0.00    -0.502 OA
ATOM     25  H   UNL     1       0.175  39.002 -17.071  1.00  0.00     0.293 HD
ENDBRANCH   2  24
BRANCH   6  26
ATOM     26  O   UNL     1       4.416  42.834 -19.059  1.00  0.00    -0.507 OA
ATOM     27  H   UNL     1       4.971  43.632 -19.332  1.00  0.00     0.293 HD
ENDBRANCH   6  26
BRANCH   8  28
ATOM     28  O   UNL     1       8.168  39.874 -19.504  1.00  0.00    -0.508 OA
ATOM     29  H   UNL     1       8.630  38.993 -19.312  1.00  0.00     0.293 HD
ENDBRANCH   8  28
TORSDOF 7
ENDMDL
MODEL 3
REMARK VINA RESULT:    -5.887      1.691      6.945
REMARK INTER + INTRA:          -7.551
REMARK INTER:                  -7.578
REMARK INTRA:                   0.027
REMARK UNBOUND:                -0.287
REMARK SMILES O=c1c(O)c(-c2cc(O)c(O)c(O)c2)oc2cc(O)cc(O)c12
REMARK SMILES IDX 5 1 3 2 2 3 1 4 23 5 21 6 20 7 18 8 17 9 16 10 15 11 6 12
REMARK SMILES IDX 7 13 8 14 14 15 10 16 12 17 9 18 11 20 13 22 4 24 22 26
REMARK SMILES IDX 19 28
REMARK H PARENT 9 19 11 21 13 23 4 25 22 27 19 29
REMARK Flexibility Score: inf
ROOT
ATOM      1  C   UNL     1       2.502  38.010 -18.338  1.00  0.00     0.180 A 
ATOM      2  C   UNL     1       1.824  39.233 -18.202  1.00  0.00     0.208 A 
ATOM      3  C   UNL     1       2.540  40.430 -18.363  1.00  0.00     0.238 A 
ATOM      4  O   UNL     1       1.944  41.521 -18.166  1.00  0.00    -0.285 OA
ATOM      5  C   UNL     1       3.912  40.391 -18.714  1.00  0.00     0.111 A 
ATOM      6  C   UNL     1       4.725  41.541 -18.946  1.00  0.00     0.134 A 
ATOM      7  C   UNL     1       6.096  41.381 -19.182  1.00  0.00     0.093 A 
ATOM      8  C   UNL     1       6.671  40.111 -19.258  1.00  0.00     0.123 A 
ATOM      9  C   UNL     1       5.876  38.981 -19.087  1.00  0.00     0.094 A 
ATOM     10  C   UNL     1       4.512  39.108 -18.812  1.00  0.00     0.146 A 
ATOM     11  O   UNL     1       3.797  38.004 -18.635  1.00  0.00    -0.452 OA
ENDROOT
BRANCH   1  12
ATOM     12  C   UNL     1       1.819  36.707 -18.169  1.00  0.00     0.029 A 
ATOM     13  C   UNL     1       2.386  35.735 -17.333  1.00  0.00     0.062 A 
ATOM     14  C   UNL     1       1.757  34.501 -17.132  1.00  0.00     0.162 A 
ATOM     15  C   UNL     1       0.585  36.445 -18.780  1.00  0.00     0.062 A 
ATOM     16  C   UNL     1       0.523  34.233 -17.771  1.00  0.00     0.200 A 
ATOM     17  C   UNL     1      -0.058  35.218 -18.591  1.00  0.00     0.162 A 
BRANCH  14  18
ATOM     18  O   UNL     1       2.390  33.579 -16.295  1.00  0.00    -0.504 OA
ATOM     19  H   UNL     1       2.687  32.660 -16.585  1.00  0.00     0.293 HD
ENDBRANCH  14  18
BRANCH  16  20
ATOM     20  O   UNL     1      -0.149  33.017 -17.615  1.00  0.00    -0.502 OA
ATOM     21  H   UNL     1      -0.721  32.784 -16.817  1.00  0.00     0.293 HD
ENDBRANCH  16  20
BRANCH  17  22
ATOM     22  O   UNL     1      -1.281  34.999 -19.224  1.00  0.00    -0.504 OA
ATOM     23  H   UNL     1      -1.573  35.528 -20.038  1.00  0.00     0.293 HD
ENDBRANCH  17  22
ENDBRANCH   1  12
BRANCH   2  24
ATOM     24  O   UNL     1       0.453  39.251 -17.932  1.00  0.00    -0.502 OA
ATOM     25  H   UNL     1      -0.034  40.092 -17.644  1.00  0.00     0.293 HD
ENDBRANCH   2  24
BRANCH   6  26
ATOM     26  O   UNL     1       4.237  42.851 -18.980  1.00  0.00    -0.507 OA
ATOM     27  H   UNL     1       4.200  43.433 -19.804  1.00  0.00     0.293 HD
ENDBRANCH   6  26
BRANCH   8  28
ATOM     28  O   UNL     1       8.033  39.961 -19.510  1.00  0.00    -0.508 OA
ATOM     29  H   UNL     1       8.375  39.663 -20.417  1.00  0.00     0.293 HD
ENDBRANCH   8  28
TORSDOF 7
ENDMDL
MODEL 4
REMARK VINA RESULT:    -5.883      3.480      7.808
REMARK INTER + INTRA:          -7.546
REMARK INTER:                  -7.199
REMARK INTRA:                  -0.347
REMARK UNBOUND:                -0.287
REMARK SMILES O=c1c(O)c(-c2cc(O)c(O)c(O)c2)oc2cc(O)cc(O)c12
REMARK SMILES IDX 5 1 3 2 2 3 1 4 23 5 21 6 20 7 18 8 17 9 16 10 15 11 6 12
REMARK SMILES IDX 7 13 8 14 14 15 10 16 12 17 9 18 11 20 13 22 4 24 22 26
REMARK SMILES IDX 19 28
REMARK H PARENT 9 19 11 21 13 23 4 25 22 27 19 29
REMARK Flexibility Score: inf
ROOT
ATOM      1  C   UNL     1       0.583  33.555 -17.741  1.00  0.00     0.180 A 
ATOM      2  C   UNL     1       1.607  34.277 -17.104  1.00  0.00     0.208 A 
ATOM      3  C   UNL     1       1.700  35.661 -17.320  1.00  0.00     0.238 A 
ATOM      4  O   UNL     1       2.663  36.288 -16.807  1.00  0.00    -0.285 OA
ATOM      5  C   UNL     1       0.736  36.317 -18.124  1.00  0.00     0.111 A 
ATOM      6  C   UNL     1       0.706  37.722 -18.375  1.00  0.00     0.134 A 
ATOM      7  C   UNL     1      -0.233  38.243 -19.274  1.00  0.00     0.093 A 
ATOM      8  C   UNL     1      -1.184  37.420 -19.881  1.00  0.00     0.123 A 
ATOM      9  C   UNL     1      -1.198  36.057 -19.600  1.00  0.00     0.094 A 
ATOM     10  C   UNL     1      -0.250  35.500 -18.738  1.00  0.00     0.146 A 
ATOM     11  O   UNL     1      -0.287  34.192 -18.516  1.00  0.00    -0.452 OA
ENDROOT
BRANCH   1  12
ATOM     12  C   UNL     1       0.429  32.092 -17.574  1.00  0.00     0.029 A 
ATOM     13  C   UNL     1      -0.553  31.598 -16.704  1.00  0.00     0.062 A 
ATOM     14  C   UNL     1      -0.742  30.221 -16.537  1.00  0.00     0.162 A 
ATOM     15  C   UNL     1       1.204  31.187 -18.311  1.00  0.00     0.062 A 
ATOM     16  C   UNL     1       0.060  29.312 -17.267  1.00  0.00     0.200 A 
ATOM     17  C   UNL     1       1.029  29.809 -18.158  1.00  0.00     0.162 A 
BRANCH  14  18
ATOM     18  O   UNL     1      -1.732  29.806 -15.644  1.00  0.00    -0.504 OA
ATOM     19  H   UNL     1      -1.626  29.803 -14.641  1.00  0.00     0.293 HD
ENDBRANCH  14  18
BRANCH  16  20
ATOM     20  O   UNL     1      -0.076  27.927 -17.137  1.00  0.00    -0.502 OA
ATOM     21  H   UNL     1      -0.606  27.475 -16.407  1.00  0.00     0.293 HD
ENDBRANCH  16  20
BRANCH  17  22
ATOM     22  O   UNL     1       1.828  28.945 -18.908  1.00  0.00    -0.504 OA
ATOM     23  H   UNL     1       2.752  29.206 -19.233  1.00  0.00     0.293 HD
ENDBRANCH  17  22
ENDBRANCH   1  12
BRANCH   2  24
ATOM     24  O   UNL     1       2.503  33.624 -16.253  1.00  0.00    -0.502 OA
ATOM     25  H   UNL     1       2.639  33.904 -15.289  1.00  0.00     0.293 HD
ENDBRANCH   2  24
BRANCH   6  26
ATOM     26  O   UNL     1       1.553  38.646 -17.756  1.00  0.00    -0.507 OA
ATOM     27  H   UNL     1       1.826  39.534 -18.149  1.00  0.00     0.293 HD
ENDBRANCH   6  26
BRANCH   8  28
ATOM     28  O   UNL     1      -2.125  37.950 -20.760  1.00  0.00    -0.508 OA
ATOM     29  H   UNL     1      -2.841  38.595 -20.446  1.00  0.00     0.293 HD
ENDBRANCH   8  28
TORSDOF 7
ENDMDL
MODEL 5
REMARK VINA RESULT:    -5.672      1.743      7.522
REMARK INTER + INTRA:          -7.285
REMARK INTER:                  -7.156
REMARK INTRA:                  -0.130
REMARK UNBOUND:                -0.287
REMARK SMILES O=c1c(O)c(-c2cc(O)c(O)c(O)c2)oc2cc(O)cc(O)c12
REMARK SMILES IDX 5 1 3 2 2 3 1 4 23 5 21 6 20 7 18 8 17 9 16 10 15 11 6 12
REMARK SMILES IDX 7 13 8 14 14 15 10 16 12 17 9 18 11 20 13 22 4 24 22 26
REMARK SMILES IDX 19 28
REMARK H PARENT 9 19 11 21 13 23 4 25 22 27 19 29
REMARK Flexibility Score: inf
ROOT
ATOM      1  C   UNL     1       3.835  38.395 -18.874  1.00  0.00     0.180 A 
ATOM      2  C   UNL     1       4.678  37.774 -19.812  1.00  0.00     0.208 A 
ATOM      3  C   UNL     1       5.840  38.442 -20.230  1.00  0.00     0.238 A 
ATOM      4  O   UNL     1       6.550  37.913 -21.125  1.00  0.00    -0.285 OA
ATOM      5  C   UNL     1       6.175  39.696 -19.665  1.00  0.00     0.111 A 
ATOM      6  C   UNL     1       7.351  40.442 -19.981  1.00  0.00     0.134 A 
ATOM      7  C   UNL     1       7.524  41.722 -19.439  1.00  0.00     0.093 A 
ATOM      8  C   UNL     1       6.597  42.255 -18.542  1.00  0.00     0.123 A 
ATOM      9  C   UNL     1       5.474  41.514 -18.184  1.00  0.00     0.094 A 
ATOM     10  C   UNL     1       5.253  40.250 -18.738  1.00  0.00     0.146 A 
ATOM     11  O   UNL     1       4.158  39.587 -18.386  1.00  0.00    -0.452 OA
ENDROOT
BRANCH   1  12
ATOM     12  C   UNL     1       2.586  37.761 -18.396  1.00  0.00     0.029 A 
ATOM     13  C   UNL     1       2.650  36.530 -17.728  1.00  0.00     0.062 A 
ATOM     14  C   UNL     1       1.492  35.911 -17.243  1.00  0.00     0.162 A 
ATOM     15  C   UNL     1       1.342  38.392 -18.543  1.00  0.00     0.062 A 
ATOM     16  C   UNL     1       0.237  36.542 -17.416  1.00  0.00     0.200 A 
ATOM     17  C   UNL     1       0.176  37.789 -18.064  1.00  0.00     0.162 A 
BRANCH  14  18
ATOM     18  O   UNL     1       1.636  34.680 -16.599  1.00  0.00    -0.504 OA
ATOM     19  H   UNL     1       0.883  34.188 -16.142  1.00  0.00     0.293 HD
ENDBRANCH  14  18
BRANCH  16  20
ATOM     20  O   UNL     1      -0.954  35.971 -16.959  1.00  0.00    -0.502 OA
ATOM     21  H   UNL     1      -1.503  36.337 -16.196  1.00  0.00     0.293 HD
ENDBRANCH  16  20
BRANCH  17  22
ATOM     22  O   UNL     1      -1.040  38.452 -18.239  1.00  0.00    -0.504 OA
ATOM     23  H   UNL     1      -1.580  38.376 -19.093  1.00  0.00     0.293 HD
ENDBRANCH  17  22
ENDBRANCH   1  12
BRANCH   2  24
ATOM     24  O   UNL     1       4.369  36.501 -20.301  1.00  0.00    -0.502 OA
ATOM     25  H   UNL     1       4.228  35.705 -19.692  1.00  0.00     0.293 HD
ENDBRANCH   2  24
BRANCH   6  26
ATOM     26  O   UNL     1       8.384  39.968 -20.796  1.00  0.00    -0.507 OA
ATOM     27  H   UNL     1       8.426  39.042 -21.196  1.00  0.00     0.293 HD
ENDBRANCH   6  26
BRANCH   8  28
ATOM     28  O   UNL     1       6.785  43.522 -17.994  1.00  0.00    -0.508 OA
ATOM     29  H   UNL     1       7.315  43.657 -17.140  1.00  0.00     0.293 HD
ENDBRANCH   8  28
TORSDOF 7
ENDMDL
MODEL 6
REMARK VINA RESULT:    -5.605      2.175      7.297
REMARK INTER + INTRA:          -7.203
REMARK INTER:                  -7.274
REMARK INTRA:                   0.072
REMARK UNBOUND:                -0.287
REMARK SMILES O=c1c(O)c(-c2cc(O)c(O)c(O)c2)oc2cc(O)cc(O)c12
REMARK SMILES IDX 5 1 3 2 2 3 1 4 23 5 21 6 20 7 18 8 17 9 16 10 15 11 6 12
REMARK SMILES IDX 7 13 8 14 14 15 10 16 12 17 9 18 11 20 13 22 4 24 22 26
REMARK SMILES IDX 19 28
REMARK H PARENT 9 19 11 21 13 23 4 25 22 27 19 29
REMARK Flexibility Score: inf
ROOT
ATOM      1  C   UNL     1       2.931  38.037 -18.337  1.00  0.00     0.180 A 
ATOM      2  C   UNL     1       4.319  37.980 -18.554  1.00  0.00     0.208 A 
ATOM      3  C   UNL     1       5.035  39.180 -18.697  1.00  0.00     0.238 A 
ATOM      4  O   UNL     1       6.263  39.121 -18.966  1.00  0.00    -0.285 OA
ATOM      5  C   UNL     1       4.366  40.421 -18.566  1.00  0.00     0.111 A 
ATOM      6  C   UNL     1       4.999  41.698 -18.649  1.00  0.00     0.134 A 
ATOM      7  C   UNL     1       4.217  42.860 -18.611  1.00  0.00     0.093 A 
ATOM      8  C   UNL     1       2.835  42.793 -18.428  1.00  0.00     0.123 A 
ATOM      9  C   UNL     1       2.214  41.554 -18.292  1.00  0.00     0.094 A 
ATOM     10  C   UNL     1       2.961  40.375 -18.364  1.00  0.00     0.146 A 
ATOM     11  O   UNL     1       2.326  39.215 -18.251  1.00  0.00    -0.452 OA
ENDROOT
BRANCH   1  12
ATOM     12  C   UNL     1       2.107  36.816 -18.189  1.00  0.00     0.029 A 
ATOM     13  C   UNL     1       2.549  35.783 -17.351  1.00  0.00     0.062 A 
ATOM     14  C   UNL     1       1.786  34.623 -17.170  1.00  0.00     0.162 A 
ATOM     15  C   UNL     1       0.863  36.693 -18.824  1.00  0.00     0.062 A 
ATOM     16  C   UNL     1       0.542  34.495 -17.833  1.00  0.00     0.200 A 
ATOM     17  C   UNL     1       0.087  35.543 -18.655  1.00  0.00     0.162 A 
BRANCH  14  18
ATOM     18  O   UNL     1       2.299  33.634 -16.328  1.00  0.00    -0.504 OA
ATOM     19  H   UNL     1       2.912  32.893 -16.632  1.00  0.00     0.293 HD
ENDBRANCH  14  18
BRANCH  16  20
ATOM     20  O   UNL     1      -0.261  33.359 -17.698  1.00  0.00    -0.502 OA
ATOM     21  H   UNL     1      -0.194  32.705 -16.933  1.00  0.00     0.293 HD
ENDBRANCH  16  20
BRANCH  17  22
ATOM     22  O   UNL     1      -1.141  35.461 -19.312  1.00  0.00    -0.504 OA
ATOM     23  H   UNL     1      -1.576  34.575 -19.542  1.00  0.00     0.293 HD
ENDBRANCH  17  22
ENDBRANCH   1  12
BRANCH   2  24
ATOM     24  O   UNL     1       4.974  36.747 -18.603  1.00  0.00    -0.502 OA
ATOM     25  H   UNL     1       5.116  36.241 -19.469  1.00  0.00     0.293 HD
ENDBRANCH   2  24
BRANCH   6  26
ATOM     26  O   UNL     1       6.381  41.883 -18.744  1.00  0.00    -0.507 OA
ATOM     27  H   UNL     1       6.915  42.543 -18.198  1.00  0.00     0.293 HD
ENDBRANCH   6  26
BRANCH   8  28
ATOM     28  O   UNL     1       2.067  43.954 -18.374  1.00  0.00    -0.508 OA
ATOM     29  H   UNL     1       2.091  44.640 -19.119  1.00  0.00     0.293 HD
ENDBRANCH   8  28
TORSDOF 7
ENDMDL
MODEL 7
REMARK VINA RESULT:    -5.603      3.611      7.824
REMARK INTER + INTRA:          -7.200
REMARK INTER:                  -6.865
REMARK INTRA:                  -0.336
REMARK UNBOUND:                -0.287
REMARK SMILES O=c1c(O)c(-c2cc(O)c(O)c(O)c2)oc2cc(O)cc(O)c12
REMARK SMILES IDX 5 1 3 2 2 3 1 4 23 5 21 6 20 7 18 8 17 9 16 10 15 11 6 12
REMARK SMILES IDX 7 13 8 14 14 15 10 16 12 17 9 18 11 20 13 22 4 24 22 26
REMARK SMILES IDX 19 28
REMARK H PARENT 9 19 11 21 13 23 4 25 22 27 19 29
REMARK Flexibility Score: inf
ROOT
ATOM      1  C   UNL     1       1.121  31.454 -17.603  1.00  0.00     0.180 A 
ATOM      2  C   UNL     1      -0.281  31.551 -17.566  1.00  0.00     0.208 A 
ATOM      3  C   UNL     1      -0.872  32.813 -17.400  1.00  0.00     0.238 A 
ATOM      4  O   UNL     1      -2.124  32.883 -17.293  1.00  0.00    -0.285 OA
ATOM      5  C   UNL     1      -0.058  33.970 -17.330  1.00  0.00     0.111 A 
ATOM      6  C   UNL     1      -0.551  35.304 -17.207  1.00  0.00     0.134 A 
ATOM      7  C   UNL     1       0.353  36.361 -17.038  1.00  0.00     0.093 A 
ATOM      8  C   UNL     1       1.731  36.140 -17.053  1.00  0.00     0.123 A 
ATOM      9  C   UNL     1       2.223  34.850 -17.227  1.00  0.00     0.094 A 
ATOM     10  C   UNL     1       1.347  33.769 -17.359  1.00  0.00     0.146 A 
ATOM     11  O   UNL     1       1.859  32.552 -17.501  1.00  0.00    -0.452 OA
ENDROOT
BRANCH   1  12
ATOM     12  C   UNL     1       1.817  30.157 -17.761  1.00  0.00     0.029 A 
ATOM     13  C   UNL     1       1.973  29.610 -19.043  1.00  0.00     0.062 A 
ATOM     14  C   UNL     1       2.645  28.397 -19.233  1.00  0.00     0.162 A 
ATOM     15  C   UNL     1       2.376  29.489 -16.663  1.00  0.00     0.062 A 
ATOM     16  C   UNL     1       3.187  27.716 -18.116  1.00  0.00     0.200 A 
ATOM     17  C   UNL     1       3.051  28.277 -16.833  1.00  0.00     0.162 A 
BRANCH  14  18
ATOM     18  O   UNL     1       2.750  27.911 -20.538  1.00  0.00    -0.504 OA
ATOM     19  H   UNL     1       2.629  28.476 -21.365  1.00  0.00     0.293 HD
ENDBRANCH  14  18
BRANCH  16  20
ATOM     20  O   UNL     1       3.861  26.498 -18.242  1.00  0.00    -0.502 OA
ATOM     21  H   UNL     1       3.599  25.768 -18.887  1.00  0.00     0.293 HD
ENDBRANCH  16  20
BRANCH  17  22
ATOM     22  O   UNL     1       3.586  27.645 -15.710  1.00  0.00    -0.504 OA
ATOM     23  H   UNL     1       4.131  26.793 -15.776  1.00  0.00     0.293 HD
ENDBRANCH  17  22
ENDBRANCH   1  12
BRANCH   2  24
ATOM     24  O   UNL     1      -1.070  30.406 -17.715  1.00  0.00    -0.502 OA
ATOM     25  H   UNL     1      -0.815  29.647 -18.336  1.00  0.00     0.293 HD
ENDBRANCH   2  24
BRANCH   6  26
ATOM     26  O   UNL     1      -1.905  35.648 -17.267  1.00  0.00    -0.507 OA
ATOM     27  H   UNL     1      -2.474  35.612 -18.100  1.00  0.00     0.293 HD
ENDBRANCH   6  26
BRANCH   8  28
ATOM     28  O   UNL     1       2.623  37.200 -16.901  1.00  0.00    -0.508 OA
ATOM     29  H   UNL     1       3.411  37.322 -17.526  1.00  0.00     0.293 HD
ENDBRANCH   8  28
TORSDOF 7
ENDMDL
MODEL 8
REMARK VINA RESULT:    -5.583      0.781      1.927
REMARK INTER + INTRA:          -7.175
REMARK INTER:                  -7.124
REMARK INTRA:                  -0.051
REMARK UNBOUND:                -0.287
REMARK SMILES O=c1c(O)c(-c2cc(O)c(O)c(O)c2)oc2cc(O)cc(O)c12
REMARK SMILES IDX 5 1 3 2 2 3 1 4 23 5 21 6 20 7 18 8 17 9 16 10 15 11 6 12
REMARK SMILES IDX 7 13 8 14 14 15 10 16 12 17 9 18 11 20 13 22 4 24 22 26
REMARK SMILES IDX 19 28
REMARK H PARENT 9 19 11 21 13 23 4 25 22 27 19 29
REMARK Flexibility Score: inf
ROOT
ATOM      1  C   UNL     1       2.726  37.767 -18.538  1.00  0.00     0.180 A 
ATOM      2  C   UNL     1       1.529  38.504 -18.531  1.00  0.00     0.208 A 
ATOM      3  C   UNL     1       0.327  37.847 -18.224  1.00  0.00     0.238 A 
ATOM      4  O   UNL     1      -0.749  38.497 -18.293  1.00  0.00    -0.285 OA
ATOM      5  C   UNL     1       0.341  36.476 -17.873  1.00  0.00     0.111 A 
ATOM      6  C   UNL     1      -0.812  35.720 -17.501  1.00  0.00     0.134 A 
ATOM      7  C   UNL     1      -0.692  34.342 -17.279  1.00  0.00     0.093 A 
ATOM      8  C   UNL     1       0.549  33.706 -17.350  1.00  0.00     0.123 A 
ATOM      9  C   UNL     1       1.688  34.444 -17.659  1.00  0.00     0.094 A 
ATOM     10  C   UNL     1       1.595  35.813 -17.925  1.00  0.00     0.146 A 
ATOM     11  O   UNL     1       2.704  36.474 -18.236  1.00  0.00    -0.452 OA
ENDROOT
BRANCH   1  12
ATOM     12  C   UNL     1       4.030  38.385 -18.864  1.00  0.00     0.029 A 
ATOM     13  C   UNL     1       4.462  39.507 -18.142  1.00  0.00     0.062 A 
ATOM     14  C   UNL     1       5.699  40.105 -18.408  1.00  0.00     0.162 A 
ATOM     15  C   UNL     1       4.874  37.839 -19.843  1.00  0.00     0.062 A 
ATOM     16  C   UNL     1       6.535  39.562 -19.413  1.00  0.00     0.200 A 
ATOM     17  C   UNL     1       6.113  38.423 -20.122  1.00  0.00     0.162 A 
BRANCH  14  18
ATOM     18  O   UNL     1       6.054  41.225 -17.654  1.00  0.00    -0.504 OA
ATOM     19  H   UNL     1       6.539  41.183 -16.770  1.00  0.00     0.293 HD
ENDBRANCH  14  18
BRANCH  16  20
ATOM     20  O   UNL     1       7.778  40.119 -19.730  1.00  0.00    -0.502 OA
ATOM     21  H   UNL     1       7.929  40.782 -20.476  1.00  0.00     0.293 HD
ENDBRANCH  16  20
BRANCH  17  22
ATOM     22  O   UNL     1       6.915  37.849 -21.108  1.00  0.00    -0.504 OA
ATOM     23  H   UNL     1       6.528  37.330 -21.888  1.00  0.00     0.293 HD
ENDBRANCH  17  22
ENDBRANCH   1  12
BRANCH   2  24
ATOM     24  O   UNL     1       1.546  39.875 -18.805  1.00  0.00    -0.502 OA
ATOM     25  H   UNL     1       0.757  40.356 -19.219  1.00  0.00     0.293 HD
ENDBRANCH   2  24
BRANCH   6  26
ATOM     26  O   UNL     1      -2.083  36.271 -17.314  1.00  0.00    -0.507 OA
ATOM     27  H   UNL     1      -2.268  37.164 -16.881  1.00  0.00     0.293 HD
ENDBRANCH   6  26
BRANCH   8  28
ATOM     28  O   UNL     1       0.662  32.339 -17.111  1.00  0.00    -0.508 OA
ATOM     29  H   UNL     1       0.144  31.886 -16.365  1.00  0.00     0.293 HD
ENDBRANCH   8  28
TORSDOF 7
ENDMDL
MODEL 9
REMARK VINA RESULT:    -5.464      2.530      7.051
REMARK INTER + INTRA:          -7.029
REMARK INTER:                  -6.788
REMARK INTRA:                  -0.241
REMARK UNBOUND:                -0.287
REMARK SMILES O=c1c(O)c(-c2cc(O)c(O)c(O)c2)oc2cc(O)cc(O)c12
REMARK SMILES IDX 5 1 3 2 2 3 1 4 23 5 21 6 20 7 18 8 17 9 16 10 15 11 6 12
REMARK SMILES IDX 7 13 8 14 14 15 10 16 12 17 9 18 11 20 13 22 4 24 22 26
REMARK SMILES IDX 19 28
REMARK H PARENT 9 19 11 21 13 23 4 25 22 27 19 29
REMARK Flexibility Score: inf
ROOT
ATOM      1  C   UNL     1       2.121  37.903 -18.672  1.00  0.00     0.180 A 
ATOM      2  C   UNL     1       3.219  38.013 -19.542  1.00  0.00     0.208 A 
ATOM      3  C   UNL     1       3.684  39.290 -19.894  1.00  0.00     0.238 A 
ATOM      4  O   UNL     1       4.619  39.381 -20.731  1.00  0.00    -0.285 OA
ATOM      5  C   UNL     1       3.083  40.440 -19.328  1.00  0.00     0.111 A 
ATOM      6  C   UNL     1       3.502  41.782 -19.578  1.00  0.00     0.134 A 
ATOM      7  C   UNL     1       2.763  42.847 -19.046  1.00  0.00     0.093 A 
ATOM      8  C   UNL     1       1.661  42.617 -18.221  1.00  0.00     0.123 A 
ATOM      9  C   UNL     1       1.277  41.312 -17.926  1.00  0.00     0.094 A 
ATOM     10  C   UNL     1       1.970  40.229 -18.473  1.00  0.00     0.146 A 
ATOM     11  O   UNL     1       1.556  39.001 -18.183  1.00  0.00    -0.452 OA
ENDROOT
BRANCH   1  12
ATOM     12  C   UNL     1       1.564  36.592 -18.267  1.00  0.00     0.029 A 
ATOM     13  C   UNL     1       0.317  36.189 -18.764  1.00  0.00     0.062 A 
ATOM     14  C   UNL     1      -0.230  34.947 -18.421  1.00  0.00     0.162 A 
ATOM     15  C   UNL     1       2.284  35.716 -17.442  1.00  0.00     0.062 A 
ATOM     16  C   UNL     1       0.492  34.078 -17.568  1.00  0.00     0.200 A 
ATOM     17  C   UNL     1       1.754  34.473 -17.088  1.00  0.00     0.162 A 
BRANCH  14  18
ATOM     18  O   UNL     1      -1.482  34.622 -18.947  1.00  0.00    -0.504 OA
ATOM     19  H   UNL     1      -1.966  35.172 -19.640  1.00  0.00     0.293 HD
ENDBRANCH  14  18
BRANCH  16  20
ATOM     20  O   UNL     1      -0.005  32.829 -17.183  1.00  0.00    -0.502 OA
ATOM     21  H   UNL     1      -0.693  32.307 -17.705  1.00  0.00     0.293 HD
ENDBRANCH  16  20
BRANCH  17  22
ATOM     22  O   UNL     1       2.504  33.637 -16.259  1.00  0.00    -0.504 OA
ATOM     23  H   UNL     1       3.145  32.943 -16.626  1.00  0.00     0.293 HD
ENDBRANCH  17  22
ENDBRANCH   1  12
BRANCH   2  24
ATOM     24  O   UNL     1       3.848  36.863 -20.030  1.00  0.00    -0.502 OA
ATOM     25  H   UNL     1       3.512  35.931 -19.823  1.00  0.00     0.293 HD
ENDBRANCH   2  24
BRANCH   6  26
ATOM     26  O   UNL     1       4.640  42.123 -20.315  1.00  0.00    -0.507 OA
ATOM     27  H   UNL     1       4.944  41.658 -21.158  1.00  0.00     0.293 HD
ENDBRANCH   6  26
BRANCH   8  28
ATOM     28  O   UNL     1       0.942  43.682 -17.682  1.00  0.00    -0.508 OA
ATOM     29  H   UNL     1       1.381  44.575 -17.490  1.00  0.00     0.293 HD
ENDBRANCH   8  28
TORSDOF 7
ENDMDL
