MODEL 1
REMARK VINA RESULT:    -1.984      0.000      0.000
REMARK INTER + INTRA:          -2.278
REMARK INTER:                  -2.389
REMARK INTRA:                   0.112
REMARK UNBOUND:                 0.112
REMARK SMILES O=c1ccn([C@H]2O[C@@H](CO)[C@H](O)[C@@H]2O)c(=O)[nH]1
REMARK SMILES IDX 6 1 13 2 11 3 8 4 7 5 5 6 3 7 4 8 2 9 17 10 1 11 15 12 16 14
REMARK SMILES IDX 14 15 12 17 9 19 10 20
REMARK H PARENT 17 13 14 16 12 18 10 21
REMARK Flexibility Score: inf
ROOT
ATOM      1  C   UNL     1      35.402 -18.474 -29.085  1.00  0.00     0.255 C 
ATOM      2  C   UNL     1      35.669 -17.130 -29.744  1.00  0.00     0.196 C 
ATOM      3  C   UNL     1      37.145 -17.217 -30.070  1.00  0.00     0.179 C 
ATOM      4  C   UNL     1      37.410 -18.733 -30.130  1.00  0.00     0.178 C 
ATOM      5  O   UNL     1      36.275 -19.427 -29.650  1.00  0.00    -0.347 OA
ENDROOT
BRANCH   1   6
ATOM      6  N   UNL     1      33.992 -18.883 -29.252  1.00  0.00    -0.271 N 
ATOM      7  C   UNL     1      31.762 -18.952 -28.368  1.00  0.00     0.090 A 
ATOM      8  C   UNL     1      33.105 -18.605 -28.248  1.00  0.00     0.099 A 
ATOM      9  C   UNL     1      31.338 -19.579 -29.534  1.00  0.00     0.253 A 
ATOM     10  N   UNL     1      32.229 -19.833 -30.527  1.00  0.00    -0.274 N 
ATOM     11  O   UNL     1      30.128 -19.907 -29.669  1.00  0.00    -0.269 OA
ATOM     12  C   UNL     1      33.541 -19.488 -30.403  1.00  0.00     0.330 A 
ATOM     13  H   UNL     1      31.900 -20.298 -31.405  1.00  0.00     0.175 HD
ATOM     14  O   UNL     1      34.330 -19.726 -31.357  1.00  0.00    -0.248 OA
ENDBRANCH   1   6
BRANCH   2  15
ATOM     15  O   UNL     1      35.368 -16.072 -28.871  1.00  0.00    -0.386 OA
ATOM     16  H   UNL     1      35.517 -16.418 -27.952  1.00  0.00     0.211 HD
ENDBRANCH   2  15
BRANCH   3  17
ATOM     17  O   UNL     1      37.946 -16.595 -29.090  1.00  0.00    -0.387 OA
ATOM     18  H   UNL     1      37.611 -15.669 -28.957  1.00  0.00     0.211 HD
ENDBRANCH   3  17
BRANCH   4  19
ATOM     19  C   UNL     1      37.720 -19.195 -31.558  1.00  0.00     0.191 C 
BRANCH  19  20
ATOM     20  O   UNL     1      37.073 -18.358 -32.477  1.00  0.00    -0.394 OA
ATOM     21  H   UNL     1      37.702 -18.245 -33.235  1.00  0.00     0.210 HD
ENDBRANCH  19  20
ENDBRANCH   4  19
TORSDOF 5
ENDMDL
MODEL 2
REMARK VINA RESULT:    -1.952      0.935      1.587
REMARK INTER + INTRA:          -2.240
REMARK INTER:                  -1.796
REMARK INTRA:                  -0.444
REMARK UNBOUND:                 0.112
REMARK SMILES O=c1ccn([C@H]2O[C@@H](CO)[C@H](O)[C@@H]2O)c(=O)[nH]1
REMARK SMILES IDX 6 1 13 2 11 3 8 4 7 5 5 6 3 7 4 8 2 9 17 10 1 11 15 12 16 14
REMARK SMILES IDX 14 15 12 17 9 19 10 20
REMARK H PARENT 17 13 14 16 12 18 10 21
REMARK Flexibility Score: inf
ROOT
ATOM      1  C   UNL     1      35.420 -18.363 -29.163  1.00  0.00     0.255 C 
ATOM      2  C   UNL     1      35.768 -17.076 -29.893  1.00  0.00     0.196 C 
ATOM      3  C   UNL     1      37.247 -17.249 -30.167  1.00  0.00     0.179 C 
ATOM      4  C   UNL     1      37.442 -18.777 -30.127  1.00  0.00     0.178 C 
ATOM      5  O   UNL     1      36.262 -19.387 -29.642  1.00  0.00    -0.347 OA
ENDROOT
BRANCH   1   6
ATOM      6  N   UNL     1      33.996 -18.717 -29.350  1.00  0.00    -0.271 N 
ATOM      7  C   UNL     1      32.350 -20.051 -30.475  1.00  0.00     0.090 A 
ATOM      8  C   UNL     1      33.674 -19.669 -30.277  1.00  0.00     0.099 A 
ATOM      9  C   UNL     1      31.362 -19.452 -29.702  1.00  0.00     0.253 A 
ATOM     10  N   UNL     1      31.702 -18.519 -28.775  1.00  0.00    -0.274 N 
ATOM     11  O   UNL     1      30.154 -19.777 -29.861  1.00  0.00    -0.269 OA
ATOM     12  C   UNL     1      33.000 -18.154 -28.586  1.00  0.00     0.330 A 
ATOM     13  H   UNL     1      30.953 -18.079 -28.192  1.00  0.00     0.175 HD
ATOM     14  O   UNL     1      33.272 -17.298 -27.701  1.00  0.00    -0.248 OA
ENDBRANCH   1   6
BRANCH   2  15
ATOM     15  O   UNL     1      35.493 -15.954 -29.095  1.00  0.00    -0.386 OA
ATOM     16  H   UNL     1      35.493 -16.273 -28.155  1.00  0.00     0.211 HD
ENDBRANCH   2  15
BRANCH   3  17
ATOM     17  O   UNL     1      38.048 -16.606 -29.201  1.00  0.00    -0.387 OA
ATOM     18  H   UNL     1      38.643 -15.963 -29.669  1.00  0.00     0.211 HD
ENDBRANCH   3  17
BRANCH   4  19
ATOM     19  C   UNL     1      37.770 -19.339 -31.514  1.00  0.00     0.191 C 
BRANCH  19  20
ATOM     20  O   UNL     1      37.257 -18.490 -32.503  1.00  0.00    -0.394 OA
ATOM     21  H   UNL     1      38.027 -17.961 -32.838  1.00  0.00     0.210 HD
ENDBRANCH  19  20
ENDBRANCH   4  19
TORSDOF 5
ENDMDL
MODEL 3
REMARK VINA RESULT:    -1.734      1.253      2.199
REMARK INTER + INTRA:          -1.977
REMARK INTER:                  -1.532
REMARK INTRA:                  -0.445
REMARK UNBOUND:                 0.112
REMARK SMILES O=c1ccn([C@H]2O[C@@H](CO)[C@H](O)[C@@H]2O)c(=O)[nH]1
REMARK SMILES IDX 6 1 13 2 11 3 8 4 7 5 5 6 3 7 4 8 2 9 17 10 1 11 15 12 16 14
REMARK SMILES IDX 14 15 12 17 9 19 10 20
REMARK H PARENT 17 13 14 16 12 18 10 21
REMARK Flexibility Score: inf
ROOT
ATOM      1  C   UNL     1      35.575 -19.150 -30.524  1.00  0.00     0.255 C 
ATOM      2  C   UNL     1      36.558 -19.251 -29.369  1.00  0.00     0.196 C 
ATOM      3  C   UNL     1      37.733 -18.438 -29.872  1.00  0.00     0.179 C 
ATOM      4  C   UNL     1      37.099 -17.503 -30.919  1.00  0.00     0.178 C 
ATOM      5  O   UNL     1      35.765 -17.907 -31.162  1.00  0.00    -0.347 OA
ENDROOT
BRANCH   1   6
ATOM      6  N   UNL     1      34.180 -19.297 -30.055  1.00  0.00    -0.271 N 
ATOM      7  C   UNL     1      32.538 -18.881 -28.356  1.00  0.00     0.090 A 
ATOM      8  C   UNL     1      33.843 -18.785 -28.832  1.00  0.00     0.099 A 
ATOM      9  C   UNL     1      31.581 -19.497 -29.155  1.00  0.00     0.253 A 
ATOM     10  N   UNL     1      31.930 -19.985 -30.373  1.00  0.00    -0.274 N 
ATOM     11  O   UNL     1      30.392 -19.599 -28.748  1.00  0.00    -0.269 OA
ATOM     12  C   UNL     1      33.209 -19.885 -30.832  1.00  0.00     0.330 A 
ATOM     13  H   UNL     1      31.203 -20.441 -30.971  1.00  0.00     0.175 HD
ATOM     14  O   UNL     1      33.485 -20.335 -31.978  1.00  0.00    -0.248 OA
ENDBRANCH   1   6
BRANCH   2  15
ATOM     15  O   UNL     1      36.896 -20.590 -29.112  1.00  0.00    -0.386 OA
ATOM     16  H   UNL     1      37.339 -20.600 -28.223  1.00  0.00     0.211 HD
ENDBRANCH   2  15
BRANCH   3  17
ATOM     17  O   UNL     1      38.734 -19.247 -30.449  1.00  0.00    -0.387 OA
ATOM     18  H   UNL     1      38.645 -19.193 -31.437  1.00  0.00     0.211 HD
ENDBRANCH   3  17
BRANCH   4  19
ATOM     19  C   UNL     1      37.109 -16.044 -30.451  1.00  0.00     0.191 C 
BRANCH  19  20
ATOM     20  O   UNL     1      35.995 -15.800 -29.638  1.00  0.00    -0.394 OA
ATOM     21  H   UNL     1      36.055 -16.446 -28.887  1.00  0.00     0.210 HD
ENDBRANCH  19  20
ENDBRANCH   4  19
TORSDOF 5
ENDMDL
MODEL 4
REMARK VINA RESULT:    -1.711      1.442      2.572
REMARK INTER + INTRA:          -1.949
REMARK INTER:                  -1.958
REMARK INTRA:                   0.010
REMARK UNBOUND:                 0.112
REMARK SMILES O=c1ccn([C@H]2O[C@@H](CO)[C@H](O)[C@@H]2O)c(=O)[nH]1
REMARK SMILES IDX 6 1 13 2 11 3 8 4 7 5 5 6 3 7 4 8 2 9 17 10 1 11 15 12 16 14
REMARK SMILES IDX 14 15 12 17 9 19 10 20
REMARK H PARENT 17 13 14 16 12 18 10 21
REMARK Flexibility Score: inf
ROOT
ATOM      1  C   UNL     1      35.589 -19.196 -30.588  1.00  0.00     0.255 C 
ATOM      2  C   UNL     1      36.497 -19.302 -29.374  1.00  0.00     0.196 C 
ATOM      3  C   UNL     1      37.726 -18.539 -29.822  1.00  0.00     0.179 C 
ATOM      4  C   UNL     1      37.188 -17.608 -30.925  1.00  0.00     0.178 C 
ATOM      5  O   UNL     1      35.859 -17.974 -31.239  1.00  0.00    -0.347 OA
ENDROOT
BRANCH   1   6
ATOM      6  N   UNL     1      34.164 -19.287 -30.202  1.00  0.00    -0.271 N 
ATOM      7  C   UNL     1      31.985 -20.199 -30.619  1.00  0.00     0.090 A 
ATOM      8  C   UNL     1      33.329 -20.066 -30.955  1.00  0.00     0.099 A 
ATOM      9  C   UNL     1      31.510 -19.532 -29.496  1.00  0.00     0.253 A 
ATOM     10  N   UNL     1      32.357 -18.775 -28.751  1.00  0.00    -0.274 N 
ATOM     11  O   UNL     1      30.296 -19.632 -29.169  1.00  0.00    -0.269 OA
ATOM     12  C   UNL     1      33.671 -18.652 -29.085  1.00  0.00     0.330 A 
ATOM     13  H   UNL     1      31.993 -18.282 -27.903  1.00  0.00     0.175 HD
ATOM     14  O   UNL     1      34.426 -17.954 -28.354  1.00  0.00    -0.248 OA
ENDBRANCH   1   6
BRANCH   2  15
ATOM     15  O   UNL     1      36.774 -20.645 -29.068  1.00  0.00    -0.386 OA
ATOM     16  H   UNL     1      37.581 -20.638 -28.490  1.00  0.00     0.211 HD
ENDBRANCH   2  15
BRANCH   3  17
ATOM     17  O   UNL     1      38.733 -19.393 -30.319  1.00  0.00    -0.387 OA
ATOM     18  H   UNL     1      39.562 -19.232 -29.796  1.00  0.00     0.211 HD
ENDBRANCH   3  17
BRANCH   4  19
ATOM     19  C   UNL     1      37.219 -16.140 -30.487  1.00  0.00     0.191 C 
BRANCH  19  20
ATOM     20  O   UNL     1      36.111 -15.864 -29.676  1.00  0.00    -0.394 OA
ATOM     21  H   UNL     1      36.366 -15.086 -29.117  1.00  0.00     0.210 HD
ENDBRANCH  19  20
ENDBRANCH   4  19
TORSDOF 5
ENDMDL
MODEL 5
REMARK VINA RESULT:    -0.498      1.797      5.582
REMARK INTER + INTRA:          -0.488
REMARK INTER:                  -0.957
REMARK INTRA:                   0.470
REMARK UNBOUND:                 0.112
REMARK SMILES O=c1ccn([C@H]2O[C@@H](CO)[C@H](O)[C@@H]2O)c(=O)[nH]1
REMARK SMILES IDX 6 1 13 2 11 3 8 4 7 5 5 6 3 7 4 8 2 9 17 10 1 11 15 12 16 14
REMARK SMILES IDX 14 15 12 17 9 19 10 20
REMARK H PARENT 17 13 14 16 12 18 10 21
REMARK Flexibility Score: inf
ROOT
ATOM      1  C   UNL     1      34.125 -19.446 -29.692  1.00  0.00     0.255 C 
ATOM      2  C   UNL     1      33.114 -19.367 -30.824  1.00  0.00     0.196 C 
ATOM      3  C   UNL     1      31.823 -19.751 -30.132  1.00  0.00     0.179 C 
ATOM      4  C   UNL     1      32.098 -19.422 -28.653  1.00  0.00     0.178 C 
ATOM      5  O   UNL     1      33.470 -19.119 -28.487  1.00  0.00    -0.347 OA
ENDROOT
BRANCH   1   6
ATOM      6  N   UNL     1      35.272 -18.544 -29.933  1.00  0.00    -0.271 N 
ATOM      7  C   UNL     1      37.187 -17.978 -31.263  1.00  0.00     0.090 A 
ATOM      8  C   UNL     1      36.106 -18.810 -30.984  1.00  0.00     0.099 A 
ATOM      9  C   UNL     1      37.395 -16.864 -30.458  1.00  0.00     0.253 A 
ATOM     10  N   UNL     1      36.547 -16.606 -29.428  1.00  0.00    -0.274 N 
ATOM     11  O   UNL     1      38.367 -16.094 -30.686  1.00  0.00    -0.269 OA
ATOM     12  C   UNL     1      35.491 -17.424 -29.164  1.00  0.00     0.330 A 
ATOM     13  H   UNL     1      36.706 -15.761 -28.832  1.00  0.00     0.175 HD
ATOM     14  O   UNL     1      34.718 -17.137 -28.209  1.00  0.00    -0.248 OA
ENDBRANCH   1   6
BRANCH   2  15
ATOM     15  O   UNL     1      33.454 -20.248 -31.865  1.00  0.00    -0.386 OA
ATOM     16  H   UNL     1      32.703 -20.214 -32.514  1.00  0.00     0.211 HD
ENDBRANCH   2  15
BRANCH   3  17
ATOM     17  O   UNL     1      31.511 -21.116 -30.303  1.00  0.00    -0.387 OA
ATOM     18  H   UNL     1      32.345 -21.596 -30.552  1.00  0.00     0.211 HD
ENDBRANCH   3  17
BRANCH   4  19
ATOM     19  C   UNL     1      31.256 -18.234 -28.174  1.00  0.00     0.191 C 
BRANCH  19  20
ATOM     20  O   UNL     1      32.095 -17.225 -27.685  1.00  0.00    -0.394 OA
ATOM     21  H   UNL     1      32.519 -17.592 -26.867  1.00  0.00     0.210 HD
ENDBRANCH  19  20
ENDBRANCH   4  19
TORSDOF 5
ENDMDL
MODEL 6
REMARK VINA RESULT:    -0.058      2.132      5.108
REMARK INTER + INTRA:           0.042
REMARK INTER:                   0.429
REMARK INTRA:                  -0.387
REMARK UNBOUND:                 0.112
REMARK SMILES O=c1ccn([C@H]2O[C@@H](CO)[C@H](O)[C@@H]2O)c(=O)[nH]1
REMARK SMILES IDX 6 1 13 2 11 3 8 4 7 5 5 6 3 7 4 8 2 9 17 10 1 11 15 12 16 14
REMARK SMILES IDX 14 15 12 17 9 19 10 20
REMARK H PARENT 17 13 14 16 12 18 10 21
REMARK Flexibility Score: inf
ROOT
ATOM      1  C   UNL     1      34.689 -18.210 -29.544  1.00  0.00     0.255 C 
ATOM      2  C   UNL     1      34.290 -18.146 -28.078  1.00  0.00     0.196 C 
ATOM      3  C   UNL     1      32.778 -18.186 -28.152  1.00  0.00     0.179 C 
ATOM      4  C   UNL     1      32.504 -18.855 -29.512  1.00  0.00     0.178 C 
ATOM      5  O   UNL     1      33.714 -18.958 -30.237  1.00  0.00    -0.347 OA
ENDROOT
BRANCH   1   6
ATOM      6  N   UNL     1      36.031 -18.808 -29.709  1.00  0.00    -0.271 N 
ATOM      7  C   UNL     1      37.477 -20.700 -29.420  1.00  0.00     0.090 A 
ATOM      8  C   UNL     1      36.237 -20.087 -29.269  1.00  0.00     0.099 A 
ATOM      9  C   UNL     1      38.501 -19.990 -30.037  1.00  0.00     0.253 A 
ATOM     10  N   UNL     1      38.274 -18.726 -30.482  1.00  0.00    -0.274 N 
ATOM     11  O   UNL     1      39.635 -20.519 -30.186  1.00  0.00    -0.269 OA
ATOM     12  C   UNL     1      37.056 -18.135 -30.332  1.00  0.00     0.330 A 
ATOM     13  H   UNL     1      39.047 -18.201 -30.952  1.00  0.00     0.175 HD
ATOM     14  O   UNL     1      36.884 -16.967 -30.776  1.00  0.00    -0.248 OA
ENDBRANCH   1   6
BRANCH   2  15
ATOM     15  O   UNL     1      34.772 -16.971 -27.477  1.00  0.00    -0.386 OA
ATOM     16  H   UNL     1      34.398 -16.215 -28.001  1.00  0.00     0.211 HD
ENDBRANCH   2  15
BRANCH   3  17
ATOM     17  O   UNL     1      32.206 -16.898 -28.091  1.00  0.00    -0.387 OA
ATOM     18  H   UNL     1      32.211 -16.513 -29.007  1.00  0.00     0.211 HD
ENDBRANCH   3  17
BRANCH   4  19
ATOM     19  C   UNL     1      31.896 -20.252 -29.340  1.00  0.00     0.191 C 
BRANCH  19  20
ATOM     20  O   UNL     1      31.418 -20.714 -30.573  1.00  0.00    -0.394 OA
ATOM     21  H   UNL     1      30.460 -20.460 -30.609  1.00  0.00     0.210 HD
ENDBRANCH  19  20
ENDBRANCH   4  19
TORSDOF 5
ENDMDL
MODEL 7
REMARK VINA RESULT:     0.830      1.642      2.638
REMARK INTER + INTRA:           1.112
REMARK INTER:                   1.451
REMARK INTRA:                  -0.340
REMARK UNBOUND:                 0.112
REMARK SMILES O=c1ccn([C@H]2O[C@@H](CO)[C@H](O)[C@@H]2O)c(=O)[nH]1
REMARK SMILES IDX 6 1 13 2 11 3 8 4 7 5 5 6 3 7 4 8 2 9 17 10 1 11 15 12 16 14
REMARK SMILES IDX 14 15 12 17 9 19 10 20
REMARK H PARENT 17 13 14 16 12 18 10 21
REMARK Flexibility Score: inf
ROOT
ATOM      1  C   UNL     1      35.650 -17.800 -30.000  1.00  0.00     0.255 C 
ATOM      2  C   UNL     1      35.670 -18.492 -31.353  1.00  0.00     0.196 C 
ATOM      3  C   UNL     1      37.152 -18.687 -31.595  1.00  0.00     0.179 C 
ATOM      4  C   UNL     1      37.753 -18.658 -30.177  1.00  0.00     0.178 C 
ATOM      5  O   UNL     1      36.762 -18.247 -29.256  1.00  0.00    -0.347 OA
ENDROOT
BRANCH   1   6
ATOM      6  N   UNL     1      34.388 -18.068 -29.279  1.00  0.00    -0.271 N 
ATOM      7  C   UNL     1      32.487 -19.492 -28.943  1.00  0.00     0.090 A 
ATOM      8  C   UNL     1      33.671 -19.186 -29.607  1.00  0.00     0.099 A 
ATOM      9  C   UNL     1      32.052 -18.645 -27.930  1.00  0.00     0.253 A 
ATOM     10  N   UNL     1      32.785 -17.548 -27.607  1.00  0.00    -0.274 N 
ATOM     11  O   UNL     1      30.983 -18.896 -27.312  1.00  0.00    -0.269 OA
ATOM     12  C   UNL     1      33.944 -17.256 -28.260  1.00  0.00     0.330 A 
ATOM     13  H   UNL     1      32.456 -16.919 -26.838  1.00  0.00     0.175 HD
ATOM     14  O   UNL     1      34.603 -16.238 -27.915  1.00  0.00    -0.248 OA
ENDBRANCH   1   6
BRANCH   2  15
ATOM     15  O   UNL     1      35.062 -17.693 -32.336  1.00  0.00    -0.386 OA
ATOM     16  H   UNL     1      34.153 -17.479 -31.998  1.00  0.00     0.211 HD
ENDBRANCH   2  15
BRANCH   3  17
ATOM     17  O   UNL     1      37.700 -17.670 -32.404  1.00  0.00    -0.387 OA
ATOM     18  H   UNL     1      37.515 -17.895 -33.354  1.00  0.00     0.211 HD
ENDBRANCH   3  17
BRANCH   4  19
ATOM     19  C   UNL     1      38.289 -20.034 -29.765  1.00  0.00     0.191 C 
BRANCH  19  20
ATOM     20  O   UNL     1      38.942 -20.632 -30.849  1.00  0.00    -0.394 OA
ATOM     21  H   UNL     1      38.235 -20.855 -31.508  1.00  0.00     0.210 HD
ENDBRANCH  19  20
ENDBRANCH   4  19
TORSDOF 5
ENDMDL
