MODEL 1
REMARK VINA RESULT:    -5.724      0.000      0.000
REMARK INTER + INTRA:          -6.489
REMARK INTER:                  -6.728
REMARK INTRA:                   0.239
REMARK UNBOUND:                 0.239
REMARK SMILES O=c1c(O)c(-c2ccc(O)cc2)oc2cc(O)cc(O)c12
REMARK SMILES IDX 5 1 3 2 2 3 1 4 21 5 19 6 18 7 16 8 15 9 14 10 13 11 6 12
REMARK SMILES IDX 7 13 8 14 9 15 12 16 11 17 10 18 4 20 20 22 17 24
REMARK H PARENT 10 19 4 21 20 23 17 25
REMARK Flexibility Score: inf
ROOT
ATOM      1  C   UNL     1     -17.074   3.268 -10.302  1.00  0.00     0.180 A 
ATOM      2  C   UNL     1     -16.020   3.945  -9.666  1.00  0.00     0.208 A 
ATOM      3  C   UNL     1     -15.854   5.320  -9.901  1.00  0.00     0.238 A 
ATOM      4  O   UNL     1     -14.875   5.909  -9.372  1.00  0.00    -0.285 OA
ATOM      5  C   UNL     1     -16.754   6.003 -10.755  1.00  0.00     0.111 A 
ATOM      6  C   UNL     1     -16.703   7.402 -11.032  1.00  0.00     0.134 A 
ATOM      7  C   UNL     1     -17.564   7.946 -11.993  1.00  0.00     0.093 A 
ATOM      8  C   UNL     1     -18.514   7.157 -12.639  1.00  0.00     0.123 A 
ATOM      9  C   UNL     1     -18.611   5.800 -12.332  1.00  0.00     0.094 A 
ATOM     10  C   UNL     1     -17.743   5.220 -11.404  1.00  0.00     0.146 A 
ATOM     11  O   UNL     1     -17.861   3.922 -11.148  1.00  0.00    -0.452 OA
ENDROOT
BRANCH   1  12
ATOM     12  C   UNL     1     -17.329   1.826 -10.086  1.00  0.00     0.021 A 
ATOM     13  C   UNL     1     -18.653   1.363  -9.992  1.00  0.00     0.016 A 
ATOM     14  C   UNL     1     -18.915   0.008  -9.766  1.00  0.00     0.047 A 
ATOM     15  C   UNL     1     -17.860  -0.897  -9.614  1.00  0.00     0.115 A 
ATOM     16  C   UNL     1     -16.272   0.913  -9.911  1.00  0.00     0.016 A 
ATOM     17  C   UNL     1     -16.538  -0.441  -9.683  1.00  0.00     0.047 A 
BRANCH  15  18
ATOM     18  O   UNL     1     -18.136  -2.244  -9.389  1.00  0.00    -0.508 OA
ATOM     19  H   UNL     1     -18.166  -2.913 -10.149  1.00  0.00     0.293 HD
ENDBRANCH  15  18
ENDBRANCH   1  12
BRANCH   2  20
ATOM     20  O   UNL     1     -15.130   3.248  -8.845  1.00  0.00    -0.502 OA
ATOM     21  H   UNL     1     -14.987   3.487  -7.871  1.00  0.00     0.293 HD
ENDBRANCH   2  20
BRANCH   6  22
ATOM     22  O   UNL     1     -15.854   8.298 -10.375  1.00  0.00    -0.507 OA
ATOM     23  H   UNL     1     -15.422   8.129  -9.479  1.00  0.00     0.293 HD
ENDBRANCH   6  22
BRANCH   8  24
ATOM     24  O   UNL     1     -19.364   7.736 -13.579  1.00  0.00    -0.508 OA
ATOM     25  H   UNL     1     -19.165   8.642 -13.987  1.00  0.00     0.293 HD
ENDBRANCH   8  24
TORSDOF 5
ENDMDL
MODEL 2
REMARK VINA RESULT:    -5.622      4.205     10.211
REMARK INTER + INTRA:          -6.369
REMARK INTER:                  -6.622
REMARK INTRA:                   0.253
REMARK UNBOUND:                 0.239
REMARK SMILES O=c1c(O)c(-c2ccc(O)cc2)oc2cc(O)cc(O)c12
REMARK SMILES IDX 5 1 3 2 2 3 1 4 21 5 19 6 18 7 16 8 15 9 14 10 13 11 6 12
REMARK SMILES IDX 7 13 8 14 9 15 12 16 11 17 10 18 4 20 20 22 17 24
REMARK H PARENT 10 19 4 21 20 23 17 25
REMARK Flexibility Score: inf
ROOT
ATOM      1  C   UNL     1     -17.069  -3.065  -9.365  1.00  0.00     0.180 A 
ATOM      2  C   UNL     1     -16.016  -3.738 -10.008  1.00  0.00     0.208 A 
ATOM      3  C   UNL     1     -15.853  -5.115  -9.788  1.00  0.00     0.238 A 
ATOM      4  O   UNL     1     -14.875  -5.701 -10.322  1.00  0.00    -0.285 OA
ATOM      5  C   UNL     1     -16.755  -5.805  -8.942  1.00  0.00     0.111 A 
ATOM      6  C   UNL     1     -16.708  -7.208  -8.681  1.00  0.00     0.134 A 
ATOM      7  C   UNL     1     -17.571  -7.760  -7.726  1.00  0.00     0.093 A 
ATOM      8  C   UNL     1     -18.520  -6.976  -7.072  1.00  0.00     0.123 A 
ATOM      9  C   UNL     1     -18.614  -5.615  -7.365  1.00  0.00     0.094 A 
ATOM     10  C   UNL     1     -17.744  -5.027  -8.285  1.00  0.00     0.146 A 
ATOM     11  O   UNL     1     -17.859  -3.727  -8.527  1.00  0.00    -0.452 OA
ENDROOT
BRANCH   1  12
ATOM     12  C   UNL     1     -17.320  -1.620  -9.567  1.00  0.00     0.021 A 
ATOM     13  C   UNL     1     -18.643  -1.150  -9.628  1.00  0.00     0.016 A 
ATOM     14  C   UNL     1     -18.903   0.208  -9.839  1.00  0.00     0.047 A 
ATOM     15  C   UNL     1     -17.847   1.109 -10.009  1.00  0.00     0.115 A 
ATOM     16  C   UNL     1     -16.263  -0.712  -9.758  1.00  0.00     0.016 A 
ATOM     17  C   UNL     1     -16.526   0.645  -9.971  1.00  0.00     0.047 A 
BRANCH  15  18
ATOM     18  O   UNL     1     -18.120   2.459 -10.218  1.00  0.00    -0.508 OA
ATOM     19  H   UNL     1     -18.699   2.988  -9.577  1.00  0.00     0.293 HD
ENDBRANCH  15  18
ENDBRANCH   1  12
BRANCH   2  20
ATOM     20  O   UNL     1     -15.123  -3.033 -10.820  1.00  0.00    -0.502 OA
ATOM     21  H   UNL     1     -14.468  -3.497 -11.438  1.00  0.00     0.293 HD
ENDBRANCH   2  20
BRANCH   6  22
ATOM     22  O   UNL     1     -15.860  -8.099  -9.346  1.00  0.00    -0.507 OA
ATOM     23  H   UNL     1     -14.931  -8.345  -9.039  1.00  0.00     0.293 HD
ENDBRANCH   6  22
BRANCH   8  24
ATOM     24  O   UNL     1     -19.373  -7.563  -6.140  1.00  0.00    -0.508 OA
ATOM     25  H   UNL     1     -20.378  -7.447  -6.194  1.00  0.00     0.293 HD
ENDBRANCH   8  24
TORSDOF 5
ENDMDL
MODEL 3
REMARK VINA RESULT:    -5.065     12.245     13.618
REMARK INTER + INTRA:          -5.714
REMARK INTER:                  -5.999
REMARK INTRA:                   0.285
REMARK UNBOUND:                 0.239
REMARK SMILES O=c1c(O)c(-c2ccc(O)cc2)oc2cc(O)cc(O)c12
REMARK SMILES IDX 5 1 3 2 2 3 1 4 21 5 19 6 18 7 16 8 15 9 14 10 13 11 6 12
REMARK SMILES IDX 7 13 8 14 9 15 12 16 11 17 10 18 4 20 20 22 17 24
REMARK H PARENT 10 19 4 21 20 23 17 25
REMARK Flexibility Score: inf
ROOT
ATOM      1  C   UNL     1     -17.126  -7.688 -14.871  1.00  0.00     0.180 A 
ATOM      2  C   UNL     1     -18.494  -7.546 -14.583  1.00  0.00     0.208 A 
ATOM      3  C   UNL     1     -18.921  -7.628 -13.247  1.00  0.00     0.238 A 
ATOM      4  O   UNL     1     -20.153  -7.555 -13.001  1.00  0.00    -0.285 OA
ATOM      5  C   UNL     1     -17.972  -7.834 -12.216  1.00  0.00     0.111 A 
ATOM      6  C   UNL     1     -18.288  -7.894 -10.825  1.00  0.00     0.134 A 
ATOM      7  C   UNL     1     -17.288  -8.233  -9.905  1.00  0.00     0.093 A 
ATOM      8  C   UNL     1     -15.974  -8.449 -10.315  1.00  0.00     0.123 A 
ATOM      9  C   UNL     1     -15.643  -8.335 -11.666  1.00  0.00     0.094 A 
ATOM     10  C   UNL     1     -16.624  -8.035 -12.613  1.00  0.00     0.146 A 
ATOM     11  O   UNL     1     -16.270  -7.946 -13.890  1.00  0.00    -0.452 OA
ENDROOT
BRANCH   1  12
ATOM     12  C   UNL     1     -16.597  -7.589 -16.250  1.00  0.00     0.021 A 
ATOM     13  C   UNL     1     -15.404  -8.252 -16.583  1.00  0.00     0.016 A 
ATOM     14  C   UNL     1     -14.875  -8.153 -17.874  1.00  0.00     0.047 A 
ATOM     15  C   UNL     1     -15.522  -7.379 -18.842  1.00  0.00     0.115 A 
ATOM     16  C   UNL     1     -17.232  -6.795 -17.224  1.00  0.00     0.016 A 
ATOM     17  C   UNL     1     -16.700  -6.697 -18.513  1.00  0.00     0.047 A 
BRANCH  15  18
ATOM     18  O   UNL     1     -14.984  -7.290 -20.124  1.00  0.00    -0.508 OA
ATOM     19  H   UNL     1     -15.397  -6.695 -20.832  1.00  0.00     0.293 HD
ENDBRANCH  15  18
ENDBRANCH   1  12
BRANCH   2  20
ATOM     20  O   UNL     1     -19.416  -7.365 -15.617  1.00  0.00    -0.502 OA
ATOM     21  H   UNL     1     -19.528  -8.034 -16.370  1.00  0.00     0.293 HD
ENDBRANCH   2  20
BRANCH   6  22
ATOM     22  O   UNL     1     -19.550  -7.604 -10.298  1.00  0.00    -0.507 OA
ATOM     23  H   UNL     1     -20.147  -6.855 -10.615  1.00  0.00     0.293 HD
ENDBRANCH   6  22
BRANCH   8  24
ATOM     24  O   UNL     1     -15.002  -8.769  -9.370  1.00  0.00    -0.508 OA
ATOM     25  H   UNL     1     -14.149  -8.230  -9.284  1.00  0.00     0.293 HD
ENDBRANCH   8  24
TORSDOF 5
ENDMDL
MODEL 4
REMARK VINA RESULT:    -4.987     11.766     12.593
REMARK INTER + INTRA:          -5.624
REMARK INTER:                  -5.620
REMARK INTRA:                  -0.004
REMARK UNBOUND:                 0.239
REMARK SMILES O=c1c(O)c(-c2ccc(O)cc2)oc2cc(O)cc(O)c12
REMARK SMILES IDX 5 1 3 2 2 3 1 4 21 5 19 6 18 7 16 8 15 9 14 10 13 11 6 12
REMARK SMILES IDX 7 13 8 14 9 15 12 16 11 17 10 18 4 20 20 22 17 24
REMARK H PARENT 10 19 4 21 20 23 17 25
REMARK Flexibility Score: inf
ROOT
ATOM      1  C   UNL     1     -16.900  -7.626 -14.365  1.00  0.00     0.180 A 
ATOM      2  C   UNL     1     -15.940  -8.257 -15.174  1.00  0.00     0.208 A 
ATOM      3  C   UNL     1     -15.937  -7.999 -16.555  1.00  0.00     0.238 A 
ATOM      4  O   UNL     1     -15.110  -8.609 -17.281  1.00  0.00    -0.285 OA
ATOM      5  C   UNL     1     -16.883  -7.101 -17.106  1.00  0.00     0.111 A 
ATOM      6  C   UNL     1     -16.945  -6.735 -18.484  1.00  0.00     0.134 A 
ATOM      7  C   UNL     1     -18.004  -5.940 -18.939  1.00  0.00     0.093 A 
ATOM      8  C   UNL     1     -18.964  -5.444 -18.058  1.00  0.00     0.123 A 
ATOM      9  C   UNL     1     -18.878  -5.747 -16.699  1.00  0.00     0.094 A 
ATOM     10  C   UNL     1     -17.855  -6.567 -16.219  1.00  0.00     0.146 A 
ATOM     11  O   UNL     1     -17.815  -6.841 -14.920  1.00  0.00    -0.452 OA
ENDROOT
BRANCH   1  12
ATOM     12  C   UNL     1     -16.952  -7.829 -12.899  1.00  0.00     0.021 A 
ATOM     13  C   UNL     1     -18.180  -8.127 -12.285  1.00  0.00     0.016 A 
ATOM     14  C   UNL     1     -18.254  -8.300 -10.899  1.00  0.00     0.047 A 
ATOM     15  C   UNL     1     -17.108  -8.162 -10.110  1.00  0.00     0.115 A 
ATOM     16  C   UNL     1     -15.806  -7.671 -12.097  1.00  0.00     0.016 A 
ATOM     17  C   UNL     1     -15.885  -7.843 -10.711  1.00  0.00     0.047 A 
BRANCH  15  18
ATOM     18  O   UNL     1     -17.197  -8.337  -8.730  1.00  0.00    -0.508 OA
ATOM     19  H   UNL     1     -18.051  -8.134  -8.224  1.00  0.00     0.293 HD
ENDBRANCH  15  18
ENDBRANCH   1  12
BRANCH   2  20
ATOM     20  O   UNL     1     -15.030  -9.157 -14.613  1.00  0.00    -0.502 OA
ATOM     21  H   UNL     1     -15.193 -10.157 -14.595  1.00  0.00     0.293 HD
ENDBRANCH   2  20
BRANCH   6  22
ATOM     22  O   UNL     1     -15.985  -7.100 -19.433  1.00  0.00    -0.507 OA
ATOM     23  H   UNL     1     -14.988  -7.027 -19.298  1.00  0.00     0.293 HD
ENDBRANCH   6  22
BRANCH   8  24
ATOM     24  O   UNL     1     -19.994  -4.642 -18.545  1.00  0.00    -0.508 OA
ATOM     25  H   UNL     1     -19.809  -3.740 -18.967  1.00  0.00     0.293 HD
ENDBRANCH   8  24
TORSDOF 5
ENDMDL
MODEL 5
REMARK VINA RESULT:    -4.963      4.611      7.659
REMARK INTER + INTRA:          -5.595
REMARK INTER:                  -5.801
REMARK INTRA:                   0.207
REMARK UNBOUND:                 0.239
REMARK SMILES O=c1c(O)c(-c2ccc(O)cc2)oc2cc(O)cc(O)c12
REMARK SMILES IDX 5 1 3 2 2 3 1 4 21 5 19 6 18 7 16 8 15 9 14 10 13 11 6 12
REMARK SMILES IDX 7 13 8 14 9 15 12 16 11 17 10 18 4 20 20 22 17 24
REMARK H PARENT 10 19 4 21 20 23 17 25
REMARK Flexibility Score: inf
ROOT
ATOM      1  C   UNL     1     -17.149  -4.039  -9.051  1.00  0.00     0.180 A 
ATOM      2  C   UNL     1     -16.136  -4.174 -10.015  1.00  0.00     0.208 A 
ATOM      3  C   UNL     1     -15.744  -3.046 -10.755  1.00  0.00     0.238 A 
ATOM      4  O   UNL     1     -14.875  -3.186 -11.654  1.00  0.00    -0.285 OA
ATOM      5  C   UNL     1     -16.358  -1.794 -10.509  1.00  0.00     0.111 A 
ATOM      6  C   UNL     1     -16.011  -0.578 -11.170  1.00  0.00     0.134 A 
ATOM      7  C   UNL     1     -16.774   0.574 -10.941  1.00  0.00     0.093 A 
ATOM      8  C   UNL     1     -17.827   0.570 -10.028  1.00  0.00     0.123 A 
ATOM      9  C   UNL     1     -18.137  -0.598  -9.332  1.00  0.00     0.094 A 
ATOM     10  C   UNL     1     -17.418  -1.773  -9.565  1.00  0.00     0.146 A 
ATOM     11  O   UNL     1     -17.751  -2.866  -8.889  1.00  0.00    -0.452 OA
ENDROOT
BRANCH   1  12
ATOM     12  C   UNL     1     -17.599  -5.175  -8.215  1.00  0.00     0.021 A 
ATOM     13  C   UNL     1     -18.940  -5.241  -7.801  1.00  0.00     0.016 A 
ATOM     14  C   UNL     1     -19.380  -6.294  -6.993  1.00  0.00     0.047 A 
ATOM     15  C   UNL     1     -18.485  -7.283  -6.576  1.00  0.00     0.115 A 
ATOM     16  C   UNL     1     -16.698  -6.163  -7.775  1.00  0.00     0.016 A 
ATOM     17  C   UNL     1     -17.142  -7.214  -6.966  1.00  0.00     0.047 A 
BRANCH  15  18
ATOM     18  O   UNL     1     -18.938  -8.327  -5.771  1.00  0.00    -0.508 OA
ATOM     19  H   UNL     1     -18.680  -8.393  -4.793  1.00  0.00     0.293 HD
ENDBRANCH  15  18
ENDBRANCH   1  12
BRANCH   2  20
ATOM     20  O   UNL     1     -15.558  -5.423 -10.257  1.00  0.00    -0.502 OA
ATOM     21  H   UNL     1     -14.557  -5.574 -10.232  1.00  0.00     0.293 HD
ENDBRANCH   2  20
BRANCH   6  22
ATOM     22  O   UNL     1     -14.919  -0.442 -12.033  1.00  0.00    -0.507 OA
ATOM     23  H   UNL     1     -14.413  -1.212 -12.444  1.00  0.00     0.293 HD
ENDBRANCH   6  22
BRANCH   8  24
ATOM     24  O   UNL     1     -18.555   1.740  -9.814  1.00  0.00    -0.508 OA
ATOM     25  H   UNL     1     -18.426   2.298  -8.978  1.00  0.00     0.293 HD
ENDBRANCH   8  24
TORSDOF 5
ENDMDL
MODEL 6
REMARK VINA RESULT:    -4.609      5.436     11.289
REMARK INTER + INTRA:          -5.178
REMARK INTER:                  -5.014
REMARK INTRA:                  -0.164
REMARK UNBOUND:                 0.239
REMARK SMILES O=c1c(O)c(-c2ccc(O)cc2)oc2cc(O)cc(O)c12
REMARK SMILES IDX 5 1 3 2 2 3 1 4 21 5 19 6 18 7 16 8 15 9 14 10 13 11 6 12
REMARK SMILES IDX 7 13 8 14 9 15 12 16 11 17 10 18 4 20 20 22 17 24
REMARK H PARENT 10 19 4 21 20 23 17 25
REMARK Flexibility Score: inf
ROOT
ATOM      1  C   UNL     1     -16.663  -4.626  -9.459  1.00  0.00     0.180 A 
ATOM      2  C   UNL     1     -17.258  -5.396  -8.445  1.00  0.00     0.208 A 
ATOM      3  C   UNL     1     -17.223  -6.797  -8.544  1.00  0.00     0.238 A 
ATOM      4  O   UNL     1     -17.806  -7.480  -7.662  1.00  0.00    -0.285 OA
ATOM      5  C   UNL     1     -16.578  -7.409  -9.646  1.00  0.00     0.111 A 
ATOM      6  C   UNL     1     -16.447  -8.819  -9.827  1.00  0.00     0.134 A 
ATOM      7  C   UNL     1     -15.905  -9.314 -11.019  1.00  0.00     0.093 A 
ATOM      8  C   UNL     1     -15.430  -8.453 -12.007  1.00  0.00     0.123 A 
ATOM      9  C   UNL     1     -15.499  -7.073 -11.814  1.00  0.00     0.094 A 
ATOM     10  C   UNL     1     -16.067  -6.548 -10.652  1.00  0.00     0.146 A 
ATOM     11  O   UNL     1     -16.124  -5.229 -10.512  1.00  0.00    -0.452 OA
ENDROOT
BRANCH   1  12
ATOM     12  C   UNL     1     -16.639  -3.147  -9.412  1.00  0.00     0.021 A 
ATOM     13  C   UNL     1     -17.832  -2.429  -9.597  1.00  0.00     0.016 A 
ATOM     14  C   UNL     1     -17.828  -1.031  -9.580  1.00  0.00     0.047 A 
ATOM     15  C   UNL     1     -16.630  -0.333  -9.393  1.00  0.00     0.115 A 
ATOM     16  C   UNL     1     -15.434  -2.439  -9.246  1.00  0.00     0.016 A 
ATOM     17  C   UNL     1     -15.433  -1.040  -9.230  1.00  0.00     0.047 A 
BRANCH  15  18
ATOM     18  O   UNL     1     -16.640   1.060  -9.377  1.00  0.00    -0.508 OA
ATOM     19  H   UNL     1     -16.274   1.602 -10.151  1.00  0.00     0.293 HD
ENDBRANCH  15  18
ENDBRANCH   1  12
BRANCH   2  20
ATOM     20  O   UNL     1     -17.909  -4.772  -7.378  1.00  0.00    -0.502 OA
ATOM     21  H   UNL     1     -18.605  -4.048  -7.512  1.00  0.00     0.293 HD
ENDBRANCH   2  20
BRANCH   6  22
ATOM     22  O   UNL     1     -16.805  -9.767  -8.863  1.00  0.00    -0.507 OA
ATOM     23  H   UNL     1     -16.439  -9.797  -7.923  1.00  0.00     0.293 HD
ENDBRANCH   6  22
BRANCH   8  24
ATOM     24  O   UNL     1     -14.882  -8.982 -13.174  1.00  0.00    -0.508 OA
ATOM     25  H   UNL     1     -15.405  -9.618 -13.764  1.00  0.00     0.293 HD
ENDBRANCH   8  24
TORSDOF 5
ENDMDL
MODEL 7
REMARK VINA RESULT:    -4.534      4.270      6.264
REMARK INTER + INTRA:          -5.090
REMARK INTER:                  -5.081
REMARK INTRA:                  -0.010
REMARK UNBOUND:                 0.239
REMARK SMILES O=c1c(O)c(-c2ccc(O)cc2)oc2cc(O)cc(O)c12
REMARK SMILES IDX 5 1 3 2 2 3 1 4 21 5 19 6 18 7 16 8 15 9 14 10 13 11 6 12
REMARK SMILES IDX 7 13 8 14 9 15 12 16 11 17 10 18 4 20 20 22 17 24
REMARK H PARENT 10 19 4 21 20 23 17 25
REMARK Flexibility Score: inf
ROOT
ATOM      1  C   UNL     1     -16.995   8.179  -8.092  1.00  0.00     0.180 A 
ATOM      2  C   UNL     1     -16.276   9.187  -8.757  1.00  0.00     0.208 A 
ATOM      3  C   UNL     1     -16.335   9.254 -10.159  1.00  0.00     0.238 A 
ATOM      4  O   UNL     1     -15.646  10.124 -10.752  1.00  0.00    -0.285 OA
ATOM      5  C   UNL     1     -17.125   8.323 -10.876  1.00  0.00     0.111 A 
ATOM      6  C   UNL     1     -17.290   8.323 -12.294  1.00  0.00     0.134 A 
ATOM      7  C   UNL     1     -17.990   7.276 -12.907  1.00  0.00     0.093 A 
ATOM      8  C   UNL     1     -18.585   6.268 -12.151  1.00  0.00     0.123 A 
ATOM      9  C   UNL     1     -18.480   6.291 -10.760  1.00  0.00     0.094 A 
ATOM     10  C   UNL     1     -17.759   7.301 -10.121  1.00  0.00     0.146 A 
ATOM     11  O   UNL     1     -17.674   7.281  -8.796  1.00  0.00    -0.452 OA
ENDROOT
BRANCH   1  12
ATOM     12  C   UNL     1     -17.002   8.060  -6.617  1.00  0.00     0.021 A 
ATOM     13  C   UNL     1     -18.224   8.102  -5.925  1.00  0.00     0.016 A 
ATOM     14  C   UNL     1     -18.252   8.013  -4.530  1.00  0.00     0.047 A 
ATOM     15  C   UNL     1     -17.060   7.897  -3.808  1.00  0.00     0.115 A 
ATOM     16  C   UNL     1     -15.805   7.963  -5.883  1.00  0.00     0.016 A 
ATOM     17  C   UNL     1     -15.836   7.876  -4.487  1.00  0.00     0.047 A 
BRANCH  15  18
ATOM     18  O   UNL     1     -17.103   7.809  -2.418  1.00  0.00    -0.508 OA
ATOM     19  H   UNL     1     -17.867   8.207  -1.885  1.00  0.00     0.293 HD
ENDBRANCH  15  18
ENDBRANCH   1  12
BRANCH   2  20
ATOM     20  O   UNL     1     -15.485  10.082  -8.032  1.00  0.00    -0.502 OA
ATOM     21  H   UNL     1     -14.694  10.565  -8.442  1.00  0.00     0.293 HD
ENDBRANCH   2  20
BRANCH   6  22
ATOM     22  O   UNL     1     -16.814   9.333 -13.135  1.00  0.00    -0.507 OA
ATOM     23  H   UNL     1     -16.998  10.318 -13.012  1.00  0.00     0.293 HD
ENDBRANCH   6  22
BRANCH   8  24
ATOM     24  O   UNL     1     -19.287   5.250 -12.794  1.00  0.00    -0.508 OA
ATOM     25  H   UNL     1     -18.811   4.540 -13.339  1.00  0.00     0.293 HD
ENDBRANCH   8  24
TORSDOF 5
ENDMDL
MODEL 8
REMARK VINA RESULT:    -4.498      6.298      8.702
REMARK INTER + INTRA:          -5.048
REMARK INTER:                  -5.044
REMARK INTRA:                  -0.004
REMARK UNBOUND:                 0.239
REMARK SMILES O=c1c(O)c(-c2ccc(O)cc2)oc2cc(O)cc(O)c12
REMARK SMILES IDX 5 1 3 2 2 3 1 4 21 5 19 6 18 7 16 8 15 9 14 10 13 11 6 12
REMARK SMILES IDX 7 13 8 14 9 15 12 16 11 17 10 18 4 20 20 22 17 24
REMARK H PARENT 10 19 4 21 20 23 17 25
REMARK Flexibility Score: inf
ROOT
ATOM      1  C   UNL     1     -16.827   7.642  -5.477  1.00  0.00     0.180 A 
ATOM      2  C   UNL     1     -15.894   8.344  -4.695  1.00  0.00     0.208 A 
ATOM      3  C   UNL     1     -15.856   8.114  -3.310  1.00  0.00     0.238 A 
ATOM      4  O   UNL     1     -15.057   8.787  -2.608  1.00  0.00    -0.285 OA
ATOM      5  C   UNL     1     -16.739   7.173  -2.728  1.00  0.00     0.111 A 
ATOM      6  C   UNL     1     -16.760   6.832  -1.342  1.00  0.00     0.134 A 
ATOM      7  C   UNL     1     -17.763   5.984  -0.855  1.00  0.00     0.093 A 
ATOM      8  C   UNL     1     -18.704   5.415  -1.712  1.00  0.00     0.123 A 
ATOM      9  C   UNL     1     -18.656   5.695  -3.078  1.00  0.00     0.094 A 
ATOM     10  C   UNL     1     -17.690   6.565  -3.589  1.00  0.00     0.146 A 
ATOM     11  O   UNL     1     -17.685   6.814  -4.893  1.00  0.00    -0.452 OA
ENDROOT
BRANCH   1  12
ATOM     12  C   UNL     1     -16.910   7.811  -6.946  1.00  0.00     0.021 A 
ATOM     13  C   UNL     1     -18.163   8.022  -7.547  1.00  0.00     0.016 A 
ATOM     14  C   UNL     1     -18.267   8.162  -8.935  1.00  0.00     0.047 A 
ATOM     15  C   UNL     1     -17.126   8.078  -9.738  1.00  0.00     0.115 A 
ATOM     16  C   UNL     1     -15.769   7.708  -7.762  1.00  0.00     0.016 A 
ATOM     17  C   UNL     1     -15.877   7.847  -9.149  1.00  0.00     0.047 A 
BRANCH  15  18
ATOM     18  O   UNL     1     -17.244   8.221 -11.119  1.00  0.00    -0.508 OA
ATOM     19  H   UNL     1     -16.473   8.553 -11.686  1.00  0.00     0.293 HD
ENDBRANCH  15  18
ENDBRANCH   1  12
BRANCH   2  20
ATOM     20  O   UNL     1     -15.047   9.285  -5.287  1.00  0.00    -0.502 OA
ATOM     21  H   UNL     1     -15.395  10.119  -5.745  1.00  0.00     0.293 HD
ENDBRANCH   2  20
BRANCH   6  22
ATOM     22  O   UNL     1     -15.810   7.272  -0.415  1.00  0.00    -0.507 OA
ATOM     23  H   UNL     1     -15.311   8.147  -0.474  1.00  0.00     0.293 HD
ENDBRANCH   6  22
BRANCH   8  24
ATOM     24  O   UNL     1     -19.678   4.564  -1.195  1.00  0.00    -0.508 OA
ATOM     25  H   UNL     1     -20.654   4.658  -1.450  1.00  0.00     0.293 HD
ENDBRANCH   8  24
TORSDOF 5
ENDMDL
