MODEL 1
REMARK VINA RESULT:     4.259      0.000      0.000
REMARK INTER + INTRA:           4.624
REMARK INTER:                   4.757
REMARK INTRA:                  -0.132
REMARK UNBOUND:                -0.132
REMARK SMILES O=C([O-])C=Cc1ccccc1
REMARK SMILES IDX 4 1 5 2 2 3 1 4 3 5 6 6 7 7 11 8 8 9 10 10 9 11
REMARK H PARENT
REMARK Flexibility Score: inf
ROOT
ATOM      1  C   UNL     1     103.801 103.256 106.229  1.00  0.00     0.025 C 
ATOM      2  C   UNL     1     103.424 102.844 105.010  1.00  0.00     0.010 C 
ENDROOT
BRANCH   1   3
ATOM      3  C   UNL     1     103.467 102.503 107.450  1.00  0.00     0.064 C 
ATOM      4  O   UNL     1     103.115 103.094 108.505  1.00  0.00    -0.545 OA
ATOM      5  O   UNL     1     103.542 101.117 107.438  1.00  0.00    -0.545 OA
ENDBRANCH   1   3
BRANCH   2   6
ATOM      6  C   UNL     1     103.727 103.558 103.740  1.00  0.00    -0.026 A 
ATOM      7  C   UNL     1     104.305 104.847 103.692  1.00  0.00     0.008 A 
ATOM      8  C   UNL     1     103.420 102.913 102.526  1.00  0.00     0.008 A 
ATOM      9  C   UNL     1     104.564 105.461 102.462  1.00  0.00     0.001 A 
ATOM     10  C   UNL     1     103.682 103.534 101.301  1.00  0.00     0.001 A 
ATOM     11  C   UNL     1     104.253 104.806 101.269  1.00  0.00     0.000 A 
ENDBRANCH   2   6
TORSDOF 2
ENDMDL
MODEL 2
REMARK VINA RESULT:     4.342      1.865      2.736
REMARK INTER + INTRA:           4.718
REMARK INTER:                   4.851
REMARK INTRA:                  -0.133
REMARK UNBOUND:                -0.132
REMARK SMILES O=C([O-])C=Cc1ccccc1
REMARK SMILES IDX 4 1 5 2 2 3 1 4 3 5 6 6 7 7 11 8 8 9 10 10 9 11
REMARK H PARENT
REMARK Flexibility Score: inf
ROOT
ATOM      1  C   UNL     1     104.179 104.948 106.311  1.00  0.00     0.025 C 
ATOM      2  C   UNL     1     104.478 105.409 105.087  1.00  0.00     0.010 C 
ENDROOT
BRANCH   1   3
ATOM      3  C   UNL     1     104.443 105.732 107.530  1.00  0.00     0.064 C 
ATOM      4  O   UNL     1     104.410 106.991 107.516  1.00  0.00    -0.545 OA
ATOM      5  O   UNL     1     104.731 105.071 108.716  1.00  0.00    -0.545 OA
ENDBRANCH   1   3
BRANCH   2   6
ATOM      6  C   UNL     1     104.239 104.669 103.819  1.00  0.00    -0.026 A 
ATOM      7  C   UNL     1     103.660 103.381 103.768  1.00  0.00     0.008 A 
ATOM      8  C   UNL     1     104.610 105.288 102.609  1.00  0.00     0.008 A 
ATOM      9  C   UNL     1     103.463 102.741 102.540  1.00  0.00     0.001 A 
ATOM     10  C   UNL     1     104.409 104.642 101.386  1.00  0.00     0.001 A 
ATOM     11  C   UNL     1     103.837 103.370 101.350  1.00  0.00     0.000 A 
ENDBRANCH   2   6
TORSDOF 2
ENDMDL
MODEL 3
REMARK VINA RESULT:     4.383      3.845      5.507
REMARK INTER + INTRA:           4.763
REMARK INTER:                   4.896
REMARK INTRA:                  -0.133
REMARK UNBOUND:                -0.132
REMARK SMILES O=C([O-])C=Cc1ccccc1
REMARK SMILES IDX 4 1 5 2 2 3 1 4 3 5 6 6 7 7 11 8 8 9 10 10 9 11
REMARK H PARENT
REMARK Flexibility Score: inf
ROOT
ATOM      1  C   UNL     1     104.164 104.936 101.512  1.00  0.00     0.025 C 
ATOM      2  C   UNL     1     104.497 105.388 100.294  1.00  0.00     0.010 C 
ENDROOT
BRANCH   1   3
ATOM      3  C   UNL     1     104.455 105.698 102.738  1.00  0.00     0.064 C 
ATOM      4  O   UNL     1     104.745 105.113 103.816  1.00  0.00    -0.545 OA
ATOM      5  O   UNL     1     104.409 107.085 102.706  1.00  0.00    -0.545 OA
ENDBRANCH   1   3
BRANCH   2   6
ATOM      6  C   UNL     1     104.233 104.668  99.018  1.00  0.00    -0.026 A 
ATOM      7  C   UNL     1     103.648 103.383  98.958  1.00  0.00     0.008 A 
ATOM      8  C   UNL     1     104.587 105.303  97.812  1.00  0.00     0.008 A 
ATOM      9  C   UNL     1     103.427 102.763  97.724  1.00  0.00     0.001 A 
ATOM     10  C   UNL     1     104.363 104.676  96.583  1.00  0.00     0.001 A 
ATOM     11  C   UNL     1     103.784 103.408  96.538  1.00  0.00     0.000 A 
ENDBRANCH   2   6
TORSDOF 2
ENDMDL
MODEL 4
REMARK VINA RESULT:     4.390      3.317      4.700
REMARK INTER + INTRA:           4.771
REMARK INTER:                   4.904
REMARK INTRA:                  -0.133
REMARK UNBOUND:                -0.132
REMARK SMILES O=C([O-])C=Cc1ccccc1
REMARK SMILES IDX 4 1 5 2 2 3 1 4 3 5 6 6 7 7 11 8 8 9 10 10 9 11
REMARK H PARENT
REMARK Flexibility Score: inf
ROOT
ATOM      1  C   UNL     1     103.825 103.279 101.532  1.00  0.00     0.025 C 
ATOM      2  C   UNL     1     103.491 102.835 100.311  1.00  0.00     0.010 C 
ENDROOT
BRANCH   1   3
ATOM      3  C   UNL     1     103.534 102.510 102.754  1.00  0.00     0.064 C 
ATOM      4  O   UNL     1     103.248 103.089 103.836  1.00  0.00    -0.545 OA
ATOM      5  O   UNL     1     103.574 101.123 102.713  1.00  0.00    -0.545 OA
ENDBRANCH   1   3
BRANCH   2   6
ATOM      6  C   UNL     1     103.756 103.562  99.040  1.00  0.00    -0.026 A 
ATOM      7  C   UNL     1     104.330 104.852  98.988  1.00  0.00     0.008 A 
ATOM      8  C   UNL     1     103.415 102.928  97.830  1.00  0.00     0.008 A 
ATOM      9  C   UNL     1     104.552 105.479  97.757  1.00  0.00     0.001 A 
ATOM     10  C   UNL     1     103.640 103.561  96.604  1.00  0.00     0.001 A 
ATOM     11  C   UNL     1     104.207 104.835  96.567  1.00  0.00     0.000 A 
ENDBRANCH   2   6
TORSDOF 2
ENDMDL
