MODEL 1
REMARK VINA RESULT:     8.329      0.000      0.000
REMARK INTER + INTRA:          14.393
REMARK INTER:                  14.660
REMARK INTRA:                  -0.267
REMARK UNBOUND:                -0.267
REMARK SMILES CCCCCCCCCCCCCCC(=O)[O-]
REMARK SMILES IDX 9 1 10 2 11 3 12 4 13 5 14 6 15 7 16 8 17 9 8 10 7 11 6 12
REMARK SMILES IDX 5 13 4 14 3 15 2 16 1 17
REMARK H PARENT
REMARK Flexibility Score: inf
ROOT
ATOM      1  C   UNL     1       7.006  21.048  54.934  1.00  0.00     0.000 C 
ENDROOT
BRANCH   1   2
ATOM      2  C   UNL     1       8.072  20.857  56.029  1.00  0.00     0.000 C 
BRANCH   2   3
ATOM      3  C   UNL     1       9.160  19.815  55.706  1.00  0.00     0.000 C 
BRANCH   3   4
ATOM      4  C   UNL     1      10.590  20.210  56.125  1.00  0.00     0.000 C 
BRANCH   4   5
ATOM      5  C   UNL     1      11.684  19.904  55.080  1.00  0.00     0.006 C 
BRANCH   5   6
ATOM      6  C   UNL     1      13.119  19.991  55.620  1.00  0.00     0.053 C 
BRANCH   6   7
ATOM      7  C   UNL     1      13.857  21.170  55.062  1.00  0.00     0.041 C 
ATOM      8  O   UNL     1      13.810  21.422  53.830  1.00  0.00    -0.550 OA
ATOM      9  O   UNL     1      14.624  21.970  55.899  1.00  0.00    -0.550 OA
ENDBRANCH   6   7
ENDBRANCH   5   6
ENDBRANCH   4   5
ENDBRANCH   3   4
ENDBRANCH   2   3
ENDBRANCH   1   2
BRANCH   1  10
ATOM     10  C   UNL     1       5.956  22.110  55.307  1.00  0.00     0.000 C 
BRANCH  10  11
ATOM     11  C   UNL     1       4.721  21.510  56.000  1.00  0.00    -0.000 C 
BRANCH  11  12
ATOM     12  C   UNL     1       3.613  21.012  55.050  1.00  0.00    -0.000 C 
BRANCH  12  13
ATOM     13  C   UNL     1       3.202  22.044  53.977  1.00  0.00    -0.000 C 
BRANCH  13  14
ATOM     14  C   UNL     1       4.080  21.958  52.720  1.00  0.00    -0.000 C 
BRANCH  14  15
ATOM     15  C   UNL     1       4.694  20.561  52.572  1.00  0.00    -0.000 C 
BRANCH  15  16
ATOM     16  C   UNL     1       5.399  20.412  51.219  1.00  0.00    -0.003 C 
ATOM     17  C   UNL     1       6.913  20.324  51.394  1.00  0.00     0.004 C 
ENDBRANCH  15  16
ENDBRANCH  14  15
ENDBRANCH  13  14
ENDBRANCH  12  13
ENDBRANCH  11  12
ENDBRANCH  10  11
ENDBRANCH   1  10
TORSDOF 13
ENDMDL
