MODEL 1
REMARK VINA RESULT:    -7.980      0.000      0.000
REMARK INTER + INTRA:          -9.567
REMARK INTER:                  -9.380
REMARK INTRA:                  -0.187
REMARK UNBOUND:                -0.187
REMARK SMILES O=c1c(O)c(-c2ccc(O)cc2)oc2cc(O)cc(O)c12
REMARK SMILES IDX 5 1 3 2 2 3 1 4 21 5 19 6 18 7 16 8 15 9 14 10 13 11 6 12
REMARK SMILES IDX 7 13 8 14 9 15 12 16 11 17 10 18 4 20 20 22 17 24
REMARK H PARENT 10 19 4 21 20 23 17 25
REMARK Flexibility Score: inf
ROOT
ATOM      1  C   UNL     1     -10.923   6.010  35.049  1.00  0.00     0.180 A 
ATOM      2  C   UNL     1     -10.988   4.674  35.491  1.00  0.00     0.208 A 
ATOM      3  C   UNL     1     -12.181   3.957  35.311  1.00  0.00     0.238 A 
ATOM      4  O   UNL     1     -12.255   2.765  35.713  1.00  0.00    -0.285 OA
ATOM      5  C   UNL     1     -13.278   4.578  34.678  1.00  0.00     0.111 A 
ATOM      6  C   UNL     1     -14.514   3.925  34.456  1.00  0.00     0.134 A 
ATOM      7  C   UNL     1     -15.555   4.608  33.810  1.00  0.00     0.093 A 
ATOM      8  C   UNL     1     -15.383   5.930  33.382  1.00  0.00     0.123 A 
ATOM      9  C   UNL     1     -14.166   6.577  33.599  1.00  0.00     0.094 A 
ATOM     10  C   UNL     1     -13.117   5.915  34.243  1.00  0.00     0.146 A 
ATOM     11  O   UNL     1     -11.971   6.557  34.442  1.00  0.00    -0.452 OA
ENDROOT
BRANCH   1  12
ATOM     12  C   UNL     1      -9.705   6.836  35.219  1.00  0.00     0.021 A 
ATOM     13  C   UNL     1      -8.534   6.576  34.485  1.00  0.00     0.016 A 
ATOM     14  C   UNL     1      -7.390   7.356  34.681  1.00  0.00     0.047 A 
ATOM     15  C   UNL     1      -7.396   8.393  35.622  1.00  0.00     0.115 A 
ATOM     16  C   UNL     1      -9.697   7.865  36.175  1.00  0.00     0.016 A 
ATOM     17  C   UNL     1      -8.551   8.643  36.370  1.00  0.00     0.047 A 
BRANCH  15  18
ATOM     18  O   UNL     1      -6.263   9.176  35.826  1.00  0.00    -0.508 OA
ATOM     19  H   UNL     1      -6.168   9.768  36.643  1.00  0.00     0.293 HD
ENDBRANCH  15  18
ENDBRANCH   1  12
BRANCH   2  20
ATOM     20  O   UNL     1      -9.871   4.067  36.071  1.00  0.00    -0.502 OA
ATOM     21  H   UNL     1      -9.950   3.317  36.747  1.00  0.00     0.293 HD
ENDBRANCH   2  20
BRANCH   6  22
ATOM     22  O   UNL     1     -14.716   2.608  34.870  1.00  0.00    -0.507 OA
ATOM     23  H   UNL     1     -15.397   2.007  34.422  1.00  0.00     0.293 HD
ENDBRANCH   6  22
BRANCH   8  24
ATOM     24  O   UNL     1     -16.416   6.608  32.739  1.00  0.00    -0.508 OA
ATOM     25  H   UNL     1     -16.879   7.399  33.171  1.00  0.00     0.293 HD
ENDBRANCH   8  24
TORSDOF 5
ENDMDL
MODEL 2
REMARK VINA RESULT:    -7.976      1.614      6.653
REMARK INTER + INTRA:          -9.563
REMARK INTER:                  -9.428
REMARK INTRA:                  -0.134
REMARK UNBOUND:                -0.187
REMARK SMILES O=c1c(O)c(-c2ccc(O)cc2)oc2cc(O)cc(O)c12
REMARK SMILES IDX 5 1 3 2 2 3 1 4 21 5 19 6 18 7 16 8 15 9 14 10 13 11 6 12
REMARK SMILES IDX 7 13 8 14 9 15 12 16 11 17 10 18 4 20 20 22 17 24
REMARK H PARENT 10 19 4 21 20 23 17 25
REMARK Flexibility Score: inf
ROOT
ATOM      1  C   UNL     1     -11.280   6.006  34.874  1.00  0.00     0.180 A 
ATOM      2  C   UNL     1     -10.034   5.566  34.388  1.00  0.00     0.208 A 
ATOM      3  C   UNL     1      -8.896   6.353  34.627  1.00  0.00     0.238 A 
ATOM      4  O   UNL     1      -7.777   5.975  34.186  1.00  0.00    -0.285 OA
ATOM      5  C   UNL     1      -9.019   7.551  35.360  1.00  0.00     0.111 A 
ATOM      6  C   UNL     1      -7.922   8.399  35.647  1.00  0.00     0.134 A 
ATOM      7  C   UNL     1      -8.125   9.570  36.392  1.00  0.00     0.093 A 
ATOM      8  C   UNL     1      -9.401   9.908  36.855  1.00  0.00     0.123 A 
ATOM      9  C   UNL     1     -10.485   9.075  36.575  1.00  0.00     0.094 A 
ATOM     10  C   UNL     1     -10.305   7.905  35.833  1.00  0.00     0.146 A 
ATOM     11  O   UNL     1     -11.355   7.133  35.576  1.00  0.00    -0.452 OA
ENDROOT
BRANCH   1  12
ATOM     12  C   UNL     1     -12.528   5.241  34.648  1.00  0.00     0.021 A 
ATOM     13  C   UNL     1     -13.583   5.769  33.882  1.00  0.00     0.016 A 
ATOM     14  C   UNL     1     -14.760   5.037  33.702  1.00  0.00     0.047 A 
ATOM     15  C   UNL     1     -14.905   3.777  34.297  1.00  0.00     0.115 A 
ATOM     16  C   UNL     1     -12.688   3.986  35.257  1.00  0.00     0.016 A 
ATOM     17  C   UNL     1     -13.868   3.256  35.077  1.00  0.00     0.047 A 
BRANCH  15  18
ATOM     18  O   UNL     1     -16.073   3.038  34.125  1.00  0.00    -0.508 OA
ATOM     19  H   UNL     1     -16.974   3.491  34.013  1.00  0.00     0.293 HD
ENDBRANCH  15  18
ENDBRANCH   1  12
BRANCH   2  20
ATOM     20  O   UNL     1      -9.931   4.351  33.707  1.00  0.00    -0.502 OA
ATOM     21  H   UNL     1      -9.430   4.260  32.831  1.00  0.00     0.293 HD
ENDBRANCH   2  20
BRANCH   6  22
ATOM     22  O   UNL     1      -6.637   8.089  35.199  1.00  0.00    -0.507 OA
ATOM     23  H   UNL     1      -5.937   8.805  35.052  1.00  0.00     0.293 HD
ENDBRANCH   6  22
BRANCH   8  24
ATOM     24  O   UNL     1      -9.603  11.071  37.597  1.00  0.00    -0.508 OA
ATOM     25  H   UNL     1      -8.824  11.616  37.948  1.00  0.00     0.293 HD
ENDBRANCH   8  24
TORSDOF 5
ENDMDL
MODEL 3
REMARK VINA RESULT:    -7.763      1.305      3.156
REMARK INTER + INTRA:          -9.312
REMARK INTER:                  -9.228
REMARK INTRA:                  -0.083
REMARK UNBOUND:                -0.187
REMARK SMILES O=c1c(O)c(-c2ccc(O)cc2)oc2cc(O)cc(O)c12
REMARK SMILES IDX 5 1 3 2 2 3 1 4 21 5 19 6 18 7 16 8 15 9 14 10 13 11 6 12
REMARK SMILES IDX 7 13 8 14 9 15 12 16 11 17 10 18 4 20 20 22 17 24
REMARK H PARENT 10 19 4 21 20 23 17 25
REMARK Flexibility Score: inf
ROOT
ATOM      1  C   UNL     1     -11.198   6.858  35.211  1.00  0.00     0.180 A 
ATOM      2  C   UNL     1     -12.265   7.520  34.572  1.00  0.00     0.208 A 
ATOM      3  C   UNL     1     -13.422   6.792  34.254  1.00  0.00     0.238 A 
ATOM      4  O   UNL     1     -14.379   7.370  33.672  1.00  0.00    -0.285 OA
ATOM      5  C   UNL     1     -13.501   5.425  34.596  1.00  0.00     0.111 A 
ATOM      6  C   UNL     1     -14.632   4.622  34.315  1.00  0.00     0.134 A 
ATOM      7  C   UNL     1     -14.638   3.272  34.697  1.00  0.00     0.093 A 
ATOM      8  C   UNL     1     -13.536   2.712  35.353  1.00  0.00     0.123 A 
ATOM      9  C   UNL     1     -12.419   3.500  35.632  1.00  0.00     0.094 A 
ATOM     10  C   UNL     1     -12.392   4.847  35.259  1.00  0.00     0.146 A 
ATOM     11  O   UNL     1     -11.314   5.574  35.532  1.00  0.00    -0.452 OA
ENDROOT
BRANCH   1  12
ATOM     12  C   UNL     1      -9.938   7.554  35.561  1.00  0.00     0.021 A 
ATOM     13  C   UNL     1      -9.928   8.659  36.430  1.00  0.00     0.016 A 
ATOM     14  C   UNL     1      -8.729   9.314  36.727  1.00  0.00     0.047 A 
ATOM     15  C   UNL     1      -7.528   8.883  36.148  1.00  0.00     0.115 A 
ATOM     16  C   UNL     1      -8.733   7.140  34.969  1.00  0.00     0.016 A 
ATOM     17  C   UNL     1      -7.535   7.797  35.267  1.00  0.00     0.047 A 
BRANCH  15  18
ATOM     18  O   UNL     1      -6.328   9.527  36.437  1.00  0.00    -0.508 OA
ATOM     19  H   UNL     1      -6.304  10.501  36.719  1.00  0.00     0.293 HD
ENDBRANCH  15  18
ENDBRANCH   1  12
BRANCH   2  20
ATOM     20  O   UNL     1     -12.180   8.885  34.288  1.00  0.00    -0.502 OA
ATOM     21  H   UNL     1     -11.912   9.569  34.986  1.00  0.00     0.293 HD
ENDBRANCH   2  20
BRANCH   6  22
ATOM     22  O   UNL     1     -15.746   5.152  33.662  1.00  0.00    -0.507 OA
ATOM     23  H   UNL     1     -15.922   4.975  32.681  1.00  0.00     0.293 HD
ENDBRANCH   6  22
BRANCH   8  24
ATOM     24  O   UNL     1     -13.542   1.372  35.734  1.00  0.00    -0.508 OA
ATOM     25  H   UNL     1     -13.171   1.074  36.628  1.00  0.00     0.293 HD
ENDBRANCH   8  24
TORSDOF 5
ENDMDL
MODEL 4
REMARK VINA RESULT:    -7.713      1.662      6.988
REMARK INTER + INTRA:          -9.253
REMARK INTER:                  -9.182
REMARK INTRA:                  -0.071
REMARK UNBOUND:                -0.187
REMARK SMILES O=c1c(O)c(-c2ccc(O)cc2)oc2cc(O)cc(O)c12
REMARK SMILES IDX 5 1 3 2 2 3 1 4 21 5 19 6 18 7 16 8 15 9 14 10 13 11 6 12
REMARK SMILES IDX 7 13 8 14 9 15 12 16 11 17 10 18 4 20 20 22 17 24
REMARK H PARENT 10 19 4 21 20 23 17 25
REMARK Flexibility Score: inf
ROOT
ATOM      1  C   UNL     1     -11.897   6.286  34.724  1.00  0.00     0.180 A 
ATOM      2  C   UNL     1     -11.975   7.491  35.448  1.00  0.00     0.208 A 
ATOM      3  C   UNL     1     -10.793   8.196  35.723  1.00  0.00     0.238 A 
ATOM      4  O   UNL     1     -10.849   9.270  36.380  1.00  0.00    -0.285 OA
ATOM      5  C   UNL     1      -9.559   7.696  35.255  1.00  0.00     0.111 A 
ATOM      6  C   UNL     1      -8.323   8.345  35.486  1.00  0.00     0.134 A 
ATOM      7  C   UNL     1      -7.140   7.789  34.979  1.00  0.00     0.093 A 
ATOM      8  C   UNL     1      -7.169   6.597  34.246  1.00  0.00     0.123 A 
ATOM      9  C   UNL     1      -8.386   5.953  34.016  1.00  0.00     0.094 A 
ATOM     10  C   UNL     1      -9.576   6.490  34.514  1.00  0.00     0.146 A 
ATOM     11  O   UNL     1     -10.720   5.853  34.285  1.00  0.00    -0.452 OA
ENDROOT
BRANCH   1  12
ATOM     12  C   UNL     1     -13.099   5.477  34.411  1.00  0.00     0.021 A 
ATOM     13  C   UNL     1     -14.169   6.011  33.671  1.00  0.00     0.016 A 
ATOM     14  C   UNL     1     -15.303   5.236  33.409  1.00  0.00     0.047 A 
ATOM     15  C   UNL     1     -15.387   3.924  33.894  1.00  0.00     0.115 A 
ATOM     16  C   UNL     1     -13.200   4.168  34.911  1.00  0.00     0.016 A 
ATOM     17  C   UNL     1     -14.335   3.395  34.647  1.00  0.00     0.047 A 
BRANCH  15  18
ATOM     18  O   UNL     1     -16.511   3.142  33.639  1.00  0.00    -0.508 OA
ATOM     19  H   UNL     1     -17.417   3.561  33.460  1.00  0.00     0.293 HD
ENDBRANCH  15  18
ENDBRANCH   1  12
BRANCH   2  20
ATOM     20  O   UNL     1     -13.215   7.990  35.858  1.00  0.00    -0.502 OA
ATOM     21  H   UNL     1     -13.327   8.538  36.702  1.00  0.00     0.293 HD
ENDBRANCH   2  20
BRANCH   6  22
ATOM     22  O   UNL     1      -8.261   9.535  36.213  1.00  0.00    -0.507 OA
ATOM     23  H   UNL     1      -8.798  10.352  35.945  1.00  0.00     0.293 HD
ENDBRANCH   6  22
BRANCH   8  24
ATOM     24  O   UNL     1      -5.995   6.045  33.740  1.00  0.00    -0.508 OA
ATOM     25  H   UNL     1      -5.085   6.337  34.077  1.00  0.00     0.293 HD
ENDBRANCH   8  24
TORSDOF 5
ENDMDL
MODEL 5
REMARK VINA RESULT:    -7.099      2.598      5.813
REMARK INTER + INTRA:          -8.531
REMARK INTER:                  -8.399
REMARK INTRA:                  -0.133
REMARK UNBOUND:                -0.187
REMARK SMILES O=c1c(O)c(-c2ccc(O)cc2)oc2cc(O)cc(O)c12
REMARK SMILES IDX 5 1 3 2 2 3 1 4 21 5 19 6 18 7 16 8 15 9 14 10 13 11 6 12
REMARK SMILES IDX 7 13 8 14 9 15 12 16 11 17 10 18 4 20 20 22 17 24
REMARK H PARENT 10 19 4 21 20 23 17 25
REMARK Flexibility Score: inf
ROOT
ATOM      1  C   UNL     1     -11.076   5.424  34.775  1.00  0.00     0.180 A 
ATOM      2  C   UNL     1     -11.098   4.203  35.477  1.00  0.00     0.208 A 
ATOM      3  C   UNL     1     -10.008   3.328  35.349  1.00  0.00     0.238 A 
ATOM      4  O   UNL     1     -10.021   2.227  35.963  1.00  0.00    -0.285 OA
ATOM      5  C   UNL     1      -8.911   3.694  34.541  1.00  0.00     0.111 A 
ATOM      6  C   UNL     1      -7.774   2.871  34.362  1.00  0.00     0.134 A 
ATOM      7  C   UNL     1      -6.718   3.311  33.549  1.00  0.00     0.093 A 
ATOM      8  C   UNL     1      -6.779   4.557  32.914  1.00  0.00     0.123 A 
ATOM      9  C   UNL     1      -7.899   5.371  33.088  1.00  0.00     0.094 A 
ATOM     10  C   UNL     1      -8.962   4.950  33.892  1.00  0.00     0.146 A 
ATOM     11  O   UNL     1     -10.019   5.743  34.036  1.00  0.00    -0.452 OA
ENDROOT
BRANCH   1  12
ATOM     12  C   UNL     1     -12.196   6.392  34.845  1.00  0.00     0.021 A 
ATOM     13  C   UNL     1     -13.485   6.055  34.393  1.00  0.00     0.016 A 
ATOM     14  C   UNL     1     -14.520   6.993  34.448  1.00  0.00     0.047 A 
ATOM     15  C   UNL     1     -14.277   8.283  34.939  1.00  0.00     0.115 A 
ATOM     16  C   UNL     1     -11.956   7.692  35.318  1.00  0.00     0.016 A 
ATOM     17  C   UNL     1     -12.993   8.630  35.370  1.00  0.00     0.047 A 
BRANCH  15  18
ATOM     18  O   UNL     1     -15.301   9.226  34.998  1.00  0.00    -0.508 OA
ATOM     19  H   UNL     1     -15.484   9.756  35.842  1.00  0.00     0.293 HD
ENDBRANCH  15  18
ENDBRANCH   1  12
BRANCH   2  20
ATOM     20  O   UNL     1     -12.175   3.886  36.309  1.00  0.00    -0.502 OA
ATOM     21  H   UNL     1     -12.210   3.029  36.849  1.00  0.00     0.293 HD
ENDBRANCH   2  20
BRANCH   6  22
ATOM     22  O   UNL     1      -7.683   1.624  34.983  1.00  0.00    -0.507 OA
ATOM     23  H   UNL     1      -8.481   1.005  35.052  1.00  0.00     0.293 HD
ENDBRANCH   6  22
BRANCH   8  24
ATOM     24  O   UNL     1      -5.731   4.995  32.108  1.00  0.00    -0.508 OA
ATOM     25  H   UNL     1      -5.873   5.696  31.390  1.00  0.00     0.293 HD
ENDBRANCH   8  24
TORSDOF 5
ENDMDL
MODEL 6
REMARK VINA RESULT:    -7.039      2.973      4.698
REMARK INTER + INTRA:          -8.461
REMARK INTER:                  -8.279
REMARK INTRA:                  -0.183
REMARK UNBOUND:                -0.187
REMARK SMILES O=c1c(O)c(-c2ccc(O)cc2)oc2cc(O)cc(O)c12
REMARK SMILES IDX 5 1 3 2 2 3 1 4 21 5 19 6 18 7 16 8 15 9 14 10 13 11 6 12
REMARK SMILES IDX 7 13 8 14 9 15 12 16 11 17 10 18 4 20 20 22 17 24
REMARK H PARENT 10 19 4 21 20 23 17 25
REMARK Flexibility Score: inf
ROOT
ATOM      1  C   UNL     1     -10.380   5.866  35.153  1.00  0.00     0.180 A 
ATOM      2  C   UNL     1      -9.296   5.465  34.349  1.00  0.00     0.208 A 
ATOM      3  C   UNL     1      -8.959   4.103  34.294  1.00  0.00     0.238 A 
ATOM      4  O   UNL     1      -7.983   3.734  33.586  1.00  0.00    -0.285 OA
ATOM      5  C   UNL     1      -9.720   3.167  35.025  1.00  0.00     0.111 A 
ATOM      6  C   UNL     1      -9.449   1.778  35.021  1.00  0.00     0.134 A 
ATOM      7  C   UNL     1     -10.259   0.909  35.767  1.00  0.00     0.093 A 
ATOM      8  C   UNL     1     -11.334   1.403  36.515  1.00  0.00     0.123 A 
ATOM      9  C   UNL     1     -11.605   2.772  36.522  1.00  0.00     0.094 A 
ATOM     10  C   UNL     1     -10.808   3.655  35.787  1.00  0.00     0.146 A 
ATOM     11  O   UNL     1     -11.085   4.954  35.815  1.00  0.00    -0.452 OA
ENDROOT
BRANCH   1  12
ATOM     12  C   UNL     1     -10.786   7.285  35.277  1.00  0.00     0.021 A 
ATOM     13  C   UNL     1      -9.959   8.231  35.910  1.00  0.00     0.016 A 
ATOM     14  C   UNL     1     -10.374   9.560  36.036  1.00  0.00     0.047 A 
ATOM     15  C   UNL     1     -11.625   9.958  35.545  1.00  0.00     0.115 A 
ATOM     16  C   UNL     1     -12.046   7.687  34.804  1.00  0.00     0.016 A 
ATOM     17  C   UNL     1     -12.459   9.017  34.932  1.00  0.00     0.047 A 
BRANCH  15  18
ATOM     18  O   UNL     1     -12.048  11.279  35.664  1.00  0.00    -0.508 OA
ATOM     19  H   UNL     1     -11.984  11.928  34.887  1.00  0.00     0.293 HD
ENDBRANCH  15  18
ENDBRANCH   1  12
BRANCH   2  20
ATOM     20  O   UNL     1      -8.589   6.406  33.596  1.00  0.00    -0.502 OA
ATOM     21  H   UNL     1      -8.378   6.269  32.615  1.00  0.00     0.293 HD
ENDBRANCH   2  20
BRANCH   6  22
ATOM     22  O   UNL     1      -8.385   1.255  34.284  1.00  0.00    -0.507 OA
ATOM     23  H   UNL     1      -7.508   1.000  34.722  1.00  0.00     0.293 HD
ENDBRANCH   6  22
BRANCH   8  24
ATOM     24  O   UNL     1     -12.140   0.541  37.256  1.00  0.00    -0.508 OA
ATOM     25  H   UNL     1     -11.929  -0.447  37.330  1.00  0.00     0.293 HD
ENDBRANCH   8  24
TORSDOF 5
ENDMDL
MODEL 7
REMARK VINA RESULT:    -6.976      2.546      5.704
REMARK INTER + INTRA:          -8.387
REMARK INTER:                  -8.160
REMARK INTRA:                  -0.227
REMARK UNBOUND:                -0.187
REMARK SMILES O=c1c(O)c(-c2ccc(O)cc2)oc2cc(O)cc(O)c12
REMARK SMILES IDX 5 1 3 2 2 3 1 4 21 5 19 6 18 7 16 8 15 9 14 10 13 11 6 12
REMARK SMILES IDX 7 13 8 14 9 15 12 16 11 17 10 18 4 20 20 22 17 24
REMARK H PARENT 10 19 4 21 20 23 17 25
REMARK Flexibility Score: inf
ROOT
ATOM      1  C   UNL     1     -10.324   5.281  35.020  1.00  0.00     0.180 A 
ATOM      2  C   UNL     1     -11.612   5.596  34.545  1.00  0.00     0.208 A 
ATOM      3  C   UNL     1     -12.107   6.895  34.736  1.00  0.00     0.238 A 
ATOM      4  O   UNL     1     -13.263   7.185  34.325  1.00  0.00    -0.285 OA
ATOM      5  C   UNL     1     -11.303   7.859  35.379  1.00  0.00     0.111 A 
ATOM      6  C   UNL     1     -11.725   9.191  35.607  1.00  0.00     0.134 A 
ATOM      7  C   UNL     1     -10.863  10.094  36.246  1.00  0.00     0.093 A 
ATOM      8  C   UNL     1      -9.587   9.692  36.658  1.00  0.00     0.123 A 
ATOM      9  C   UNL     1      -9.167   8.380  36.435  1.00  0.00     0.094 A 
ATOM     10  C   UNL     1     -10.012   7.464  35.803  1.00  0.00     0.146 A 
ATOM     11  O   UNL     1      -9.589   6.219  35.607  1.00  0.00    -0.452 OA
ENDROOT
BRANCH   1  12
ATOM     12  C   UNL     1      -9.740   3.927  34.873  1.00  0.00     0.021 A 
ATOM     13  C   UNL     1      -8.768   3.651  33.894  1.00  0.00     0.016 A 
ATOM     14  C   UNL     1      -8.249   2.360  33.758  1.00  0.00     0.047 A 
ATOM     15  C   UNL     1      -8.705   1.327  34.587  1.00  0.00     0.115 A 
ATOM     16  C   UNL     1     -10.206   2.882  35.686  1.00  0.00     0.016 A 
ATOM     17  C   UNL     1      -9.686   1.591  35.548  1.00  0.00     0.047 A 
BRANCH  15  18
ATOM     18  O   UNL     1      -8.195   0.037  34.461  1.00  0.00    -0.508 OA
ATOM     19  H   UNL     1      -7.743  -0.432  35.239  1.00  0.00     0.293 HD
ENDBRANCH  15  18
ENDBRANCH   1  12
BRANCH   2  20
ATOM     20  O   UNL     1     -12.368   4.636  33.868  1.00  0.00    -0.502 OA
ATOM     21  H   UNL     1     -13.320   4.809  33.565  1.00  0.00     0.293 HD
ENDBRANCH   2  20
BRANCH   6  22
ATOM     22  O   UNL     1     -12.991   9.622  35.207  1.00  0.00    -0.507 OA
ATOM     23  H   UNL     1     -13.160   9.986  34.277  1.00  0.00     0.293 HD
ENDBRANCH   6  22
BRANCH   8  24
ATOM     24  O   UNL     1      -8.729  10.589  37.291  1.00  0.00    -0.508 OA
ATOM     25  H   UNL     1      -8.480  10.483  38.267  1.00  0.00     0.293 HD
ENDBRANCH   8  24
TORSDOF 5
ENDMDL
MODEL 8
REMARK VINA RESULT:    -6.959      2.416      4.071
REMARK INTER + INTRA:          -8.367
REMARK INTER:                  -8.146
REMARK INTRA:                  -0.221
REMARK UNBOUND:                -0.187
REMARK SMILES O=c1c(O)c(-c2ccc(O)cc2)oc2cc(O)cc(O)c12
REMARK SMILES IDX 5 1 3 2 2 3 1 4 21 5 19 6 18 7 16 8 15 9 14 10 13 11 6 12
REMARK SMILES IDX 7 13 8 14 9 15 12 16 11 17 10 18 4 20 20 22 17 24
REMARK H PARENT 10 19 4 21 20 23 17 25
REMARK Flexibility Score: inf
ROOT
ATOM      1  C   UNL     1     -10.476   5.267  34.754  1.00  0.00     0.180 A 
ATOM      2  C   UNL     1     -10.260   6.512  35.375  1.00  0.00     0.208 A 
ATOM      3  C   UNL     1     -11.307   7.446  35.407  1.00  0.00     0.238 A 
ATOM      4  O   UNL     1     -11.121   8.568  35.950  1.00  0.00    -0.285 OA
ATOM      5  C   UNL     1     -12.554   7.114  34.837  1.00  0.00     0.111 A 
ATOM      6  C   UNL     1     -13.661   7.995  34.831  1.00  0.00     0.134 A 
ATOM      7  C   UNL     1     -14.872   7.587  34.253  1.00  0.00     0.093 A 
ATOM      8  C   UNL     1     -14.997   6.315  33.683  1.00  0.00     0.123 A 
ATOM      9  C   UNL     1     -13.908   5.442  33.687  1.00  0.00     0.094 A 
ATOM     10  C   UNL     1     -12.692   5.831  34.256  1.00  0.00     0.146 A 
ATOM     11  O   UNL     1     -11.670   4.982  34.242  1.00  0.00    -0.452 OA
ENDROOT
BRANCH   1  12
ATOM     12  C   UNL     1      -9.415   4.237  34.664  1.00  0.00     0.021 A 
ATOM     13  C   UNL     1      -8.312   4.394  33.805  1.00  0.00     0.016 A 
ATOM     14  C   UNL     1      -7.336   3.397  33.720  1.00  0.00     0.047 A 
ATOM     15  C   UNL     1      -7.456   2.225  34.480  1.00  0.00     0.115 A 
ATOM     16  C   UNL     1      -9.539   3.051  35.407  1.00  0.00     0.016 A 
ATOM     17  C   UNL     1      -8.561   2.055  35.320  1.00  0.00     0.047 A 
BRANCH  15  18
ATOM     18  O   UNL     1      -6.490   1.226  34.404  1.00  0.00    -0.508 OA
ATOM     19  H   UNL     1      -5.527   1.437  34.164  1.00  0.00     0.293 HD
ENDBRANCH  15  18
ENDBRANCH   1  12
BRANCH   2  20
ATOM     20  O   UNL     1      -9.030   6.798  35.974  1.00  0.00    -0.502 OA
ATOM     21  H   UNL     1      -8.924   6.891  36.977  1.00  0.00     0.293 HD
ENDBRANCH   2  20
BRANCH   6  22
ATOM     22  O   UNL     1     -13.569   9.270  35.392  1.00  0.00    -0.507 OA
ATOM     23  H   UNL     1     -13.298  10.076  34.841  1.00  0.00     0.293 HD
ENDBRANCH   6  22
BRANCH   8  24
ATOM     24  O   UNL     1     -16.200   5.908  33.110  1.00  0.00    -0.508 OA
ATOM     25  H   UNL     1     -16.234   5.164  32.423  1.00  0.00     0.293 HD
ENDBRANCH   8  24
TORSDOF 5
ENDMDL
MODEL 9
REMARK VINA RESULT:    -6.821      3.581      6.827
REMARK INTER + INTRA:          -8.205
REMARK INTER:                  -8.310
REMARK INTRA:                   0.105
REMARK UNBOUND:                -0.187
REMARK SMILES O=c1c(O)c(-c2ccc(O)cc2)oc2cc(O)cc(O)c12
REMARK SMILES IDX 5 1 3 2 2 3 1 4 21 5 19 6 18 7 16 8 15 9 14 10 13 11 6 12
REMARK SMILES IDX 7 13 8 14 9 15 12 16 11 17 10 18 4 20 20 22 17 24
REMARK H PARENT 10 19 4 21 20 23 17 25
REMARK Flexibility Score: inf
ROOT
ATOM      1  C   UNL     1      -7.834   5.177  33.857  1.00  0.00     0.180 A 
ATOM      2  C   UNL     1      -9.165   5.270  34.305  1.00  0.00     0.208 A 
ATOM      3  C   UNL     1      -9.554   6.395  35.051  1.00  0.00     0.238 A 
ATOM      4  O   UNL     1     -10.740   6.484  35.467  1.00  0.00    -0.285 OA
ATOM      5  C   UNL     1      -8.613   7.411  35.318  1.00  0.00     0.111 A 
ATOM      6  C   UNL     1      -8.923   8.577  36.059  1.00  0.00     0.134 A 
ATOM      7  C   UNL     1      -7.935   9.548  36.274  1.00  0.00     0.093 A 
ATOM      8  C   UNL     1      -6.643   9.376  35.763  1.00  0.00     0.123 A 
ATOM      9  C   UNL     1      -6.332   8.228  35.032  1.00  0.00     0.094 A 
ATOM     10  C   UNL     1      -7.303   7.247  34.808  1.00  0.00     0.146 A 
ATOM     11  O   UNL     1      -6.979   6.162  34.114  1.00  0.00    -0.452 OA
ENDROOT
BRANCH   1  12
ATOM     12  C   UNL     1      -7.344   4.014  33.081  1.00  0.00     0.021 A 
ATOM     13  C   UNL     1      -7.695   2.698  33.433  1.00  0.00     0.016 A 
ATOM     14  C   UNL     1      -7.201   1.615  32.699  1.00  0.00     0.047 A 
ATOM     15  C   UNL     1      -6.339   1.832  31.616  1.00  0.00     0.115 A 
ATOM     16  C   UNL     1      -6.465   4.222  32.005  1.00  0.00     0.016 A 
ATOM     17  C   UNL     1      -5.972   3.137  31.274  1.00  0.00     0.047 A 
BRANCH  15  18
ATOM     18  O   UNL     1      -5.842   0.761  30.877  1.00  0.00    -0.508 OA
ATOM     19  H   UNL     1      -4.888   0.754  30.532  1.00  0.00     0.293 HD
ENDBRANCH  15  18
ENDBRANCH   1  12
BRANCH   2  20
ATOM     20  O   UNL     1     -10.090   4.272  33.985  1.00  0.00    -0.502 OA
ATOM     21  H   UNL     1     -10.312   4.025  33.028  1.00  0.00     0.293 HD
ENDBRANCH   2  20
BRANCH   6  22
ATOM     22  O   UNL     1     -10.203   8.778  36.581  1.00  0.00    -0.507 OA
ATOM     23  H   UNL     1     -10.355   9.315  37.425  1.00  0.00     0.293 HD
ENDBRANCH   6  22
BRANCH   8  24
ATOM     24  O   UNL     1      -5.661  10.340  35.975  1.00  0.00    -0.508 OA
ATOM     25  H   UNL     1      -5.004  10.267  36.743  1.00  0.00     0.293 HD
ENDBRANCH   8  24
TORSDOF 5
ENDMDL
