MODEL 1
REMARK VINA RESULT:     0.000      0.000      0.000
REMARK INTER + INTRA:          -0.335
REMARK INTER:                   0.000
REMARK INTRA:                  -0.335
REMARK UNBOUND:                -0.335
REMARK SMILES O=c1c(O)c(-c2ccc(O)c(O)c2)oc2cc(O)cc(O)c12
REMARK SMILES IDX 5 1 3 2 2 3 1 4 22 5 20 6 19 7 17 8 16 9 15 10 14 11 6 12
REMARK SMILES IDX 7 13 8 14 9 15 13 16 11 17 10 18 12 20 4 22 21 24 18 26
REMARK H PARENT 10 19 12 21 4 23 21 25 18 27
REMARK Flexibility Score: inf
ROOT
ATOM      1  C   UNL     1       9.323  47.464  35.735  1.00  0.00     0.180 A 
ATOM      2  C   UNL     1       8.669  46.341  35.199  1.00  0.00     0.208 A 
ATOM      3  C   UNL     1       9.416  45.185  34.924  1.00  0.00     0.238 A 
ATOM      4  O   UNL     1       8.836  44.202  34.394  1.00  0.00    -0.285 OA
ATOM      5  C   UNL     1      10.804  45.159  35.204  1.00  0.00     0.111 A 
ATOM      6  C   UNL     1      11.650  44.027  35.002  1.00  0.00     0.134 A 
ATOM      7  C   UNL     1      13.032  44.157  35.191  1.00  0.00     0.093 A 
ATOM      8  C   UNL     1      13.590  45.355  35.634  1.00  0.00     0.123 A 
ATOM      9  C   UNL     1      12.764  46.451  35.891  1.00  0.00     0.094 A 
ATOM     10  C   UNL     1      11.387  46.363  35.678  1.00  0.00     0.146 A 
ATOM     11  O   UNL     1      10.637  47.431  35.924  1.00  0.00    -0.452 OA
ENDROOT
BRANCH   1  12
ATOM     12  C   UNL     1       8.600  48.711  36.074  1.00  0.00     0.025 A 
ATOM     13  C   UNL     1       8.021  48.899  37.342  1.00  0.00     0.016 A 
ATOM     14  C   UNL     1       7.364  50.093  37.648  1.00  0.00     0.051 A 
ATOM     15  C   UNL     1       7.286  51.120  36.702  1.00  0.00     0.157 A 
ATOM     16  C   UNL     1       8.538  49.753  35.134  1.00  0.00     0.062 A 
ATOM     17  C   UNL     1       7.879  50.952  35.440  1.00  0.00     0.158 A 
BRANCH  15  18
ATOM     18  O   UNL     1       6.622  52.301  37.037  1.00  0.00    -0.504 OA
ATOM     19  H   UNL     1       5.920  52.711  36.434  1.00  0.00     0.293 HD
ENDBRANCH  15  18
BRANCH  17  20
ATOM     20  O   UNL     1       7.812  51.975  34.495  1.00  0.00    -0.504 OA
ATOM     21  H   UNL     1       7.567  52.923  34.755  1.00  0.00     0.293 HD
ENDBRANCH  17  20
ENDBRANCH   1  12
BRANCH   2  22
ATOM     22  O   UNL     1       7.303  46.396  34.911  1.00  0.00    -0.502 OA
ATOM     23  H   UNL     1       6.681  45.613  35.073  1.00  0.00     0.293 HD
ENDBRANCH   2  22
BRANCH   6  24
ATOM     24  O   UNL     1      11.185  42.758  34.648  1.00  0.00    -0.507 OA
ATOM     25  H   UNL     1      11.013  42.006  35.299  1.00  0.00     0.293 HD
ENDBRANCH   6  24
BRANCH   8  26
ATOM     26  O   UNL     1      14.967  45.442  35.825  1.00  0.00    -0.508 OA
ATOM     27  H   UNL     1      15.365  46.036  36.543  1.00  0.00     0.293 HD
ENDBRANCH   8  26
TORSDOF 6
ENDMDL
MODEL 2
REMARK VINA RESULT:     0.000      7.839     10.593
REMARK INTER + INTRA:          -0.335
REMARK INTER:                   0.000
REMARK INTRA:                  -0.335
REMARK UNBOUND:                -0.335
REMARK SMILES O=c1c(O)c(-c2ccc(O)c(O)c2)oc2cc(O)cc(O)c12
REMARK SMILES IDX 5 1 3 2 2 3 1 4 22 5 20 6 19 7 17 8 16 9 15 10 14 11 6 12
REMARK SMILES IDX 7 13 8 14 9 15 13 16 11 17 10 18 12 20 4 22 21 24 18 26
REMARK H PARENT 10 19 12 21 4 23 21 25 18 27
REMARK Flexibility Score: inf
ROOT
ATOM      1  C   UNL     1      10.883  55.220  33.196  1.00  0.00     0.180 A 
ATOM      2  C   UNL     1      10.499  56.458  33.741  1.00  0.00     0.208 A 
ATOM      3  C   UNL     1       9.133  56.764  33.843  1.00  0.00     0.238 A 
ATOM      4  O   UNL     1       8.798  57.895  34.281  1.00  0.00    -0.285 OA
ATOM      5  C   UNL     1       8.166  55.822  33.415  1.00  0.00     0.111 A 
ATOM      6  C   UNL     1       6.754  56.010  33.510  1.00  0.00     0.134 A 
ATOM      7  C   UNL     1       5.893  55.067  32.936  1.00  0.00     0.093 A 
ATOM      8  C   UNL     1       6.388  53.913  32.329  1.00  0.00     0.123 A 
ATOM      9  C   UNL     1       7.765  53.690  32.284  1.00  0.00     0.094 A 
ATOM     10  C   UNL     1       8.651  54.630  32.816  1.00  0.00     0.146 A 
ATOM     11  O   UNL     1       9.954  54.386  32.743  1.00  0.00    -0.452 OA
ENDROOT
BRANCH   1  12
ATOM     12  C   UNL     1      12.302  54.816  33.078  1.00  0.00     0.025 A 
ATOM     13  C   UNL     1      12.961  54.146  34.124  1.00  0.00     0.016 A 
ATOM     14  C   UNL     1      14.295  53.752  33.981  1.00  0.00     0.051 A 
ATOM     15  C   UNL     1      14.984  54.008  32.792  1.00  0.00     0.157 A 
ATOM     16  C   UNL     1      12.991  55.052  31.877  1.00  0.00     0.062 A 
ATOM     17  C   UNL     1      14.329  54.658  31.733  1.00  0.00     0.158 A 
BRANCH  15  18
ATOM     18  O   UNL     1      16.315  53.605  32.680  1.00  0.00    -0.504 OA
ATOM     19  H   UNL     1      16.858  53.772  31.842  1.00  0.00     0.293 HD
ENDBRANCH  15  18
BRANCH  17  20
ATOM     20  O   UNL     1      15.009  54.910  30.541  1.00  0.00    -0.504 OA
ATOM     21  H   UNL     1      14.515  55.040  29.666  1.00  0.00     0.293 HD
ENDBRANCH  17  20
ENDBRANCH   1  12
BRANCH   2  22
ATOM     22  O   UNL     1      11.471  57.382  34.137  1.00  0.00    -0.502 OA
ATOM     23  H   UNL     1      12.301  57.111  34.651  1.00  0.00     0.293 HD
ENDBRANCH   2  22
BRANCH   6  24
ATOM     24  O   UNL     1       6.152  57.081  34.175  1.00  0.00    -0.507 OA
ATOM     25  H   UNL     1       6.239  57.266  35.164  1.00  0.00     0.293 HD
ENDBRANCH   6  24
BRANCH   8  26
ATOM     26  O   UNL     1       5.500  52.990  31.782  1.00  0.00    -0.508 OA
ATOM     27  H   UNL     1       5.327  52.948  30.784  1.00  0.00     0.293 HD
ENDBRANCH   8  26
TORSDOF 6
ENDMDL
MODEL 3
REMARK VINA RESULT:     0.000      4.551      7.662
REMARK INTER + INTRA:          -0.335
REMARK INTER:                   0.000
REMARK INTRA:                  -0.335
REMARK UNBOUND:                -0.335
REMARK SMILES O=c1c(O)c(-c2ccc(O)c(O)c2)oc2cc(O)cc(O)c12
REMARK SMILES IDX 5 1 3 2 2 3 1 4 22 5 20 6 19 7 17 8 16 9 15 10 14 11 6 12
REMARK SMILES IDX 7 13 8 14 9 15 13 16 11 17 10 18 12 20 4 22 21 24 18 26
REMARK H PARENT 10 19 12 21 4 23 21 25 18 27
REMARK Flexibility Score: inf
ROOT
ATOM      1  C   UNL     1       8.409  42.578  33.782  1.00  0.00     0.180 A 
ATOM      2  C   UNL     1       8.842  43.416  34.824  1.00  0.00     0.208 A 
ATOM      3  C   UNL     1       9.780  44.422  34.544  1.00  0.00     0.238 A 
ATOM      4  O   UNL     1      10.205  45.133  35.491  1.00  0.00    -0.285 OA
ATOM      5  C   UNL     1      10.262  44.588  33.223  1.00  0.00     0.111 A 
ATOM      6  C   UNL     1      11.184  45.600  32.818  1.00  0.00     0.134 A 
ATOM      7  C   UNL     1      11.691  45.588  31.512  1.00  0.00     0.093 A 
ATOM      8  C   UNL     1      11.262  44.643  30.580  1.00  0.00     0.123 A 
ATOM      9  C   UNL     1      10.316  43.686  30.949  1.00  0.00     0.094 A 
ATOM     10  C   UNL     1       9.819  43.650  32.254  1.00  0.00     0.146 A 
ATOM     11  O   UNL     1       8.928  42.716  32.568  1.00  0.00    -0.452 OA
ENDROOT
BRANCH   1  12
ATOM     12  C   UNL     1       7.403  41.511  33.994  1.00  0.00     0.025 A 
ATOM     13  C   UNL     1       6.027  41.769  33.868  1.00  0.00     0.016 A 
ATOM     14  C   UNL     1       5.096  40.741  34.049  1.00  0.00     0.051 A 
ATOM     15  C   UNL     1       5.525  39.443  34.343  1.00  0.00     0.157 A 
ATOM     16  C   UNL     1       7.831  40.202  34.269  1.00  0.00     0.062 A 
ATOM     17  C   UNL     1       6.899  39.171  34.450  1.00  0.00     0.158 A 
BRANCH  15  18
ATOM     18  O   UNL     1       4.573  38.439  34.520  1.00  0.00    -0.504 OA
ATOM     19  H   UNL     1       4.826  37.460  34.557  1.00  0.00     0.293 HD
ENDBRANCH  15  18
BRANCH  17  20
ATOM     20  O   UNL     1       7.333  37.876  34.737  1.00  0.00    -0.504 OA
ATOM     21  H   UNL     1       7.301  37.501  35.677  1.00  0.00     0.293 HD
ENDBRANCH  17  20
ENDBRANCH   1  12
BRANCH   2  22
ATOM     22  O   UNL     1       8.370  43.220  36.125  1.00  0.00    -0.502 OA
ATOM     23  H   UNL     1       7.722  43.859  36.570  1.00  0.00     0.293 HD
ENDBRANCH   2  22
BRANCH   6  24
ATOM     24  O   UNL     1      11.608  46.645  33.642  1.00  0.00    -0.507 OA
ATOM     25  H   UNL     1      11.063  47.042  34.393  1.00  0.00     0.293 HD
ENDBRANCH   6  24
BRANCH   8  26
ATOM     26  O   UNL     1      11.777  44.672  29.287  1.00  0.00    -0.508 OA
ATOM     27  H   UNL     1      12.775  44.640  29.113  1.00  0.00     0.293 HD
ENDBRANCH   8  26
TORSDOF 6
ENDMDL
MODEL 4
REMARK VINA RESULT:     0.000      3.713      5.026
REMARK INTER + INTRA:          -0.335
REMARK INTER:                   0.000
REMARK INTRA:                  -0.335
REMARK UNBOUND:                -0.335
REMARK SMILES O=c1c(O)c(-c2ccc(O)c(O)c2)oc2cc(O)cc(O)c12
REMARK SMILES IDX 5 1 3 2 2 3 1 4 22 5 20 6 19 7 17 8 16 9 15 10 14 11 6 12
REMARK SMILES IDX 7 13 8 14 9 15 13 16 11 17 10 18 12 20 4 22 21 24 18 26
REMARK H PARENT 10 19 12 21 4 23 21 25 18 27
REMARK Flexibility Score: inf
ROOT
ATOM      1  C   UNL     1       8.241  51.887  35.115  1.00  0.00     0.180 A 
ATOM      2  C   UNL     1       8.142  50.565  34.646  1.00  0.00     0.208 A 
ATOM      3  C   UNL     1       9.313  49.807  34.490  1.00  0.00     0.238 A 
ATOM      4  O   UNL     1       9.223  48.644  34.018  1.00  0.00    -0.285 OA
ATOM      5  C   UNL     1      10.568  50.374  34.820  1.00  0.00     0.111 A 
ATOM      6  C   UNL     1      11.815  49.684  34.739  1.00  0.00     0.134 A 
ATOM      7  C   UNL     1      13.007  50.384  34.966  1.00  0.00     0.093 A 
ATOM      8  C   UNL     1      12.994  51.729  35.332  1.00  0.00     0.123 A 
ATOM      9  C   UNL     1      11.777  52.398  35.473  1.00  0.00     0.094 A 
ATOM     10  C   UNL     1      10.574  51.736  35.218  1.00  0.00     0.146 A 
ATOM     11  O   UNL     1       9.438  52.411  35.353  1.00  0.00    -0.452 OA
ENDROOT
BRANCH   1  12
ATOM     12  C   UNL     1       7.050  52.740  35.328  1.00  0.00     0.025 A 
ATOM     13  C   UNL     1       6.364  52.743  36.556  1.00  0.00     0.016 A 
ATOM     14  C   UNL     1       5.256  53.574  36.744  1.00  0.00     0.051 A 
ATOM     15  C   UNL     1       4.826  54.421  35.717  1.00  0.00     0.157 A 
ATOM     16  C   UNL     1       6.628  53.607  34.308  1.00  0.00     0.062 A 
ATOM     17  C   UNL     1       5.517  54.441  34.495  1.00  0.00     0.158 A 
BRANCH  15  18
ATOM     18  O   UNL     1       3.716  55.238  35.934  1.00  0.00    -0.504 OA
ATOM     19  H   UNL     1       3.717  55.971  36.633  1.00  0.00     0.293 HD
ENDBRANCH  15  18
BRANCH  17  20
ATOM     20  O   UNL     1       5.097  55.289  33.470  1.00  0.00    -0.504 OA
ATOM     21  H   UNL     1       5.287  55.080  32.497  1.00  0.00     0.293 HD
ENDBRANCH  17  20
ENDBRANCH   1  12
BRANCH   2  22
ATOM     22  O   UNL     1       6.895  50.033  34.306  1.00  0.00    -0.502 OA
ATOM     23  H   UNL     1       6.593  49.117  34.614  1.00  0.00     0.293 HD
ENDBRANCH   2  22
BRANCH   6  24
ATOM     24  O   UNL     1      11.936  48.319  34.469  1.00  0.00    -0.507 OA
ATOM     25  H   UNL     1      12.737  47.754  34.709  1.00  0.00     0.293 HD
ENDBRANCH   6  24
BRANCH   8  26
ATOM     26  O   UNL     1      14.199  52.389  35.565  1.00  0.00    -0.508 OA
ATOM     27  H   UNL     1      14.736  52.793  34.807  1.00  0.00     0.293 HD
ENDBRANCH   8  26
TORSDOF 6
ENDMDL
MODEL 5
REMARK VINA RESULT:     0.000      5.135      7.430
REMARK INTER + INTRA:          -0.335
REMARK INTER:                   0.000
REMARK INTRA:                  -0.335
REMARK UNBOUND:                -0.335
REMARK SMILES O=c1c(O)c(-c2ccc(O)c(O)c2)oc2cc(O)cc(O)c12
REMARK SMILES IDX 5 1 3 2 2 3 1 4 22 5 20 6 19 7 17 8 16 9 15 10 14 11 6 12
REMARK SMILES IDX 7 13 8 14 9 15 13 16 11 17 10 18 12 20 4 22 21 24 18 26
REMARK H PARENT 10 19 12 21 4 23 21 25 18 27
REMARK Flexibility Score: inf
ROOT
ATOM      1  C   UNL     1      12.455  45.066  32.117  1.00  0.00     0.180 A 
ATOM      2  C   UNL     1      11.180  44.486  32.001  1.00  0.00     0.208 A 
ATOM      3  C   UNL     1      10.456  44.663  30.812  1.00  0.00     0.238 A 
ATOM      4  O   UNL     1       9.293  44.188  30.736  1.00  0.00    -0.285 OA
ATOM      5  C   UNL     1      11.021  45.405  29.747  1.00  0.00     0.111 A 
ATOM      6  C   UNL     1      10.393  45.614  28.482  1.00  0.00     0.134 A 
ATOM      7  C   UNL     1      10.988  46.473  27.550  1.00  0.00     0.093 A 
ATOM      8  C   UNL     1      12.217  47.078  27.809  1.00  0.00     0.123 A 
ATOM      9  C   UNL     1      12.869  46.834  29.019  1.00  0.00     0.094 A 
ATOM     10  C   UNL     1      12.283  46.010  29.983  1.00  0.00     0.146 A 
ATOM     11  O   UNL     1      12.930  45.811  31.126  1.00  0.00    -0.452 OA
ENDROOT
BRANCH   1  12
ATOM     12  C   UNL     1      13.289  44.903  33.330  1.00  0.00     0.025 A 
ATOM     13  C   UNL     1      14.172  43.818  33.469  1.00  0.00     0.016 A 
ATOM     14  C   UNL     1      14.968  43.696  34.611  1.00  0.00     0.051 A 
ATOM     15  C   UNL     1      14.905  44.660  35.622  1.00  0.00     0.157 A 
ATOM     16  C   UNL     1      13.244  45.880  34.337  1.00  0.00     0.062 A 
ATOM     17  C   UNL     1      14.042  45.760  35.484  1.00  0.00     0.158 A 
BRANCH  15  18
ATOM     18  O   UNL     1      15.710  44.511  36.752  1.00  0.00    -0.504 OA
ATOM     19  H   UNL     1      15.445  43.914  37.525  1.00  0.00     0.293 HD
ENDBRANCH  15  18
BRANCH  17  20
ATOM     20  O   UNL     1      13.979  46.729  36.486  1.00  0.00    -0.504 OA
ATOM     21  H   UNL     1      14.816  47.094  36.924  1.00  0.00     0.293 HD
ENDBRANCH  17  20
ENDBRANCH   1  12
BRANCH   2  22
ATOM     22  O   UNL     1      10.632  43.776  33.074  1.00  0.00    -0.502 OA
ATOM     23  H   UNL     1      10.503  42.772  33.052  1.00  0.00     0.293 HD
ENDBRANCH   2  22
BRANCH   6  24
ATOM     24  O   UNL     1       9.210  44.986  28.085  1.00  0.00    -0.507 OA
ATOM     25  H   UNL     1       8.867  44.114  28.461  1.00  0.00     0.293 HD
ENDBRANCH   6  24
BRANCH   8  26
ATOM     26  O   UNL     1      12.787  47.915  26.852  1.00  0.00    -0.508 OA
ATOM     27  H   UNL     1      13.454  47.566  26.174  1.00  0.00     0.293 HD
ENDBRANCH   8  26
TORSDOF 6
ENDMDL
MODEL 6
REMARK VINA RESULT:     0.000      7.381      9.634
REMARK INTER + INTRA:          -0.335
REMARK INTER:                   0.000
REMARK INTRA:                  -0.335
REMARK UNBOUND:                -0.335
REMARK SMILES O=c1c(O)c(-c2ccc(O)c(O)c2)oc2cc(O)cc(O)c12
REMARK SMILES IDX 5 1 3 2 2 3 1 4 22 5 20 6 19 7 17 8 16 9 15 10 14 11 6 12
REMARK SMILES IDX 7 13 8 14 9 15 13 16 11 17 10 18 12 20 4 22 21 24 18 26
REMARK H PARENT 10 19 12 21 4 23 21 25 18 27
REMARK Flexibility Score: inf
ROOT
ATOM      1  C   UNL     1       6.834  50.825  41.913  1.00  0.00     0.180 A 
ATOM      2  C   UNL     1       5.981  51.470  42.827  1.00  0.00     0.208 A 
ATOM      3  C   UNL     1       4.607  51.188  42.792  1.00  0.00     0.238 A 
ATOM      4  O   UNL     1       3.842  51.809  43.575  1.00  0.00    -0.285 OA
ATOM      5  C   UNL     1       4.103  50.253  41.855  1.00  0.00     0.111 A 
ATOM      6  C   UNL     1       2.733  49.861  41.758  1.00  0.00     0.134 A 
ATOM      7  C   UNL     1       2.327  49.027  40.710  1.00  0.00     0.093 A 
ATOM      8  C   UNL     1       3.248  48.519  39.794  1.00  0.00     0.123 A 
ATOM      9  C   UNL     1       4.599  48.848  39.915  1.00  0.00     0.094 A 
ATOM     10  C   UNL     1       5.029  49.707  40.930  1.00  0.00     0.146 A 
ATOM     11  O   UNL     1       6.321  50.003  41.004  1.00  0.00    -0.452 OA
ENDROOT
BRANCH   1  12
ATOM     12  C   UNL     1       8.297  51.052  41.904  1.00  0.00     0.025 A 
ATOM     13  C   UNL     1       9.161  50.277  42.697  1.00  0.00     0.016 A 
ATOM     14  C   UNL     1      10.542  50.492  42.655  1.00  0.00     0.051 A 
ATOM     15  C   UNL     1      11.079  51.471  41.813  1.00  0.00     0.157 A 
ATOM     16  C   UNL     1       8.842  52.019  41.044  1.00  0.00     0.062 A 
ATOM     17  C   UNL     1      10.226  52.237  41.001  1.00  0.00     0.158 A 
BRANCH  15  18
ATOM     18  O   UNL     1      12.461  51.664  41.794  1.00  0.00    -0.504 OA
ATOM     19  H   UNL     1      12.988  51.682  40.930  1.00  0.00     0.293 HD
ENDBRANCH  15  18
BRANCH  17  20
ATOM     20  O   UNL     1      10.756  53.210  40.153  1.00  0.00    -0.504 OA
ATOM     21  H   UNL     1      10.370  53.379  39.232  1.00  0.00     0.293 HD
ENDBRANCH  17  20
ENDBRANCH   1  12
BRANCH   2  22
ATOM     22  O   UNL     1       6.497  52.406  43.727  1.00  0.00    -0.502 OA
ATOM     23  H   UNL     1       7.362  52.255  44.232  1.00  0.00     0.293 HD
ENDBRANCH   2  22
BRANCH   6  24
ATOM     24  O   UNL     1       1.747  50.237  42.674  1.00  0.00    -0.507 OA
ATOM     25  H   UNL     1       1.800  50.086  43.670  1.00  0.00     0.293 HD
ENDBRANCH   6  24
BRANCH   8  26
ATOM     26  O   UNL     1       2.810  47.679  38.773  1.00  0.00    -0.508 OA
ATOM     27  H   UNL     1       2.046  47.943  38.161  1.00  0.00     0.293 HD
ENDBRANCH   8  26
TORSDOF 6
ENDMDL
MODEL 7
REMARK VINA RESULT:     0.000      3.727      5.140
REMARK INTER + INTRA:          -0.335
REMARK INTER:                   0.000
REMARK INTRA:                  -0.335
REMARK UNBOUND:                -0.335
REMARK SMILES O=c1c(O)c(-c2ccc(O)c(O)c2)oc2cc(O)cc(O)c12
REMARK SMILES IDX 5 1 3 2 2 3 1 4 22 5 20 6 19 7 17 8 16 9 15 10 14 11 6 12
REMARK SMILES IDX 7 13 8 14 9 15 13 16 11 17 10 18 12 20 4 22 21 24 18 26
REMARK H PARENT 10 19 12 21 4 23 21 25 18 27
REMARK Flexibility Score: inf
ROOT
ATOM      1  C   UNL     1       7.288  46.560  36.936  1.00  0.00     0.180 A 
ATOM      2  C   UNL     1       6.617  46.871  38.131  1.00  0.00     0.208 A 
ATOM      3  C   UNL     1       7.252  46.614  39.356  1.00  0.00     0.238 A 
ATOM      4  O   UNL     1       6.624  46.843  40.422  1.00  0.00    -0.285 OA
ATOM      5  C   UNL     1       8.557  46.065  39.372  1.00  0.00     0.111 A 
ATOM      6  C   UNL     1       9.311  45.802  40.555  1.00  0.00     0.134 A 
ATOM      7  C   UNL     1      10.540  45.138  40.456  1.00  0.00     0.093 A 
ATOM      8  C   UNL     1      11.071  44.785  39.216  1.00  0.00     0.123 A 
ATOM      9  C   UNL     1      10.370  45.091  38.049  1.00  0.00     0.094 A 
ATOM     10  C   UNL     1       9.125  45.721  38.117  1.00  0.00     0.146 A 
ATOM     11  O   UNL     1       8.485  45.985  36.985  1.00  0.00    -0.452 OA
ENDROOT
BRANCH   1  12
ATOM     12  C   UNL     1       6.694  46.824  35.605  1.00  0.00     0.025 A 
ATOM     13  C   UNL     1       6.874  48.058  34.957  1.00  0.00     0.016 A 
ATOM     14  C   UNL     1       6.324  48.277  33.690  1.00  0.00     0.051 A 
ATOM     15  C   UNL     1       5.602  47.266  33.049  1.00  0.00     0.157 A 
ATOM     16  C   UNL     1       5.987  45.804  34.949  1.00  0.00     0.062 A 
ATOM     17  C   UNL     1       5.435  46.022  33.678  1.00  0.00     0.158 A 
BRANCH  15  18
ATOM     18  O   UNL     1       5.064  47.515  31.786  1.00  0.00    -0.504 OA
ATOM     19  H   UNL     1       4.108  47.825  31.661  1.00  0.00     0.293 HD
ENDBRANCH  15  18
BRANCH  17  20
ATOM     20  O   UNL     1       4.722  45.007  33.041  1.00  0.00    -0.504 OA
ATOM     21  H   UNL     1       5.088  44.534  32.223  1.00  0.00     0.293 HD
ENDBRANCH  17  20
ENDBRANCH   1  12
BRANCH   2  22
ATOM     22  O   UNL     1       5.320  47.391  38.092  1.00  0.00    -0.502 OA
ATOM     23  H   UNL     1       4.531  46.859  37.746  1.00  0.00     0.293 HD
ENDBRANCH   2  22
BRANCH   6  24
ATOM     24  O   UNL     1       8.915  46.194  41.836  1.00  0.00    -0.507 OA
ATOM     25  H   UNL     1       9.306  46.972  42.346  1.00  0.00     0.293 HD
ENDBRANCH   6  24
BRANCH   8  26
ATOM     26  O   UNL     1      12.304  44.138  39.156  1.00  0.00    -0.508 OA
ATOM     27  H   UNL     1      13.077  44.521  38.625  1.00  0.00     0.293 HD
ENDBRANCH   8  26
TORSDOF 6
ENDMDL
MODEL 8
REMARK VINA RESULT:     0.000      3.898      6.605
REMARK INTER + INTRA:          -0.335
REMARK INTER:                   0.000
REMARK INTRA:                  -0.335
REMARK UNBOUND:                -0.335
REMARK SMILES O=c1c(O)c(-c2ccc(O)c(O)c2)oc2cc(O)cc(O)c12
REMARK SMILES IDX 5 1 3 2 2 3 1 4 22 5 20 6 19 7 17 8 16 9 15 10 14 11 6 12
REMARK SMILES IDX 7 13 8 14 9 15 13 16 11 17 10 18 12 20 4 22 21 24 18 26
REMARK H PARENT 10 19 12 21 4 23 21 25 18 27
REMARK Flexibility Score: inf
ROOT
ATOM      1  C   UNL     1       9.650  45.568  32.749  1.00  0.00     0.180 A 
ATOM      2  C   UNL     1       9.530  44.981  31.477  1.00  0.00     0.208 A 
ATOM      3  C   UNL     1       9.569  45.803  30.340  1.00  0.00     0.238 A 
ATOM      4  O   UNL     1       9.406  45.278  29.208  1.00  0.00    -0.285 OA
ATOM      5  C   UNL     1       9.744  47.201  30.487  1.00  0.00     0.111 A 
ATOM      6  C   UNL     1       9.838  48.124  29.403  1.00  0.00     0.134 A 
ATOM      7  C   UNL     1       9.880  49.498  29.669  1.00  0.00     0.093 A 
ATOM      8  C   UNL     1       9.896  49.979  30.977  1.00  0.00     0.123 A 
ATOM      9  C   UNL     1       9.865  49.083  32.046  1.00  0.00     0.094 A 
ATOM     10  C   UNL     1       9.786  47.707  31.812  1.00  0.00     0.146 A 
ATOM     11  O   UNL     1       9.747  46.888  32.857  1.00  0.00    -0.452 OA
ENDROOT
BRANCH   1  12
ATOM     12  C   UNL     1       9.643  44.764  33.992  1.00  0.00     0.025 A 
ATOM     13  C   UNL     1      10.830  44.235  34.527  1.00  0.00     0.016 A 
ATOM     14  C   UNL     1      10.804  43.499  35.716  1.00  0.00     0.051 A 
ATOM     15  C   UNL     1       9.597  43.294  36.393  1.00  0.00     0.157 A 
ATOM     16  C   UNL     1       8.437  44.574  34.687  1.00  0.00     0.062 A 
ATOM     17  C   UNL     1       8.408  43.837  35.879  1.00  0.00     0.158 A 
BRANCH  15  18
ATOM     18  O   UNL     1       9.602  42.555  37.576  1.00  0.00    -0.504 OA
ATOM     19  H   UNL     1      10.139  42.840  38.385  1.00  0.00     0.293 HD
ENDBRANCH  15  18
BRANCH  17  20
ATOM     20  O   UNL     1       7.203  43.642  36.553  1.00  0.00    -0.504 OA
ATOM     21  H   UNL     1       6.386  44.207  36.353  1.00  0.00     0.293 HD
ENDBRANCH  17  20
ENDBRANCH   1  12
BRANCH   2  22
ATOM     22  O   UNL     1       9.336  43.602  31.356  1.00  0.00    -0.502 OA
ATOM     23  H   UNL     1      10.003  42.926  31.708  1.00  0.00     0.293 HD
ENDBRANCH   2  22
BRANCH   6  24
ATOM     24  O   UNL     1       9.922  47.746  28.060  1.00  0.00    -0.507 OA
ATOM     25  H   UNL     1      10.784  47.604  27.556  1.00  0.00     0.293 HD
ENDBRANCH   6  24
BRANCH   8  26
ATOM     26  O   UNL     1       9.954  51.353  31.203  1.00  0.00    -0.508 OA
ATOM     27  H   UNL     1       9.786  51.746  32.123  1.00  0.00     0.293 HD
ENDBRANCH   8  26
TORSDOF 6
ENDMDL
MODEL 9
REMARK VINA RESULT:     0.000      3.189      7.188
REMARK INTER + INTRA:          -0.335
REMARK INTER:                   0.000
REMARK INTRA:                  -0.335
REMARK UNBOUND:                -0.335
REMARK SMILES O=c1c(O)c(-c2ccc(O)c(O)c2)oc2cc(O)cc(O)c12
REMARK SMILES IDX 5 1 3 2 2 3 1 4 22 5 20 6 19 7 17 8 16 9 15 10 14 11 6 12
REMARK SMILES IDX 7 13 8 14 9 15 13 16 11 17 10 18 12 20 4 22 21 24 18 26
REMARK H PARENT 10 19 12 21 4 23 21 25 18 27
REMARK Flexibility Score: inf
ROOT
ATOM      1  C   UNL     1       9.650  45.568  32.749  1.00  0.00     0.180 A 
ATOM      2  C   UNL     1       9.830  45.818  31.377  1.00  0.00     0.208 A 
ATOM      3  C   UNL     1       9.788  47.143  30.915  1.00  0.00     0.238 A 
ATOM      4  O   UNL     1       9.895  47.357  29.680  1.00  0.00    -0.285 OA
ATOM      5  C   UNL     1       9.585  48.203  31.832  1.00  0.00     0.111 A 
ATOM      6  C   UNL     1       9.566  49.586  31.480  1.00  0.00     0.134 A 
ATOM      7  C   UNL     1       9.227  50.540  32.448  1.00  0.00     0.093 A 
ATOM      8  C   UNL     1       8.971  50.168  33.768  1.00  0.00     0.123 A 
ATOM      9  C   UNL     1       9.045  48.824  34.136  1.00  0.00     0.094 A 
ATOM     10  C   UNL     1       9.345  47.846  33.185  1.00  0.00     0.146 A 
ATOM     11  O   UNL     1       9.396  46.577  33.573  1.00  0.00    -0.452 OA
ENDROOT
BRANCH   1  12
ATOM     12  C   UNL     1       9.704  44.201  33.314  1.00  0.00     0.025 A 
ATOM     13  C   UNL     1      10.918  43.635  33.743  1.00  0.00     0.016 A 
ATOM     14  C   UNL     1      10.943  42.351  34.296  1.00  0.00     0.051 A 
ATOM     15  C   UNL     1       9.759  41.622  34.443  1.00  0.00     0.157 A 
ATOM     16  C   UNL     1       8.515  43.474  33.483  1.00  0.00     0.062 A 
ATOM     17  C   UNL     1       8.538  42.186  34.038  1.00  0.00     0.158 A 
BRANCH  15  18
ATOM     18  O   UNL     1       9.815  40.343  34.997  1.00  0.00    -0.504 OA
ATOM     19  H   UNL     1      10.165  40.178  35.933  1.00  0.00     0.293 HD
ENDBRANCH  15  18
BRANCH  17  20
ATOM     20  O   UNL     1       7.352  41.467  34.188  1.00  0.00    -0.504 OA
ATOM     21  H   UNL     1       7.333  40.566  34.650  1.00  0.00     0.293 HD
ENDBRANCH  17  20
ENDBRANCH   1  12
BRANCH   2  22
ATOM     22  O   UNL     1      10.007  44.756  30.487  1.00  0.00    -0.502 OA
ATOM     23  H   UNL     1      10.778  44.104  30.564  1.00  0.00     0.293 HD
ENDBRANCH   2  22
BRANCH   6  24
ATOM     24  O   UNL     1       9.896  50.074  30.213  1.00  0.00    -0.507 OA
ATOM     25  H   UNL     1      10.818  50.377  29.936  1.00  0.00     0.293 HD
ENDBRANCH   6  24
BRANCH   8  26
ATOM     26  O   UNL     1       8.652  51.146  34.707  1.00  0.00    -0.508 OA
ATOM     27  H   UNL     1       8.285  50.903  35.620  1.00  0.00     0.293 HD
ENDBRANCH   8  26
TORSDOF 6
ENDMDL
