MODEL 1
REMARK VINA RESULT:    -5.141      0.000      0.000
REMARK INTER + INTRA:          -5.879
REMARK INTER:                  -5.742
REMARK INTRA:                  -0.138
REMARK UNBOUND:                -0.138
REMARK SMILES COc1cc2ccc(=O)oc2cc1OC
REMARK SMILES IDX 3 1 13 2 12 3 11 4 5 5 4 6 6 7 7 8 8 9 9 10 10 11 2 12 1 13
REMARK SMILES IDX 14 14 15 15
REMARK H PARENT
REMARK Flexibility Score: inf
ROOT
ATOM      1  C   UNL     1      18.411 -40.351  26.014  1.00  0.00     0.161 A 
ATOM      2  C   UNL     1      18.312 -40.147  27.401  1.00  0.00     0.164 A 
ATOM      3  C   UNL     1      18.010 -41.232  28.247  1.00  0.00     0.098 A 
ATOM      4  C   UNL     1      17.806 -42.509  27.716  1.00  0.00     0.142 A 
ATOM      5  C   UNL     1      17.905 -42.713  26.325  1.00  0.00     0.022 A 
ATOM      6  C   UNL     1      18.206 -41.639  25.479  1.00  0.00     0.062 A 
ATOM      7  C   UNL     1      17.697 -44.002  25.825  1.00  0.00     0.019 A 
ATOM      8  C   UNL     1      17.400 -45.040  26.708  1.00  0.00     0.094 A 
ATOM      9  C   UNL     1      17.318 -44.762  28.075  1.00  0.00     0.336 A 
ATOM     10  O   UNL     1      17.051 -45.685  28.890  1.00  0.00    -0.246 OA
ATOM     11  O   UNL     1      17.521 -43.527  28.525  1.00  0.00    -0.423 OA
ENDROOT
BRANCH   1  12
ATOM     12  O   UNL     1      18.715 -39.247  25.200  1.00  0.00    -0.493 OA
ATOM     13  C   UNL     1      17.757 -38.517  24.439  1.00  0.00     0.278 C 
ENDBRANCH   1  12
BRANCH   2  14
ATOM     14  O   UNL     1      18.522 -38.851  27.899  1.00  0.00    -0.493 OA
ATOM     15  C   UNL     1      19.716 -38.419  28.544  1.00  0.00     0.278 C 
ENDBRANCH   2  14
TORSDOF 2
ENDMDL
MODEL 2
REMARK VINA RESULT:    -5.110      2.806      5.326
REMARK INTER + INTRA:          -5.846
REMARK INTER:                  -5.688
REMARK INTRA:                  -0.158
REMARK UNBOUND:                -0.138
REMARK SMILES COc1cc2ccc(=O)oc2cc1OC
REMARK SMILES IDX 3 1 13 2 12 3 11 4 5 5 4 6 6 7 7 8 8 9 9 10 10 11 2 12 1 13
REMARK SMILES IDX 14 14 15 15
REMARK H PARENT
REMARK Flexibility Score: inf
ROOT
ATOM      1  C   UNL     1      16.979 -44.523  30.957  1.00  0.00     0.161 A 
ATOM      2  C   UNL     1      17.435 -43.193  30.969  1.00  0.00     0.164 A 
ATOM      3  C   UNL     1      17.785 -42.564  29.759  1.00  0.00     0.098 A 
ATOM      4  C   UNL     1      17.683 -43.252  28.547  1.00  0.00     0.142 A 
ATOM      5  C   UNL     1      17.226 -44.585  28.535  1.00  0.00     0.022 A 
ATOM      6  C   UNL     1      16.876 -45.217  29.734  1.00  0.00     0.062 A 
ATOM      7  C   UNL     1      17.135 -45.247  27.306  1.00  0.00     0.019 A 
ATOM      8  C   UNL     1      17.495 -44.575  26.138  1.00  0.00     0.094 A 
ATOM      9  C   UNL     1      17.940 -43.252  26.227  1.00  0.00     0.336 A 
ATOM     10  O   UNL     1      18.270 -42.628  25.185  1.00  0.00    -0.246 OA
ATOM     11  O   UNL     1      18.017 -42.646  27.409  1.00  0.00    -0.423 OA
ENDROOT
BRANCH   1  12
ATOM     12  O   UNL     1      16.638 -45.119  32.182  1.00  0.00    -0.493 OA
ATOM     13  C   UNL     1      15.307 -45.268  32.666  1.00  0.00     0.278 C 
ENDBRANCH   1  12
BRANCH   2  14
ATOM     14  O   UNL     1      17.524 -42.533  32.205  1.00  0.00    -0.493 OA
ATOM     15  C   UNL     1      16.706 -41.434  32.593  1.00  0.00     0.278 C 
ENDBRANCH   2  14
TORSDOF 2
ENDMDL
MODEL 3
REMARK VINA RESULT:    -4.893      1.492      4.758
REMARK INTER + INTRA:          -5.603
REMARK INTER:                  -5.485
REMARK INTRA:                  -0.117
REMARK UNBOUND:                -0.138
REMARK SMILES COc1cc2ccc(=O)oc2cc1OC
REMARK SMILES IDX 3 1 13 2 12 3 11 4 5 5 4 6 6 7 7 8 8 9 9 10 10 11 2 12 1 13
REMARK SMILES IDX 14 14 15 15
REMARK H PARENT
REMARK Flexibility Score: inf
ROOT
ATOM      1  C   UNL     1      17.835 -43.036  28.695  1.00  0.00     0.161 A 
ATOM      2  C   UNL     1      18.026 -41.773  29.281  1.00  0.00     0.164 A 
ATOM      3  C   UNL     1      18.230 -40.646  28.462  1.00  0.00     0.098 A 
ATOM      4  C   UNL     1      18.247 -40.776  27.071  1.00  0.00     0.142 A 
ATOM      5  C   UNL     1      18.057 -42.043  26.483  1.00  0.00     0.022 A 
ATOM      6  C   UNL     1      17.852 -43.166  27.292  1.00  0.00     0.062 A 
ATOM      7  C   UNL     1      18.078 -42.139  25.088  1.00  0.00     0.019 A 
ATOM      8  C   UNL     1      18.286 -40.991  24.325  1.00  0.00     0.094 A 
ATOM      9  C   UNL     1      18.467 -39.768  24.977  1.00  0.00     0.336 A 
ATOM     10  O   UNL     1      18.655 -38.719  24.307  1.00  0.00    -0.246 OA
ATOM     11  O   UNL     1      18.441 -39.703  26.306  1.00  0.00    -0.423 OA
ENDROOT
BRANCH   1  12
ATOM     12  O   UNL     1      17.634 -44.138  29.542  1.00  0.00    -0.493 OA
ATOM     13  C   UNL     1      17.483 -45.483  29.097  1.00  0.00     0.278 C 
ENDBRANCH   1  12
BRANCH   2  14
ATOM     14  O   UNL     1      18.003 -41.680  30.682  1.00  0.00    -0.493 OA
ATOM     15  C   UNL     1      16.981 -41.031  31.431  1.00  0.00     0.278 C 
ENDBRANCH   2  14
TORSDOF 2
ENDMDL
MODEL 4
REMARK VINA RESULT:    -4.880      6.037      6.924
REMARK INTER + INTRA:          -5.588
REMARK INTER:                  -5.443
REMARK INTRA:                  -0.145
REMARK UNBOUND:                -0.138
REMARK SMILES COc1cc2ccc(=O)oc2cc1OC
REMARK SMILES IDX 3 1 13 2 12 3 11 4 5 5 4 6 6 7 7 8 8 9 9 10 10 11 2 12 1 13
REMARK SMILES IDX 14 14 15 15
REMARK H PARENT
REMARK Flexibility Score: inf
ROOT
ATOM      1  C   UNL     1      14.933 -44.673  31.119  1.00  0.00     0.161 A 
ATOM      2  C   UNL     1      14.603 -43.688  32.065  1.00  0.00     0.164 A 
ATOM      3  C   UNL     1      15.619 -43.096  32.841  1.00  0.00     0.098 A 
ATOM      4  C   UNL     1      16.952 -43.483  32.677  1.00  0.00     0.142 A 
ATOM      5  C   UNL     1      17.282 -44.472  31.728  1.00  0.00     0.022 A 
ATOM      6  C   UNL     1      16.278 -45.063  30.954  1.00  0.00     0.062 A 
ATOM      7  C   UNL     1      18.625 -44.836  31.587  1.00  0.00     0.019 A 
ATOM      8  C   UNL     1      19.590 -44.218  32.382  1.00  0.00     0.094 A 
ATOM      9  C   UNL     1      19.188 -43.245  33.302  1.00  0.00     0.336 A 
ATOM     10  O   UNL     1      20.043 -42.675  34.029  1.00  0.00    -0.246 OA
ATOM     11  O   UNL     1      17.904 -42.917  33.415  1.00  0.00    -0.423 OA
ENDROOT
BRANCH   1  12
ATOM     12  O   UNL     1      13.896 -45.242  30.362  1.00  0.00    -0.493 OA
ATOM     13  C   UNL     1      13.724 -45.060  28.960  1.00  0.00     0.278 C 
ENDBRANCH   1  12
BRANCH   2  14
ATOM     14  O   UNL     1      13.254 -43.324  32.203  1.00  0.00    -0.493 OA
ATOM     15  C   UNL     1      12.637 -42.240  31.517  1.00  0.00     0.278 C 
ENDBRANCH   2  14
TORSDOF 2
ENDMDL
MODEL 5
REMARK VINA RESULT:    -4.832      3.062      5.579
REMARK INTER + INTRA:          -5.535
REMARK INTER:                  -5.396
REMARK INTRA:                  -0.139
REMARK UNBOUND:                -0.138
REMARK SMILES COc1cc2ccc(=O)oc2cc1OC
REMARK SMILES IDX 3 1 13 2 12 3 11 4 5 5 4 6 6 7 7 8 8 9 9 10 10 11 2 12 1 13
REMARK SMILES IDX 14 14 15 15
REMARK H PARENT
REMARK Flexibility Score: inf
ROOT
ATOM      1  C   UNL     1      17.386 -43.207  31.399  1.00  0.00     0.161 A 
ATOM      2  C   UNL     1      17.043 -44.565  31.282  1.00  0.00     0.164 A 
ATOM      3  C   UNL     1      16.995 -45.166  30.010  1.00  0.00     0.098 A 
ATOM      4  C   UNL     1      17.284 -44.422  28.863  1.00  0.00     0.142 A 
ATOM      5  C   UNL     1      17.628 -43.060  28.981  1.00  0.00     0.022 A 
ATOM      6  C   UNL     1      17.679 -42.457  30.242  1.00  0.00     0.062 A 
ATOM      7  C   UNL     1      17.913 -42.343  27.814  1.00  0.00     0.019 A 
ATOM      8  C   UNL     1      17.850 -42.988  26.580  1.00  0.00     0.094 A 
ATOM      9  C   UNL     1      17.501 -44.342  26.541  1.00  0.00     0.336 A 
ATOM     10  O   UNL     1      17.439 -44.944  25.437  1.00  0.00    -0.246 OA
ATOM     11  O   UNL     1      17.236 -45.001  27.665  1.00  0.00    -0.423 OA
ENDROOT
BRANCH   1  12
ATOM     12  O   UNL     1      17.425 -42.640  32.683  1.00  0.00    -0.493 OA
ATOM     13  C   UNL     1      16.710 -41.471  33.072  1.00  0.00     0.278 C 
ENDBRANCH   1  12
BRANCH   2  14
ATOM     14  O   UNL     1      16.758 -45.282  32.456  1.00  0.00    -0.493 OA
ATOM     15  C   UNL     1      15.446 -45.568  32.927  1.00  0.00     0.278 C 
ENDBRANCH   2  14
TORSDOF 2
ENDMDL
MODEL 6
REMARK VINA RESULT:    -4.804      3.143      5.795
REMARK INTER + INTRA:          -5.503
REMARK INTER:                  -5.406
REMARK INTRA:                  -0.098
REMARK UNBOUND:                -0.138
REMARK SMILES COc1cc2ccc(=O)oc2cc1OC
REMARK SMILES IDX 3 1 13 2 12 3 11 4 5 5 4 6 6 7 7 8 8 9 9 10 10 11 2 12 1 13
REMARK SMILES IDX 14 14 15 15
REMARK H PARENT
REMARK Flexibility Score: inf
ROOT
ATOM      1  C   UNL     1      15.380 -44.650  30.558  1.00  0.00     0.161 A 
ATOM      2  C   UNL     1      15.160 -43.264  30.488  1.00  0.00     0.164 A 
ATOM      3  C   UNL     1      15.586 -42.545  29.355  1.00  0.00     0.098 A 
ATOM      4  C   UNL     1      16.229 -43.200  28.301  1.00  0.00     0.142 A 
ATOM      5  C   UNL     1      16.449 -44.591  28.372  1.00  0.00     0.022 A 
ATOM      6  C   UNL     1      16.027 -45.311  29.495  1.00  0.00     0.062 A 
ATOM      7  C   UNL     1      17.094 -45.218  27.300  1.00  0.00     0.019 A 
ATOM      8  C   UNL     1      17.496 -44.457  26.203  1.00  0.00     0.094 A 
ATOM      9  C   UNL     1      17.243 -43.082  26.203  1.00  0.00     0.336 A 
ATOM     10  O   UNL     1      17.597 -42.377  25.222  1.00  0.00    -0.246 OA
ATOM     11  O   UNL     1      16.628 -42.511  27.234  1.00  0.00    -0.423 OA
ENDROOT
BRANCH   1  12
ATOM     12  O   UNL     1      14.940 -45.336  31.703  1.00  0.00    -0.493 OA
ATOM     13  C   UNL     1      15.725 -45.537  32.875  1.00  0.00     0.278 C 
ENDBRANCH   1  12
BRANCH   2  14
ATOM     14  O   UNL     1      14.512 -42.638  31.566  1.00  0.00    -0.493 OA
ATOM     15  C   UNL     1      13.115 -42.369  31.620  1.00  0.00     0.278 C 
ENDBRANCH   2  14
TORSDOF 2
ENDMDL
MODEL 7
REMARK VINA RESULT:    -4.785      4.873      6.778
REMARK INTER + INTRA:          -5.482
REMARK INTER:                  -5.356
REMARK INTRA:                  -0.126
REMARK UNBOUND:                -0.138
REMARK SMILES COc1cc2ccc(=O)oc2cc1OC
REMARK SMILES IDX 3 1 13 2 12 3 11 4 5 5 4 6 6 7 7 8 8 9 9 10 10 11 2 12 1 13
REMARK SMILES IDX 14 14 15 15
REMARK H PARENT
REMARK Flexibility Score: inf
ROOT
ATOM      1  C   UNL     1      15.619 -45.053  29.853  1.00  0.00     0.161 A 
ATOM      2  C   UNL     1      15.474 -44.135  30.907  1.00  0.00     0.164 A 
ATOM      3  C   UNL     1      14.190 -43.683  31.267  1.00  0.00     0.098 A 
ATOM      4  C   UNL     1      13.060 -44.139  30.583  1.00  0.00     0.142 A 
ATOM      5  C   UNL     1      13.206 -45.059  29.526  1.00  0.00     0.022 A 
ATOM      6  C   UNL     1      14.479 -45.513  29.163  1.00  0.00     0.062 A 
ATOM      7  C   UNL     1      12.056 -45.498  28.861  1.00  0.00     0.019 A 
ATOM      8  C   UNL     1      10.809 -45.016  29.259  1.00  0.00     0.094 A 
ATOM      9  C   UNL     1      10.742 -44.105  30.317  1.00  0.00     0.336 A 
ATOM     10  O   UNL     1       9.626 -43.658  30.692  1.00  0.00    -0.246 OA
ATOM     11  O   UNL     1      11.851 -43.704  30.932  1.00  0.00    -0.423 OA
ENDROOT
BRANCH   1  12
ATOM     12  O   UNL     1      16.914 -45.483  29.521  1.00  0.00    -0.493 OA
ATOM     13  C   UNL     1      17.467 -45.443  28.208  1.00  0.00     0.278 C 
ENDBRANCH   1  12
BRANCH   2  14
ATOM     14  O   UNL     1      16.631 -43.698  31.572  1.00  0.00    -0.493 OA
ATOM     15  C   UNL     1      17.082 -44.205  32.823  1.00  0.00     0.278 C 
ENDBRANCH   2  14
TORSDOF 2
ENDMDL
MODEL 8
REMARK VINA RESULT:    -4.728      5.524      6.742
REMARK INTER + INTRA:          -5.419
REMARK INTER:                  -5.275
REMARK INTRA:                  -0.144
REMARK UNBOUND:                -0.138
REMARK SMILES COc1cc2ccc(=O)oc2cc1OC
REMARK SMILES IDX 3 1 13 2 12 3 11 4 5 5 4 6 6 7 7 8 8 9 9 10 10 11 2 12 1 13
REMARK SMILES IDX 14 14 15 15
REMARK H PARENT
REMARK Flexibility Score: inf
ROOT
ATOM      1  C   UNL     1      16.167 -44.473  31.453  1.00  0.00     0.161 A 
ATOM      2  C   UNL     1      15.532 -43.617  32.369  1.00  0.00     0.164 A 
ATOM      3  C   UNL     1      14.154 -43.353  32.238  1.00  0.00     0.098 A 
ATOM      4  C   UNL     1      13.417 -43.935  31.204  1.00  0.00     0.142 A 
ATOM      5  C   UNL     1      14.055 -44.793  30.286  1.00  0.00     0.022 A 
ATOM      6  C   UNL     1      15.423 -45.060  30.410  1.00  0.00     0.062 A 
ATOM      7  C   UNL     1      13.289 -45.360  29.262  1.00  0.00     0.019 A 
ATOM      8  C   UNL     1      11.929 -45.064  29.179  1.00  0.00     0.094 A 
ATOM      9  C   UNL     1      11.364 -44.204  30.126  1.00  0.00     0.336 A 
ATOM     10  O   UNL     1      10.138 -43.923  30.070  1.00  0.00    -0.246 OA
ATOM     11  O   UNL     1      12.115 -43.678  31.090  1.00  0.00    -0.423 OA
ENDROOT
BRANCH   1  12
ATOM     12  O   UNL     1      17.542 -44.715  31.614  1.00  0.00    -0.493 OA
ATOM     13  C   UNL     1      18.534 -44.414  30.638  1.00  0.00     0.278 C 
ENDBRANCH   1  12
BRANCH   2  14
ATOM     14  O   UNL     1      16.304 -43.050  33.396  1.00  0.00    -0.493 OA
ATOM     15  C   UNL     1      16.870 -41.745  33.351  1.00  0.00     0.278 C 
ENDBRANCH   2  14
TORSDOF 2
ENDMDL
MODEL 9
REMARK VINA RESULT:    -4.653      2.037      5.500
REMARK INTER + INTRA:          -5.335
REMARK INTER:                  -5.201
REMARK INTRA:                  -0.134
REMARK UNBOUND:                -0.138
REMARK SMILES COc1cc2ccc(=O)oc2cc1OC
REMARK SMILES IDX 3 1 13 2 12 3 11 4 5 5 4 6 6 7 7 8 8 9 9 10 10 11 2 12 1 13
REMARK SMILES IDX 14 14 15 15
REMARK H PARENT
REMARK Flexibility Score: inf
ROOT
ATOM      1  C   UNL     1      17.910 -43.609  29.134  1.00  0.00     0.161 A 
ATOM      2  C   UNL     1      18.670 -43.257  30.262  1.00  0.00     0.164 A 
ATOM      3  C   UNL     1      19.223 -41.965  30.357  1.00  0.00     0.098 A 
ATOM      4  C   UNL     1      19.022 -41.032  29.337  1.00  0.00     0.142 A 
ATOM      5  C   UNL     1      18.260 -41.386  28.205  1.00  0.00     0.022 A 
ATOM      6  C   UNL     1      17.707 -42.667  28.105  1.00  0.00     0.062 A 
ATOM      7  C   UNL     1      18.076 -40.429  27.201  1.00  0.00     0.019 A 
ATOM      8  C   UNL     1      18.647 -39.165  27.346  1.00  0.00     0.094 A 
ATOM      9  C   UNL     1      19.391 -38.886  28.497  1.00  0.00     0.336 A 
ATOM     10  O   UNL     1      19.914 -37.751  28.648  1.00  0.00    -0.246 OA
ATOM     11  O   UNL     1      19.549 -39.814  29.437  1.00  0.00    -0.423 OA
ENDROOT
BRANCH   1  12
ATOM     12  O   UNL     1      17.373 -44.906  29.072  1.00  0.00    -0.493 OA
ATOM     13  C   UNL     1      16.004 -45.202  28.816  1.00  0.00     0.278 C 
ENDBRANCH   1  12
BRANCH   2  14
ATOM     14  O   UNL     1      18.852 -44.220  31.268  1.00  0.00    -0.493 OA
ATOM     15  C   UNL     1      18.079 -44.296  32.461  1.00  0.00     0.278 C 
ENDBRANCH   2  14
TORSDOF 2
ENDMDL
