MODEL 1
REMARK VINA RESULT:    -4.333      0.000      0.000
REMARK INTER + INTRA:          -4.611
REMARK INTER:                  -4.587
REMARK INTRA:                  -0.024
REMARK UNBOUND:                -0.024
REMARK SMILES O=C([O-])c1cccnc1
REMARK SMILES IDX 4 1 5 2 9 3 6 4 8 5 7 6 2 7 1 8 3 9
REMARK H PARENT
REMARK Flexibility Score: inf
ROOT
ATOM      1  C   UNL     1     -14.292  90.630 -11.212  1.00  0.00     0.016 A 
ATOM      2  C   UNL     1     -15.085  91.172 -10.187  1.00  0.00     0.013 A 
ATOM      3  C   UNL     1     -13.928  91.460 -12.286  1.00  0.00     0.120 A 
ATOM      4  C   UNL     1     -15.492  92.506 -10.248  1.00  0.00     0.021 A 
ATOM      5  N   UNL     1     -14.338  92.758 -12.321  1.00  0.00    -0.264 NA
ATOM      6  C   UNL     1     -15.105  93.292 -11.334  1.00  0.00     0.111 A 
ENDROOT
BRANCH   1   7
ATOM      7  C   UNL     1     -13.855  89.218 -11.159  1.00  0.00     0.073 C 
ATOM      8  O   UNL     1     -14.146  88.495 -10.169  1.00  0.00    -0.545 OA
ATOM      9  O   UNL     1     -13.117  88.669 -12.201  1.00  0.00    -0.545 OA
ENDBRANCH   1   7
TORSDOF 1
ENDMDL
MODEL 2
REMARK VINA RESULT:    -4.246      2.523      3.444
REMARK INTER + INTRA:          -4.518
REMARK INTER:                  -4.498
REMARK INTRA:                  -0.020
REMARK UNBOUND:                -0.024
REMARK SMILES O=C([O-])c1cccnc1
REMARK SMILES IDX 4 1 5 2 9 3 6 4 8 5 7 6 2 7 1 8 3 9
REMARK H PARENT
REMARK Flexibility Score: inf
ROOT
ATOM      1  C   UNL     1     -14.668  91.218 -10.768  1.00  0.00     0.016 A 
ATOM      2  C   UNL     1     -14.583  89.881 -10.346  1.00  0.00     0.013 A 
ATOM      3  C   UNL     1     -14.053  91.577 -11.980  1.00  0.00     0.120 A 
ATOM      4  C   UNL     1     -13.902  88.943 -11.124  1.00  0.00     0.021 A 
ATOM      5  N   UNL     1     -13.395  90.644 -12.719  1.00  0.00    -0.264 NA
ATOM      6  C   UNL     1     -13.308  89.347 -12.321  1.00  0.00     0.111 A 
ENDROOT
BRANCH   1   7
ATOM      7  C   UNL     1     -15.387  92.220  -9.952  1.00  0.00     0.073 C 
ATOM      8  O   UNL     1     -15.235  92.256  -8.702  1.00  0.00    -0.545 OA
ATOM      9  O   UNL     1     -16.240  93.138 -10.554  1.00  0.00    -0.545 OA
ENDBRANCH   1   7
TORSDOF 1
ENDMDL
MODEL 3
REMARK VINA RESULT:    -4.063     11.305     11.880
REMARK INTER + INTRA:          -4.325
REMARK INTER:                  -4.302
REMARK INTRA:                  -0.023
REMARK UNBOUND:                -0.024
REMARK SMILES O=C([O-])c1cccnc1
REMARK SMILES IDX 4 1 5 2 9 3 6 4 8 5 7 6 2 7 1 8 3 9
REMARK H PARENT
REMARK Flexibility Score: inf
ROOT
ATOM      1  C   UNL     1     -24.955  87.391 -10.642  1.00  0.00     0.016 A 
ATOM      2  C   UNL     1     -24.952  86.228 -11.430  1.00  0.00     0.013 A 
ATOM      3  C   UNL     1     -26.192  87.962 -10.297  1.00  0.00     0.120 A 
ATOM      4  C   UNL     1     -26.158  85.665 -11.851  1.00  0.00     0.021 A 
ATOM      5  N   UNL     1     -27.353  87.393 -10.721  1.00  0.00    -0.264 NA
ATOM      6  C   UNL     1     -27.362  86.268 -11.483  1.00  0.00     0.111 A 
ENDROOT
BRANCH   1   7
ATOM      7  C   UNL     1     -23.684  87.997 -10.191  1.00  0.00     0.073 C 
ATOM      8  O   UNL     1     -22.600  87.716 -10.768  1.00  0.00    -0.545 OA
ATOM      9  O   UNL     1     -23.668  88.886  -9.122  1.00  0.00    -0.545 OA
ENDBRANCH   1   7
TORSDOF 1
ENDMDL
MODEL 4
REMARK VINA RESULT:    -4.012     11.238     11.713
REMARK INTER + INTRA:          -4.271
REMARK INTER:                  -4.247
REMARK INTRA:                  -0.024
REMARK UNBOUND:                -0.024
REMARK SMILES O=C([O-])c1cccnc1
REMARK SMILES IDX 4 1 5 2 9 3 6 4 8 5 7 6 2 7 1 8 3 9
REMARK H PARENT
REMARK Flexibility Score: inf
ROOT
ATOM      1  C   UNL     1     -25.335  86.908 -10.763  1.00  0.00     0.016 A 
ATOM      2  C   UNL     1     -23.972  87.152 -10.995  1.00  0.00     0.013 A 
ATOM      3  C   UNL     1     -25.994  87.674  -9.785  1.00  0.00     0.120 A 
ATOM      4  C   UNL     1     -23.302  88.136 -10.265  1.00  0.00     0.021 A 
ATOM      5  N   UNL     1     -25.318  88.626  -9.087  1.00  0.00    -0.264 NA
ATOM      6  C   UNL     1     -23.999  88.870  -9.305  1.00  0.00     0.111 A 
ENDROOT
BRANCH   1   7
ATOM      7  C   UNL     1     -26.055  85.869 -11.530  1.00  0.00     0.073 C 
ATOM      8  O   UNL     1     -27.304  85.742 -11.418  1.00  0.00    -0.545 OA
ATOM      9  O   UNL     1     -25.364  85.018 -12.384  1.00  0.00    -0.545 OA
ENDBRANCH   1   7
TORSDOF 1
ENDMDL
MODEL 5
REMARK VINA RESULT:    -3.945     16.523     16.757
REMARK INTER + INTRA:          -4.199
REMARK INTER:                  -4.179
REMARK INTRA:                  -0.020
REMARK UNBOUND:                -0.024
REMARK SMILES O=C([O-])c1cccnc1
REMARK SMILES IDX 4 1 5 2 9 3 6 4 8 5 7 6 2 7 1 8 3 9
REMARK H PARENT
REMARK Flexibility Score: inf
ROOT
ATOM      1  C   UNL     1     -25.834  86.344 -22.171  1.00  0.00     0.016 A 
ATOM      2  C   UNL     1     -26.118  87.445 -21.347  1.00  0.00     0.013 A 
ATOM      3  C   UNL     1     -26.871  85.440 -22.460  1.00  0.00     0.120 A 
ATOM      4  C   UNL     1     -27.404  87.624 -20.836  1.00  0.00     0.021 A 
ATOM      5  N   UNL     1     -28.117  85.638 -21.949  1.00  0.00    -0.264 NA
ATOM      6  C   UNL     1     -28.401  86.700 -21.151  1.00  0.00     0.111 A 
ENDROOT
BRANCH   1   7
ATOM      7  C   UNL     1     -24.475  86.144 -22.719  1.00  0.00     0.073 C 
ATOM      8  O   UNL     1     -24.314  85.754 -23.906  1.00  0.00    -0.545 OA
ATOM      9  O   UNL     1     -23.356  86.384 -21.930  1.00  0.00    -0.545 OA
ENDBRANCH   1   7
TORSDOF 1
ENDMDL
MODEL 6
REMARK VINA RESULT:    -3.912     10.218     10.735
REMARK INTER + INTRA:          -4.165
REMARK INTER:                  -4.141
REMARK INTRA:                  -0.024
REMARK UNBOUND:                -0.024
REMARK SMILES O=C([O-])c1cccnc1
REMARK SMILES IDX 4 1 5 2 9 3 6 4 8 5 7 6 2 7 1 8 3 9
REMARK H PARENT
REMARK Flexibility Score: inf
ROOT
ATOM      1  C   UNL     1     -24.696  89.113 -10.623  1.00  0.00     0.016 A 
ATOM      2  C   UNL     1     -25.712  89.805  -9.945  1.00  0.00     0.013 A 
ATOM      3  C   UNL     1     -24.496  89.386 -11.987  1.00  0.00     0.120 A 
ATOM      4  C   UNL     1     -26.496  90.740 -10.624  1.00  0.00     0.021 A 
ATOM      5  N   UNL     1     -25.274  90.302 -12.625  1.00  0.00    -0.264 NA
ATOM      6  C   UNL     1     -26.259  90.978 -11.978  1.00  0.00     0.111 A 
ENDROOT
BRANCH   1   7
ATOM      7  C   UNL     1     -23.859  88.120  -9.914  1.00  0.00     0.073 C 
ATOM      8  O   UNL     1     -22.979  87.466 -10.534  1.00  0.00    -0.545 OA
ATOM      9  O   UNL     1     -24.033  87.895  -8.553  1.00  0.00    -0.545 OA
ENDBRANCH   1   7
TORSDOF 1
ENDMDL
MODEL 7
REMARK VINA RESULT:    -3.904     11.278     11.767
REMARK INTER + INTRA:          -4.157
REMARK INTER:                  -4.140
REMARK INTRA:                  -0.017
REMARK UNBOUND:                -0.024
REMARK SMILES O=C([O-])c1cccnc1
REMARK SMILES IDX 4 1 5 2 9 3 6 4 8 5 7 6 2 7 1 8 3 9
REMARK H PARENT
REMARK Flexibility Score: inf
ROOT
ATOM      1  C   UNL     1     -24.997  87.115 -11.462  1.00  0.00     0.016 A 
ATOM      2  C   UNL     1     -25.025  85.724 -11.647  1.00  0.00     0.013 A 
ATOM      3  C   UNL     1     -25.280  87.943 -12.562  1.00  0.00     0.120 A 
ATOM      4  C   UNL     1     -25.329  85.190 -12.901  1.00  0.00     0.021 A 
ATOM      5  N   UNL     1     -25.573  87.397 -13.774  1.00  0.00    -0.264 NA
ATOM      6  C   UNL     1     -25.604  86.052 -13.964  1.00  0.00     0.111 A 
ENDROOT
BRANCH   1   7
ATOM      7  C   UNL     1     -24.675  87.692 -10.138  1.00  0.00     0.073 C 
ATOM      8  O   UNL     1     -25.501  87.617  -9.190  1.00  0.00    -0.545 OA
ATOM      9  O   UNL     1     -23.457  88.325  -9.923  1.00  0.00    -0.545 OA
ENDBRANCH   1   7
TORSDOF 1
ENDMDL
MODEL 8
REMARK VINA RESULT:    -3.885     11.171     11.717
REMARK INTER + INTRA:          -4.136
REMARK INTER:                  -4.118
REMARK INTRA:                  -0.019
REMARK UNBOUND:                -0.024
REMARK SMILES O=C([O-])c1cccnc1
REMARK SMILES IDX 4 1 5 2 9 3 6 4 8 5 7 6 2 7 1 8 3 9
REMARK H PARENT
REMARK Flexibility Score: inf
ROOT
ATOM      1  C   UNL     1     -25.343  88.815 -10.047  1.00  0.00     0.016 A 
ATOM      2  C   UNL     1     -25.783  90.092 -10.432  1.00  0.00     0.013 A 
ATOM      3  C   UNL     1     -26.241  87.739 -10.150  1.00  0.00     0.120 A 
ATOM      4  C   UNL     1     -27.085  90.271 -10.904  1.00  0.00     0.021 A 
ATOM      5  N   UNL     1     -27.504  87.940 -10.613  1.00  0.00    -0.264 NA
ATOM      6  C   UNL     1     -27.940  89.171 -10.989  1.00  0.00     0.111 A 
ENDROOT
BRANCH   1   7
ATOM      7  C   UNL     1     -23.966  88.614  -9.545  1.00  0.00     0.073 C 
ATOM      8  O   UNL     1     -23.530  89.299  -8.582  1.00  0.00    -0.545 OA
ATOM      9  O   UNL     1     -23.135  87.665 -10.128  1.00  0.00    -0.545 OA
ENDBRANCH   1   7
TORSDOF 1
ENDMDL
MODEL 9
REMARK VINA RESULT:    -3.870     10.203     10.760
REMARK INTER + INTRA:          -4.120
REMARK INTER:                  -4.104
REMARK INTRA:                  -0.017
REMARK UNBOUND:                -0.024
REMARK SMILES O=C([O-])c1cccnc1
REMARK SMILES IDX 4 1 5 2 9 3 6 4 8 5 7 6 2 7 1 8 3 9
REMARK H PARENT
REMARK Flexibility Score: inf
ROOT
ATOM      1  C   UNL     1     -24.489  89.526 -11.693  1.00  0.00     0.016 A 
ATOM      2  C   UNL     1     -23.589  88.449 -11.662  1.00  0.00     0.013 A 
ATOM      3  C   UNL     1     -25.154  89.876 -10.505  1.00  0.00     0.120 A 
ATOM      4  C   UNL     1     -23.369  87.753 -10.472  1.00  0.00     0.021 A 
ATOM      5  N   UNL     1     -24.922  89.181  -9.358  1.00  0.00    -0.264 NA
ATOM      6  C   UNL     1     -24.053  88.138  -9.317  1.00  0.00     0.111 A 
ENDROOT
BRANCH   1   7
ATOM      7  C   UNL     1     -24.730  90.270 -12.948  1.00  0.00     0.073 C 
ATOM      8  O   UNL     1     -25.809  90.123 -13.582  1.00  0.00    -0.545 OA
ATOM      9  O   UNL     1     -23.769  91.143 -13.445  1.00  0.00    -0.545 OA
ENDBRANCH   1   7
TORSDOF 1
ENDMDL
