MODEL 1
REMARK VINA RESULT:    -4.982      0.000      0.000
REMARK INTER + INTRA:          -5.651
REMARK INTER:                  -5.565
REMARK INTRA:                  -0.086
REMARK UNBOUND:                -0.086
REMARK SMILES CCc1ccc(O)cc1O
REMARK SMILES IDX 3 1 9 2 8 3 6 4 5 5 4 6 2 7 1 8 10 9 7 11
REMARK H PARENT 10 10 7 12
REMARK Flexibility Score: inf
ROOT
ATOM      1  C   UNL     1      -2.159  -0.250  13.312  1.00  0.00    -0.006 A 
ATOM      2  C   UNL     1      -3.469  -0.324  13.828  1.00  0.00     0.122 A 
ATOM      3  C   UNL     1      -4.400   0.678  13.515  1.00  0.00     0.092 A 
ATOM      4  C   UNL     1      -4.041   1.743  12.684  1.00  0.00     0.119 A 
ATOM      5  C   UNL     1      -2.744   1.810  12.160  1.00  0.00     0.047 A 
ATOM      6  C   UNL     1      -1.811   0.817  12.467  1.00  0.00     0.011 A 
ENDROOT
BRANCH   1   7
ATOM      7  C   UNL     1      -1.147  -1.329  13.608  1.00  0.00     0.036 C 
ATOM      8  C   UNL     1      -0.073  -1.375  12.525  1.00  0.00     0.009 C 
ENDBRANCH   1   7
BRANCH   2   9
ATOM      9  O   UNL     1      -3.842  -1.390  14.646  1.00  0.00    -0.508 OA
ATOM     10  H   UNL     1      -3.152  -1.980  15.096  1.00  0.00     0.293 HD
ENDBRANCH   2   9
BRANCH   4  11
ATOM     11  O   UNL     1      -4.980   2.729  12.384  1.00  0.00    -0.508 OA
ATOM     12  H   UNL     1      -5.958   2.504  12.246  1.00  0.00     0.293 HD
ENDBRANCH   4  11
TORSDOF 3
ENDMDL
MODEL 2
REMARK VINA RESULT:    -4.930      4.534      5.411
REMARK INTER + INTRA:          -5.593
REMARK INTER:                  -5.507
REMARK INTRA:                  -0.086
REMARK UNBOUND:                -0.086
REMARK SMILES CCc1ccc(O)cc1O
REMARK SMILES IDX 3 1 9 2 8 3 6 4 5 5 4 6 2 7 1 8 10 9 7 11
REMARK H PARENT 10 10 7 12
REMARK Flexibility Score: inf
ROOT
ATOM      1  C   UNL     1      -3.250  -3.317   9.673  1.00  0.00    -0.006 A 
ATOM      2  C   UNL     1      -2.874  -3.577  11.006  1.00  0.00     0.122 A 
ATOM      3  C   UNL     1      -1.718  -2.981  11.534  1.00  0.00     0.092 A 
ATOM      4  C   UNL     1      -0.944  -2.121  10.750  1.00  0.00     0.119 A 
ATOM      5  C   UNL     1      -1.325  -1.852   9.429  1.00  0.00     0.047 A 
ATOM      6  C   UNL     1      -2.473  -2.442   8.896  1.00  0.00     0.011 A 
ENDROOT
BRANCH   1   7
ATOM      7  C   UNL     1      -4.504  -3.920   9.089  1.00  0.00     0.036 C 
ATOM      8  C   UNL     1      -4.994  -3.102   7.899  1.00  0.00     0.009 C 
ENDBRANCH   1   7
BRANCH   2   9
ATOM      9  O   UNL     1      -3.647  -4.422  11.802  1.00  0.00    -0.508 OA
ATOM     10  H   UNL     1      -4.470  -4.086  12.289  1.00  0.00     0.293 HD
ENDBRANCH   2   9
BRANCH   4  11
ATOM     11  O   UNL     1       0.200  -1.539  11.292  1.00  0.00    -0.508 OA
ATOM     12  H   UNL     1       1.125  -1.771  10.950  1.00  0.00     0.293 HD
ENDBRANCH   4  11
TORSDOF 3
ENDMDL
MODEL 3
REMARK VINA RESULT:    -4.843      3.241      4.784
REMARK INTER + INTRA:          -5.496
REMARK INTER:                  -5.396
REMARK INTRA:                  -0.100
REMARK UNBOUND:                -0.086
REMARK SMILES CCc1ccc(O)cc1O
REMARK SMILES IDX 3 1 9 2 8 3 6 4 5 5 4 6 2 7 1 8 10 9 7 11
REMARK H PARENT 10 10 7 12
REMARK Flexibility Score: inf
ROOT
ATOM      1  C   UNL     1      -1.569  -1.728  10.384  1.00  0.00    -0.006 A 
ATOM      2  C   UNL     1      -0.300  -2.015  10.926  1.00  0.00     0.122 A 
ATOM      3  C   UNL     1      -0.133  -2.072  12.319  1.00  0.00     0.092 A 
ATOM      4  C   UNL     1      -1.220  -1.858  13.171  1.00  0.00     0.119 A 
ATOM      5  C   UNL     1      -2.483  -1.586  12.633  1.00  0.00     0.047 A 
ATOM      6  C   UNL     1      -2.658  -1.527  11.248  1.00  0.00     0.011 A 
ENDROOT
BRANCH   1   7
ATOM      7  C   UNL     1      -1.784  -1.690   8.891  1.00  0.00     0.036 C 
ATOM      8  C   UNL     1      -1.590  -0.276   8.352  1.00  0.00     0.009 C 
ENDBRANCH   1   7
BRANCH   2   9
ATOM      9  O   UNL     1       0.788  -2.244  10.084  1.00  0.00    -0.508 OA
ATOM     10  H   UNL     1       0.718  -2.117   9.082  1.00  0.00     0.293 HD
ENDBRANCH   2   9
BRANCH   4  11
ATOM     11  O   UNL     1      -1.034  -1.919  14.551  1.00  0.00    -0.508 OA
ATOM     12  H   UNL     1      -0.425  -1.268  15.033  1.00  0.00     0.293 HD
ENDBRANCH   4  11
TORSDOF 3
ENDMDL
MODEL 4
REMARK VINA RESULT:    -4.838      2.514      3.362
REMARK INTER + INTRA:          -5.490
REMARK INTER:                  -5.386
REMARK INTRA:                  -0.104
REMARK UNBOUND:                -0.086
REMARK SMILES CCc1ccc(O)cc1O
REMARK SMILES IDX 3 1 9 2 8 3 6 4 5 5 4 6 2 7 1 8 10 9 7 11
REMARK H PARENT 10 10 7 12
REMARK Flexibility Score: inf
ROOT
ATOM      1  C   UNL     1      -3.521   1.374  12.171  1.00  0.00    -0.006 A 
ATOM      2  C   UNL     1      -4.322   2.420  12.673  1.00  0.00     0.122 A 
ATOM      3  C   UNL     1      -5.675   2.186  12.963  1.00  0.00     0.092 A 
ATOM      4  C   UNL     1      -6.231   0.918  12.770  1.00  0.00     0.119 A 
ATOM      5  C   UNL     1      -5.433  -0.125  12.285  1.00  0.00     0.047 A 
ATOM      6  C   UNL     1      -4.086   0.100  11.993  1.00  0.00     0.011 A 
ENDROOT
BRANCH   1   7
ATOM      7  C   UNL     1      -2.057   1.590  11.879  1.00  0.00     0.036 C 
ATOM      8  C   UNL     1      -1.843   1.932  10.408  1.00  0.00     0.009 C 
ENDBRANCH   1   7
BRANCH   2   9
ATOM      9  O   UNL     1      -3.774   3.685  12.882  1.00  0.00    -0.508 OA
ATOM     10  H   UNL     1      -3.104   4.086  12.236  1.00  0.00     0.293 HD
ENDBRANCH   2   9
BRANCH   4  11
ATOM     11  O   UNL     1      -7.576   0.705  13.065  1.00  0.00    -0.508 OA
ATOM     12  H   UNL     1      -7.868   0.298  13.945  1.00  0.00     0.293 HD
ENDBRANCH   4  11
TORSDOF 3
ENDMDL
MODEL 5
REMARK VINA RESULT:    -4.818      4.170      5.192
REMARK INTER + INTRA:          -5.467
REMARK INTER:                  -5.372
REMARK INTRA:                  -0.095
REMARK UNBOUND:                -0.086
REMARK SMILES CCc1ccc(O)cc1O
REMARK SMILES IDX 3 1 9 2 8 3 6 4 5 5 4 6 2 7 1 8 10 9 7 11
REMARK H PARENT 10 10 7 12
REMARK Flexibility Score: inf
ROOT
ATOM      1  C   UNL     1      -6.415   0.363  11.172  1.00  0.00    -0.006 A 
ATOM      2  C   UNL     1      -6.479  -1.045  11.159  1.00  0.00     0.122 A 
ATOM      3  C   UNL     1      -6.118  -1.750  10.000  1.00  0.00     0.092 A 
ATOM      4  C   UNL     1      -5.682  -1.064   8.862  1.00  0.00     0.119 A 
ATOM      5  C   UNL     1      -5.605   0.334   8.879  1.00  0.00     0.047 A 
ATOM      6  C   UNL     1      -5.964   1.042  10.028  1.00  0.00     0.011 A 
ENDROOT
BRANCH   1   7
ATOM      7  C   UNL     1      -6.769   1.144  12.413  1.00  0.00     0.036 C 
ATOM      8  C   UNL     1      -5.621   2.063  12.819  1.00  0.00     0.009 C 
ENDBRANCH   1   7
BRANCH   2   9
ATOM      9  O   UNL     1      -6.899  -1.740  12.293  1.00  0.00    -0.508 OA
ATOM     10  H   UNL     1      -7.465  -2.577  12.223  1.00  0.00     0.293 HD
ENDBRANCH   2   9
BRANCH   4  11
ATOM     11  O   UNL     1      -5.327  -1.781   7.721  1.00  0.00    -0.508 OA
ATOM     12  H   UNL     1      -5.648  -2.730   7.571  1.00  0.00     0.293 HD
ENDBRANCH   4  11
TORSDOF 3
ENDMDL
MODEL 6
REMARK VINA RESULT:    -4.814      5.412      6.493
REMARK INTER + INTRA:          -5.463
REMARK INTER:                  -5.360
REMARK INTRA:                  -0.103
REMARK UNBOUND:                -0.086
REMARK SMILES CCc1ccc(O)cc1O
REMARK SMILES IDX 3 1 9 2 8 3 6 4 5 5 4 6 2 7 1 8 10 9 7 11
REMARK H PARENT 10 10 7 12
REMARK Flexibility Score: inf
ROOT
ATOM      1  C   UNL     1      -5.302  -0.804   9.075  1.00  0.00    -0.006 A 
ATOM      2  C   UNL     1      -5.800  -1.615   8.035  1.00  0.00     0.122 A 
ATOM      3  C   UNL     1      -5.685  -3.011   8.122  1.00  0.00     0.092 A 
ATOM      4  C   UNL     1      -5.093  -3.604   9.241  1.00  0.00     0.119 A 
ATOM      5  C   UNL     1      -4.611  -2.800  10.281  1.00  0.00     0.047 A 
ATOM      6  C   UNL     1      -4.720  -1.410  10.201  1.00  0.00     0.011 A 
ENDROOT
BRANCH   1   7
ATOM      7  C   UNL     1      -5.439   0.697   9.021  1.00  0.00     0.036 C 
ATOM      8  C   UNL     1      -4.188   1.333   8.423  1.00  0.00     0.009 C 
ENDBRANCH   1   7
BRANCH   2   9
ATOM      9  O   UNL     1      -6.405  -1.034   6.921  1.00  0.00    -0.508 OA
ATOM     10  H   UNL     1      -5.876  -0.810   6.086  1.00  0.00     0.293 HD
ENDBRANCH   2   9
BRANCH   4  11
ATOM     11  O   UNL     1      -4.989  -4.992   9.309  1.00  0.00    -0.508 OA
ATOM     12  H   UNL     1      -5.215  -5.580   8.515  1.00  0.00     0.293 HD
ENDBRANCH   4  11
TORSDOF 3
ENDMDL
MODEL 7
REMARK VINA RESULT:    -4.795      3.768      4.536
REMARK INTER + INTRA:          -5.442
REMARK INTER:                  -5.357
REMARK INTRA:                  -0.085
REMARK UNBOUND:                -0.086
REMARK SMILES CCc1ccc(O)cc1O
REMARK SMILES IDX 3 1 9 2 8 3 6 4 5 5 4 6 2 7 1 8 10 9 7 11
REMARK H PARENT 10 10 7 12
REMARK Flexibility Score: inf
ROOT
ATOM      1  C   UNL     1      -0.961  -1.629  11.408  1.00  0.00    -0.006 A 
ATOM      2  C   UNL     1      -0.443  -1.972  10.143  1.00  0.00     0.122 A 
ATOM      3  C   UNL     1      -1.296  -2.019   9.029  1.00  0.00     0.092 A 
ATOM      4  C   UNL     1      -2.654  -1.715   9.164  1.00  0.00     0.119 A 
ATOM      5  C   UNL     1      -3.166  -1.360  10.418  1.00  0.00     0.047 A 
ATOM      6  C   UNL     1      -2.325  -1.312  11.532  1.00  0.00     0.011 A 
ENDROOT
BRANCH   1   7
ATOM      7  C   UNL     1      -0.062  -1.541  12.617  1.00  0.00     0.036 C 
ATOM      8  C   UNL     1      -0.865  -1.717  13.902  1.00  0.00     0.009 C 
ENDBRANCH   1   7
BRANCH   2   9
ATOM      9  O   UNL     1       0.913  -2.263   9.995  1.00  0.00    -0.508 OA
ATOM     10  H   UNL     1       1.580  -2.068  10.732  1.00  0.00     0.293 HD
ENDBRANCH   2   9
BRANCH   4  11
ATOM     11  O   UNL     1      -3.484  -1.767   8.046  1.00  0.00    -0.508 OA
ATOM     12  H   UNL     1      -4.089  -2.561   7.872  1.00  0.00     0.293 HD
ENDBRANCH   4  11
TORSDOF 3
ENDMDL
MODEL 8
REMARK VINA RESULT:    -4.744      5.002      5.449
REMARK INTER + INTRA:          -5.385
REMARK INTER:                  -5.300
REMARK INTRA:                  -0.086
REMARK UNBOUND:                -0.086
REMARK SMILES CCc1ccc(O)cc1O
REMARK SMILES IDX 3 1 9 2 8 3 6 4 5 5 4 6 2 7 1 8 10 9 7 11
REMARK H PARENT 10 10 7 12
REMARK Flexibility Score: inf
ROOT
ATOM      1  C   UNL     1      -4.994  -1.812   8.670  1.00  0.00    -0.006 A 
ATOM      2  C   UNL     1      -5.693  -0.717   8.124  1.00  0.00     0.122 A 
ATOM      3  C   UNL     1      -5.735   0.501   8.819  1.00  0.00     0.092 A 
ATOM      4  C   UNL     1      -5.076   0.640  10.044  1.00  0.00     0.119 A 
ATOM      5  C   UNL     1      -4.369  -0.443  10.580  1.00  0.00     0.047 A 
ATOM      6  C   UNL     1      -4.323  -1.660   9.895  1.00  0.00     0.011 A 
ENDROOT
BRANCH   1   7
ATOM      7  C   UNL     1      -4.907  -3.124   7.930  1.00  0.00     0.036 C 
ATOM      8  C   UNL     1      -4.913  -4.297   8.905  1.00  0.00     0.009 C 
ENDBRANCH   1   7
BRANCH   2   9
ATOM      9  O   UNL     1      -6.343  -0.841   6.896  1.00  0.00    -0.508 OA
ATOM     10  H   UNL     1      -5.826  -0.891   6.026  1.00  0.00     0.293 HD
ENDBRANCH   2   9
BRANCH   4  11
ATOM     11  O   UNL     1      -5.128   1.858  10.720  1.00  0.00    -0.508 OA
ATOM     12  H   UNL     1      -5.951   2.140  11.239  1.00  0.00     0.293 HD
ENDBRANCH   4  11
TORSDOF 3
ENDMDL
MODEL 9
REMARK VINA RESULT:    -4.721      2.634      3.536
REMARK INTER + INTRA:          -5.360
REMARK INTER:                  -5.252
REMARK INTRA:                  -0.108
REMARK UNBOUND:                -0.086
REMARK SMILES CCc1ccc(O)cc1O
REMARK SMILES IDX 3 1 9 2 8 3 6 4 5 5 4 6 2 7 1 8 10 9 7 11
REMARK H PARENT 10 10 7 12
REMARK Flexibility Score: inf
ROOT
ATOM      1  C   UNL     1      -5.376  -0.175  12.317  1.00  0.00    -0.006 A 
ATOM      2  C   UNL     1      -6.151   0.907  12.780  1.00  0.00     0.122 A 
ATOM      3  C   UNL     1      -5.554   2.163  12.970  1.00  0.00     0.092 A 
ATOM      4  C   UNL     1      -4.197   2.351  12.690  1.00  0.00     0.119 A 
ATOM      5  C   UNL     1      -3.430   1.280  12.216  1.00  0.00     0.047 A 
ATOM      6  C   UNL     1      -4.016   0.027  12.026  1.00  0.00     0.011 A 
ENDROOT
BRANCH   1   7
ATOM      7  C   UNL     1      -5.998  -1.528  12.075  1.00  0.00     0.036 C 
ATOM      8  C   UNL     1      -6.411  -1.680  10.614  1.00  0.00     0.009 C 
ENDBRANCH   1   7
BRANCH   2   9
ATOM      9  O   UNL     1      -7.508   0.734  13.049  1.00  0.00    -0.508 OA
ATOM     10  H   UNL     1      -7.891   0.894  13.974  1.00  0.00     0.293 HD
ENDBRANCH   2   9
BRANCH   4  11
ATOM     11  O   UNL     1      -3.623   3.606  12.885  1.00  0.00    -0.508 OA
ATOM     12  H   UNL     1      -3.514   4.263  12.121  1.00  0.00     0.293 HD
ENDBRANCH   4  11
TORSDOF 3
ENDMDL
