MODEL 1
REMARK VINA RESULT:    -3.602      0.000      0.000
REMARK INTER + INTRA:          -4.556
REMARK INTER:                  -4.339
REMARK INTRA:                  -0.217
REMARK UNBOUND:                -0.217
REMARK SMILES OCC(O)CO
REMARK SMILES IDX 3 1 5 2 6 3 2 5 1 6 4 8
REMARK H PARENT 6 4 1 7 4 9
REMARK Flexibility Score: inf
ROOT
ATOM      1  C   UNL     1    -103.202 183.235  -1.930  1.00  0.00     0.165 C 
ENDROOT
BRANCH   1   2
ATOM      2  C   UNL     1    -102.889 181.877  -2.585  1.00  0.00     0.190 C 
BRANCH   2   3
ATOM      3  O   UNL     1    -101.578 181.466  -2.300  1.00  0.00    -0.394 OA
ATOM      4  H   UNL     1    -101.554 181.240  -1.334  1.00  0.00     0.210 HD
ENDBRANCH   2   3
ENDBRANCH   1   2
BRANCH   1   5
ATOM      5  C   UNL     1    -102.235 183.552  -0.779  1.00  0.00     0.190 C 
BRANCH   5   6
ATOM      6  O   UNL     1    -101.117 184.259  -1.242  1.00  0.00    -0.394 OA
ATOM      7  H   UNL     1    -100.405 183.588  -1.409  1.00  0.00     0.210 HD
ENDBRANCH   5   6
ENDBRANCH   1   5
BRANCH   1   8
ATOM      8  O   UNL     1    -103.126 184.261  -2.886  1.00  0.00    -0.388 OA
ATOM      9  H   UNL     1    -103.856 184.901  -2.679  1.00  0.00     0.211 HD
ENDBRANCH   1   8
TORSDOF 5
ENDMDL
MODEL 2
REMARK VINA RESULT:    -3.558      0.643      2.615
REMARK INTER + INTRA:          -4.503
REMARK INTER:                  -4.287
REMARK INTRA:                  -0.216
REMARK UNBOUND:                -0.217
REMARK SMILES OCC(O)CO
REMARK SMILES IDX 3 1 5 2 6 3 2 5 1 6 4 8
REMARK H PARENT 6 4 1 7 4 9
REMARK Flexibility Score: inf
ROOT
ATOM      1  C   UNL     1    -102.698 182.336  -1.699  1.00  0.00     0.165 C 
ENDROOT
BRANCH   1   2
ATOM      2  C   UNL     1    -102.297 183.487  -0.758  1.00  0.00     0.190 C 
BRANCH   2   3
ATOM      3  O   UNL     1    -101.155 184.154  -1.229  1.00  0.00    -0.394 OA
ATOM      4  H   UNL     1    -101.117 183.999  -2.208  1.00  0.00     0.210 HD
ENDBRANCH   2   3
ENDBRANCH   1   2
BRANCH   1   5
ATOM      5  C   UNL     1    -103.369 182.852  -2.981  1.00  0.00     0.190 C 
BRANCH   5   6
ATOM      6  O   UNL     1    -103.340 184.253  -3.035  1.00  0.00    -0.394 OA
ATOM      7  H   UNL     1    -102.385 184.515  -3.103  1.00  0.00     0.210 HD
ENDBRANCH   5   6
ENDBRANCH   1   5
BRANCH   1   8
ATOM      8  O   UNL     1    -101.566 181.582  -2.048  1.00  0.00    -0.388 OA
ATOM      9  H   UNL     1    -100.926 182.207  -2.480  1.00  0.00     0.211 HD
ENDBRANCH   1   8
TORSDOF 5
ENDMDL
MODEL 3
REMARK VINA RESULT:    -3.384     13.403     14.264
REMARK INTER + INTRA:          -4.294
REMARK INTER:                  -4.078
REMARK INTRA:                  -0.216
REMARK UNBOUND:                -0.217
REMARK SMILES OCC(O)CO
REMARK SMILES IDX 3 1 5 2 6 3 2 5 1 6 4 8
REMARK H PARENT 6 4 1 7 4 9
REMARK Flexibility Score: inf
ROOT
ATOM      1  C   UNL     1    -104.137 197.321  -0.898  1.00  0.00     0.165 C 
ENDROOT
BRANCH   1   2
ATOM      2  C   UNL     1    -104.672 197.795  -2.261  1.00  0.00     0.190 C 
BRANCH   2   3
ATOM      3  O   UNL     1    -103.639 197.903  -3.204  1.00  0.00    -0.394 OA
ATOM      4  H   UNL     1    -102.964 198.521  -2.819  1.00  0.00     0.210 HD
ENDBRANCH   2   3
ENDBRANCH   1   2
BRANCH   1   5
ATOM      5  C   UNL     1    -103.607 195.880  -0.961  1.00  0.00     0.190 C 
BRANCH   5   6
ATOM      6  O   UNL     1    -102.428 195.810  -1.716  1.00  0.00    -0.394 OA
ATOM      7  H   UNL     1    -102.013 196.711  -1.680  1.00  0.00     0.210 HD
ENDBRANCH   5   6
ENDBRANCH   1   5
BRANCH   1   8
ATOM      8  O   UNL     1    -103.105 198.168  -0.464  1.00  0.00    -0.388 OA
ATOM      9  H   UNL     1    -103.191 199.013  -0.979  1.00  0.00     0.211 HD
ENDBRANCH   1   8
TORSDOF 5
ENDMDL
MODEL 4
REMARK VINA RESULT:    -3.350     13.348     14.213
REMARK INTER + INTRA:          -4.253
REMARK INTER:                  -4.029
REMARK INTRA:                  -0.223
REMARK UNBOUND:                -0.217
REMARK SMILES OCC(O)CO
REMARK SMILES IDX 3 1 5 2 6 3 2 5 1 6 4 8
REMARK H PARENT 6 4 1 7 4 9
REMARK Flexibility Score: inf
ROOT
ATOM      1  C   UNL     1    -103.398 197.290   0.090  1.00  0.00     0.165 C 
ENDROOT
BRANCH   1   2
ATOM      2  C   UNL     1    -102.890 195.882  -0.271  1.00  0.00     0.190 C 
BRANCH   2   3
ATOM      3  O   UNL     1    -102.495 195.814  -1.615  1.00  0.00    -0.394 OA
ATOM      4  H   UNL     1    -103.006 196.514  -2.099  1.00  0.00     0.210 HD
ENDBRANCH   2   3
ENDBRANCH   1   2
BRANCH   1   5
ATOM      5  C   UNL     1    -104.514 197.757  -0.858  1.00  0.00     0.190 C 
BRANCH   5   6
ATOM      6  O   UNL     1    -103.979 198.285  -2.041  1.00  0.00    -0.394 OA
ATOM      7  H   UNL     1    -104.705 198.262  -2.717  1.00  0.00     0.210 HD
ENDBRANCH   5   6
ENDBRANCH   1   5
BRANCH   1   8
ATOM      8  O   UNL     1    -103.883 197.305   1.408  1.00  0.00    -0.388 OA
ATOM      9  H   UNL     1    -103.223 196.811   1.962  1.00  0.00     0.211 HD
ENDBRANCH   1   8
TORSDOF 5
ENDMDL
MODEL 5
REMARK VINA RESULT:    -3.281     17.791     18.399
REMARK INTER + INTRA:          -4.170
REMARK INTER:                  -3.954
REMARK INTRA:                  -0.216
REMARK UNBOUND:                -0.217
REMARK SMILES OCC(O)CO
REMARK SMILES IDX 3 1 5 2 6 3 2 5 1 6 4 8
REMARK H PARENT 6 4 1 7 4 9
REMARK Flexibility Score: inf
ROOT
ATOM      1  C   UNL     1     -97.119 191.898 -16.452  1.00  0.00     0.165 C 
ENDROOT
BRANCH   1   2
ATOM      2  C   UNL     1     -96.923 193.326 -15.909  1.00  0.00     0.190 C 
BRANCH   2   3
ATOM      3  O   UNL     1     -98.095 193.805 -15.305  1.00  0.00    -0.394 OA
ATOM      4  H   UNL     1     -97.955 194.774 -15.139  1.00  0.00     0.210 HD
ENDBRANCH   2   3
ENDBRANCH   1   2
BRANCH   1   5
ATOM      5  C   UNL     1     -97.567 191.901 -17.921  1.00  0.00     0.190 C 
BRANCH   5   6
ATOM      6  O   UNL     1     -98.615 192.810 -18.125  1.00  0.00    -0.394 OA
ATOM      7  H   UNL     1     -98.228 193.589 -18.603  1.00  0.00     0.210 HD
ENDBRANCH   5   6
ENDBRANCH   1   5
BRANCH   1   8
ATOM      8  O   UNL     1     -95.923 191.171 -16.340  1.00  0.00    -0.388 OA
ATOM      9  H   UNL     1     -96.154 190.215 -16.473  1.00  0.00     0.211 HD
ENDBRANCH   1   8
TORSDOF 5
ENDMDL
MODEL 6
REMARK VINA RESULT:    -3.271     13.247     14.160
REMARK INTER + INTRA:          -4.157
REMARK INTER:                  -4.154
REMARK INTRA:                  -0.003
REMARK UNBOUND:                -0.217
REMARK SMILES OCC(O)CO
REMARK SMILES IDX 3 1 5 2 6 3 2 5 1 6 4 8
REMARK H PARENT 6 4 1 7 4 9
REMARK Flexibility Score: inf
ROOT
ATOM      1  C   UNL     1    -103.328 197.354   0.009  1.00  0.00     0.165 C 
ENDROOT
BRANCH   1   2
ATOM      2  C   UNL     1    -104.544 197.495   0.943  1.00  0.00     0.190 C 
BRANCH   2   3
ATOM      3  O   UNL     1    -104.367 196.755   2.122  1.00  0.00    -0.394 OA
ATOM      4  H   UNL     1    -104.983 197.143   2.798  1.00  0.00     0.210 HD
ENDBRANCH   2   3
ENDBRANCH   1   2
BRANCH   1   5
ATOM      5  C   UNL     1    -103.018 195.883  -0.309  1.00  0.00     0.190 C 
BRANCH   5   6
ATOM      6  O   UNL     1    -102.460 195.751  -1.588  1.00  0.00    -0.394 OA
ATOM      7  H   UNL     1    -102.248 196.669  -1.902  1.00  0.00     0.210 HD
ENDBRANCH   5   6
ENDBRANCH   1   5
BRANCH   1   8
ATOM      8  O   UNL     1    -103.561 198.041  -1.193  1.00  0.00    -0.388 OA
ATOM      9  H   UNL     1    -103.027 197.583  -1.894  1.00  0.00     0.211 HD
ENDBRANCH   1   8
TORSDOF 5
ENDMDL
MODEL 7
REMARK VINA RESULT:    -3.258     12.543     13.385
REMARK INTER + INTRA:          -4.142
REMARK INTER:                  -3.919
REMARK INTRA:                  -0.223
REMARK UNBOUND:                -0.217
REMARK SMILES OCC(O)CO
REMARK SMILES IDX 3 1 5 2 6 3 2 5 1 6 4 8
REMARK H PARENT 6 4 1 7 4 9
REMARK Flexibility Score: inf
ROOT
ATOM      1  C   UNL     1    -104.476 195.905  -0.856  1.00  0.00     0.165 C 
ENDROOT
BRANCH   1   2
ATOM      2  C   UNL     1    -102.974 195.937  -0.520  1.00  0.00     0.190 C 
BRANCH   2   3
ATOM      3  O   UNL     1    -102.192 195.746  -1.669  1.00  0.00    -0.394 OA
ATOM      4  H   UNL     1    -101.523 196.480  -1.685  1.00  0.00     0.210 HD
ENDBRANCH   2   3
ENDBRANCH   1   2
BRANCH   1   5
ATOM      5  C   UNL     1    -104.896 197.106  -1.718  1.00  0.00     0.190 C 
BRANCH   5   6
ATOM      6  O   UNL     1    -103.900 198.094  -1.722  1.00  0.00    -0.394 OA
ATOM      7  H   UNL     1    -104.350 198.951  -1.941  1.00  0.00     0.210 HD
ENDBRANCH   5   6
ENDBRANCH   1   5
BRANCH   1   8
ATOM      8  O   UNL     1    -104.792 194.721  -1.540  1.00  0.00    -0.388 OA
ATOM      9  H   UNL     1    -105.484 194.953  -2.213  1.00  0.00     0.211 HD
ENDBRANCH   1   8
TORSDOF 5
ENDMDL
MODEL 8
REMARK VINA RESULT:    -3.207     13.208     13.990
REMARK INTER + INTRA:          -4.081
REMARK INTER:                  -4.071
REMARK INTRA:                  -0.010
REMARK UNBOUND:                -0.217
REMARK SMILES OCC(O)CO
REMARK SMILES IDX 3 1 5 2 6 3 2 5 1 6 4 8
REMARK H PARENT 6 4 1 7 4 9
REMARK Flexibility Score: inf
ROOT
ATOM      1  C   UNL     1    -104.144 196.986  -0.531  1.00  0.00     0.165 C 
ENDROOT
BRANCH   1   2
ATOM      2  C   UNL     1    -103.002 195.964  -0.376  1.00  0.00     0.190 C 
BRANCH   2   3
ATOM      3  O   UNL     1    -102.363 195.728  -1.603  1.00  0.00    -0.394 OA
ATOM      4  H   UNL     1    -101.432 196.061  -1.509  1.00  0.00     0.210 HD
ENDBRANCH   2   3
ENDBRANCH   1   2
BRANCH   1   5
ATOM      5  C   UNL     1    -104.660 197.478   0.830  1.00  0.00     0.190 C 
BRANCH   5   6
ATOM      6  O   UNL     1    -103.914 196.924   1.880  1.00  0.00    -0.394 OA
ATOM      7  H   UNL     1    -103.597 197.683   2.436  1.00  0.00     0.210 HD
ENDBRANCH   5   6
ENDBRANCH   1   5
BRANCH   1   8
ATOM      8  O   UNL     1    -103.705 198.090  -1.279  1.00  0.00    -0.388 OA
ATOM      9  H   UNL     1    -104.466 198.726  -1.327  1.00  0.00     0.211 HD
ENDBRANCH   1   8
TORSDOF 5
ENDMDL
MODEL 9
REMARK VINA RESULT:    -3.124     12.384     13.400
REMARK INTER + INTRA:          -3.981
REMARK INTER:                  -3.978
REMARK INTRA:                  -0.002
REMARK UNBOUND:                -0.217
REMARK SMILES OCC(O)CO
REMARK SMILES IDX 3 1 5 2 6 3 2 5 1 6 4 8
REMARK H PARENT 6 4 1 7 4 9
REMARK Flexibility Score: inf
ROOT
ATOM      1  C   UNL     1    -103.429 195.915  -0.577  1.00  0.00     0.165 C 
ENDROOT
BRANCH   1   2
ATOM      2  C   UNL     1    -103.399 197.326   0.040  1.00  0.00     0.190 C 
BRANCH   2   3
ATOM      3  O   UNL     1    -103.698 197.288   1.410  1.00  0.00    -0.394 OA
ATOM      4  H   UNL     1    -104.413 196.610   1.528  1.00  0.00     0.210 HD
ENDBRANCH   2   3
ENDBRANCH   1   2
BRANCH   1   5
ATOM      5  C   UNL     1    -104.846 195.509  -1.009  1.00  0.00     0.190 C 
BRANCH   5   6
ATOM      6  O   UNL     1    -104.836 194.273  -1.670  1.00  0.00    -0.394 OA
ATOM      7  H   UNL     1    -105.578 193.738  -1.284  1.00  0.00     0.210 HD
ENDBRANCH   5   6
ENDBRANCH   1   5
BRANCH   1   8
ATOM      8  O   UNL     1    -102.578 195.858  -1.691  1.00  0.00    -0.388 OA
ATOM      9  H   UNL     1    -102.590 194.919  -2.015  1.00  0.00     0.211 HD
ENDBRANCH   1   8
TORSDOF 5
ENDMDL
