MODEL 1
REMARK VINA RESULT:    -6.298      0.000      0.000
REMARK INTER + INTRA:          -7.777
REMARK INTER:                  -7.586
REMARK INTRA:                  -0.191
REMARK UNBOUND:                -0.191
REMARK SMILES O=c1c(O)c(-c2ccc(O)c(O)c2)oc2cc(O)cc(O)c12
REMARK SMILES IDX 5 1 3 2 2 3 1 4 22 5 20 6 19 7 17 8 16 9 15 10 14 11 6 12
REMARK SMILES IDX 7 13 8 14 9 15 13 16 11 17 10 18 12 20 4 22 21 24 18 26
REMARK H PARENT 10 19 12 21 4 23 21 25 18 27
REMARK Flexibility Score: inf
ROOT
ATOM      1  C   UNL     1      10.852   2.676   2.686  1.00  0.00     0.180 A 
ATOM      2  C   UNL     1      11.291   3.341   1.528  1.00  0.00     0.208 A 
ATOM      3  C   UNL     1      12.465   2.901   0.894  1.00  0.00     0.238 A 
ATOM      4  O   UNL     1      12.811   3.451  -0.183  1.00  0.00    -0.285 OA
ATOM      5  C   UNL     1      13.214   1.839   1.457  1.00  0.00     0.111 A 
ATOM      6  C   UNL     1      14.443   1.341   0.926  1.00  0.00     0.134 A 
ATOM      7  C   UNL     1      15.041   0.217   1.507  1.00  0.00     0.093 A 
ATOM      8  C   UNL     1      14.491  -0.388   2.640  1.00  0.00     0.123 A 
ATOM      9  C   UNL     1      13.323   0.125   3.199  1.00  0.00     0.094 A 
ATOM     10  C   UNL     1      12.681   1.221   2.619  1.00  0.00     0.146 A 
ATOM     11  O   UNL     1      11.559   1.663   3.172  1.00  0.00    -0.452 OA
ENDROOT
BRANCH   1  12
ATOM     12  C   UNL     1       9.618   3.073   3.401  1.00  0.00     0.025 A 
ATOM     13  C   UNL     1       9.518   4.310   4.058  1.00  0.00     0.016 A 
ATOM     14  C   UNL     1       8.334   4.672   4.704  1.00  0.00     0.051 A 
ATOM     15  C   UNL     1       7.227   3.817   4.699  1.00  0.00     0.157 A 
ATOM     16  C   UNL     1       8.501   2.224   3.375  1.00  0.00     0.062 A 
ATOM     17  C   UNL     1       7.309   2.578   4.022  1.00  0.00     0.158 A 
BRANCH  15  18
ATOM     18  O   UNL     1       6.075   4.238   5.368  1.00  0.00    -0.504 OA
ATOM     19  H   UNL     1       5.136   4.050   5.047  1.00  0.00     0.293 HD
ENDBRANCH  15  18
BRANCH  17  20
ATOM     20  O   UNL     1       6.244   1.678   3.964  1.00  0.00    -0.504 OA
ATOM     21  H   UNL     1       5.780   1.406   3.110  1.00  0.00     0.293 HD
ENDBRANCH  17  20
ENDBRANCH   1  12
BRANCH   2  22
ATOM     22  O   UNL     1      10.578   4.435   1.031  1.00  0.00    -0.502 OA
ATOM     23  H   UNL     1      10.990   5.113   0.401  1.00  0.00     0.293 HD
ENDBRANCH   2  22
BRANCH   6  24
ATOM     24  O   UNL     1      15.125   1.923  -0.148  1.00  0.00    -0.507 OA
ATOM     25  H   UNL     1      15.059   1.617  -1.107  1.00  0.00     0.293 HD
ENDBRANCH   6  24
BRANCH   8  26
ATOM     26  O   UNL     1      15.102  -1.495   3.222  1.00  0.00    -0.508 OA
ATOM     27  H   UNL     1      15.876  -1.970   2.773  1.00  0.00     0.293 HD
ENDBRANCH   8  26
TORSDOF 6
ENDMDL
MODEL 2
REMARK VINA RESULT:    -5.839      1.280      2.933
REMARK INTER + INTRA:          -7.225
REMARK INTER:                  -6.962
REMARK INTRA:                  -0.263
REMARK UNBOUND:                -0.191
REMARK SMILES O=c1c(O)c(-c2ccc(O)c(O)c2)oc2cc(O)cc(O)c12
REMARK SMILES IDX 5 1 3 2 2 3 1 4 22 5 20 6 19 7 17 8 16 9 15 10 14 11 6 12
REMARK SMILES IDX 7 13 8 14 9 15 13 16 11 17 10 18 12 20 4 22 21 24 18 26
REMARK H PARENT 10 19 12 21 4 23 21 25 18 27
REMARK Flexibility Score: inf
ROOT
ATOM      1  C   UNL     1      10.766   1.983   3.787  1.00  0.00     0.180 A 
ATOM      2  C   UNL     1      11.344   1.178   4.783  1.00  0.00     0.208 A 
ATOM      3  C   UNL     1      12.583   0.567   4.531  1.00  0.00     0.238 A 
ATOM      4  O   UNL     1      13.131  -0.091   5.453  1.00  0.00    -0.285 OA
ATOM      5  C   UNL     1      13.200   0.722   3.265  1.00  0.00     0.111 A 
ATOM      6  C   UNL     1      14.433   0.111   2.883  1.00  0.00     0.134 A 
ATOM      7  C   UNL     1      15.002   0.422   1.641  1.00  0.00     0.093 A 
ATOM      8  C   UNL     1      14.351   1.270   0.743  1.00  0.00     0.123 A 
ATOM      9  C   UNL     1      13.121   1.826   1.084  1.00  0.00     0.094 A 
ATOM     10  C   UNL     1      12.546   1.567   2.330  1.00  0.00     0.146 A 
ATOM     11  O   UNL     1      11.383   2.136   2.623  1.00  0.00    -0.452 OA
ENDROOT
BRANCH   1  12
ATOM     12  C   UNL     1       9.470   2.671   3.985  1.00  0.00     0.025 A 
ATOM     13  C   UNL     1       9.401   4.059   4.188  1.00  0.00     0.016 A 
ATOM     14  C   UNL     1       8.166   4.689   4.347  1.00  0.00     0.051 A 
ATOM     15  C   UNL     1       6.977   3.953   4.294  1.00  0.00     0.157 A 
ATOM     16  C   UNL     1       8.277   1.935   3.908  1.00  0.00     0.062 A 
ATOM     17  C   UNL     1       7.032   2.558   4.067  1.00  0.00     0.158 A 
BRANCH  15  18
ATOM     18  O   UNL     1       5.775   4.643   4.465  1.00  0.00    -0.504 OA
ATOM     19  H   UNL     1       4.894   4.198   4.681  1.00  0.00     0.293 HD
ENDBRANCH  15  18
BRANCH  17  20
ATOM     20  O   UNL     1       5.890   1.760   3.991  1.00  0.00    -0.504 OA
ATOM     21  H   UNL     1       5.502   1.410   3.127  1.00  0.00     0.293 HD
ENDBRANCH  17  20
ENDBRANCH   1  12
BRANCH   2  22
ATOM     22  O   UNL     1      10.683   0.976   5.998  1.00  0.00    -0.502 OA
ATOM     23  H   UNL     1      10.545   1.718   6.673  1.00  0.00     0.293 HD
ENDBRANCH   2  22
BRANCH   6  24
ATOM     24  O   UNL     1      15.123  -0.819   3.667  1.00  0.00    -0.507 OA
ATOM     25  H   UNL     1      16.121  -0.967   3.644  1.00  0.00     0.293 HD
ENDBRANCH   6  24
BRANCH   8  26
ATOM     26  O   UNL     1      14.915   1.559  -0.497  1.00  0.00    -0.508 OA
ATOM     27  H   UNL     1      15.901   1.773  -0.594  1.00  0.00     0.293 HD
ENDBRANCH   8  26
TORSDOF 6
ENDMDL
MODEL 3
REMARK VINA RESULT:    -5.695      6.240      9.204
REMARK INTER + INTRA:          -7.051
REMARK INTER:                  -6.742
REMARK INTRA:                  -0.309
REMARK UNBOUND:                -0.191
REMARK SMILES O=c1c(O)c(-c2ccc(O)c(O)c2)oc2cc(O)cc(O)c12
REMARK SMILES IDX 5 1 3 2 2 3 1 4 22 5 20 6 19 7 17 8 16 9 15 10 14 11 6 12
REMARK SMILES IDX 7 13 8 14 9 15 13 16 11 17 10 18 12 20 4 22 21 24 18 26
REMARK H PARENT 10 19 12 21 4 23 21 25 18 27
REMARK Flexibility Score: inf
ROOT
ATOM      1  C   UNL     1       5.999  -1.622   6.234  1.00  0.00     0.180 A 
ATOM      2  C   UNL     1       4.609  -1.745   6.395  1.00  0.00     0.208 A 
ATOM      3  C   UNL     1       4.079  -2.971   6.831  1.00  0.00     0.238 A 
ATOM      4  O   UNL     1       2.842  -3.051   7.045  1.00  0.00    -0.285 OA
ATOM      5  C   UNL     1       4.941  -4.074   7.045  1.00  0.00     0.111 A 
ATOM      6  C   UNL     1       4.509  -5.376   7.444  1.00  0.00     0.134 A 
ATOM      7  C   UNL     1       5.462  -6.362   7.729  1.00  0.00     0.093 A 
ATOM      8  C   UNL     1       6.827  -6.113   7.569  1.00  0.00     0.123 A 
ATOM      9  C   UNL     1       7.255  -4.863   7.128  1.00  0.00     0.094 A 
ATOM     10  C   UNL     1       6.332  -3.847   6.872  1.00  0.00     0.146 A 
ATOM     11  O   UNL     1       6.785  -2.665   6.474  1.00  0.00    -0.452 OA
ENDROOT
BRANCH   1  12
ATOM     12  C   UNL     1       6.632  -0.359   5.792  1.00  0.00     0.025 A 
ATOM     13  C   UNL     1       7.225   0.524   6.710  1.00  0.00     0.016 A 
ATOM     14  C   UNL     1       7.838   1.696   6.265  1.00  0.00     0.051 A 
ATOM     15  C   UNL     1       7.884   2.007   4.902  1.00  0.00     0.157 A 
ATOM     16  C   UNL     1       6.698  -0.061   4.422  1.00  0.00     0.062 A 
ATOM     17  C   UNL     1       7.310   1.114   3.967  1.00  0.00     0.158 A 
BRANCH  15  18
ATOM     18  O   UNL     1       8.508   3.198   4.525  1.00  0.00    -0.504 OA
ATOM     19  H   UNL     1       9.468   3.425   4.742  1.00  0.00     0.293 HD
ENDBRANCH  15  18
BRANCH  17  20
ATOM     20  O   UNL     1       7.326   1.350   2.591  1.00  0.00    -0.504 OA
ATOM     21  H   UNL     1       7.324   0.621   1.893  1.00  0.00     0.293 HD
ENDBRANCH  17  20
ENDBRANCH   1  12
BRANCH   2  22
ATOM     22  O   UNL     1       3.768  -0.667   6.105  1.00  0.00    -0.502 OA
ATOM     23  H   UNL     1       3.343  -0.098   6.827  1.00  0.00     0.293 HD
ENDBRANCH   2  22
BRANCH   6  24
ATOM     24  O   UNL     1       3.168  -5.759   7.550  1.00  0.00    -0.507 OA
ATOM     25  H   UNL     1       2.563  -5.533   8.325  1.00  0.00     0.293 HD
ENDBRANCH   6  24
BRANCH   8  26
ATOM     26  O   UNL     1       7.767  -7.105   7.838  1.00  0.00    -0.508 OA
ATOM     27  H   UNL     1       8.027  -7.791   7.140  1.00  0.00     0.293 HD
ENDBRANCH   8  26
TORSDOF 6
ENDMDL
MODEL 4
REMARK VINA RESULT:    -5.680     19.298     21.081
REMARK INTER + INTRA:          -7.033
REMARK INTER:                  -6.719
REMARK INTRA:                  -0.314
REMARK UNBOUND:                -0.191
REMARK SMILES O=c1c(O)c(-c2ccc(O)c(O)c2)oc2cc(O)cc(O)c12
REMARK SMILES IDX 5 1 3 2 2 3 1 4 22 5 20 6 19 7 17 8 16 9 15 10 14 11 6 12
REMARK SMILES IDX 7 13 8 14 9 15 13 16 11 17 10 18 12 20 4 22 21 24 18 26
REMARK H PARENT 10 19 12 21 4 23 21 25 18 27
REMARK Flexibility Score: inf
ROOT
ATOM      1  C   UNL     1      -2.197 -12.380  -3.143  1.00  0.00     0.180 A 
ATOM      2  C   UNL     1      -1.186 -13.242  -3.602  1.00  0.00     0.208 A 
ATOM      3  C   UNL     1      -0.831 -13.213  -4.960  1.00  0.00     0.238 A 
ATOM      4  O   UNL     1       0.127 -13.932  -5.349  1.00  0.00    -0.285 OA
ATOM      5  C   UNL     1      -1.530 -12.366  -5.854  1.00  0.00     0.111 A 
ATOM      6  C   UNL     1      -1.286 -12.289  -7.259  1.00  0.00     0.134 A 
ATOM      7  C   UNL     1      -1.968 -11.336  -8.027  1.00  0.00     0.093 A 
ATOM      8  C   UNL     1      -2.930 -10.503  -7.453  1.00  0.00     0.123 A 
ATOM      9  C   UNL     1      -3.215 -10.609  -6.094  1.00  0.00     0.094 A 
ATOM     10  C   UNL     1      -2.525 -11.522  -5.294  1.00  0.00     0.146 A 
ATOM     11  O   UNL     1      -2.813 -11.574  -3.999  1.00  0.00    -0.452 OA
ENDROOT
BRANCH   1  12
ATOM     12  C   UNL     1      -2.617 -12.343  -1.724  1.00  0.00     0.025 A 
ATOM     13  C   UNL     1      -3.691 -13.117  -1.257  1.00  0.00     0.016 A 
ATOM     14  C   UNL     1      -4.051 -13.084   0.091  1.00  0.00     0.051 A 
ATOM     15  C   UNL     1      -3.344 -12.290   1.000  1.00  0.00     0.157 A 
ATOM     16  C   UNL     1      -1.891 -11.564  -0.810  1.00  0.00     0.062 A 
ATOM     17  C   UNL     1      -2.246 -11.523   0.545  1.00  0.00     0.158 A 
BRANCH  15  18
ATOM     18  O   UNL     1      -3.759 -12.299   2.334  1.00  0.00    -0.504 OA
ATOM     19  H   UNL     1      -4.007 -13.135   2.842  1.00  0.00     0.293 HD
ENDBRANCH  15  18
BRANCH  17  20
ATOM     20  O   UNL     1      -1.486 -10.716   1.394  1.00  0.00    -0.504 OA
ATOM     21  H   UNL     1      -0.628 -11.012   1.836  1.00  0.00     0.293 HD
ENDBRANCH  17  20
ENDBRANCH   1  12
BRANCH   2  22
ATOM     22  O   UNL     1      -0.559 -14.125  -2.718  1.00  0.00    -0.502 OA
ATOM     23  H   UNL     1       0.253 -14.671  -2.978  1.00  0.00     0.293 HD
ENDBRANCH   2  22
BRANCH   6  24
ATOM     24  O   UNL     1      -0.411 -13.133  -7.950  1.00  0.00    -0.507 OA
ATOM     25  H   UNL     1      -0.581 -14.109  -8.141  1.00  0.00     0.293 HD
ENDBRANCH   6  24
BRANCH   8  26
ATOM     26  O   UNL     1      -3.616  -9.571  -8.228  1.00  0.00    -0.508 OA
ATOM     27  H   UNL     1      -3.387  -8.584  -8.196  1.00  0.00     0.293 HD
ENDBRANCH   8  26
TORSDOF 6
ENDMDL
MODEL 5
REMARK VINA RESULT:    -5.617      1.899      6.812
REMARK INTER + INTRA:          -6.958
REMARK INTER:                  -6.755
REMARK INTRA:                  -0.203
REMARK UNBOUND:                -0.191
REMARK SMILES O=c1c(O)c(-c2ccc(O)c(O)c2)oc2cc(O)cc(O)c12
REMARK SMILES IDX 5 1 3 2 2 3 1 4 22 5 20 6 19 7 17 8 16 9 15 10 14 11 6 12
REMARK SMILES IDX 7 13 8 14 9 15 13 16 11 17 10 18 12 20 4 22 21 24 18 26
REMARK H PARENT 10 19 12 21 4 23 21 25 18 27
REMARK Flexibility Score: inf
ROOT
ATOM      1  C   UNL     1      10.214   3.082   2.886  1.00  0.00     0.180 A 
ATOM      2  C   UNL     1       9.854   4.278   3.531  1.00  0.00     0.208 A 
ATOM      3  C   UNL     1       8.716   4.291   4.355  1.00  0.00     0.238 A 
ATOM      4  O   UNL     1       8.443   5.343   4.988  1.00  0.00    -0.285 OA
ATOM      5  C   UNL     1       7.922   3.125   4.478  1.00  0.00     0.111 A 
ATOM      6  C   UNL     1       6.723   3.037   5.249  1.00  0.00     0.134 A 
ATOM      7  C   UNL     1       6.078   1.801   5.384  1.00  0.00     0.093 A 
ATOM      8  C   UNL     1       6.551   0.665   4.723  1.00  0.00     0.123 A 
ATOM      9  C   UNL     1       7.688   0.754   3.924  1.00  0.00     0.094 A 
ATOM     10  C   UNL     1       8.376   1.963   3.801  1.00  0.00     0.146 A 
ATOM     11  O   UNL     1       9.468   1.996   3.046  1.00  0.00    -0.452 OA
ENDROOT
BRANCH   1  12
ATOM     12  C   UNL     1      11.406   2.986   2.013  1.00  0.00     0.025 A 
ATOM     13  C   UNL     1      12.517   2.206   2.374  1.00  0.00     0.016 A 
ATOM     14  C   UNL     1      13.619   2.111   1.523  1.00  0.00     0.051 A 
ATOM     15  C   UNL     1      13.632   2.779   0.294  1.00  0.00     0.157 A 
ATOM     16  C   UNL     1      11.408   3.639   0.771  1.00  0.00     0.062 A 
ATOM     17  C   UNL     1      12.510   3.550  -0.090  1.00  0.00     0.158 A 
BRANCH  15  18
ATOM     18  O   UNL     1      14.767   2.647  -0.509  1.00  0.00    -0.504 OA
ATOM     19  H   UNL     1      15.679   3.002  -0.260  1.00  0.00     0.293 HD
ENDBRANCH  15  18
BRANCH  17  20
ATOM     20  O   UNL     1      12.446   4.236  -1.304  1.00  0.00    -0.504 OA
ATOM     21  H   UNL     1      13.208   4.291  -1.962  1.00  0.00     0.293 HD
ENDBRANCH  17  20
ENDBRANCH   1  12
BRANCH   2  22
ATOM     22  O   UNL     1      10.608   5.438   3.336  1.00  0.00    -0.502 OA
ATOM     23  H   UNL     1      10.263   6.229   2.806  1.00  0.00     0.293 HD
ENDBRANCH   2  22
BRANCH   6  24
ATOM     24  O   UNL     1       6.114   4.127   5.878  1.00  0.00    -0.507 OA
ATOM     25  H   UNL     1       6.591   4.969   6.165  1.00  0.00     0.293 HD
ENDBRANCH   6  24
BRANCH   8  26
ATOM     26  O   UNL     1       5.893  -0.555   4.848  1.00  0.00    -0.508 OA
ATOM     27  H   UNL     1       6.056  -1.167   5.639  1.00  0.00     0.293 HD
ENDBRANCH   8  26
TORSDOF 6
ENDMDL
MODEL 6
REMARK VINA RESULT:    -5.530      2.946      5.157
REMARK INTER + INTRA:          -6.852
REMARK INTER:                  -6.774
REMARK INTRA:                  -0.078
REMARK UNBOUND:                -0.191
REMARK SMILES O=c1c(O)c(-c2ccc(O)c(O)c2)oc2cc(O)cc(O)c12
REMARK SMILES IDX 5 1 3 2 2 3 1 4 22 5 20 6 19 7 17 8 16 9 15 10 14 11 6 12
REMARK SMILES IDX 7 13 8 14 9 15 13 16 11 17 10 18 12 20 4 22 21 24 18 26
REMARK H PARENT 10 19 12 21 4 23 21 25 18 27
REMARK Flexibility Score: inf
ROOT
ATOM      1  C   UNL     1       8.445   1.325   4.626  1.00  0.00     0.180 A 
ATOM      2  C   UNL     1       7.842   2.582   4.807  1.00  0.00     0.208 A 
ATOM      3  C   UNL     1       8.475   3.722   4.285  1.00  0.00     0.238 A 
ATOM      4  O   UNL     1       7.894   4.834   4.385  1.00  0.00    -0.285 OA
ATOM      5  C   UNL     1       9.730   3.598   3.640  1.00  0.00     0.111 A 
ATOM      6  C   UNL     1      10.484   4.691   3.114  1.00  0.00     0.134 A 
ATOM      7  C   UNL     1      11.663   4.438   2.401  1.00  0.00     0.093 A 
ATOM      8  C   UNL     1      12.148   3.137   2.252  1.00  0.00     0.123 A 
ATOM      9  C   UNL     1      11.449   2.069   2.809  1.00  0.00     0.094 A 
ATOM     10  C   UNL     1      10.250   2.286   3.492  1.00  0.00     0.146 A 
ATOM     11  O   UNL     1       9.606   1.237   3.988  1.00  0.00    -0.452 OA
ENDROOT
BRANCH   1  12
ATOM     12  C   UNL     1       7.832   0.077   5.134  1.00  0.00     0.025 A 
ATOM     13  C   UNL     1       8.491  -0.732   6.073  1.00  0.00     0.016 A 
ATOM     14  C   UNL     1       7.881  -1.891   6.557  1.00  0.00     0.051 A 
ATOM     15  C   UNL     1       6.602  -2.259   6.125  1.00  0.00     0.157 A 
ATOM     16  C   UNL     1       6.539  -0.277   4.717  1.00  0.00     0.062 A 
ATOM     17  C   UNL     1       5.920  -1.439   5.196  1.00  0.00     0.158 A 
BRANCH  15  18
ATOM     18  O   UNL     1       6.051  -3.433   6.644  1.00  0.00    -0.504 OA
ATOM     19  H   UNL     1       5.255  -3.456   7.266  1.00  0.00     0.293 HD
ENDBRANCH  15  18
BRANCH  17  20
ATOM     20  O   UNL     1       4.638  -1.735   4.728  1.00  0.00    -0.504 OA
ATOM     21  H   UNL     1       3.952  -2.258   5.251  1.00  0.00     0.293 HD
ENDBRANCH  17  20
ENDBRANCH   1  12
BRANCH   2  22
ATOM     22  O   UNL     1       6.641   2.692   5.513  1.00  0.00    -0.502 OA
ATOM     23  H   UNL     1       6.262   1.932   6.065  1.00  0.00     0.293 HD
ENDBRANCH   2  22
BRANCH   6  24
ATOM     24  O   UNL     1      10.137   6.036   3.281  1.00  0.00    -0.507 OA
ATOM     25  H   UNL     1       9.257   6.363   3.652  1.00  0.00     0.293 HD
ENDBRANCH   6  24
BRANCH   8  26
ATOM     26  O   UNL     1      13.331   2.895   1.557  1.00  0.00    -0.508 OA
ATOM     27  H   UNL     1      14.194   3.366   1.801  1.00  0.00     0.293 HD
ENDBRANCH   8  26
TORSDOF 6
ENDMDL
MODEL 7
REMARK VINA RESULT:    -5.508      9.052     11.405
REMARK INTER + INTRA:          -6.826
REMARK INTER:                  -6.547
REMARK INTRA:                  -0.279
REMARK UNBOUND:                -0.191
REMARK SMILES O=c1c(O)c(-c2ccc(O)c(O)c2)oc2cc(O)cc(O)c12
REMARK SMILES IDX 5 1 3 2 2 3 1 4 22 5 20 6 19 7 17 8 16 9 15 10 14 11 6 12
REMARK SMILES IDX 7 13 8 14 9 15 13 16 11 17 10 18 12 20 4 22 21 24 18 26
REMARK H PARENT 10 19 12 21 4 23 21 25 18 27
REMARK Flexibility Score: inf
ROOT
ATOM      1  C   UNL     1       5.970  -5.957   6.767  1.00  0.00     0.180 A 
ATOM      2  C   UNL     1       7.279  -6.222   7.204  1.00  0.00     0.208 A 
ATOM      3  C   UNL     1       8.109  -5.146   7.559  1.00  0.00     0.238 A 
ATOM      4  O   UNL     1       9.253  -5.393   8.020  1.00  0.00    -0.285 OA
ATOM      5  C   UNL     1       7.639  -3.817   7.418  1.00  0.00     0.111 A 
ATOM      6  C   UNL     1       8.409  -2.649   7.705  1.00  0.00     0.134 A 
ATOM      7  C   UNL     1       7.804  -1.388   7.630  1.00  0.00     0.093 A 
ATOM      8  C   UNL     1       6.477  -1.249   7.218  1.00  0.00     0.123 A 
ATOM      9  C   UNL     1       5.734  -2.378   6.884  1.00  0.00     0.094 A 
ATOM     10  C   UNL     1       6.297  -3.652   6.984  1.00  0.00     0.146 A 
ATOM     11  O   UNL     1       5.546  -4.703   6.676  1.00  0.00    -0.452 OA
ENDROOT
BRANCH   1  12
ATOM     12  C   UNL     1       5.032  -7.039   6.389  1.00  0.00     0.025 A 
ATOM     13  C   UNL     1       3.982  -7.427   7.237  1.00  0.00     0.016 A 
ATOM     14  C   UNL     1       3.096  -8.433   6.847  1.00  0.00     0.051 A 
ATOM     15  C   UNL     1       3.229  -9.060   5.604  1.00  0.00     0.157 A 
ATOM     16  C   UNL     1       5.154  -7.651   5.132  1.00  0.00     0.062 A 
ATOM     17  C   UNL     1       4.269  -8.662   4.732  1.00  0.00     0.158 A 
BRANCH  15  18
ATOM     18  O   UNL     1       2.311 -10.061   5.277  1.00  0.00    -0.504 OA
ATOM     19  H   UNL     1       2.396 -10.663   4.470  1.00  0.00     0.293 HD
ENDBRANCH  15  18
BRANCH  17  20
ATOM     20  O   UNL     1       4.459  -9.234   3.473  1.00  0.00    -0.504 OA
ATOM     21  H   UNL     1       4.035  -8.886   2.625  1.00  0.00     0.293 HD
ENDBRANCH  17  20
ENDBRANCH   1  12
BRANCH   2  22
ATOM     22  O   UNL     1       7.750  -7.536   7.263  1.00  0.00    -0.502 OA
ATOM     23  H   UNL     1       7.350  -8.231   7.882  1.00  0.00     0.293 HD
ENDBRANCH   2  22
BRANCH   6  24
ATOM     24  O   UNL     1       9.767  -2.668   8.040  1.00  0.00    -0.507 OA
ATOM     25  H   UNL     1      10.149  -3.085   8.875  1.00  0.00     0.293 HD
ENDBRANCH   6  24
BRANCH   8  26
ATOM     26  O   UNL     1       5.888   0.011   7.130  1.00  0.00    -0.508 OA
ATOM     27  H   UNL     1       5.688   0.441   6.234  1.00  0.00     0.293 HD
ENDBRANCH   8  26
TORSDOF 6
ENDMDL
MODEL 8
REMARK VINA RESULT:    -5.476      1.671      3.334
REMARK INTER + INTRA:          -6.788
REMARK INTER:                  -6.770
REMARK INTRA:                  -0.018
REMARK UNBOUND:                -0.191
REMARK SMILES O=c1c(O)c(-c2ccc(O)c(O)c2)oc2cc(O)cc(O)c12
REMARK SMILES IDX 5 1 3 2 2 3 1 4 22 5 20 6 19 7 17 8 16 9 15 10 14 11 6 12
REMARK SMILES IDX 7 13 8 14 9 15 13 16 11 17 10 18 12 20 4 22 21 24 18 26
REMARK H PARENT 10 19 12 21 4 23 21 25 18 27
REMARK Flexibility Score: inf
ROOT
ATOM      1  C   UNL     1      10.156   2.067   3.360  1.00  0.00     0.180 A 
ATOM      2  C   UNL     1      11.160   1.214   3.848  1.00  0.00     0.208 A 
ATOM      3  C   UNL     1      12.441   1.271   3.275  1.00  0.00     0.238 A 
ATOM      4  O   UNL     1      13.354   0.559   3.767  1.00  0.00    -0.285 OA
ATOM      5  C   UNL     1      12.686   2.140   2.184  1.00  0.00     0.111 A 
ATOM      6  C   UNL     1      13.933   2.248   1.496  1.00  0.00     0.134 A 
ATOM      7  C   UNL     1      14.090   3.219   0.499  1.00  0.00     0.093 A 
ATOM      8  C   UNL     1      13.026   4.042   0.121  1.00  0.00     0.123 A 
ATOM      9  C   UNL     1      11.791   3.907   0.748  1.00  0.00     0.094 A 
ATOM     10  C   UNL     1      11.613   2.974   1.772  1.00  0.00     0.146 A 
ATOM     11  O   UNL     1      10.424   2.894   2.357  1.00  0.00    -0.452 OA
ENDROOT
BRANCH   1  12
ATOM     12  C   UNL     1       8.786   2.074   3.922  1.00  0.00     0.025 A 
ATOM     13  C   UNL     1       8.173   3.266   4.342  1.00  0.00     0.016 A 
ATOM     14  C   UNL     1       6.871   3.250   4.845  1.00  0.00     0.051 A 
ATOM     15  C   UNL     1       6.152   2.054   4.928  1.00  0.00     0.157 A 
ATOM     16  C   UNL     1       8.058   0.876   3.983  1.00  0.00     0.062 A 
ATOM     17  C   UNL     1       6.750   0.851   4.487  1.00  0.00     0.158 A 
BRANCH  15  18
ATOM     18  O   UNL     1       4.855   2.107   5.445  1.00  0.00    -0.504 OA
ATOM     19  H   UNL     1       4.258   2.919   5.388  1.00  0.00     0.293 HD
ENDBRANCH  15  18
BRANCH  17  20
ATOM     20  O   UNL     1       6.092  -0.380   4.529  1.00  0.00    -0.504 OA
ATOM     21  H   UNL     1       5.236  -0.545   5.037  1.00  0.00     0.293 HD
ENDBRANCH  17  20
ENDBRANCH   1  12
BRANCH   2  22
ATOM     22  O   UNL     1      10.877   0.309   4.875  1.00  0.00    -0.502 OA
ATOM     23  H   UNL     1      11.298   0.380   5.794  1.00  0.00     0.293 HD
ENDBRANCH   2  22
BRANCH   6  24
ATOM     24  O   UNL     1      15.033   1.417   1.732  1.00  0.00    -0.507 OA
ATOM     25  H   UNL     1      14.979   0.475   2.088  1.00  0.00     0.293 HD
ENDBRANCH   6  24
BRANCH   8  26
ATOM     26  O   UNL     1      13.186   4.993  -0.884  1.00  0.00    -0.508 OA
ATOM     27  H   UNL     1      12.549   5.045  -1.670  1.00  0.00     0.293 HD
ENDBRANCH   8  26
TORSDOF 6
ENDMDL
MODEL 9
REMARK VINA RESULT:    -5.032      8.061     10.461
REMARK INTER + INTRA:          -6.253
REMARK INTER:                  -5.923
REMARK INTRA:                  -0.330
REMARK UNBOUND:                -0.191
REMARK SMILES O=c1c(O)c(-c2ccc(O)c(O)c2)oc2cc(O)cc(O)c12
REMARK SMILES IDX 5 1 3 2 2 3 1 4 22 5 20 6 19 7 17 8 16 9 15 10 14 11 6 12
REMARK SMILES IDX 7 13 8 14 9 15 13 16 11 17 10 18 12 20 4 22 21 24 18 26
REMARK H PARENT 10 19 12 21 4 23 21 25 18 27
REMARK Flexibility Score: inf
ROOT
ATOM      1  C   UNL     1       6.972  -4.764   7.055  1.00  0.00     0.180 A 
ATOM      2  C   UNL     1       8.254  -4.523   7.577  1.00  0.00     0.208 A 
ATOM      3  C   UNL     1       8.750  -3.209   7.587  1.00  0.00     0.238 A 
ATOM      4  O   UNL     1       9.867  -2.989   8.124  1.00  0.00    -0.285 OA
ATOM      5  C   UNL     1       7.981  -2.161   7.024  1.00  0.00     0.111 A 
ATOM      6  C   UNL     1       8.403  -0.800   6.938  1.00  0.00     0.134 A 
ATOM      7  C   UNL     1       7.514   0.170   6.456  1.00  0.00     0.093 A 
ATOM      8  C   UNL     1       6.243  -0.183   5.997  1.00  0.00     0.123 A 
ATOM      9  C   UNL     1       5.843  -1.516   6.025  1.00  0.00     0.094 A 
ATOM     10  C   UNL     1       6.692  -2.501   6.536  1.00  0.00     0.146 A 
ATOM     11  O   UNL     1       6.261  -3.756   6.563  1.00  0.00    -0.452 OA
ENDROOT
BRANCH   1  12
ATOM     12  C   UNL     1       6.376  -6.119   7.024  1.00  0.00     0.025 A 
ATOM     13  C   UNL     1       5.675  -6.636   8.125  1.00  0.00     0.016 A 
ATOM     14  C   UNL     1       5.100  -7.906   8.062  1.00  0.00     0.051 A 
ATOM     15  C   UNL     1       5.201  -8.679   6.900  1.00  0.00     0.157 A 
ATOM     16  C   UNL     1       6.459  -6.883   5.850  1.00  0.00     0.062 A 
ATOM     17  C   UNL     1       5.886  -8.159   5.777  1.00  0.00     0.158 A 
BRANCH  15  18
ATOM     18  O   UNL     1       4.608  -9.944   6.904  1.00  0.00    -0.504 OA
ATOM     19  H   UNL     1       4.297 -10.424   6.072  1.00  0.00     0.293 HD
ENDBRANCH  15  18
BRANCH  17  20
ATOM     20  O   UNL     1       6.020  -8.867   4.581  1.00  0.00    -0.504 OA
ATOM     21  H   UNL     1       5.989  -8.440   3.667  1.00  0.00     0.293 HD
ENDBRANCH  17  20
ENDBRANCH   1  12
BRANCH   2  22
ATOM     22  O   UNL     1       9.029  -5.582   8.060  1.00  0.00    -0.502 OA
ATOM     23  H   UNL     1       8.691  -6.536   8.085  1.00  0.00     0.293 HD
ENDBRANCH   2  22
BRANCH   6  24
ATOM     24  O   UNL     1       9.682  -0.352   7.286  1.00  0.00    -0.507 OA
ATOM     25  H   UNL     1       9.874   0.440   7.881  1.00  0.00     0.293 HD
ENDBRANCH   6  24
BRANCH   8  26
ATOM     26  O   UNL     1       5.373   0.785   5.503  1.00  0.00    -0.508 OA
ATOM     27  H   UNL     1       5.066   1.563   6.075  1.00  0.00     0.293 HD
ENDBRANCH   8  26
TORSDOF 6
ENDMDL
