MODEL 1
REMARK VINA RESULT:    -3.785      0.000      0.000
REMARK INTER + INTRA:          -6.893
REMARK INTER:                  -5.445
REMARK INTRA:                  -1.449
REMARK UNBOUND:                -1.449
REMARK SMILES O=C(CO)[C@H](O)[C@H](O)[C@@H](O)CO
REMARK SMILES IDX 7 1 9 2 11 3 12 4 10 6 5 8 2 9 1 10 3 11 4 12 6 14 8 16
REMARK H PARENT 12 5 10 7 4 13 6 15 8 17
REMARK Flexibility Score: inf
ROOT
ATOM      1  C   UNL     1      96.238   4.519  23.855  1.00  0.00     0.181 C 
ENDROOT
BRANCH   1   2
ATOM      2  C   UNL     1      95.396   5.570  24.631  1.00  0.00     0.171 C 
BRANCH   2   3
ATOM      3  C   UNL     1      96.253   6.690  25.246  1.00  0.00     0.190 C 
BRANCH   3   4
ATOM      4  O   UNL     1      96.778   6.278  26.481  1.00  0.00    -0.394 OA
ATOM      5  H   UNL     1      96.873   5.291  26.437  1.00  0.00     0.210 HD
ENDBRANCH   3   4
ENDBRANCH   2   3
BRANCH   2   6
ATOM      6  O   UNL     1      94.639   4.956  25.642  1.00  0.00    -0.388 OA
ATOM      7  H   UNL     1      93.839   4.563  25.205  1.00  0.00     0.211 HD
ENDBRANCH   2   6
ENDBRANCH   1   2
BRANCH   1   8
ATOM      8  C   UNL     1      96.130   3.078  24.425  1.00  0.00     0.214 C 
BRANCH   8   9
ATOM      9  C   UNL     1      97.285   2.769  25.363  1.00  0.00     0.189 C 
ATOM     10  O   UNL     1      97.323   3.316  26.455  1.00  0.00    -0.294 OA
BRANCH   9  11
ATOM     11  C   UNL     1      98.366   1.778  25.014  1.00  0.00     0.234 C 
BRANCH  11  12
ATOM     12  O   UNL     1      99.024   2.168  23.840  1.00  0.00    -0.388 OA
ATOM     13  H   UNL     1      99.334   3.100  23.985  1.00  0.00     0.211 HD
ENDBRANCH  11  12
ENDBRANCH   9  11
ENDBRANCH   8   9
BRANCH   8  14
ATOM     14  O   UNL     1      96.039   2.118  23.399  1.00  0.00    -0.382 OA
ATOM     15  H   UNL     1      95.611   2.551  22.615  1.00  0.00     0.211 HD
ENDBRANCH   8  14
ENDBRANCH   1   8
BRANCH   1  16
ATOM     16  O   UNL     1      97.588   4.915  23.852  1.00  0.00    -0.387 OA
ATOM     17  H   UNL     1      98.036   4.426  24.591  1.00  0.00     0.211 HD
ENDBRANCH   1  16
TORSDOF 10
ENDMDL
MODEL 2
REMARK VINA RESULT:    -3.551      5.091      6.485
REMARK INTER + INTRA:          -6.556
REMARK INTER:                  -5.087
REMARK INTRA:                  -1.469
REMARK UNBOUND:                -1.449
REMARK SMILES O=C(CO)[C@H](O)[C@H](O)[C@@H](O)CO
REMARK SMILES IDX 7 1 9 2 11 3 12 4 10 6 5 8 2 9 1 10 3 11 4 12 6 14 8 16
REMARK H PARENT 12 5 10 7 4 13 6 15 8 17
REMARK Flexibility Score: inf
ROOT
ATOM      1  C   UNL     1      98.144   8.064  21.321  1.00  0.00     0.181 C 
ENDROOT
BRANCH   1   2
ATOM      2  C   UNL     1      96.745   8.192  21.989  1.00  0.00     0.171 C 
BRANCH   2   3
ATOM      3  C   UNL     1      96.188   6.845  22.477  1.00  0.00     0.190 C 
BRANCH   3   4
ATOM      4  O   UNL     1      95.700   6.098  21.394  1.00  0.00    -0.394 OA
ATOM      5  H   UNL     1      96.492   5.758  20.901  1.00  0.00     0.210 HD
ENDBRANCH   3   4
ENDBRANCH   2   3
BRANCH   2   6
ATOM      6  O   UNL     1      95.825   8.785  21.109  1.00  0.00    -0.388 OA
ATOM      7  H   UNL     1      95.233   9.363  21.656  1.00  0.00     0.211 HD
ENDBRANCH   2   6
ENDBRANCH   1   2
BRANCH   1   8
ATOM      8  C   UNL     1      98.174   8.503  19.831  1.00  0.00     0.214 C 
BRANCH   8   9
ATOM      9  C   UNL     1      97.967   7.316  18.904  1.00  0.00     0.189 C 
ATOM     10  O   UNL     1      96.873   6.773  18.873  1.00  0.00    -0.294 OA
BRANCH   9  11
ATOM     11  C   UNL     1      99.051   6.809  17.988  1.00  0.00     0.234 C 
BRANCH  11  12
ATOM     12  O   UNL     1     100.200   6.486  18.723  1.00  0.00    -0.388 OA
ATOM     13  H   UNL     1     100.951   6.989  18.310  1.00  0.00     0.211 HD
ENDBRANCH  11  12
ENDBRANCH   9  11
ENDBRANCH   8   9
BRANCH   8  14
ATOM     14  O   UNL     1      99.360   9.192  19.516  1.00  0.00    -0.382 OA
ATOM     15  H   UNL     1      99.497   9.131  18.535  1.00  0.00     0.211 HD
ENDBRANCH   8  14
ENDBRANCH   1   8
BRANCH   1  16
ATOM     16  O   UNL     1      98.586   6.732  21.421  1.00  0.00    -0.387 OA
ATOM     17  H   UNL     1      99.431   6.745  21.942  1.00  0.00     0.211 HD
ENDBRANCH   1  16
TORSDOF 10
ENDMDL
MODEL 3
REMARK VINA RESULT:    -3.543      1.426      4.013
REMARK INTER + INTRA:          -6.544
REMARK INTER:                  -5.090
REMARK INTRA:                  -1.455
REMARK UNBOUND:                -1.449
REMARK SMILES O=C(CO)[C@H](O)[C@H](O)[C@@H](O)CO
REMARK SMILES IDX 7 1 9 2 11 3 12 4 10 6 5 8 2 9 1 10 3 11 4 12 6 14 8 16
REMARK H PARENT 12 5 10 7 4 13 6 15 8 17
REMARK Flexibility Score: inf
ROOT
ATOM      1  C   UNL     1      97.351   2.874  24.175  1.00  0.00     0.181 C 
ENDROOT
BRANCH   1   2
ATOM      2  C   UNL     1      98.813   2.347  24.229  1.00  0.00     0.171 C 
BRANCH   2   3
ATOM      3  C   UNL     1      99.117   1.550  25.509  1.00  0.00     0.190 C 
BRANCH   3   4
ATOM      4  O   UNL     1      99.340   2.424  26.584  1.00  0.00    -0.394 OA
ATOM      5  H   UNL     1      99.503   3.322  26.195  1.00  0.00     0.210 HD
ENDBRANCH   3   4
ENDBRANCH   2   3
BRANCH   2   6
ATOM      6  O   UNL     1      99.730   3.404  24.111  1.00  0.00    -0.388 OA
ATOM      7  H   UNL     1     100.264   3.419  24.947  1.00  0.00     0.211 HD
ENDBRANCH   2   6
ENDBRANCH   1   2
BRANCH   1   8
ATOM      8  C   UNL     1      97.242   4.422  24.098  1.00  0.00     0.214 C 
BRANCH   8   9
ATOM      9  C   UNL     1      97.026   5.028  25.475  1.00  0.00     0.189 C 
ATOM     10  O   UNL     1      97.958   5.047  26.265  1.00  0.00    -0.294 OA
BRANCH   9  11
ATOM     11  C   UNL     1      95.715   5.647  25.888  1.00  0.00     0.234 C 
BRANCH  11  12
ATOM     12  O   UNL     1      94.651   4.792  25.571  1.00  0.00    -0.388 OA
ATOM     13  H   UNL     1      94.735   4.002  26.167  1.00  0.00     0.211 HD
ENDBRANCH  11  12
ENDBRANCH   9  11
ENDBRANCH   8   9
BRANCH   8  14
ATOM     14  O   UNL     1      96.235   4.828  23.201  1.00  0.00    -0.382 OA
ATOM     15  H   UNL     1      95.725   5.564  23.629  1.00  0.00     0.211 HD
ENDBRANCH   8  14
ENDBRANCH   1   8
BRANCH   1  16
ATOM     16  O   UNL     1      96.650   2.417  25.306  1.00  0.00    -0.387 OA
ATOM     17  H   UNL     1      97.182   2.677  26.103  1.00  0.00     0.211 HD
ENDBRANCH   1  16
TORSDOF 10
ENDMDL
MODEL 4
REMARK VINA RESULT:    -3.516      0.818      4.018
REMARK INTER + INTRA:          -6.506
REMARK INTER:                  -5.153
REMARK INTRA:                  -1.353
REMARK UNBOUND:                -1.449
REMARK SMILES O=C(CO)[C@H](O)[C@H](O)[C@@H](O)CO
REMARK SMILES IDX 7 1 9 2 11 3 12 4 10 6 5 8 2 9 1 10 3 11 4 12 6 14 8 16
REMARK H PARENT 12 5 10 7 4 13 6 15 8 17
REMARK Flexibility Score: inf
ROOT
ATOM      1  C   UNL     1      96.635   3.367  25.559  1.00  0.00     0.181 C 
ENDROOT
BRANCH   1   2
ATOM      2  C   UNL     1      96.844   2.103  24.677  1.00  0.00     0.171 C 
BRANCH   2   3
ATOM      3  C   UNL     1      98.320   1.859  24.320  1.00  0.00     0.190 C 
BRANCH   3   4
ATOM      4  O   UNL     1      98.827   2.938  23.581  1.00  0.00    -0.394 OA
ATOM      5  H   UNL     1      98.095   3.246  22.984  1.00  0.00     0.210 HD
ENDBRANCH   3   4
ENDBRANCH   2   3
BRANCH   2   6
ATOM      6  O   UNL     1      96.088   2.188  23.497  1.00  0.00    -0.388 OA
ATOM      7  H   UNL     1      95.479   2.965  23.598  1.00  0.00     0.211 HD
ENDBRANCH   2   6
ENDBRANCH   1   2
BRANCH   1   8
ATOM      8  C   UNL     1      95.844   4.504  24.855  1.00  0.00     0.214 C 
BRANCH   8   9
ATOM      9  C   UNL     1      96.748   5.681  24.529  1.00  0.00     0.189 C 
ATOM     10  O   UNL     1      97.529   5.586  23.593  1.00  0.00    -0.294 OA
BRANCH   9  11
ATOM     11  C   UNL     1      96.687   6.980  25.290  1.00  0.00     0.234 C 
BRANCH  11  12
ATOM     12  O   UNL     1      96.930   6.759  26.653  1.00  0.00    -0.388 OA
ATOM     13  H   UNL     1      96.330   7.374  27.150  1.00  0.00     0.211 HD
ENDBRANCH  11  12
ENDBRANCH   9  11
ENDBRANCH   8   9
BRANCH   8  14
ATOM     14  O   UNL     1      94.733   4.913  25.616  1.00  0.00    -0.382 OA
ATOM     15  H   UNL     1      95.041   5.062  26.548  1.00  0.00     0.211 HD
ENDBRANCH   8  14
ENDBRANCH   1   8
BRANCH   1  16
ATOM     16  O   UNL     1      97.887   3.859  25.970  1.00  0.00    -0.387 OA
ATOM     17  H   UNL     1      98.391   3.091  26.347  1.00  0.00     0.211 HD
ENDBRANCH   1  16
TORSDOF 10
ENDMDL
MODEL 5
REMARK VINA RESULT:    -3.514      5.302      6.934
REMARK INTER + INTRA:          -6.504
REMARK INTER:                  -5.400
REMARK INTRA:                  -1.104
REMARK UNBOUND:                -1.449
REMARK SMILES O=C(CO)[C@H](O)[C@H](O)[C@@H](O)CO
REMARK SMILES IDX 7 1 9 2 11 3 12 4 10 6 5 8 2 9 1 10 3 11 4 12 6 14 8 16
REMARK H PARENT 12 5 10 7 4 13 6 15 8 17
REMARK Flexibility Score: inf
ROOT
ATOM      1  C   UNL     1      97.205   7.962  18.995  1.00  0.00     0.181 C 
ENDROOT
BRANCH   1   2
ATOM      2  C   UNL     1      98.588   8.076  18.294  1.00  0.00     0.171 C 
BRANCH   2   3
ATOM      3  C   UNL     1      99.189   6.709  17.926  1.00  0.00     0.190 C 
BRANCH   3   4
ATOM      4  O   UNL     1     100.304   6.436  18.733  1.00  0.00    -0.394 OA
ATOM      5  H   UNL     1     100.038   5.706  19.351  1.00  0.00     0.210 HD
ENDBRANCH   3   4
ENDBRANCH   2   3
BRANCH   2   6
ATOM      6  O   UNL     1      99.497   8.784  19.097  1.00  0.00    -0.388 OA
ATOM      7  H   UNL     1     100.343   8.853  18.583  1.00  0.00     0.211 HD
ENDBRANCH   2   6
ENDBRANCH   1   2
BRANCH   1   8
ATOM      8  C   UNL     1      97.257   8.179  20.533  1.00  0.00     0.214 C 
BRANCH   8   9
ATOM      9  C   UNL     1      97.367   6.856  21.272  1.00  0.00     0.189 C 
ATOM     10  O   UNL     1      98.437   6.266  21.272  1.00  0.00    -0.294 OA
BRANCH   9  11
ATOM     11  C   UNL     1      96.215   6.264  22.042  1.00  0.00     0.234 C 
BRANCH  11  12
ATOM     12  O   UNL     1      95.047   6.285  21.268  1.00  0.00    -0.388 OA
ATOM     13  H   UNL     1      94.375   6.802  21.784  1.00  0.00     0.211 HD
ENDBRANCH  11  12
ENDBRANCH   9  11
ENDBRANCH   8   9
BRANCH   8  14
ATOM     14  O   UNL     1      96.155   8.926  20.990  1.00  0.00    -0.382 OA
ATOM     15  H   UNL     1      95.338   8.556  20.563  1.00  0.00     0.211 HD
ENDBRANCH   8  14
ENDBRANCH   1   8
BRANCH   1  16
ATOM     16  O   UNL     1      96.650   6.698  18.725  1.00  0.00    -0.387 OA
ATOM     17  H   UNL     1      95.667   6.782  18.835  1.00  0.00     0.211 HD
ENDBRANCH   1  16
TORSDOF 10
ENDMDL
MODEL 6
REMARK VINA RESULT:    -3.500      5.307      6.579
REMARK INTER + INTRA:          -6.483
REMARK INTER:                  -5.376
REMARK INTRA:                  -1.107
REMARK UNBOUND:                -1.449
REMARK SMILES O=C(CO)[C@H](O)[C@H](O)[C@@H](O)CO
REMARK SMILES IDX 7 1 9 2 11 3 12 4 10 6 5 8 2 9 1 10 3 11 4 12 6 14 8 16
REMARK H PARENT 12 5 10 7 4 13 6 15 8 17
REMARK Flexibility Score: inf
ROOT
ATOM      1  C   UNL     1      97.252   7.871  20.378  1.00  0.00     0.181 C 
ENDROOT
BRANCH   1   2
ATOM      2  C   UNL     1      96.963   7.140  21.719  1.00  0.00     0.171 C 
BRANCH   2   3
ATOM      3  C   UNL     1      98.240   6.641  22.417  1.00  0.00     0.190 C 
BRANCH   3   4
ATOM      4  O   UNL     1      99.061   5.963  21.503  1.00  0.00    -0.394 OA
ATOM      5  H   UNL     1      99.982   6.310  21.633  1.00  0.00     0.210 HD
ENDBRANCH   3   4
ENDBRANCH   2   3
BRANCH   2   6
ATOM      6  O   UNL     1      96.089   6.059  21.520  1.00  0.00    -0.388 OA
ATOM      7  H   UNL     1      96.057   5.889  20.543  1.00  0.00     0.211 HD
ENDBRANCH   2   6
ENDBRANCH   1   2
BRANCH   1   8
ATOM      8  C   UNL     1      97.077   6.975  19.120  1.00  0.00     0.214 C 
BRANCH   8   9
ATOM      9  C   UNL     1      98.114   7.307  18.061  1.00  0.00     0.189 C 
ATOM     10  O   UNL     1      98.049   8.382  17.484  1.00  0.00    -0.294 OA
BRANCH   9  11
ATOM     11  C   UNL     1      99.250   6.375  17.724  1.00  0.00     0.234 C 
BRANCH  11  12
ATOM     12  O   UNL     1     100.250   6.450  18.703  1.00  0.00    -0.388 OA
ATOM     13  H   UNL     1     100.411   5.521  19.015  1.00  0.00     0.211 HD
ENDBRANCH  11  12
ENDBRANCH   9  11
ENDBRANCH   8   9
BRANCH   8  14
ATOM     14  O   UNL     1      95.772   7.060  18.599  1.00  0.00    -0.382 OA
ATOM     15  H   UNL     1      95.838   7.029  17.609  1.00  0.00     0.211 HD
ENDBRANCH   8  14
ENDBRANCH   1   8
BRANCH   1  16
ATOM     16  O   UNL     1      98.561   8.386  20.401  1.00  0.00    -0.387 OA
ATOM     17  H   UNL     1      98.530   9.279  19.969  1.00  0.00     0.211 HD
ENDBRANCH   1  16
TORSDOF 10
ENDMDL
MODEL 7
REMARK VINA RESULT:    -3.427      1.634      2.497
REMARK INTER + INTRA:          -6.379
REMARK INTER:                  -5.118
REMARK INTRA:                  -1.261
REMARK UNBOUND:                -1.449
REMARK SMILES O=C(CO)[C@H](O)[C@H](O)[C@@H](O)CO
REMARK SMILES IDX 7 1 9 2 11 3 12 4 10 6 5 8 2 9 1 10 3 11 4 12 6 14 8 16
REMARK H PARENT 12 5 10 7 4 13 6 15 8 17
REMARK Flexibility Score: inf
ROOT
ATOM      1  C   UNL     1      97.047   4.572  24.654  1.00  0.00     0.181 C 
ENDROOT
BRANCH   1   2
ATOM      2  C   UNL     1      95.635   5.209  24.526  1.00  0.00     0.171 C 
BRANCH   2   3
ATOM      3  C   UNL     1      95.673   6.745  24.454  1.00  0.00     0.190 C 
BRANCH   3   4
ATOM      4  O   UNL     1      95.741   7.291  25.745  1.00  0.00    -0.394 OA
ATOM      5  H   UNL     1      95.505   6.562  26.377  1.00  0.00     0.210 HD
ENDBRANCH   3   4
ENDBRANCH   2   3
BRANCH   2   6
ATOM      6  O   UNL     1      94.811   4.814  25.593  1.00  0.00    -0.388 OA
ATOM      7  H   UNL     1      94.199   5.572  25.782  1.00  0.00     0.211 HD
ENDBRANCH   2   6
ENDBRANCH   1   2
BRANCH   1   8
ATOM      8  C   UNL     1      97.154   3.492  25.767  1.00  0.00     0.214 C 
BRANCH   8   9
ATOM      9  C   UNL     1      98.136   3.912  26.847  1.00  0.00     0.189 C 
ATOM     10  O   UNL     1      99.331   3.736  26.662  1.00  0.00    -0.294 OA
BRANCH   9  11
ATOM     11  C   UNL     1      97.694   4.580  28.125  1.00  0.00     0.234 C 
BRANCH  11  12
ATOM     12  O   UNL     1      96.839   5.654  27.842  1.00  0.00    -0.388 OA
ATOM     13  H   UNL     1      97.314   6.228  27.186  1.00  0.00     0.211 HD
ENDBRANCH  11  12
ENDBRANCH   9  11
ENDBRANCH   8   9
BRANCH   8  14
ATOM     14  O   UNL     1      97.490   2.232  25.237  1.00  0.00    -0.382 OA
ATOM     15  H   UNL     1      98.475   2.203  25.121  1.00  0.00     0.211 HD
ENDBRANCH   8  14
ENDBRANCH   1   8
BRANCH   1  16
ATOM     16  O   UNL     1      97.993   5.584  24.900  1.00  0.00    -0.387 OA
ATOM     17  H   UNL     1      97.526   6.453  24.784  1.00  0.00     0.211 HD
ENDBRANCH   1  16
TORSDOF 10
ENDMDL
MODEL 8
REMARK VINA RESULT:    -3.421      4.402      5.963
REMARK INTER + INTRA:          -6.370
REMARK INTER:                  -5.379
REMARK INTRA:                  -0.991
REMARK UNBOUND:                -1.449
REMARK SMILES O=C(CO)[C@H](O)[C@H](O)[C@@H](O)CO
REMARK SMILES IDX 7 1 9 2 11 3 12 4 10 6 5 8 2 9 1 10 3 11 4 12 6 14 8 16
REMARK H PARENT 12 5 10 7 4 13 6 15 8 17
REMARK Flexibility Score: inf
ROOT
ATOM      1  C   UNL     1      97.724   6.700  20.377  1.00  0.00     0.181 C 
ENDROOT
BRANCH   1   2
ATOM      2  C   UNL     1      98.246   7.677  19.286  1.00  0.00     0.171 C 
BRANCH   2   3
ATOM      3  C   UNL     1      99.056   6.971  18.186  1.00  0.00     0.190 C 
BRANCH   3   4
ATOM      4  O   UNL     1     100.278   6.511  18.700  1.00  0.00    -0.394 OA
ATOM      5  H   UNL     1     100.072   5.722  19.266  1.00  0.00     0.210 HD
ENDBRANCH   3   4
ENDBRANCH   2   3
BRANCH   2   6
ATOM      6  O   UNL     1      99.028   8.693  19.860  1.00  0.00    -0.388 OA
ATOM      7  H   UNL     1      98.704   9.554  19.486  1.00  0.00     0.211 HD
ENDBRANCH   2   6
ENDBRANCH   1   2
BRANCH   1   8
ATOM      8  C   UNL     1      96.496   7.233  21.166  1.00  0.00     0.214 C 
BRANCH   8   9
ATOM      9  C   UNL     1      96.795   7.323  22.653  1.00  0.00     0.189 C 
ATOM     10  O   UNL     1      97.449   8.267  23.069  1.00  0.00    -0.294 OA
BRANCH   9  11
ATOM     11  C   UNL     1      96.275   6.312  23.643  1.00  0.00     0.234 C 
BRANCH  11  12
ATOM     12  O   UNL     1      96.594   5.012  23.226  1.00  0.00    -0.388 OA
ATOM     13  H   UNL     1      96.408   4.974  22.251  1.00  0.00     0.211 HD
ENDBRANCH  11  12
ENDBRANCH   9  11
ENDBRANCH   8   9
BRANCH   8  14
ATOM     14  O   UNL     1      95.347   6.457  20.924  1.00  0.00    -0.382 OA
ATOM     15  H   UNL     1      94.746   6.551  21.709  1.00  0.00     0.211 HD
ENDBRANCH   8  14
ENDBRANCH   1   8
BRANCH   1  16
ATOM     16  O   UNL     1      98.764   6.412  21.280  1.00  0.00    -0.387 OA
ATOM     17  H   UNL     1      98.772   5.428  21.409  1.00  0.00     0.211 HD
ENDBRANCH   1  16
TORSDOF 10
ENDMDL
MODEL 9
REMARK VINA RESULT:    -3.393      1.623      2.467
REMARK INTER + INTRA:          -6.330
REMARK INTER:                  -4.873
REMARK INTRA:                  -1.457
REMARK UNBOUND:                -1.449
REMARK SMILES O=C(CO)[C@H](O)[C@H](O)[C@@H](O)CO
REMARK SMILES IDX 7 1 9 2 11 3 12 4 10 6 5 8 2 9 1 10 3 11 4 12 6 14 8 16
REMARK H PARENT 12 5 10 7 4 13 6 15 8 17
REMARK Flexibility Score: inf
ROOT
ATOM      1  C   UNL     1      97.958   5.149  24.994  1.00  0.00     0.181 C 
ENDROOT
BRANCH   1   2
ATOM      2  C   UNL     1      96.655   5.689  24.341  1.00  0.00     0.171 C 
BRANCH   2   3
ATOM      3  C   UNL     1      95.451   5.670  25.298  1.00  0.00     0.190 C 
BRANCH   3   4
ATOM      4  O   UNL     1      94.916   4.375  25.381  1.00  0.00    -0.394 OA
ATOM      5  H   UNL     1      95.376   3.830  24.690  1.00  0.00     0.210 HD
ENDBRANCH   3   4
ENDBRANCH   2   3
BRANCH   2   6
ATOM      6  O   UNL     1      96.339   4.960  23.182  1.00  0.00    -0.388 OA
ATOM      7  H   UNL     1      95.934   4.105  23.480  1.00  0.00     0.211 HD
ENDBRANCH   2   6
ENDBRANCH   1   2
BRANCH   1   8
ATOM      8  C   UNL     1      98.594   3.951  24.237  1.00  0.00     0.214 C 
BRANCH   8   9
ATOM      9  C   UNL     1      98.179   2.627  24.857  1.00  0.00     0.189 C 
ATOM     10  O   UNL     1      97.018   2.261  24.749  1.00  0.00    -0.294 OA
BRANCH   9  11
ATOM     11  C   UNL     1      99.158   1.724  25.564  1.00  0.00     0.234 C 
BRANCH  11  12
ATOM     12  O   UNL     1      99.681   2.363  26.696  1.00  0.00    -0.388 OA
ATOM     13  H   UNL     1      99.635   3.339  26.517  1.00  0.00     0.211 HD
ENDBRANCH  11  12
ENDBRANCH   9  11
ENDBRANCH   8   9
BRANCH   8  14
ATOM     14  O   UNL     1      99.996   4.063  24.171  1.00  0.00    -0.382 OA
ATOM     15  H   UNL     1     100.241   4.259  23.229  1.00  0.00     0.211 HD
ENDBRANCH   8  14
ENDBRANCH   1   8
BRANCH   1  16
ATOM     16  O   UNL     1      97.690   4.769  26.322  1.00  0.00    -0.387 OA
ATOM     17  H   UNL     1      96.867   4.213  26.304  1.00  0.00     0.211 HD
ENDBRANCH   1  16
TORSDOF 10
ENDMDL
