MODEL 1
REMARK VINA RESULT:    -8.065      0.000      0.000
REMARK INTER + INTRA:         -11.527
REMARK INTER:                 -10.659
REMARK INTRA:                  -0.868
REMARK UNBOUND:                -0.868
REMARK SMILES C=C(CC[C@@H](C)[C@H]1CC[C@]2(C)[C@@H]3CC[C@H]4C(C)(C)[C@H](O)CC[C@]45C[C@@]35CC[C@]12C)C(C)C
REMARK SMILES IDX 4 1 3 2 2 3 1 4 30 5 31 6 32 7 5 8 6 9 7 10 8 11 28 12 9 13
REMARK SMILES IDX 10 14 27 15 29 16 11 17 12 18 26 19 25 20 13 21 23 22 24 23
REMARK SMILES IDX 14 24 15 25 22 26 16 27 21 28 19 29 17 30 18 31 20 32
REMARK H PARENT 20 33
REMARK Flexibility Score: inf
ROOT
ATOM      1  C   UNL     1     115.895 125.092 126.544  1.00  0.00     0.008 C 
ENDROOT
BRANCH   1   2
ATOM      2  C   UNL     1     116.508 126.058 125.516  1.00  0.00     0.031 C 
BRANCH   2   3
ATOM      3  C   UNL     1     116.417 127.495 126.007  1.00  0.00    -0.075 C 
ATOM      4  C   UNL     1     115.818 127.707 127.198  1.00  0.00     0.008 C 
BRANCH   3   5
ATOM      5  C   UNL     1     116.857 128.709 125.178  1.00  0.00     0.008 C 
ATOM      6  C   UNL     1     115.986 129.937 125.492  1.00  0.00     0.012 C 
ATOM      7  C   UNL     1     118.338 129.086 125.332  1.00  0.00     0.012 C 
ENDBRANCH   3   5
ENDBRANCH   2   3
ENDBRANCH   1   2
BRANCH   1   8
ATOM      8  C   UNL     1     115.829 123.628 126.013  1.00  0.00    -0.010 C 
ATOM      9  C   UNL     1     116.925 122.817 126.738  1.00  0.00     0.008 C 
BRANCH   8  10
ATOM     10  C   UNL     1     114.391 123.012 126.214  1.00  0.00    -0.002 C 
ATOM     11  C   UNL     1     113.605 123.746 127.331  1.00  0.00     0.005 C 
ATOM     12  C   UNL     1     113.385 122.954 125.005  1.00  0.00    -0.024 C 
ATOM     13  C   UNL     1     112.136 123.828 126.926  1.00  0.00     0.008 C 
ATOM     14  C   UNL     1     111.952 122.916 125.700  1.00  0.00    -0.024 C 
ATOM     15  C   UNL     1     113.590 121.731 124.053  1.00  0.00     0.008 C 
ATOM     16  C   UNL     1     113.553 124.250 124.144  1.00  0.00     0.012 C 
ATOM     17  C   UNL     1     110.833 123.517 124.792  1.00  0.00     0.012 C 
ATOM     18  C   UNL     1     111.436 121.471 126.144  1.00  0.00     0.002 C 
ATOM     19  C   UNL     1     113.210 120.384 124.669  1.00  0.00     0.008 C 
ATOM     20  C   UNL     1     111.709 120.444 125.048  1.00  0.00    -0.020 C 
ATOM     21  C   UNL     1     111.999 120.850 127.479  1.00  0.00     0.005 C 
ATOM     22  C   UNL     1     110.830 119.167 125.392  1.00  0.00    -0.020 C 
ATOM     23  C   UNL     1     110.906 119.763 123.982  1.00  0.00     0.015 C 
ATOM     24  C   UNL     1     111.724 119.321 127.704  1.00  0.00     0.005 C 
ATOM     25  C   UNL     1     111.719 118.424 126.410  1.00  0.00     0.004 C 
ATOM     26  C   UNL     1     109.313 119.199 125.817  1.00  0.00     0.010 C 
ATOM     27  C   UNL     1     111.239 116.921 126.610  1.00  0.00    -0.006 C 
ATOM     28  C   UNL     1     108.875 117.906 126.526  1.00  0.00     0.033 C 
ATOM     29  C   UNL     1     109.748 116.705 126.152  1.00  0.00     0.120 C 
ATOM     30  C   UNL     1     112.158 115.991 125.771  1.00  0.00     0.014 C 
ATOM     31  C   UNL     1     111.378 116.449 128.083  1.00  0.00     0.014 C 
BRANCH  29  32
ATOM     32  O   UNL     1     109.666 116.508 124.756  1.00  0.00    -0.393 OA
ATOM     33  H   UNL     1     110.418 115.914 124.491  1.00  0.00     0.210 HD
ENDBRANCH  29  32
ENDBRANCH   8  10
ENDBRANCH   1   8
TORSDOF 6
ENDMDL
MODEL 2
REMARK VINA RESULT:    -8.064      2.981      8.216
REMARK INTER + INTRA:         -11.525
REMARK INTER:                  -9.491
REMARK INTRA:                  -2.034
REMARK UNBOUND:                -0.868
REMARK SMILES C=C(CC[C@@H](C)[C@H]1CC[C@]2(C)[C@@H]3CC[C@H]4C(C)(C)[C@H](O)CC[C@]45C[C@@]35CC[C@]12C)C(C)C
REMARK SMILES IDX 4 1 3 2 2 3 1 4 30 5 31 6 32 7 5 8 6 9 7 10 8 11 28 12 9 13
REMARK SMILES IDX 10 14 27 15 29 16 11 17 12 18 26 19 25 20 13 21 23 22 24 23
REMARK SMILES IDX 14 24 15 25 22 26 16 27 21 28 19 29 17 30 18 31 20 32
REMARK H PARENT 20 33
REMARK Flexibility Score: inf
ROOT
ATOM      1  C   UNL     1     112.116 115.254 130.147  1.00  0.00     0.008 C 
ENDROOT
BRANCH   1   2
ATOM      2  C   UNL     1     113.020 116.026 131.123  1.00  0.00     0.031 C 
BRANCH   2   3
ATOM      3  C   UNL     1     114.487 115.803 130.788  1.00  0.00    -0.075 C 
ATOM      4  C   UNL     1     115.024 114.611 131.120  1.00  0.00     0.008 C 
BRANCH   3   5
ATOM      5  C   UNL     1     115.403 116.889 130.210  1.00  0.00     0.008 C 
ATOM      6  C   UNL     1     116.128 116.386 128.950  1.00  0.00     0.012 C 
ATOM      7  C   UNL     1     114.699 118.217 129.891  1.00  0.00     0.012 C 
ENDBRANCH   3   5
ENDBRANCH   2   3
ENDBRANCH   1   2
BRANCH   1   8
ATOM      8  C   UNL     1     111.074 116.179 129.448  1.00  0.00    -0.010 C 
ATOM      9  C   UNL     1     110.565 117.190 130.498  1.00  0.00     0.008 C 
BRANCH   8  10
ATOM     10  C   UNL     1     111.697 116.887 128.184  1.00  0.00    -0.002 C 
ATOM     11  C   UNL     1     112.768 115.998 127.500  1.00  0.00     0.005 C 
ATOM     12  C   UNL     1     110.765 117.352 127.003  1.00  0.00    -0.024 C 
ATOM     13  C   UNL     1     112.668 116.185 125.987  1.00  0.00     0.008 C 
ATOM     14  C   UNL     1     111.734 117.382 125.739  1.00  0.00    -0.024 C 
ATOM     15  C   UNL     1     110.079 118.738 127.230  1.00  0.00     0.008 C 
ATOM     16  C   UNL     1     109.629 116.293 126.810  1.00  0.00     0.012 C 
ATOM     17  C   UNL     1     110.970 117.151 124.397  1.00  0.00     0.012 C 
ATOM     18  C   UNL     1     112.577 118.725 125.545  1.00  0.00     0.002 C 
ATOM     19  C   UNL     1     111.037 119.928 127.183  1.00  0.00     0.008 C 
ATOM     20  C   UNL     1     111.698 119.950 125.781  1.00  0.00    -0.020 C 
ATOM     21  C   UNL     1     113.868 118.934 126.425  1.00  0.00     0.005 C 
ATOM     22  C   UNL     1     112.484 121.196 125.191  1.00  0.00    -0.020 C 
ATOM     23  C   UNL     1     110.995 120.956 124.922  1.00  0.00     0.015 C 
ATOM     24  C   UNL     1     114.471 120.384 126.440  1.00  0.00     0.005 C 
ATOM     25  C   UNL     1     113.432 121.563 126.351  1.00  0.00     0.004 C 
ATOM     26  C   UNL     1     113.198 121.234 123.786  1.00  0.00     0.010 C 
ATOM     27  C   UNL     1     114.047 123.017 126.159  1.00  0.00    -0.006 C 
ATOM     28  C   UNL     1     114.244 122.357 123.691  1.00  0.00     0.033 C 
ATOM     29  C   UNL     1     113.966 123.506 124.665  1.00  0.00     0.120 C 
ATOM     30  C   UNL     1     113.257 124.012 127.053  1.00  0.00     0.014 C 
ATOM     31  C   UNL     1     115.526 123.097 126.628  1.00  0.00     0.014 C 
BRANCH  29  32
ATOM     32  O   UNL     1     112.694 124.044 124.372  1.00  0.00    -0.393 OA
ATOM     33  H   UNL     1     112.143 123.980 125.197  1.00  0.00     0.210 HD
ENDBRANCH  29  32
ENDBRANCH   8  10
ENDBRANCH   1   8
TORSDOF 6
ENDMDL
MODEL 3
REMARK VINA RESULT:    -8.047      3.135      8.199
REMARK INTER + INTRA:         -11.502
REMARK INTER:                  -9.375
REMARK INTRA:                  -2.127
REMARK UNBOUND:                -0.868
REMARK SMILES C=C(CC[C@@H](C)[C@H]1CC[C@]2(C)[C@@H]3CC[C@H]4C(C)(C)[C@H](O)CC[C@]45C[C@@]35CC[C@]12C)C(C)C
REMARK SMILES IDX 4 1 3 2 2 3 1 4 30 5 31 6 32 7 5 8 6 9 7 10 8 11 28 12 9 13
REMARK SMILES IDX 10 14 27 15 29 16 11 17 12 18 26 19 25 20 13 21 23 22 24 23
REMARK SMILES IDX 14 24 15 25 22 26 16 27 21 28 19 29 17 30 18 31 20 32
REMARK H PARENT 20 33
REMARK Flexibility Score: inf
ROOT
ATOM      1  C   UNL     1     111.398 115.568 129.389  1.00  0.00     0.008 C 
ENDROOT
BRANCH   1   2
ATOM      2  C   UNL     1     112.447 115.784 130.492  1.00  0.00     0.031 C 
BRANCH   2   3
ATOM      3  C   UNL     1     113.832 115.385 130.003  1.00  0.00    -0.075 C 
ATOM      4  C   UNL     1     114.287 114.165 130.359  1.00  0.00     0.008 C 
BRANCH   3   5
ATOM      5  C   UNL     1     114.769 116.327 129.238  1.00  0.00     0.008 C 
ATOM      6  C   UNL     1     114.866 115.926 127.756  1.00  0.00     0.012 C 
ATOM      7  C   UNL     1     114.399 117.816 129.336  1.00  0.00     0.012 C 
ENDBRANCH   3   5
ENDBRANCH   2   3
ENDBRANCH   1   2
BRANCH   1   8
ATOM      8  C   UNL     1     110.661 116.889 129.007  1.00  0.00    -0.010 C 
ATOM      9  C   UNL     1     110.811 117.868 130.191  1.00  0.00     0.008 C 
BRANCH   8  10
ATOM     10  C   UNL     1     111.219 117.484 127.658  1.00  0.00    -0.002 C 
ATOM     11  C   UNL     1     111.457 116.378 126.599  1.00  0.00     0.005 C 
ATOM     12  C   UNL     1     110.403 118.590 126.889  1.00  0.00    -0.024 C 
ATOM     13  C   UNL     1     111.092 116.928 125.222  1.00  0.00     0.008 C 
ATOM     14  C   UNL     1     110.891 118.446 125.380  1.00  0.00    -0.024 C 
ATOM     15  C   UNL     1     110.623 120.042 127.424  1.00  0.00     0.008 C 
ATOM     16  C   UNL     1     108.876 118.270 127.016  1.00  0.00     0.012 C 
ATOM     17  C   UNL     1     109.809 118.917 124.357  1.00  0.00     0.012 C 
ATOM     18  C   UNL     1     112.229 119.235 125.006  1.00  0.00     0.002 C 
ATOM     19  C   UNL     1     112.012 120.613 127.141  1.00  0.00     0.008 C 
ATOM     20  C   UNL     1     112.209 120.639 125.603  1.00  0.00    -0.020 C 
ATOM     21  C   UNL     1     113.612 118.602 125.418  1.00  0.00     0.005 C 
ATOM     22  C   UNL     1     113.350 121.462 124.869  1.00  0.00    -0.020 C 
ATOM     23  C   UNL     1     111.942 122.023 125.097  1.00  0.00     0.015 C 
ATOM     24  C   UNL     1     114.863 119.547 125.328  1.00  0.00     0.005 C 
ATOM     25  C   UNL     1     114.607 121.062 125.669  1.00  0.00     0.004 C 
ATOM     26  C   UNL     1     113.598 121.478 123.313  1.00  0.00     0.010 C 
ATOM     27  C   UNL     1     115.817 122.053 125.381  1.00  0.00    -0.006 C 
ATOM     28  C   UNL     1     115.012 121.960 122.950  1.00  0.00     0.033 C 
ATOM     29  C   UNL     1     115.629 122.848 124.035  1.00  0.00     0.120 C 
ATOM     30  C   UNL     1     115.916 123.070 126.551  1.00  0.00     0.014 C 
ATOM     31  C   UNL     1     117.183 121.315 125.334  1.00  0.00     0.014 C 
BRANCH  29  32
ATOM     32  O   UNL     1     114.798 123.974 124.220  1.00  0.00    -0.393 OA
ATOM     33  H   UNL     1     115.309 124.776 123.927  1.00  0.00     0.210 HD
ENDBRANCH  29  32
ENDBRANCH   8  10
ENDBRANCH   1   8
TORSDOF 6
ENDMDL
MODEL 4
REMARK VINA RESULT:    -7.816      1.607      3.232
REMARK INTER + INTRA:         -11.197
REMARK INTER:                 -10.279
REMARK INTRA:                  -0.919
REMARK UNBOUND:                -0.868
REMARK SMILES C=C(CC[C@@H](C)[C@H]1CC[C@]2(C)[C@@H]3CC[C@H]4C(C)(C)[C@H](O)CC[C@]45C[C@@]35CC[C@]12C)C(C)C
REMARK SMILES IDX 4 1 3 2 2 3 1 4 30 5 31 6 32 7 5 8 6 9 7 10 8 11 28 12 9 13
REMARK SMILES IDX 10 14 27 15 29 16 11 17 12 18 26 19 25 20 13 21 23 22 24 23
REMARK SMILES IDX 14 24 15 25 22 26 16 27 21 28 19 29 17 30 18 31 20 32
REMARK H PARENT 20 33
REMARK Flexibility Score: inf
ROOT
ATOM      1  C   UNL     1     115.961 126.236 125.566  1.00  0.00     0.008 C 
ENDROOT
BRANCH   1   2
ATOM      2  C   UNL     1     116.946 127.227 126.209  1.00  0.00     0.031 C 
BRANCH   2   3
ATOM      3  C   UNL     1     116.546 128.662 125.898  1.00  0.00    -0.075 C 
ATOM      4  C   UNL     1     115.292 129.041 126.225  1.00  0.00     0.008 C 
BRANCH   3   5
ATOM      5  C   UNL     1     117.439 129.649 125.136  1.00  0.00     0.008 C 
ATOM      6  C   UNL     1     117.065 131.104 125.472  1.00  0.00     0.012 C 
ATOM      7  C   UNL     1     118.946 129.451 125.359  1.00  0.00     0.012 C 
ENDBRANCH   3   5
ENDBRANCH   2   3
ENDBRANCH   1   2
BRANCH   1   8
ATOM      8  C   UNL     1     115.405 125.204 126.594  1.00  0.00    -0.010 C 
ATOM      9  C   UNL     1     114.201 125.855 127.307  1.00  0.00     0.008 C 
BRANCH   8  10
ATOM     10  C   UNL     1     115.025 123.845 125.889  1.00  0.00    -0.002 C 
ATOM     11  C   UNL     1     115.380 123.864 124.380  1.00  0.00     0.005 C 
ATOM     12  C   UNL     1     115.632 122.491 126.414  1.00  0.00    -0.024 C 
ATOM     13  C   UNL     1     115.875 122.478 123.973  1.00  0.00     0.008 C 
ATOM     14  C   UNL     1     115.574 121.528 125.146  1.00  0.00    -0.024 C 
ATOM     15  C   UNL     1     114.874 121.874 127.634  1.00  0.00     0.008 C 
ATOM     16  C   UNL     1     117.112 122.739 126.859  1.00  0.00     0.012 C 
ATOM     17  C   UNL     1     116.675 120.421 125.188  1.00  0.00     0.012 C 
ATOM     18  C   UNL     1     114.188 120.768 124.916  1.00  0.00     0.002 C 
ATOM     19  C   UNL     1     113.484 121.332 127.301  1.00  0.00     0.008 C 
ATOM     20  C   UNL     1     113.652 120.220 126.235  1.00  0.00    -0.020 C 
ATOM     21  C   UNL     1     112.999 121.562 124.253  1.00  0.00     0.005 C 
ATOM     22  C   UNL     1     112.521 119.168 125.864  1.00  0.00    -0.020 C 
ATOM     23  C   UNL     1     113.605 118.883 126.909  1.00  0.00     0.015 C 
ATOM     24  C   UNL     1     111.581 120.893 124.345  1.00  0.00     0.005 C 
ATOM     25  C   UNL     1     111.289 120.074 125.657  1.00  0.00     0.004 C 
ATOM     26  C   UNL     1     112.649 118.052 124.760  1.00  0.00     0.010 C 
ATOM     27  C   UNL     1     109.942 119.230 125.663  1.00  0.00    -0.006 C 
ATOM     28  C   UNL     1     111.281 117.515 124.308  1.00  0.00     0.033 C 
ATOM     29  C   UNL     1     110.194 117.703 125.370  1.00  0.00     0.120 C 
ATOM     30  C   UNL     1     109.276 119.366 127.060  1.00  0.00     0.014 C 
ATOM     31  C   UNL     1     108.906 119.767 124.637  1.00  0.00     0.014 C 
BRANCH  29  32
ATOM     32  O   UNL     1     110.587 117.017 126.540  1.00  0.00    -0.393 OA
ATOM     33  H   UNL     1     110.997 116.156 126.260  1.00  0.00     0.210 HD
ENDBRANCH  29  32
ENDBRANCH   8  10
ENDBRANCH   1   8
TORSDOF 6
ENDMDL
MODEL 5
REMARK VINA RESULT:    -7.757      3.041      9.043
REMARK INTER + INTRA:         -11.120
REMARK INTER:                  -9.936
REMARK INTRA:                  -1.184
REMARK UNBOUND:                -0.868
REMARK SMILES C=C(CC[C@@H](C)[C@H]1CC[C@]2(C)[C@@H]3CC[C@H]4C(C)(C)[C@H](O)CC[C@]45C[C@@]35CC[C@]12C)C(C)C
REMARK SMILES IDX 4 1 3 2 2 3 1 4 30 5 31 6 32 7 5 8 6 9 7 10 8 11 28 12 9 13
REMARK SMILES IDX 10 14 27 15 29 16 11 17 12 18 26 19 25 20 13 21 23 22 24 23
REMARK SMILES IDX 14 24 15 25 22 26 16 27 21 28 19 29 17 30 18 31 20 32
REMARK H PARENT 20 33
REMARK Flexibility Score: inf
ROOT
ATOM      1  C   UNL     1     111.647 114.502 123.477  1.00  0.00     0.008 C 
ENDROOT
BRANCH   1   2
ATOM      2  C   UNL     1     112.469 113.208 123.361  1.00  0.00     0.031 C 
BRANCH   2   3
ATOM      3  C   UNL     1     113.289 113.204 122.080  1.00  0.00    -0.075 C 
ATOM      4  C   UNL     1     112.747 112.606 120.998  1.00  0.00     0.008 C 
BRANCH   3   5
ATOM      5  C   UNL     1     114.726 113.732 121.987  1.00  0.00     0.008 C 
ATOM      6  C   UNL     1     115.534 112.953 120.935  1.00  0.00     0.012 C 
ATOM      7  C   UNL     1     114.838 115.237 121.697  1.00  0.00     0.012 C 
ENDBRANCH   3   5
ENDBRANCH   2   3
ENDBRANCH   1   2
BRANCH   1   8
ATOM      8  C   UNL     1     111.900 115.246 124.823  1.00  0.00    -0.010 C 
ATOM      9  C   UNL     1     113.366 114.987 125.232  1.00  0.00     0.008 C 
BRANCH   8  10
ATOM     10  C   UNL     1     111.572 116.784 124.696  1.00  0.00    -0.002 C 
ATOM     11  C   UNL     1     110.634 117.072 123.496  1.00  0.00     0.005 C 
ATOM     12  C   UNL     1     110.908 117.548 125.901  1.00  0.00    -0.024 C 
ATOM     13  C   UNL     1     109.666 118.186 123.885  1.00  0.00     0.008 C 
ATOM     14  C   UNL     1     110.169 118.780 125.213  1.00  0.00    -0.024 C 
ATOM     15  C   UNL     1     111.917 118.027 126.996  1.00  0.00     0.008 C 
ATOM     16  C   UNL     1     109.879 116.597 126.597  1.00  0.00     0.012 C 
ATOM     17  C   UNL     1     108.939 119.273 126.039  1.00  0.00     0.012 C 
ATOM     18  C   UNL     1     111.073 120.070 124.948  1.00  0.00     0.002 C 
ATOM     19  C   UNL     1     112.838 119.161 126.549  1.00  0.00     0.008 C 
ATOM     20  C   UNL     1     111.948 120.370 126.161  1.00  0.00    -0.020 C 
ATOM     21  C   UNL     1     112.036 120.068 123.700  1.00  0.00     0.005 C 
ATOM     22  C   UNL     1     112.494 121.849 125.975  1.00  0.00    -0.020 C 
ATOM     23  C   UNL     1     111.918 121.342 127.301  1.00  0.00     0.015 C 
ATOM     24  C   UNL     1     113.127 121.197 123.663  1.00  0.00     0.005 C 
ATOM     25  C   UNL     1     113.715 121.633 125.056  1.00  0.00     0.004 C 
ATOM     26  C   UNL     1     111.622 123.090 125.545  1.00  0.00     0.010 C 
ATOM     27  C   UNL     1     114.663 122.910 125.041  1.00  0.00    -0.006 C 
ATOM     28  C   UNL     1     112.476 124.246 124.999  1.00  0.00     0.033 C 
ATOM     29  C   UNL     1     113.916 124.211 125.519  1.00  0.00     0.120 C 
ATOM     30  C   UNL     1     115.865 122.648 125.990  1.00  0.00     0.014 C 
ATOM     31  C   UNL     1     115.271 123.175 123.637  1.00  0.00     0.014 C 
BRANCH  29  32
ATOM     32  O   UNL     1     113.887 124.294 126.929  1.00  0.00    -0.393 OA
ATOM     33  H   UNL     1     113.390 125.121 127.171  1.00  0.00     0.210 HD
ENDBRANCH  29  32
ENDBRANCH   8  10
ENDBRANCH   1   8
TORSDOF 6
ENDMDL
MODEL 6
REMARK VINA RESULT:    -7.752      3.078      8.174
REMARK INTER + INTRA:         -11.113
REMARK INTER:                  -9.730
REMARK INTRA:                  -1.382
REMARK UNBOUND:                -0.868
REMARK SMILES C=C(CC[C@@H](C)[C@H]1CC[C@]2(C)[C@@H]3CC[C@H]4C(C)(C)[C@H](O)CC[C@]45C[C@@]35CC[C@]12C)C(C)C
REMARK SMILES IDX 4 1 3 2 2 3 1 4 30 5 31 6 32 7 5 8 6 9 7 10 8 11 28 12 9 13
REMARK SMILES IDX 10 14 27 15 29 16 11 17 12 18 26 19 25 20 13 21 23 22 24 23
REMARK SMILES IDX 14 24 15 25 22 26 16 27 21 28 19 29 17 30 18 31 20 32
REMARK H PARENT 20 33
REMARK Flexibility Score: inf
ROOT
ATOM      1  C   UNL     1     110.445 115.233 124.821  1.00  0.00     0.008 C 
ENDROOT
BRANCH   1   2
ATOM      2  C   UNL     1     109.619 116.525 124.941  1.00  0.00     0.031 C 
BRANCH   2   3
ATOM      3  C   UNL     1     109.622 117.289 123.625  1.00  0.00    -0.075 C 
ATOM      4  C   UNL     1     109.755 116.570 122.491  1.00  0.00     0.008 C 
BRANCH   3   5
ATOM      5  C   UNL     1     109.600 118.820 123.530  1.00  0.00     0.008 C 
ATOM      6  C   UNL     1     108.875 119.438 124.738  1.00  0.00     0.012 C 
ATOM      7  C   UNL     1     110.983 119.472 123.382  1.00  0.00     0.012 C 
ENDBRANCH   3   5
ENDBRANCH   2   3
ENDBRANCH   1   2
BRANCH   1   8
ATOM      8  C   UNL     1     111.915 115.423 125.304  1.00  0.00    -0.010 C 
ATOM      9  C   UNL     1     112.823 115.416 124.055  1.00  0.00     0.008 C 
BRANCH   8  10
ATOM     10  C   UNL     1     112.070 116.743 126.154  1.00  0.00    -0.002 C 
ATOM     11  C   UNL     1     111.066 116.784 127.335  1.00  0.00     0.005 C 
ATOM     12  C   UNL     1     113.457 117.098 126.809  1.00  0.00    -0.024 C 
ATOM     13  C   UNL     1     111.749 117.431 128.538  1.00  0.00     0.008 C 
ATOM     14  C   UNL     1     113.071 118.038 128.036  1.00  0.00    -0.024 C 
ATOM     15  C   UNL     1     114.464 117.804 125.844  1.00  0.00     0.008 C 
ATOM     16  C   UNL     1     114.133 115.778 127.308  1.00  0.00     0.012 C 
ATOM     17  C   UNL     1     114.122 117.973 129.189  1.00  0.00     0.012 C 
ATOM     18  C   UNL     1     112.886 119.587 127.691  1.00  0.00     0.002 C 
ATOM     19  C   UNL     1     114.074 119.231 125.462  1.00  0.00     0.008 C 
ATOM     20  C   UNL     1     114.000 120.067 126.765  1.00  0.00    -0.020 C 
ATOM     21  C   UNL     1     111.533 120.051 127.028  1.00  0.00     0.005 C 
ATOM     22  C   UNL     1     113.969 121.654 126.800  1.00  0.00    -0.020 C 
ATOM     23  C   UNL     1     115.268 120.850 126.918  1.00  0.00     0.015 C 
ATOM     24  C   UNL     1     111.520 121.496 126.414  1.00  0.00     0.005 C 
ATOM     25  C   UNL     1     112.871 121.982 125.767  1.00  0.00     0.004 C 
ATOM     26  C   UNL     1     113.856 122.529 128.106  1.00  0.00     0.010 C 
ATOM     27  C   UNL     1     112.922 123.510 125.332  1.00  0.00    -0.006 C 
ATOM     28  C   UNL     1     113.382 123.962 127.812  1.00  0.00     0.033 C 
ATOM     29  C   UNL     1     113.690 124.402 126.378  1.00  0.00     0.120 C 
ATOM     30  C   UNL     1     113.647 123.612 123.961  1.00  0.00     0.014 C 
ATOM     31  C   UNL     1     111.505 124.108 125.115  1.00  0.00     0.014 C 
BRANCH  29  32
ATOM     32  O   UNL     1     115.086 124.336 126.178  1.00  0.00    -0.393 OA
ATOM     33  H   UNL     1     115.346 125.114 125.616  1.00  0.00     0.210 HD
ENDBRANCH  29  32
ENDBRANCH   8  10
ENDBRANCH   1   8
TORSDOF 6
ENDMDL
MODEL 7
REMARK VINA RESULT:    -7.651      2.848      7.825
REMARK INTER + INTRA:         -10.980
REMARK INTER:                  -8.769
REMARK INTRA:                  -2.211
REMARK UNBOUND:                -0.868
REMARK SMILES C=C(CC[C@@H](C)[C@H]1CC[C@]2(C)[C@@H]3CC[C@H]4C(C)(C)[C@H](O)CC[C@]45C[C@@]35CC[C@]12C)C(C)C
REMARK SMILES IDX 4 1 3 2 2 3 1 4 30 5 31 6 32 7 5 8 6 9 7 10 8 11 28 12 9 13
REMARK SMILES IDX 10 14 27 15 29 16 11 17 12 18 26 19 25 20 13 21 23 22 24 23
REMARK SMILES IDX 14 24 15 25 22 26 16 27 21 28 19 29 17 30 18 31 20 32
REMARK H PARENT 20 33
REMARK Flexibility Score: inf
ROOT
ATOM      1  C   UNL     1     113.702 114.734 124.437  1.00  0.00     0.008 C 
ENDROOT
BRANCH   1   2
ATOM      2  C   UNL     1     115.166 115.142 124.201  1.00  0.00     0.031 C 
BRANCH   2   3
ATOM      3  C   UNL     1     115.260 116.207 123.119  1.00  0.00    -0.075 C 
ATOM      4  C   UNL     1     115.203 115.793 121.836  1.00  0.00     0.008 C 
BRANCH   3   5
ATOM      5  C   UNL     1     115.531 117.689 123.404  1.00  0.00     0.008 C 
ATOM      6  C   UNL     1     116.080 117.887 124.828  1.00  0.00     0.012 C 
ATOM      7  C   UNL     1     116.472 118.373 122.400  1.00  0.00     0.012 C 
ENDBRANCH   3   5
ENDBRANCH   2   3
ENDBRANCH   1   2
BRANCH   1   8
ATOM      8  C   UNL     1     113.088 115.429 125.690  1.00  0.00    -0.010 C 
ATOM      9  C   UNL     1     114.160 115.421 126.802  1.00  0.00     0.008 C 
BRANCH   8  10
ATOM     10  C   UNL     1     112.587 116.884 125.347  1.00  0.00    -0.002 C 
ATOM     11  C   UNL     1     111.774 116.914 124.028  1.00  0.00     0.005 C 
ATOM     12  C   UNL     1     111.690 117.670 126.375  1.00  0.00    -0.024 C 
ATOM     13  C   UNL     1     110.633 117.917 124.176  1.00  0.00     0.008 C 
ATOM     14  C   UNL     1     110.891 118.709 125.470  1.00  0.00    -0.024 C 
ATOM     15  C   UNL     1     112.489 118.395 127.506  1.00  0.00     0.008 C 
ATOM     16  C   UNL     1     110.711 116.662 127.064  1.00  0.00     0.012 C 
ATOM     17  C   UNL     1     109.517 119.109 126.095  1.00  0.00     0.012 C 
ATOM     18  C   UNL     1     111.650 120.078 125.152  1.00  0.00     0.002 C 
ATOM     19  C   UNL     1     113.308 119.594 127.029  1.00  0.00     0.008 C 
ATOM     20  C   UNL     1     112.327 120.621 126.408  1.00  0.00    -0.020 C 
ATOM     21  C   UNL     1     112.751 120.081 124.024  1.00  0.00     0.005 C 
ATOM     22  C   UNL     1     112.700 122.134 126.106  1.00  0.00    -0.020 C 
ATOM     23  C   UNL     1     112.035 121.691 127.414  1.00  0.00     0.015 C 
ATOM     24  C   UNL     1     113.687 121.340 123.970  1.00  0.00     0.005 C 
ATOM     25  C   UNL     1     114.042 121.995 125.356  1.00  0.00     0.004 C 
ATOM     26  C   UNL     1     111.738 123.190 125.442  1.00  0.00     0.010 C 
ATOM     27  C   UNL     1     114.815 123.383 125.291  1.00  0.00    -0.006 C 
ATOM     28  C   UNL     1     112.499 124.391 124.857  1.00  0.00     0.033 C 
ATOM     29  C   UNL     1     113.858 124.611 125.528  1.00  0.00     0.120 C 
ATOM     30  C   UNL     1     115.916 123.390 126.387  1.00  0.00     0.014 C 
ATOM     31  C   UNL     1     115.552 123.583 123.938  1.00  0.00     0.014 C 
BRANCH  29  32
ATOM     32  O   UNL     1     113.646 124.834 126.907  1.00  0.00    -0.393 OA
ATOM     33  H   UNL     1     114.521 125.087 127.308  1.00  0.00     0.210 HD
ENDBRANCH  29  32
ENDBRANCH   8  10
ENDBRANCH   1   8
TORSDOF 6
ENDMDL
MODEL 8
REMARK VINA RESULT:    -7.427      2.478      4.324
REMARK INTER + INTRA:         -10.684
REMARK INTER:                  -8.632
REMARK INTRA:                  -2.052
REMARK UNBOUND:                -0.868
REMARK SMILES C=C(CC[C@@H](C)[C@H]1CC[C@]2(C)[C@@H]3CC[C@H]4C(C)(C)[C@H](O)CC[C@]45C[C@@]35CC[C@]12C)C(C)C
REMARK SMILES IDX 4 1 3 2 2 3 1 4 30 5 31 6 32 7 5 8 6 9 7 10 8 11 28 12 9 13
REMARK SMILES IDX 10 14 27 15 29 16 11 17 12 18 26 19 25 20 13 21 23 22 24 23
REMARK SMILES IDX 14 24 15 25 22 26 16 27 21 28 19 29 17 30 18 31 20 32
REMARK H PARENT 20 33
REMARK Flexibility Score: inf
ROOT
ATOM      1  C   UNL     1     114.364 122.478 123.248  1.00  0.00     0.008 C 
ENDROOT
BRANCH   1   2
ATOM      2  C   UNL     1     115.821 122.659 123.708  1.00  0.00     0.031 C 
BRANCH   2   3
ATOM      3  C   UNL     1     115.874 123.146 125.148  1.00  0.00    -0.075 C 
ATOM      4  C   UNL     1     115.404 124.386 125.401  1.00  0.00     0.008 C 
BRANCH   3   5
ATOM      5  C   UNL     1     116.532 122.360 126.289  1.00  0.00     0.008 C 
ATOM      6  C   UNL     1     115.480 121.597 127.112  1.00  0.00     0.012 C 
ATOM      7  C   UNL     1     117.631 121.383 125.843  1.00  0.00     0.012 C 
ENDBRANCH   3   5
ENDBRANCH   2   3
ENDBRANCH   1   2
BRANCH   1   8
ATOM      8  C   UNL     1     113.930 120.981 123.230  1.00  0.00    -0.010 C 
ATOM      9  C   UNL     1     115.213 120.123 123.178  1.00  0.00     0.008 C 
BRANCH   8  10
ATOM     10  C   UNL     1     113.024 120.634 124.473  1.00  0.00    -0.002 C 
ATOM     11  C   UNL     1     112.424 121.910 125.118  1.00  0.00     0.005 C 
ATOM     12  C   UNL     1     111.792 119.668 124.304  1.00  0.00    -0.024 C 
ATOM     13  C   UNL     1     111.005 121.601 125.592  1.00  0.00     0.008 C 
ATOM     14  C   UNL     1     110.818 120.077 125.495  1.00  0.00    -0.024 C 
ATOM     15  C   UNL     1     112.153 118.148 124.357  1.00  0.00     0.008 C 
ATOM     16  C   UNL     1     111.123 119.942 122.916  1.00  0.00     0.012 C 
ATOM     17  C   UNL     1     109.320 119.776 125.169  1.00  0.00     0.012 C 
ATOM     18  C   UNL     1     111.115 119.381 126.902  1.00  0.00     0.002 C 
ATOM     19  C   UNL     1     112.583 117.651 125.737  1.00  0.00     0.008 C 
ATOM     20  C   UNL     1     111.405 117.895 126.716  1.00  0.00    -0.020 C 
ATOM     21  C   UNL     1     112.288 119.951 127.788  1.00  0.00     0.005 C 
ATOM     22  C   UNL     1     111.291 117.225 128.150  1.00  0.00    -0.020 C 
ATOM     23  C   UNL     1     110.648 116.615 126.900  1.00  0.00     0.015 C 
ATOM     24  C   UNL     1     112.752 119.051 128.988  1.00  0.00     0.005 C 
ATOM     25  C   UNL     1     112.688 117.496 128.749  1.00  0.00     0.004 C 
ATOM     26  C   UNL     1     110.127 117.482 129.181  1.00  0.00     0.010 C 
ATOM     27  C   UNL     1     112.959 116.586 130.024  1.00  0.00    -0.006 C 
ATOM     28  C   UNL     1     110.516 117.087 130.615  1.00  0.00     0.033 C 
ATOM     29  C   UNL     1     111.627 116.033 130.656  1.00  0.00     0.120 C 
ATOM     30  C   UNL     1     113.844 115.383 129.596  1.00  0.00     0.014 C 
ATOM     31  C   UNL     1     113.756 117.337 131.125  1.00  0.00     0.014 C 
BRANCH  29  32
ATOM     32  O   UNL     1     111.177 114.881 129.973  1.00  0.00    -0.393 OA
ATOM     33  H   UNL     1     110.235 115.042 129.700  1.00  0.00     0.210 HD
ENDBRANCH  29  32
ENDBRANCH   8  10
ENDBRANCH   1   8
TORSDOF 6
ENDMDL
MODEL 9
REMARK VINA RESULT:    -7.218      3.285      5.909
REMARK INTER + INTRA:         -10.407
REMARK INTER:                  -8.279
REMARK INTRA:                  -2.128
REMARK UNBOUND:                -0.868
REMARK SMILES C=C(CC[C@@H](C)[C@H]1CC[C@]2(C)[C@@H]3CC[C@H]4C(C)(C)[C@H](O)CC[C@]45C[C@@]35CC[C@]12C)C(C)C
REMARK SMILES IDX 4 1 3 2 2 3 1 4 30 5 31 6 32 7 5 8 6 9 7 10 8 11 28 12 9 13
REMARK SMILES IDX 10 14 27 15 29 16 11 17 12 18 26 19 25 20 13 21 23 22 24 23
REMARK SMILES IDX 14 24 15 25 22 26 16 27 21 28 19 29 17 30 18 31 20 32
REMARK H PARENT 20 33
REMARK Flexibility Score: inf
ROOT
ATOM      1  C   UNL     1     112.626 121.864 127.693  1.00  0.00     0.008 C 
ENDROOT
BRANCH   1   2
ATOM      2  C   UNL     1     113.702 122.571 126.852  1.00  0.00     0.031 C 
BRANCH   2   3
ATOM      3  C   UNL     1     114.887 121.648 126.609  1.00  0.00    -0.075 C 
ATOM      4  C   UNL     1     115.584 121.237 127.689  1.00  0.00     0.008 C 
BRANCH   3   5
ATOM      5  C   UNL     1     115.394 121.262 125.214  1.00  0.00     0.008 C 
ATOM      6  C   UNL     1     114.964 119.832 124.846  1.00  0.00     0.012 C 
ATOM      7  C   UNL     1     114.971 122.222 124.091  1.00  0.00     0.012 C 
ENDBRANCH   3   5
ENDBRANCH   2   3
ENDBRANCH   1   2
BRANCH   1   8
ATOM      8  C   UNL     1     111.536 121.185 126.808  1.00  0.00    -0.010 C 
ATOM      9  C   UNL     1     111.547 121.885 125.432  1.00  0.00     0.008 C 
BRANCH   8  10
ATOM     10  C   UNL     1     111.778 119.631 126.695  1.00  0.00    -0.002 C 
ATOM     11  C   UNL     1     112.091 118.999 128.076  1.00  0.00     0.005 C 
ATOM     12  C   UNL     1     110.662 118.703 126.086  1.00  0.00    -0.024 C 
ATOM     13  C   UNL     1     111.443 117.618 128.142  1.00  0.00     0.008 C 
ATOM     14  C   UNL     1     110.964 117.274 126.721  1.00  0.00    -0.024 C 
ATOM     15  C   UNL     1     110.654 118.643 124.524  1.00  0.00     0.008 C 
ATOM     16  C   UNL     1     109.262 119.232 126.542  1.00  0.00     0.012 C 
ATOM     17  C   UNL     1     109.683 116.386 126.826  1.00  0.00     0.012 C 
ATOM     18  C   UNL     1     112.054 116.392 125.956  1.00  0.00     0.002 C 
ATOM     19  C   UNL     1     111.850 117.910 123.917  1.00  0.00     0.008 C 
ATOM     20  C   UNL     1     111.832 116.454 124.447  1.00  0.00    -0.020 C 
ATOM     21  C   UNL     1     113.579 116.716 126.189  1.00  0.00     0.005 C 
ATOM     22  C   UNL     1     112.676 115.268 123.813  1.00  0.00    -0.020 C 
ATOM     23  C   UNL     1     111.228 115.560 123.408  1.00  0.00     0.015 C 
ATOM     24  C   UNL     1     114.591 116.057 125.185  1.00  0.00     0.005 C 
ATOM     25  C   UNL     1     114.083 115.893 123.704  1.00  0.00     0.004 C 
ATOM     26  C   UNL     1     112.708 113.788 124.353  1.00  0.00     0.010 C 
ATOM     27  C   UNL     1     115.020 115.044 122.739  1.00  0.00    -0.006 C 
ATOM     28  C   UNL     1     113.935 113.008 123.853  1.00  0.00     0.033 C 
ATOM     29  C   UNL     1     114.499 113.571 122.546  1.00  0.00     0.120 C 
ATOM     30  C   UNL     1     115.067 115.743 121.352  1.00  0.00     0.014 C 
ATOM     31  C   UNL     1     116.488 114.989 123.244  1.00  0.00     0.014 C 
BRANCH  29  32
ATOM     32  O   UNL     1     113.490 113.512 121.559  1.00  0.00    -0.393 OA
ATOM     33  H   UNL     1     113.839 113.964 120.746  1.00  0.00     0.210 HD
ENDBRANCH  29  32
ENDBRANCH   8  10
ENDBRANCH   1   8
TORSDOF 6
ENDMDL
