MODEL 1
REMARK VINA RESULT:    -3.277      0.000      0.000
REMARK INTER + INTRA:          -4.386
REMARK INTER:                  -3.947
REMARK INTRA:                  -0.439
REMARK UNBOUND:                -0.439
REMARK SMILES NC(=O)C[C@@H]([NH3+])C(=O)[O-]
REMARK SMILES IDX 4 1 5 2 6 3 7 7 8 8 9 9 2 10 3 11 1 12
REMARK H PARENT 6 4 6 5 6 6 1 13 1 14
REMARK Flexibility Score: inf
ROOT
ATOM      1  C   UNL     1      86.675 134.195  57.798  1.00  0.00     0.171 C 
ENDROOT
BRANCH   1   2
ATOM      2  C   UNL     1      88.020 133.503  58.097  1.00  0.00     0.237 C 
BRANCH   2   3
ATOM      3  N   UNL     1      89.125 134.463  57.997  1.00  0.00    -0.350 N 
ATOM      4  H   UNL     1      90.046 133.980  58.123  1.00  0.00     0.345 HD
ATOM      5  H   UNL     1      89.107 134.929  57.061  1.00  0.00     0.345 HD
ATOM      6  H   UNL     1      89.022 135.200  58.732  1.00  0.00     0.345 HD
ENDBRANCH   2   3
BRANCH   2   7
ATOM      7  C   UNL     1      88.008 132.870  59.466  1.00  0.00     0.100 C 
ATOM      8  O   UNL     1      89.077 132.763  60.122  1.00  0.00    -0.544 OA
ATOM      9  O   UNL     1      86.821 132.390  60.005  1.00  0.00    -0.544 OA
ENDBRANCH   2   7
ENDBRANCH   1   2
BRANCH   1  10
ATOM     10  C   UNL     1      86.505 135.447  58.611  1.00  0.00     0.223 C 
ATOM     11  O   UNL     1      87.003 136.529  58.204  1.00  0.00    -0.275 OA
ATOM     12  N   UNL     1      85.751 135.427  59.824  1.00  0.00    -0.369 N 
ATOM     13  H   UNL     1      85.314 134.543  60.167  1.00  0.00     0.159 HD
ATOM     14  H   UNL     1      85.622 136.303  60.377  1.00  0.00     0.159 HD
ENDBRANCH   1  10
TORSDOF 4
ENDMDL
MODEL 2
REMARK VINA RESULT:    -3.247      2.188      3.301
REMARK INTER + INTRA:          -4.350
REMARK INTER:                  -3.917
REMARK INTRA:                  -0.433
REMARK UNBOUND:                -0.439
REMARK SMILES NC(=O)C[C@@H]([NH3+])C(=O)[O-]
REMARK SMILES IDX 4 1 5 2 6 3 7 7 8 8 9 9 2 10 3 11 1 12
REMARK H PARENT 6 4 6 5 6 6 1 13 1 14
REMARK Flexibility Score: inf
ROOT
ATOM      1  C   UNL     1      88.677 132.871  58.145  1.00  0.00     0.171 C 
ENDROOT
BRANCH   1   2
ATOM      2  C   UNL     1      88.696 134.412  58.099  1.00  0.00     0.237 C 
BRANCH   2   3
ATOM      3  N   UNL     1      88.776 134.884  56.713  1.00  0.00    -0.350 N 
ATOM      4  H   UNL     1      88.019 135.579  56.515  1.00  0.00     0.345 HD
ATOM      5  H   UNL     1      89.706 135.331  56.542  1.00  0.00     0.345 HD
ATOM      6  H   UNL     1      88.677 134.075  56.057  1.00  0.00     0.345 HD
ENDBRANCH   2   3
BRANCH   2   7
ATOM      7  C   UNL     1      87.473 134.985  58.770  1.00  0.00     0.100 C 
ATOM      8  O   UNL     1      87.129 136.175  58.547  1.00  0.00    -0.544 OA
ATOM      9  O   UNL     1      86.726 134.208  59.647  1.00  0.00    -0.544 OA
ENDBRANCH   2   7
ENDBRANCH   1   2
BRANCH   1  10
ATOM     10  C   UNL     1      87.912 132.293  56.988  1.00  0.00     0.223 C 
ATOM     11  O   UNL     1      88.531 131.887  55.969  1.00  0.00    -0.275 OA
ATOM     12  N   UNL     1      86.491 132.164  57.051  1.00  0.00    -0.369 N 
ATOM     13  H   UNL     1      85.964 132.477  57.895  1.00  0.00     0.159 HD
ATOM     14  H   UNL     1      85.966 131.748  56.251  1.00  0.00     0.159 HD
ENDBRANCH   1  10
TORSDOF 4
ENDMDL
MODEL 3
REMARK VINA RESULT:    -3.228      2.060      2.758
REMARK INTER + INTRA:          -4.327
REMARK INTER:                  -3.828
REMARK INTRA:                  -0.498
REMARK UNBOUND:                -0.439
REMARK SMILES NC(=O)C[C@@H]([NH3+])C(=O)[O-]
REMARK SMILES IDX 4 1 5 2 6 3 7 7 8 8 9 9 2 10 3 11 1 12
REMARK H PARENT 6 4 6 5 6 6 1 13 1 14
REMARK Flexibility Score: inf
ROOT
ATOM      1  C   UNL     1      86.595 134.421  57.582  1.00  0.00     0.171 C 
ENDROOT
BRANCH   1   2
ATOM      2  C   UNL     1      86.102 132.980  57.826  1.00  0.00     0.237 C 
BRANCH   2   3
ATOM      3  N   UNL     1      86.912 132.024  57.063  1.00  0.00    -0.350 N 
ATOM      4  H   UNL     1      86.749 132.140  56.035  1.00  0.00     0.345 HD
ATOM      5  H   UNL     1      87.926 132.173  57.269  1.00  0.00     0.345 HD
ATOM      6  H   UNL     1      86.661 131.047  57.341  1.00  0.00     0.345 HD
ENDBRANCH   2   3
BRANCH   2   7
ATOM      7  C   UNL     1      86.146 132.638  59.294  1.00  0.00     0.100 C 
ATOM      8  O   UNL     1      85.120 132.187  59.869  1.00  0.00    -0.544 OA
ATOM      9  O   UNL     1      87.312 132.829  60.024  1.00  0.00    -0.544 OA
ENDBRANCH   2   7
ENDBRANCH   1   2
BRANCH   1  10
ATOM     10  C   UNL     1      88.009 134.443  57.075  1.00  0.00     0.223 C 
ATOM     11  O   UNL     1      88.228 134.443  55.835  1.00  0.00    -0.275 OA
ATOM     12  N   UNL     1      89.105 134.503  57.988  1.00  0.00    -0.369 N 
ATOM     13  H   UNL     1      88.941 134.524  59.019  1.00  0.00     0.159 HD
ATOM     14  H   UNL     1      90.085 134.534  57.631  1.00  0.00     0.159 HD
ENDBRANCH   1  10
TORSDOF 4
ENDMDL
MODEL 4
REMARK VINA RESULT:    -3.193      3.078      4.121
REMARK INTER + INTRA:          -4.285
REMARK INTER:                  -3.798
REMARK INTRA:                  -0.487
REMARK UNBOUND:                -0.439
REMARK SMILES NC(=O)C[C@@H]([NH3+])C(=O)[O-]
REMARK SMILES IDX 4 1 5 2 6 3 7 7 8 8 9 9 2 10 3 11 1 12
REMARK H PARENT 6 4 6 5 6 6 1 13 1 14
REMARK Flexibility Score: inf
ROOT
ATOM      1  C   UNL     1      89.114 132.043  57.451  1.00  0.00     0.171 C 
ENDROOT
BRANCH   1   2
ATOM      2  C   UNL     1      88.042 131.875  56.357  1.00  0.00     0.237 C 
BRANCH   2   3
ATOM      3  N   UNL     1      86.719 132.246  56.872  1.00  0.00    -0.350 N 
ATOM      4  H   UNL     1      86.112 132.612  56.102  1.00  0.00     0.345 HD
ATOM      5  H   UNL     1      86.260 131.413  57.306  1.00  0.00     0.345 HD
ATOM      6  H   UNL     1      86.820 132.984  57.608  1.00  0.00     0.345 HD
ENDBRANCH   2   3
BRANCH   2   7
ATOM      7  C   UNL     1      88.376 132.707  55.144  1.00  0.00     0.100 C 
ATOM      8  O   UNL     1      89.041 132.208  54.199  1.00  0.00    -0.544 OA
ATOM      9  O   UNL     1      87.962 134.031  55.067  1.00  0.00    -0.544 OA
ENDBRANCH   2   7
ENDBRANCH   1   2
BRANCH   1  10
ATOM     10  C   UNL     1      88.764 133.149  58.405  1.00  0.00     0.223 C 
ATOM     11  O   UNL     1      88.181 132.880  59.488  1.00  0.00    -0.275 OA
ATOM     12  N   UNL     1      89.119 134.501  58.110  1.00  0.00    -0.369 N 
ATOM     13  H   UNL     1      89.620 134.740  57.226  1.00  0.00     0.159 HD
ATOM     14  H   UNL     1      88.887 135.264  58.783  1.00  0.00     0.159 HD
ENDBRANCH   1  10
TORSDOF 4
ENDMDL
MODEL 5
REMARK VINA RESULT:    -3.173      2.544      3.477
REMARK INTER + INTRA:          -4.261
REMARK INTER:                  -3.967
REMARK INTRA:                  -0.294
REMARK UNBOUND:                -0.439
REMARK SMILES NC(=O)C[C@@H]([NH3+])C(=O)[O-]
REMARK SMILES IDX 4 1 5 2 6 3 7 7 8 8 9 9 2 10 3 11 1 12
REMARK H PARENT 6 4 6 5 6 6 1 13 1 14
REMARK Flexibility Score: inf
ROOT
ATOM      1  C   UNL     1      87.428 133.012  59.084  1.00  0.00     0.171 C 
ENDROOT
BRANCH   1   2
ATOM      2  C   UNL     1      86.167 132.985  58.198  1.00  0.00     0.237 C 
BRANCH   2   3
ATOM      3  N   UNL     1      86.424 132.239  56.961  1.00  0.00    -0.350 N 
ATOM      4  H   UNL     1      87.105 132.754  56.355  1.00  0.00     0.345 HD
ATOM      5  H   UNL     1      86.811 131.295  57.189  1.00  0.00     0.345 HD
ATOM      6  H   UNL     1      85.529 132.108  56.434  1.00  0.00     0.345 HD
ENDBRANCH   2   3
BRANCH   2   7
ATOM      7  C   UNL     1      85.003 132.374  58.937  1.00  0.00     0.100 C 
ATOM      8  O   UNL     1      85.145 131.980  60.125  1.00  0.00    -0.544 OA
ATOM      9  O   UNL     1      83.772 132.230  58.310  1.00  0.00    -0.544 OA
ENDBRANCH   2   7
ENDBRANCH   1   2
BRANCH   1  10
ATOM     10  C   UNL     1      88.676 133.184  58.265  1.00  0.00     0.223 C 
ATOM     11  O   UNL     1      89.299 132.170  57.853  1.00  0.00    -0.275 OA
ATOM     12  N   UNL     1      89.140 134.489  57.917  1.00  0.00    -0.369 N 
ATOM     13  H   UNL     1      88.626 135.341  58.232  1.00  0.00     0.159 HD
ATOM     14  H   UNL     1      89.999 134.603  57.334  1.00  0.00     0.159 HD
ENDBRANCH   1  10
TORSDOF 4
ENDMDL
MODEL 6
REMARK VINA RESULT:    -3.163      2.172      3.014
REMARK INTER + INTRA:          -4.249
REMARK INTER:                  -3.868
REMARK INTRA:                  -0.381
REMARK UNBOUND:                -0.439
REMARK SMILES NC(=O)C[C@@H]([NH3+])C(=O)[O-]
REMARK SMILES IDX 4 1 5 2 6 3 7 7 8 8 9 9 2 10 3 11 1 12
REMARK H PARENT 6 4 6 5 6 6 1 13 1 14
REMARK Flexibility Score: inf
ROOT
ATOM      1  C   UNL     1      88.219 132.813  58.887  1.00  0.00     0.171 C 
ENDROOT
BRANCH   1   2
ATOM      2  C   UNL     1      87.407 133.774  59.778  1.00  0.00     0.237 C 
BRANCH   2   3
ATOM      3  N   UNL     1      87.632 135.165  59.371  1.00  0.00    -0.350 N 
ATOM      4  H   UNL     1      88.014 135.208  58.396  1.00  0.00     0.345 HD
ATOM      5  H   UNL     1      86.733 135.698  59.412  1.00  0.00     0.345 HD
ATOM      6  H   UNL     1      88.312 135.620  60.024  1.00  0.00     0.345 HD
ENDBRANCH   2   3
BRANCH   2   7
ATOM      7  C   UNL     1      85.936 133.450  59.718  1.00  0.00     0.100 C 
ATOM      8  O   UNL     1      85.553 132.251  59.695  1.00  0.00    -0.544 OA
ATOM      9  O   UNL     1      84.995 134.471  59.675  1.00  0.00    -0.544 OA
ENDBRANCH   2   7
ENDBRANCH   1   2
BRANCH   1  10
ATOM     10  C   UNL     1      87.828 132.935  57.441  1.00  0.00     0.223 C 
ATOM     11  O   UNL     1      88.148 133.965  56.792  1.00  0.00    -0.275 OA
ATOM     12  N   UNL     1      87.129 131.875  56.788  1.00  0.00    -0.369 N 
ATOM     13  H   UNL     1      86.873 131.005  57.305  1.00  0.00     0.159 HD
ATOM     14  H   UNL     1      86.873 131.958  55.779  1.00  0.00     0.159 HD
ENDBRANCH   1  10
TORSDOF 4
ENDMDL
MODEL 7
REMARK VINA RESULT:    -3.146      2.124      3.188
REMARK INTER + INTRA:          -4.228
REMARK INTER:                  -3.744
REMARK INTRA:                  -0.484
REMARK UNBOUND:                -0.439
REMARK SMILES NC(=O)C[C@@H]([NH3+])C(=O)[O-]
REMARK SMILES IDX 4 1 5 2 6 3 7 7 8 8 9 9 2 10 3 11 1 12
REMARK H PARENT 6 4 6 5 6 6 1 13 1 14
REMARK Flexibility Score: inf
ROOT
ATOM      1  C   UNL     1      87.694 132.978  59.206  1.00  0.00     0.171 C 
ENDROOT
BRANCH   1   2
ATOM      2  C   UNL     1      87.627 132.703  57.691  1.00  0.00     0.237 C 
BRANCH   2   3
ATOM      3  N   UNL     1      86.284 132.251  57.311  1.00  0.00    -0.350 N 
ATOM      4  H   UNL     1      86.110 132.424  56.293  1.00  0.00     0.345 HD
ATOM      5  H   UNL     1      86.183 131.229  57.508  1.00  0.00     0.345 HD
ATOM      6  H   UNL     1      85.565 132.765  57.871  1.00  0.00     0.345 HD
ENDBRANCH   2   3
BRANCH   2   7
ATOM      7  C   UNL     1      88.000 133.933  56.903  1.00  0.00     0.100 C 
ATOM      8  O   UNL     1      87.980 133.908  55.644  1.00  0.00    -0.544 OA
ATOM      9  O   UNL     1      88.380 135.097  57.559  1.00  0.00    -0.544 OA
ENDBRANCH   2   7
ENDBRANCH   1   2
BRANCH   1  10
ATOM     10  C   UNL     1      86.380 133.477  59.737  1.00  0.00     0.223 C 
ATOM     11  O   UNL     1      85.510 132.654  60.125  1.00  0.00    -0.275 OA
ATOM     12  N   UNL     1      86.125 134.878  59.841  1.00  0.00    -0.369 N 
ATOM     13  H   UNL     1      86.843 135.575  59.543  1.00  0.00     0.159 HD
ATOM     14  H   UNL     1      85.217 135.220  60.225  1.00  0.00     0.159 HD
ENDBRANCH   1  10
TORSDOF 4
ENDMDL
MODEL 8
REMARK VINA RESULT:    -3.131      2.013      3.255
REMARK INTER + INTRA:          -4.210
REMARK INTER:                  -3.802
REMARK INTRA:                  -0.407
REMARK UNBOUND:                -0.439
REMARK SMILES NC(=O)C[C@@H]([NH3+])C(=O)[O-]
REMARK SMILES IDX 4 1 5 2 6 3 7 7 8 8 9 9 2 10 3 11 1 12
REMARK H PARENT 6 4 6 5 6 6 1 13 1 14
REMARK Flexibility Score: inf
ROOT
ATOM      1  C   UNL     1      87.548 134.505  59.380  1.00  0.00     0.171 C 
ENDROOT
BRANCH   1   2
ATOM      2  C   UNL     1      87.795 134.737  57.876  1.00  0.00     0.237 C 
BRANCH   2   3
ATOM      3  N   UNL     1      89.125 134.252  57.493  1.00  0.00    -0.350 N 
ATOM      4  H   UNL     1      89.554 133.697  58.271  1.00  0.00     0.345 HD
ATOM      5  H   UNL     1      89.052 133.650  56.641  1.00  0.00     0.345 HD
ATOM      6  H   UNL     1      89.747 135.063  57.269  1.00  0.00     0.345 HD
ENDBRANCH   2   3
BRANCH   2   7
ATOM      7  C   UNL     1      86.737 134.055  57.045  1.00  0.00     0.100 C 
ATOM      8  O   UNL     1      85.703 134.683  56.698  1.00  0.00    -0.544 OA
ATOM      9  O   UNL     1      86.890 132.726  56.670  1.00  0.00    -0.544 OA
ENDBRANCH   2   7
ENDBRANCH   1   2
BRANCH   1  10
ATOM     10  C   UNL     1      87.932 133.114  59.796  1.00  0.00     0.223 C 
ATOM     11  O   UNL     1      89.122 132.866  60.125  1.00  0.00    -0.275 OA
ATOM     12  N   UNL     1      86.951 132.078  59.857  1.00  0.00    -0.369 N 
ATOM     13  H   UNL     1      85.956 132.270  59.607  1.00  0.00     0.159 HD
ATOM     14  H   UNL     1      87.220 131.117  60.162  1.00  0.00     0.159 HD
ENDBRANCH   1  10
TORSDOF 4
ENDMDL
MODEL 9
REMARK VINA RESULT:    -3.096      2.070      3.255
REMARK INTER + INTRA:          -4.168
REMARK INTER:                  -3.690
REMARK INTRA:                  -0.478
REMARK UNBOUND:                -0.439
REMARK SMILES NC(=O)C[C@@H]([NH3+])C(=O)[O-]
REMARK SMILES IDX 4 1 5 2 6 3 7 7 8 8 9 9 2 10 3 11 1 12
REMARK H PARENT 6 4 6 5 6 6 1 13 1 14
REMARK Flexibility Score: inf
ROOT
ATOM      1  C   UNL     1      87.070 133.022  57.601  1.00  0.00     0.171 C 
ENDROOT
BRANCH   1   2
ATOM      2  C   UNL     1      86.388 132.793  58.964  1.00  0.00     0.237 C 
BRANCH   2   3
ATOM      3  N   UNL     1      87.343 132.239  59.930  1.00  0.00    -0.350 N 
ATOM      4  H   UNL     1      87.743 132.997  60.531  1.00  0.00     0.345 HD
ATOM      5  H   UNL     1      86.867 131.533  60.537  1.00  0.00     0.345 HD
ATOM      6  H   UNL     1      88.123 131.759  59.421  1.00  0.00     0.345 HD
ENDBRANCH   2   3
BRANCH   2   7
ATOM      7  C   UNL     1      85.803 134.078  59.496  1.00  0.00     0.100 C 
ATOM      8  O   UNL     1      86.441 135.157  59.382  1.00  0.00    -0.544 OA
ATOM      9  O   UNL     1      84.565 134.076  60.125  1.00  0.00    -0.544 OA
ENDBRANCH   2   7
ENDBRANCH   1   2
BRANCH   1  10
ATOM     10  C   UNL     1      88.555 133.193  57.746  1.00  0.00     0.223 C 
ATOM     11  O   UNL     1      89.307 132.183  57.714  1.00  0.00    -0.275 OA
ATOM     12  N   UNL     1      89.124 134.496  57.883  1.00  0.00    -0.369 N 
ATOM     13  H   UNL     1      88.518 135.345  57.891  1.00  0.00     0.159 HD
ATOM     14  H   UNL     1      90.158 134.611  57.968  1.00  0.00     0.159 HD
ENDBRANCH   1  10
TORSDOF 4
ENDMDL
