MODEL 1
REMARK VINA RESULT:    -1.538      0.000      0.000
REMARK INTER + INTRA:          -1.666
REMARK INTER:                  -1.673
REMARK INTRA:                   0.007
REMARK UNBOUND:                 0.007
REMARK SMILES C[C@H]1[C@H](C)CC[C@@]2(C(=O)[O-])CC[C@]3(C)C(=CC[C@H]4[C@@]5(C)CC[C@@H](O)C(C)(C)[C@H]5CC[C@]43C)[C@@H]12
REMARK SMILES IDX 7 1 6 2 11 3 33 4 5 5 12 6 15 7 2 8 3 9 13 10 16 11 1 12
REMARK SMILES IDX 4 13 14 14 31 15 17 16 18 17 30 18 32 19 19 20 29 21 28 22
REMARK SMILES IDX 21 23 20 24 25 25 22 26 23 27 26 28 27 29 8 30 9 31 10 32
REMARK SMILES IDX 24 33
REMARK H PARENT 24 34
REMARK Flexibility Score: inf
ROOT
ATOM      1  C   UNL     1       4.340  22.041   6.407  1.00  0.00     0.017 C 
ATOM      2  C   UNL     1       2.808  22.316   6.355  1.00  0.00     0.014 C 
ATOM      3  C   UNL     1       4.964  23.125   7.322  1.00  0.00     0.014 C 
ATOM      4  C   UNL     1       4.671  20.600   6.973  1.00  0.00     0.030 C 
ATOM      5  C   UNL     1       2.039  21.202   5.656  1.00  0.00     0.004 C 
ATOM      6  C   UNL     1       6.478  22.991   7.408  1.00  0.00     0.013 C 
ATOM      7  C   UNL     1       5.813  20.569   8.030  1.00  0.00    -0.063 C 
ATOM      8  C   UNL     1       3.381  19.781   7.371  1.00  0.00    -0.003 C 
ATOM      9  C   UNL     1       2.289  19.798   6.267  1.00  0.00    -0.011 C 
ATOM     10  C   UNL     1       6.954  21.622   8.011  1.00  0.00    -0.006 C 
ATOM     11  C   UNL     1       5.965  19.480   8.825  1.00  0.00    -0.027 C 
ATOM     12  C   UNL     1       2.794  20.194   8.748  1.00  0.00     0.008 C 
ATOM     13  C   UNL     1       2.599  18.775   5.146  1.00  0.00     0.008 C 
ATOM     14  C   UNL     1       8.015  21.068   7.039  1.00  0.00     0.017 C 
ATOM     15  C   UNL     1       7.494  21.844   9.508  1.00  0.00    -0.020 C 
ATOM     16  C   UNL     1       7.146  19.232   9.727  1.00  0.00     0.032 C 
ATOM     17  C   UNL     1       7.941  20.481  10.202  1.00  0.00     0.006 C 
ATOM     18  C   UNL     1       8.671  22.868   9.612  1.00  0.00     0.008 C 
ATOM     19  C   UNL     1       6.307  22.455  10.348  1.00  0.00     0.012 C 
ATOM     20  C   UNL     1       9.508  20.219  10.452  1.00  0.00    -0.025 C 
ATOM     21  C   UNL     1       9.367  22.751  10.985  1.00  0.00     0.005 C 
ATOM     22  C   UNL     1      10.268  21.496  11.024  1.00  0.00     0.003 C 
ATOM     23  C   UNL     1      10.231  19.769   9.159  1.00  0.00     0.010 C 
ATOM     24  C   UNL     1       9.582  19.068  11.523  1.00  0.00     0.012 C 
ATOM     25  C   UNL     1      11.837  21.743  10.588  1.00  0.00    -0.006 C 
ATOM     26  C   UNL     1      11.662  19.352   9.440  1.00  0.00     0.033 C 
ATOM     27  C   UNL     1      12.548  20.551   9.775  1.00  0.00     0.120 C 
ATOM     28  C   UNL     1      12.090  23.118   9.808  1.00  0.00     0.014 C 
ATOM     29  C   UNL     1      12.634  21.894  11.934  1.00  0.00     0.014 C 
ENDROOT
BRANCH   1  30
ATOM     30  C   UNL     1       4.861  22.215   4.974  1.00  0.00     0.048 C 
ATOM     31  O   UNL     1       5.891  21.625   4.577  1.00  0.00    -0.550 OA
ATOM     32  O   UNL     1       4.198  23.076   4.068  1.00  0.00    -0.550 OA
ENDBRANCH   1  30
BRANCH  27  33
ATOM     33  O   UNL     1      13.119  20.993   8.558  1.00  0.00    -0.393 OA
ATOM     34  H   UNL     1      12.969  20.274   7.886  1.00  0.00     0.210 HD
ENDBRANCH  27  33
TORSDOF 2
ENDMDL
MODEL 2
REMARK VINA RESULT:     0.566      1.919      7.914
REMARK INTER + INTRA:           0.623
REMARK INTER:                   0.966
REMARK INTRA:                  -0.343
REMARK UNBOUND:                 0.007
REMARK SMILES C[C@H]1[C@H](C)CC[C@@]2(C(=O)[O-])CC[C@]3(C)C(=CC[C@H]4[C@@]5(C)CC[C@@H](O)C(C)(C)[C@H]5CC[C@]43C)[C@@H]12
REMARK SMILES IDX 7 1 6 2 11 3 33 4 5 5 12 6 15 7 2 8 3 9 13 10 16 11 1 12
REMARK SMILES IDX 4 13 14 14 31 15 17 16 18 17 30 18 32 19 19 20 29 21 28 22
REMARK SMILES IDX 21 23 20 24 25 25 22 26 23 27 26 28 27 29 8 30 9 31 10 32
REMARK SMILES IDX 24 33
REMARK H PARENT 24 34
REMARK Flexibility Score: inf
ROOT
ATOM      1  C   UNL     1       9.923  20.196  10.403  1.00  0.00     0.017 C 
ATOM      2  C   UNL     1      11.137  20.700  11.237  1.00  0.00     0.014 C 
ATOM      3  C   UNL     1       8.647  20.783  11.058  1.00  0.00     0.014 C 
ATOM      4  C   UNL     1      10.008  20.647   8.887  1.00  0.00     0.030 C 
ATOM      5  C   UNL     1      12.473  20.369  10.582  1.00  0.00     0.004 C 
ATOM      6  C   UNL     1       7.381  20.311  10.356  1.00  0.00     0.013 C 
ATOM      7  C   UNL     1       8.679  21.212   8.307  1.00  0.00    -0.063 C 
ATOM      8  C   UNL     1      11.288  21.517   8.573  1.00  0.00    -0.003 C 
ATOM      9  C   UNL     1      12.597  20.891   9.127  1.00  0.00    -0.011 C 
ATOM     10  C   UNL     1       7.302  20.742   8.849  1.00  0.00    -0.006 C 
ATOM     11  C   UNL     1       8.698  21.930   7.157  1.00  0.00    -0.027 C 
ATOM     12  C   UNL     1      11.145  22.999   9.013  1.00  0.00     0.008 C 
ATOM     13  C   UNL     1      13.125  19.768   8.200  1.00  0.00     0.008 C 
ATOM     14  C   UNL     1       6.956  19.467   8.054  1.00  0.00     0.017 C 
ATOM     15  C   UNL     1       6.232  21.927   8.676  1.00  0.00    -0.020 C 
ATOM     16  C   UNL     1       7.475  22.344   6.380  1.00  0.00     0.032 C 
ATOM     17  C   UNL     1       6.143  22.453   7.174  1.00  0.00     0.006 C 
ATOM     18  C   UNL     1       4.793  21.560   9.164  1.00  0.00     0.008 C 
ATOM     19  C   UNL     1       6.709  23.125   9.586  1.00  0.00     0.012 C 
ATOM     20  C   UNL     1       4.825  22.120   6.316  1.00  0.00    -0.025 C 
ATOM     21  C   UNL     1       3.766  22.585   8.635  1.00  0.00     0.005 C 
ATOM     22  C   UNL     1       3.478  22.331   7.139  1.00  0.00     0.003 C 
ATOM     23  C   UNL     1       4.837  20.666   5.781  1.00  0.00     0.010 C 
ATOM     24  C   UNL     1       4.839  23.125   5.105  1.00  0.00     0.012 C 
ATOM     25  C   UNL     1       2.198  21.342   6.827  1.00  0.00    -0.006 C 
ATOM     26  C   UNL     1       3.685  20.416   4.827  1.00  0.00     0.033 C 
ATOM     27  C   UNL     1       2.344  20.364   5.558  1.00  0.00     0.120 C 
ATOM     28  C   UNL     1       1.717  20.480   8.087  1.00  0.00     0.014 C 
ATOM     29  C   UNL     1       0.990  22.296   6.510  1.00  0.00     0.014 C 
ENDROOT
BRANCH   1  30
ATOM     30  C   UNL     1       9.912  18.667  10.534  1.00  0.00     0.048 C 
ATOM     31  O   UNL     1       9.742  17.927   9.538  1.00  0.00    -0.550 OA
ATOM     32  O   UNL     1      10.069  18.052  11.799  1.00  0.00    -0.550 OA
ENDBRANCH   1  30
BRANCH  27  33
ATOM     33  O   UNL     1       2.110  19.008   5.892  1.00  0.00    -0.393 OA
ATOM     34  H   UNL     1       1.783  18.556   5.067  1.00  0.00     0.210 HD
ENDBRANCH  27  33
TORSDOF 2
ENDMDL
