MODEL 1
REMARK VINA RESULT:    -4.838      0.000      0.000
REMARK INTER + INTRA:         -17.517
REMARK INTER:                 -12.758
REMARK INTRA:                  -4.759
REMARK UNBOUND:                -4.759
REMARK SMILES CCCCCCCCCCCCCCCCCCCCCCCCCCCCCC(=O)[O-]
REMARK SMILES IDX 16 1 17 2 18 3 19 4 20 5 21 6 22 7 23 8 24 9 25 10 26 11
REMARK SMILES IDX 27 12 28 13 29 14 30 15 31 16 32 17 15 18 14 19 13 20 12 21
REMARK SMILES IDX 11 22 10 23 9 24 8 25 7 26 6 27 5 28 4 29 3 30 2 31 1 32
REMARK H PARENT
REMARK Flexibility Score: inf
ROOT
ATOM      1  C   UNL     1       5.563 -11.146   7.146  1.00  0.00     0.000 C 
ENDROOT
BRANCH   1   2
ATOM      2  C   UNL     1       6.037 -12.583   6.883  1.00  0.00     0.000 C 
BRANCH   2   3
ATOM      3  C   UNL     1       4.923 -13.487   6.327  1.00  0.00     0.000 C 
BRANCH   3   4
ATOM      4  C   UNL     1       4.987 -13.744   4.807  1.00  0.00     0.000 C 
BRANCH   4   5
ATOM      5  C   UNL     1       3.677 -14.300   4.211  1.00  0.00     0.000 C 
BRANCH   5   6
ATOM      6  C   UNL     1       2.580 -13.227   4.090  1.00  0.00     0.000 C 
BRANCH   6   7
ATOM      7  C   UNL     1       3.084 -11.925   3.440  1.00  0.00     0.000 C 
BRANCH   7   8
ATOM      8  C   UNL     1       2.142 -11.311   2.388  1.00  0.00     0.000 C 
BRANCH   8   9
ATOM      9  C   UNL     1       2.807 -11.145   1.010  1.00  0.00     0.000 C 
BRANCH   9  10
ATOM     10  C   UNL     1       4.322 -11.408   1.044  1.00  0.00     0.000 C 
BRANCH  10  11
ATOM     11  C   UNL     1       4.705 -12.771   0.449  1.00  0.00     0.000 C 
BRANCH  11  12
ATOM     12  C   UNL     1       5.956 -13.340   1.134  1.00  0.00     0.000 C 
BRANCH  12  13
ATOM     13  C   UNL     1       7.261 -12.755   0.573  1.00  0.00     0.006 C 
BRANCH  13  14
ATOM     14  C   UNL     1       8.443 -13.725   0.688  1.00  0.00     0.053 C 
BRANCH  14  15
ATOM     15  C   UNL     1       8.197 -14.953  -0.133  1.00  0.00     0.041 C 
ATOM     16  O   UNL     1       7.941 -14.852  -1.361  1.00  0.00    -0.550 OA
ATOM     17  O   UNL     1       8.212 -16.206   0.467  1.00  0.00    -0.550 OA
ENDBRANCH  14  15
ENDBRANCH  13  14
ENDBRANCH  12  13
ENDBRANCH  11  12
ENDBRANCH  10  11
ENDBRANCH   9  10
ENDBRANCH   8   9
ENDBRANCH   7   8
ENDBRANCH   6   7
ENDBRANCH   5   6
ENDBRANCH   4   5
ENDBRANCH   3   4
ENDBRANCH   2   3
ENDBRANCH   1   2
BRANCH   1  18
ATOM     18  C   UNL     1       4.043 -11.021   6.959  1.00  0.00     0.000 C 
BRANCH  18  19
ATOM     19  C   UNL     1       3.586  -9.550   6.858  1.00  0.00     0.000 C 
BRANCH  19  20
ATOM     20  C   UNL     1       3.667  -8.966   5.437  1.00  0.00     0.000 C 
BRANCH  20  21
ATOM     21  C   UNL     1       2.302  -8.519   4.891  1.00  0.00     0.000 C 
BRANCH  21  22
ATOM     22  C   UNL     1       1.131  -9.320   5.484  1.00  0.00     0.000 C 
BRANCH  22  23
ATOM     23  C   UNL     1      -0.167  -8.500   5.568  1.00  0.00     0.000 C 
BRANCH  23  24
ATOM     24  C   UNL     1      -0.823  -8.646   6.948  1.00  0.00    -0.000 C 
BRANCH  24  25
ATOM     25  C   UNL     1       0.162  -9.103   8.041  1.00  0.00    -0.000 C 
BRANCH  25  26
ATOM     26  C   UNL     1       0.625  -7.996   9.006  1.00  0.00    -0.000 C 
BRANCH  26  27
ATOM     27  C   UNL     1      -0.370  -6.832   9.107  1.00  0.00    -0.000 C 
BRANCH  27  28
ATOM     28  C   UNL     1       0.351  -5.482   8.966  1.00  0.00    -0.000 C 
BRANCH  28  29
ATOM     29  C   UNL     1       0.283  -4.931   7.527  1.00  0.00    -0.000 C 
BRANCH  29  30
ATOM     30  C   UNL     1       1.438  -5.400   6.624  1.00  0.00    -0.000 C 
BRANCH  30  31
ATOM     31  C   UNL     1       2.828  -4.892   7.060  1.00  0.00    -0.003 C 
ATOM     32  C   UNL     1       3.680  -5.986   7.703  1.00  0.00     0.004 C 
ENDBRANCH  30  31
ENDBRANCH  29  30
ENDBRANCH  28  29
ENDBRANCH  27  28
ENDBRANCH  26  27
ENDBRANCH  25  26
ENDBRANCH  24  25
ENDBRANCH  23  24
ENDBRANCH  22  23
ENDBRANCH  21  22
ENDBRANCH  20  21
ENDBRANCH  19  20
ENDBRANCH  18  19
ENDBRANCH   1  18
TORSDOF 28
ENDMDL
MODEL 2
REMARK VINA RESULT:    -4.684      2.039      3.053
REMARK INTER + INTRA:         -17.109
REMARK INTER:                 -13.771
REMARK INTRA:                  -3.339
REMARK UNBOUND:                -4.759
REMARK SMILES CCCCCCCCCCCCCCCCCCCCCCCCCCCCCC(=O)[O-]
REMARK SMILES IDX 16 1 17 2 18 3 19 4 20 5 21 6 22 7 23 8 24 9 25 10 26 11
REMARK SMILES IDX 27 12 28 13 29 14 30 15 31 16 32 17 15 18 14 19 13 20 12 21
REMARK SMILES IDX 11 22 10 23 9 24 8 25 7 26 6 27 5 28 4 29 3 30 2 31 1 32
REMARK H PARENT
REMARK Flexibility Score: inf
ROOT
ATOM      1  C   UNL     1       4.288 -10.870   7.223  1.00  0.00     0.000 C 
ENDROOT
BRANCH   1   2
ATOM      2  C   UNL     1       5.785 -11.210   7.263  1.00  0.00     0.000 C 
BRANCH   2   3
ATOM      3  C   UNL     1       6.100 -12.592   6.663  1.00  0.00     0.000 C 
BRANCH   3   4
ATOM      4  C   UNL     1       4.884 -13.530   6.511  1.00  0.00     0.000 C 
BRANCH   4   5
ATOM      5  C   UNL     1       4.647 -14.016   5.066  1.00  0.00     0.000 C 
BRANCH   5   6
ATOM      6  C   UNL     1       4.638 -12.862   4.048  1.00  0.00     0.000 C 
BRANCH   6   7
ATOM      7  C   UNL     1       3.266 -12.170   3.937  1.00  0.00     0.000 C 
BRANCH   7   8
ATOM      8  C   UNL     1       3.303 -10.727   3.399  1.00  0.00     0.000 C 
BRANCH   8   9
ATOM      9  C   UNL     1       2.789 -10.612   1.953  1.00  0.00     0.000 C 
BRANCH   9  10
ATOM     10  C   UNL     1       3.839 -11.037   0.912  1.00  0.00     0.000 C 
BRANCH  10  11
ATOM     11  C   UNL     1       3.564 -12.428   0.321  1.00  0.00     0.000 C 
BRANCH  11  12
ATOM     12  C   UNL     1       4.781 -13.349   0.491  1.00  0.00     0.000 C 
BRANCH  12  13
ATOM     13  C   UNL     1       6.090 -12.701   0.015  1.00  0.00     0.006 C 
BRANCH  13  14
ATOM     14  C   UNL     1       7.275 -13.013   0.938  1.00  0.00     0.053 C 
BRANCH  14  15
ATOM     15  C   UNL     1       8.202 -13.993   0.289  1.00  0.00     0.041 C 
ATOM     16  O   UNL     1       9.317 -14.252   0.813  1.00  0.00    -0.550 OA
ATOM     17  O   UNL     1       7.851 -14.592  -0.915  1.00  0.00    -0.550 OA
ENDBRANCH  14  15
ENDBRANCH  13  14
ENDBRANCH  12  13
ENDBRANCH  11  12
ENDBRANCH  10  11
ENDBRANCH   9  10
ENDBRANCH   8   9
ENDBRANCH   7   8
ENDBRANCH   6   7
ENDBRANCH   5   6
ENDBRANCH   4   5
ENDBRANCH   3   4
ENDBRANCH   2   3
ENDBRANCH   1   2
BRANCH   1  18
ATOM     18  C   UNL     1       4.047  -9.507   6.556  1.00  0.00     0.000 C 
BRANCH  18  19
ATOM     19  C   UNL     1       2.624  -8.971   6.821  1.00  0.00     0.000 C 
BRANCH  19  20
ATOM     20  C   UNL     1       2.373  -7.558   6.266  1.00  0.00     0.000 C 
BRANCH  20  21
ATOM     21  C   UNL     1       3.544  -6.596   6.520  1.00  0.00     0.000 C 
BRANCH  21  22
ATOM     22  C   UNL     1       3.172  -5.436   7.459  1.00  0.00     0.000 C 
BRANCH  22  23
ATOM     23  C   UNL     1       2.331  -4.355   6.761  1.00  0.00     0.000 C 
BRANCH  23  24
ATOM     24  C   UNL     1       0.831  -4.601   6.975  1.00  0.00    -0.000 C 
BRANCH  24  25
ATOM     25  C   UNL     1       0.462  -4.848   8.451  1.00  0.00    -0.000 C 
BRANCH  25  26
ATOM     26  C   UNL     1      -0.130  -6.237   8.752  1.00  0.00    -0.000 C 
BRANCH  26  27
ATOM     27  C   UNL     1       0.662  -7.010   9.816  1.00  0.00    -0.000 C 
BRANCH  27  28
ATOM     28  C   UNL     1       1.526  -6.056  10.656  1.00  0.00    -0.000 C 
BRANCH  28  29
ATOM     29  C   UNL     1       1.519  -6.426  12.153  1.00  0.00    -0.000 C 
BRANCH  29  30
ATOM     30  C   UNL     1       2.844  -6.124  12.877  1.00  0.00    -0.000 C 
BRANCH  30  31
ATOM     31  C   UNL     1       3.092  -4.624  13.140  1.00  0.00    -0.003 C 
ATOM     32  C   UNL     1       4.263  -4.379  14.091  1.00  0.00     0.004 C 
ENDBRANCH  30  31
ENDBRANCH  29  30
ENDBRANCH  28  29
ENDBRANCH  27  28
ENDBRANCH  26  27
ENDBRANCH  25  26
ENDBRANCH  24  25
ENDBRANCH  23  24
ENDBRANCH  22  23
ENDBRANCH  21  22
ENDBRANCH  20  21
ENDBRANCH  19  20
ENDBRANCH  18  19
ENDBRANCH   1  18
TORSDOF 28
ENDMDL
MODEL 3
REMARK VINA RESULT:    -4.648      1.084      2.819
REMARK INTER + INTRA:         -17.015
REMARK INTER:                 -12.049
REMARK INTRA:                  -4.966
REMARK UNBOUND:                -4.759
REMARK SMILES CCCCCCCCCCCCCCCCCCCCCCCCCCCCCC(=O)[O-]
REMARK SMILES IDX 16 1 17 2 18 3 19 4 20 5 21 6 22 7 23 8 24 9 25 10 26 11
REMARK SMILES IDX 27 12 28 13 29 14 30 15 31 16 32 17 15 18 14 19 13 20 12 21
REMARK SMILES IDX 11 22 10 23 9 24 8 25 7 26 6 27 5 28 4 29 3 30 2 31 1 32
REMARK H PARENT
REMARK Flexibility Score: inf
ROOT
ATOM      1  C   UNL     1       5.061 -13.611   6.051  1.00  0.00     0.000 C 
ENDROOT
BRANCH   1   2
ATOM      2  C   UNL     1       4.991 -13.378   4.535  1.00  0.00     0.000 C 
BRANCH   2   3
ATOM      3  C   UNL     1       4.001 -14.322   3.831  1.00  0.00     0.000 C 
BRANCH   3   4
ATOM      4  C   UNL     1       2.517 -14.094   4.184  1.00  0.00     0.000 C 
BRANCH   4   5
ATOM      5  C   UNL     1       1.869 -12.915   3.428  1.00  0.00     0.000 C 
BRANCH   5   6
ATOM      6  C   UNL     1       2.005 -11.581   4.183  1.00  0.00     0.000 C 
BRANCH   6   7
ATOM      7  C   UNL     1       2.893 -10.561   3.446  1.00  0.00     0.000 C 
BRANCH   7   8
ATOM      8  C   UNL     1       2.445 -10.218   2.013  1.00  0.00     0.000 C 
BRANCH   8   9
ATOM      9  C   UNL     1       3.442 -10.694   0.941  1.00  0.00     0.000 C 
BRANCH   9  10
ATOM     10  C   UNL     1       2.963 -11.952   0.198  1.00  0.00     0.000 C 
BRANCH  10  11
ATOM     11  C   UNL     1       4.075 -12.997   0.014  1.00  0.00     0.000 C 
BRANCH  11  12
ATOM     12  C   UNL     1       5.299 -12.658   0.877  1.00  0.00     0.000 C 
BRANCH  12  13
ATOM     13  C   UNL     1       6.585 -12.505   0.052  1.00  0.00     0.006 C 
BRANCH  13  14
ATOM     14  C   UNL     1       7.841 -12.911   0.833  1.00  0.00     0.053 C 
BRANCH  14  15
ATOM     15  C   UNL     1       8.383 -14.208   0.317  1.00  0.00     0.041 C 
ATOM     16  O   UNL     1       7.599 -15.110  -0.077  1.00  0.00    -0.550 OA
ATOM     17  O   UNL     1       9.754 -14.435   0.309  1.00  0.00    -0.550 OA
ENDBRANCH  14  15
ENDBRANCH  13  14
ENDBRANCH  12  13
ENDBRANCH  11  12
ENDBRANCH  10  11
ENDBRANCH   9  10
ENDBRANCH   8   9
ENDBRANCH   7   8
ENDBRANCH   6   7
ENDBRANCH   5   6
ENDBRANCH   4   5
ENDBRANCH   3   4
ENDBRANCH   2   3
ENDBRANCH   1   2
BRANCH   1  18
ATOM     18  C   UNL     1       4.491 -12.411   6.823  1.00  0.00     0.000 C 
BRANCH  18  19
ATOM     19  C   UNL     1       5.563 -11.337   7.107  1.00  0.00     0.000 C 
BRANCH  19  20
ATOM     20  C   UNL     1       5.097  -9.897   6.830  1.00  0.00     0.000 C 
BRANCH  20  21
ATOM     21  C   UNL     1       3.570  -9.738   6.891  1.00  0.00     0.000 C 
BRANCH  21  22
ATOM     22  C   UNL     1       3.092  -8.366   6.386  1.00  0.00     0.000 C 
BRANCH  22  23
ATOM     23  C   UNL     1       3.988  -7.213   6.864  1.00  0.00     0.000 C 
BRANCH  23  24
ATOM     24  C   UNL     1       3.184  -5.912   7.004  1.00  0.00    -0.000 C 
BRANCH  24  25
ATOM     25  C   UNL     1       1.728  -6.145   7.452  1.00  0.00    -0.000 C 
BRANCH  25  26
ATOM     26  C   UNL     1       1.525  -6.267   8.973  1.00  0.00    -0.000 C 
BRANCH  26  27
ATOM     27  C   UNL     1       0.621  -7.443   9.367  1.00  0.00    -0.000 C 
BRANCH  27  28
ATOM     28  C   UNL     1      -0.317  -7.824   8.211  1.00  0.00    -0.000 C 
BRANCH  28  29
ATOM     29  C   UNL     1      -0.172  -9.304   7.804  1.00  0.00    -0.000 C 
BRANCH  29  30
ATOM     30  C   UNL     1      -0.496  -9.579   6.324  1.00  0.00    -0.000 C 
BRANCH  30  31
ATOM     31  C   UNL     1      -0.339  -8.350   5.404  1.00  0.00    -0.003 C 
ATOM     32  C   UNL     1      -0.382  -8.715   3.920  1.00  0.00     0.004 C 
ENDBRANCH  30  31
ENDBRANCH  29  30
ENDBRANCH  28  29
ENDBRANCH  27  28
ENDBRANCH  26  27
ENDBRANCH  25  26
ENDBRANCH  24  25
ENDBRANCH  23  24
ENDBRANCH  22  23
ENDBRANCH  21  22
ENDBRANCH  20  21
ENDBRANCH  19  20
ENDBRANCH  18  19
ENDBRANCH   1  18
TORSDOF 28
ENDMDL
MODEL 4
REMARK VINA RESULT:    -4.644      2.995      4.818
REMARK INTER + INTRA:         -17.004
REMARK INTER:                 -12.003
REMARK INTRA:                  -5.001
REMARK UNBOUND:                -4.759
REMARK SMILES CCCCCCCCCCCCCCCCCCCCCCCCCCCCCC(=O)[O-]
REMARK SMILES IDX 16 1 17 2 18 3 19 4 20 5 21 6 22 7 23 8 24 9 25 10 26 11
REMARK SMILES IDX 27 12 28 13 29 14 30 15 31 16 32 17 15 18 14 19 13 20 12 21
REMARK SMILES IDX 11 22 10 23 9 24 8 25 7 26 6 27 5 28 4 29 3 30 2 31 1 32
REMARK H PARENT
REMARK Flexibility Score: inf
ROOT
ATOM      1  C   UNL     1       3.692  -8.636   5.215  1.00  0.00     0.000 C 
ENDROOT
BRANCH   1   2
ATOM      2  C   UNL     1       2.600  -9.411   5.969  1.00  0.00     0.000 C 
BRANCH   2   3
ATOM      3  C   UNL     1       1.489  -9.931   5.041  1.00  0.00     0.000 C 
BRANCH   3   4
ATOM      4  C   UNL     1       1.415  -9.246   3.661  1.00  0.00     0.000 C 
BRANCH   4   5
ATOM      5  C   UNL     1       0.739 -10.104   2.572  1.00  0.00     0.000 C 
BRANCH   5   6
ATOM      6  C   UNL     1       1.522 -10.105   1.247  1.00  0.00     0.000 C 
BRANCH   6   7
ATOM      7  C   UNL     1       3.031 -10.348   1.442  1.00  0.00     0.000 C 
BRANCH   7   8
ATOM      8  C   UNL     1       3.565 -11.660   0.838  1.00  0.00     0.000 C 
BRANCH   8   9
ATOM      9  C   UNL     1       3.844 -12.740   1.900  1.00  0.00     0.000 C 
BRANCH   9  10
ATOM     10  C   UNL     1       3.935 -12.167   3.324  1.00  0.00     0.000 C 
BRANCH  10  11
ATOM     11  C   UNL     1       3.238 -13.050   4.369  1.00  0.00     0.000 C 
BRANCH  11  12
ATOM     12  C   UNL     1       4.235 -14.010   5.034  1.00  0.00     0.000 C 
BRANCH  12  13
ATOM     13  C   UNL     1       4.803 -13.459   6.351  1.00  0.00     0.006 C 
BRANCH  13  14
ATOM     14  C   UNL     1       5.897 -12.406   6.129  1.00  0.00     0.053 C 
BRANCH  14  15
ATOM     15  C   UNL     1       6.085 -11.577   7.361  1.00  0.00     0.041 C 
ATOM     16  O   UNL     1       5.382 -10.549   7.545  1.00  0.00    -0.550 OA
ATOM     17  O   UNL     1       7.064 -11.916   8.286  1.00  0.00    -0.550 OA
ENDBRANCH  14  15
ENDBRANCH  13  14
ENDBRANCH  12  13
ENDBRANCH  11  12
ENDBRANCH  10  11
ENDBRANCH   9  10
ENDBRANCH   8   9
ENDBRANCH   7   8
ENDBRANCH   6   7
ENDBRANCH   5   6
ENDBRANCH   4   5
ENDBRANCH   3   4
ENDBRANCH   2   3
ENDBRANCH   1   2
BRANCH   1  18
ATOM     18  C   UNL     1       3.835  -7.207   5.762  1.00  0.00     0.000 C 
BRANCH  18  19
ATOM     19  C   UNL     1       3.658  -7.149   7.294  1.00  0.00     0.000 C 
BRANCH  19  20
ATOM     20  C   UNL     1       3.376  -5.738   7.839  1.00  0.00     0.000 C 
BRANCH  20  21
ATOM     21  C   UNL     1       2.707  -4.817   6.806  1.00  0.00     0.000 C 
BRANCH  21  22
ATOM     22  C   UNL     1       1.218  -4.573   7.099  1.00  0.00     0.000 C 
BRANCH  22  23
ATOM     23  C   UNL     1       0.303  -5.052   5.961  1.00  0.00     0.000 C 
BRANCH  23  24
ATOM     24  C   UNL     1       0.159  -6.581   5.976  1.00  0.00    -0.000 C 
BRANCH  24  25
ATOM     25  C   UNL     1      -0.583  -7.106   7.219  1.00  0.00    -0.000 C 
BRANCH  25  26
ATOM     26  C   UNL     1       0.217  -8.093   8.089  1.00  0.00    -0.000 C 
BRANCH  26  27
ATOM     27  C   UNL     1       0.417  -7.601   9.529  1.00  0.00    -0.000 C 
BRANCH  27  28
ATOM     28  C   UNL     1      -0.367  -6.303   9.778  1.00  0.00    -0.000 C 
BRANCH  28  29
ATOM     29  C   UNL     1       0.259  -5.446  10.897  1.00  0.00    -0.000 C 
BRANCH  29  30
ATOM     30  C   UNL     1       1.692  -5.863  11.274  1.00  0.00    -0.000 C 
BRANCH  30  31
ATOM     31  C   UNL     1       1.993  -5.792  12.786  1.00  0.00    -0.003 C 
ATOM     32  C   UNL     1       3.486  -5.908  13.095  1.00  0.00     0.004 C 
ENDBRANCH  30  31
ENDBRANCH  29  30
ENDBRANCH  28  29
ENDBRANCH  27  28
ENDBRANCH  26  27
ENDBRANCH  25  26
ENDBRANCH  24  25
ENDBRANCH  23  24
ENDBRANCH  22  23
ENDBRANCH  21  22
ENDBRANCH  20  21
ENDBRANCH  19  20
ENDBRANCH  18  19
ENDBRANCH   1  18
TORSDOF 28
ENDMDL
MODEL 5
REMARK VINA RESULT:    -4.615      1.098      5.228
REMARK INTER + INTRA:         -16.928
REMARK INTER:                 -12.548
REMARK INTRA:                  -4.380
REMARK UNBOUND:                -4.759
REMARK SMILES CCCCCCCCCCCCCCCCCCCCCCCCCCCCCC(=O)[O-]
REMARK SMILES IDX 16 1 17 2 18 3 19 4 20 5 21 6 22 7 23 8 24 9 25 10 26 11
REMARK SMILES IDX 27 12 28 13 29 14 30 15 31 16 32 17 15 18 14 19 13 20 12 21
REMARK SMILES IDX 11 22 10 23 9 24 8 25 7 26 6 27 5 28 4 29 3 30 2 31 1 32
REMARK H PARENT
REMARK Flexibility Score: inf
ROOT
ATOM      1  C   UNL     1      -0.226  -9.139   8.179  1.00  0.00     0.000 C 
ENDROOT
BRANCH   1   2
ATOM      2  C   UNL     1       0.584  -9.431   6.907  1.00  0.00     0.000 C 
BRANCH   2   3
ATOM      3  C   UNL     1       0.400  -8.355   5.822  1.00  0.00     0.000 C 
BRANCH   3   4
ATOM      4  C   UNL     1       0.942  -8.734   4.428  1.00  0.00     0.000 C 
BRANCH   4   5
ATOM      5  C   UNL     1       0.602 -10.176   3.996  1.00  0.00     0.000 C 
BRANCH   5   6
ATOM      6  C   UNL     1       1.857 -11.017   3.703  1.00  0.00     0.000 C 
BRANCH   6   7
ATOM      7  C   UNL     1       2.909 -10.257   2.874  1.00  0.00     0.000 C 
BRANCH   7   8
ATOM      8  C   UNL     1       3.008 -10.681   1.396  1.00  0.00     0.000 C 
BRANCH   8   9
ATOM      9  C   UNL     1       4.281 -11.488   1.086  1.00  0.00     0.000 C 
BRANCH   9  10
ATOM     10  C   UNL     1       3.991 -12.967   0.782  1.00  0.00     0.000 C 
BRANCH  10  11
ATOM     11  C   UNL     1       4.888 -13.536  -0.328  1.00  0.00     0.000 C 
BRANCH  11  12
ATOM     12  C   UNL     1       6.324 -13.009  -0.201  1.00  0.00     0.000 C 
BRANCH  12  13
ATOM     13  C   UNL     1       7.036 -13.519   1.062  1.00  0.00     0.006 C 
BRANCH  13  14
ATOM     14  C   UNL     1       8.564 -13.428   0.958  1.00  0.00     0.053 C 
BRANCH  14  15
ATOM     15  C   UNL     1       9.116 -14.636   0.268  1.00  0.00     0.041 C 
ATOM     16  O   UNL     1      10.183 -14.555  -0.394  1.00  0.00    -0.550 OA
ATOM     17  O   UNL     1       8.431 -15.844   0.324  1.00  0.00    -0.550 OA
ENDBRANCH  14  15
ENDBRANCH  13  14
ENDBRANCH  12  13
ENDBRANCH  11  12
ENDBRANCH  10  11
ENDBRANCH   9  10
ENDBRANCH   8   9
ENDBRANCH   7   8
ENDBRANCH   6   7
ENDBRANCH   5   6
ENDBRANCH   4   5
ENDBRANCH   3   4
ENDBRANCH   2   3
ENDBRANCH   1   2
BRANCH   1  18
ATOM     18  C   UNL     1      -0.256  -7.633   8.483  1.00  0.00     0.000 C 
BRANCH  18  19
ATOM     19  C   UNL     1       0.837  -7.219   9.492  1.00  0.00     0.000 C 
BRANCH  19  20
ATOM     20  C   UNL     1       1.548  -5.901   9.140  1.00  0.00     0.000 C 
BRANCH  20  21
ATOM     21  C   UNL     1       0.916  -5.178   7.941  1.00  0.00     0.000 C 
BRANCH  21  22
ATOM     22  C   UNL     1       1.918  -4.920   6.803  1.00  0.00     0.000 C 
BRANCH  22  23
ATOM     23  C   UNL     1       3.302  -5.525   7.083  1.00  0.00     0.000 C 
BRANCH  23  24
ATOM     24  C   UNL     1       3.560  -6.748   6.190  1.00  0.00    -0.000 C 
BRANCH  24  25
ATOM     25  C   UNL     1       4.252  -7.905   6.934  1.00  0.00    -0.000 C 
BRANCH  25  26
ATOM     26  C   UNL     1       4.425  -9.197   6.115  1.00  0.00    -0.000 C 
BRANCH  26  27
ATOM     27  C   UNL     1       4.105 -10.466   6.917  1.00  0.00    -0.000 C 
BRANCH  27  28
ATOM     28  C   UNL     1       5.365 -11.324   7.112  1.00  0.00    -0.000 C 
BRANCH  28  29
ATOM     29  C   UNL     1       5.193 -12.750   6.552  1.00  0.00    -0.000 C 
BRANCH  29  30
ATOM     30  C   UNL     1       4.421 -12.811   5.222  1.00  0.00    -0.000 C 
BRANCH  30  31
ATOM     31  C   UNL     1       4.689 -14.085   4.393  1.00  0.00    -0.003 C 
ATOM     32  C   UNL     1       3.407 -14.841   4.045  1.00  0.00     0.004 C 
ENDBRANCH  30  31
ENDBRANCH  29  30
ENDBRANCH  28  29
ENDBRANCH  27  28
ENDBRANCH  26  27
ENDBRANCH  25  26
ENDBRANCH  24  25
ENDBRANCH  23  24
ENDBRANCH  22  23
ENDBRANCH  21  22
ENDBRANCH  20  21
ENDBRANCH  19  20
ENDBRANCH  18  19
ENDBRANCH   1  18
TORSDOF 28
ENDMDL
MODEL 6
REMARK VINA RESULT:    -4.600      2.149      2.995
REMARK INTER + INTRA:         -16.889
REMARK INTER:                 -12.381
REMARK INTRA:                  -4.508
REMARK UNBOUND:                -4.759
REMARK SMILES CCCCCCCCCCCCCCCCCCCCCCCCCCCCCC(=O)[O-]
REMARK SMILES IDX 16 1 17 2 18 3 19 4 20 5 21 6 22 7 23 8 24 9 25 10 26 11
REMARK SMILES IDX 27 12 28 13 29 14 30 15 31 16 32 17 15 18 14 19 13 20 12 21
REMARK SMILES IDX 11 22 10 23 9 24 8 25 7 26 6 27 5 28 4 29 3 30 2 31 1 32
REMARK H PARENT
REMARK Flexibility Score: inf
ROOT
ATOM      1  C   UNL     1       5.677 -11.127   7.356  1.00  0.00     0.000 C 
ENDROOT
BRANCH   1   2
ATOM      2  C   UNL     1       6.055 -12.358   6.519  1.00  0.00     0.000 C 
BRANCH   2   3
ATOM      3  C   UNL     1       4.892 -13.352   6.361  1.00  0.00     0.000 C 
BRANCH   3   4
ATOM      4  C   UNL     1       4.612 -13.805   4.913  1.00  0.00     0.000 C 
BRANCH   4   5
ATOM      5  C   UNL     1       3.957 -12.719   4.034  1.00  0.00     0.000 C 
BRANCH   5   6
ATOM      6  C   UNL     1       2.439 -12.610   4.262  1.00  0.00     0.000 C 
BRANCH   6   7
ATOM      7  C   UNL     1       1.895 -11.191   4.012  1.00  0.00     0.000 C 
BRANCH   7   8
ATOM      8  C   UNL     1       2.866 -10.234   3.298  1.00  0.00     0.000 C 
BRANCH   8   9
ATOM      9  C   UNL     1       2.267  -9.608   2.026  1.00  0.00     0.000 C 
BRANCH   9  10
ATOM     10  C   UNL     1       1.427 -10.604   1.209  1.00  0.00     0.000 C 
BRANCH  10  11
ATOM     11  C   UNL     1       2.081 -10.980  -0.130  1.00  0.00     0.000 C 
BRANCH  11  12
ATOM     12  C   UNL     1       2.392 -12.482  -0.190  1.00  0.00     0.000 C 
BRANCH  12  13
ATOM     13  C   UNL     1       3.616 -12.871   0.653  1.00  0.00     0.006 C 
BRANCH  13  14
ATOM     14  C   UNL     1       4.768 -11.867   0.521  1.00  0.00     0.053 C 
BRANCH  14  15
ATOM     15  C   UNL     1       6.087 -12.574   0.558  1.00  0.00     0.041 C 
ATOM     16  O   UNL     1       6.881 -12.484  -0.414  1.00  0.00    -0.550 OA
ATOM     17  O   UNL     1       6.423 -13.366   1.650  1.00  0.00    -0.550 OA
ENDBRANCH  14  15
ENDBRANCH  13  14
ENDBRANCH  12  13
ENDBRANCH  11  12
ENDBRANCH  10  11
ENDBRANCH   9  10
ENDBRANCH   8   9
ENDBRANCH   7   8
ENDBRANCH   6   7
ENDBRANCH   5   6
ENDBRANCH   4   5
ENDBRANCH   3   4
ENDBRANCH   2   3
ENDBRANCH   1   2
BRANCH   1  18
ATOM     18  C   UNL     1       4.290 -10.595   6.963  1.00  0.00     0.000 C 
BRANCH  18  19
ATOM     19  C   UNL     1       4.362  -9.190   6.328  1.00  0.00     0.000 C 
BRANCH  19  20
ATOM     20  C   UNL     1       3.106  -8.332   6.561  1.00  0.00     0.000 C 
BRANCH  20  21
ATOM     21  C   UNL     1       1.924  -9.136   7.123  1.00  0.00     0.000 C 
BRANCH  21  22
ATOM     22  C   UNL     1       0.571  -8.695   6.541  1.00  0.00     0.000 C 
BRANCH  22  23
ATOM     23  C   UNL     1       0.707  -7.553   5.522  1.00  0.00     0.000 C 
BRANCH  23  24
ATOM     24  C   UNL     1      -0.132  -6.337   5.942  1.00  0.00    -0.000 C 
BRANCH  24  25
ATOM     25  C   UNL     1      -0.105  -6.078   7.460  1.00  0.00    -0.000 C 
BRANCH  25  26
ATOM     26  C   UNL     1       1.067  -5.210   7.954  1.00  0.00    -0.000 C 
BRANCH  26  27
ATOM     27  C   UNL     1       1.934  -5.913   9.008  1.00  0.00    -0.000 C 
BRANCH  27  28
ATOM     28  C   UNL     1       1.093  -6.313  10.230  1.00  0.00    -0.000 C 
BRANCH  28  29
ATOM     29  C   UNL     1       1.459  -5.495  11.485  1.00  0.00    -0.000 C 
BRANCH  29  30
ATOM     30  C   UNL     1       1.995  -6.346  12.650  1.00  0.00    -0.000 C 
BRANCH  30  31
ATOM     31  C   UNL     1       3.424  -5.974  13.099  1.00  0.00    -0.003 C 
ATOM     32  C   UNL     1       3.476  -4.649  13.860  1.00  0.00     0.004 C 
ENDBRANCH  30  31
ENDBRANCH  29  30
ENDBRANCH  28  29
ENDBRANCH  27  28
ENDBRANCH  26  27
ENDBRANCH  25  26
ENDBRANCH  24  25
ENDBRANCH  23  24
ENDBRANCH  22  23
ENDBRANCH  21  22
ENDBRANCH  20  21
ENDBRANCH  19  20
ENDBRANCH  18  19
ENDBRANCH   1  18
TORSDOF 28
ENDMDL
MODEL 7
REMARK VINA RESULT:    -4.564      4.590      9.325
REMARK INTER + INTRA:         -16.793
REMARK INTER:                 -12.314
REMARK INTRA:                  -4.479
REMARK UNBOUND:                -4.759
REMARK SMILES CCCCCCCCCCCCCCCCCCCCCCCCCCCCCC(=O)[O-]
REMARK SMILES IDX 16 1 17 2 18 3 19 4 20 5 21 6 22 7 23 8 24 9 25 10 26 11
REMARK SMILES IDX 27 12 28 13 29 14 30 15 31 16 32 17 15 18 14 19 13 20 12 21
REMARK SMILES IDX 11 22 10 23 9 24 8 25 7 26 6 27 5 28 4 29 3 30 2 31 1 32
REMARK H PARENT
REMARK Flexibility Score: inf
ROOT
ATOM      1  C   UNL     1       6.070 -12.502   6.762  1.00  0.00     0.000 C 
ENDROOT
BRANCH   1   2
ATOM      2  C   UNL     1       5.587 -11.115   7.211  1.00  0.00     0.000 C 
BRANCH   2   3
ATOM      3  C   UNL     1       4.053 -10.996   7.232  1.00  0.00     0.000 C 
BRANCH   3   4
ATOM      4  C   UNL     1       3.500  -9.611   6.835  1.00  0.00     0.000 C 
BRANCH   4   5
ATOM      5  C   UNL     1       4.546  -8.686   6.177  1.00  0.00     0.000 C 
BRANCH   5   6
ATOM      6  C   UNL     1       3.953  -7.330   5.754  1.00  0.00     0.000 C 
BRANCH   6   7
ATOM      7  C   UNL     1       3.573  -6.441   6.952  1.00  0.00     0.000 C 
BRANCH   7   8
ATOM      8  C   UNL     1       2.186  -5.777   6.861  1.00  0.00     0.000 C 
BRANCH   8   9
ATOM      9  C   UNL     1       1.115  -6.704   6.259  1.00  0.00     0.000 C 
BRANCH   9  10
ATOM     10  C   UNL     1       0.582  -7.734   7.269  1.00  0.00     0.000 C 
BRANCH  10  11
ATOM     11  C   UNL     1      -0.760  -7.319   7.893  1.00  0.00     0.000 C 
BRANCH  11  12
ATOM     12  C   UNL     1      -0.545  -6.530   9.192  1.00  0.00     0.000 C 
BRANCH  12  13
ATOM     13  C   UNL     1       0.654  -7.040  10.007  1.00  0.00     0.006 C 
BRANCH  13  14
ATOM     14  C   UNL     1       1.542  -5.904  10.529  1.00  0.00     0.053 C 
BRANCH  14  15
ATOM     15  C   UNL     1       1.402  -5.767  12.013  1.00  0.00     0.041 C 
ATOM     16  O   UNL     1       0.775  -4.792  12.502  1.00  0.00    -0.550 OA
ATOM     17  O   UNL     1       1.997  -6.696  12.857  1.00  0.00    -0.550 OA
ENDBRANCH  14  15
ENDBRANCH  13  14
ENDBRANCH  12  13
ENDBRANCH  11  12
ENDBRANCH  10  11
ENDBRANCH   9  10
ENDBRANCH   8   9
ENDBRANCH   7   8
ENDBRANCH   6   7
ENDBRANCH   5   6
ENDBRANCH   4   5
ENDBRANCH   3   4
ENDBRANCH   2   3
ENDBRANCH   1   2
BRANCH   1  18
ATOM     18  C   UNL     1       4.894 -13.375   6.296  1.00  0.00     0.000 C 
BRANCH  18  19
ATOM     19  C   UNL     1       4.861 -13.538   4.761  1.00  0.00     0.000 C 
BRANCH  19  20
ATOM     20  C   UNL     1       3.506 -13.189   4.123  1.00  0.00     0.000 C 
BRANCH  20  21
ATOM     21  C   UNL     1       3.360 -11.693   3.803  1.00  0.00     0.000 C 
BRANCH  21  22
ATOM     22  C   UNL     1       1.902 -11.208   3.866  1.00  0.00     0.000 C 
BRANCH  22  23
ATOM     23  C   UNL     1       1.787  -9.675   3.873  1.00  0.00     0.000 C 
BRANCH  23  24
ATOM     24  C   UNL     1       1.010  -9.176   2.646  1.00  0.00    -0.000 C 
BRANCH  24  25
ATOM     25  C   UNL     1       1.808  -9.294   1.334  1.00  0.00    -0.000 C 
BRANCH  25  26
ATOM     26  C   UNL     1       0.996  -9.771   0.116  1.00  0.00    -0.000 C 
BRANCH  26  27
ATOM     27  C   UNL     1       1.581 -11.029  -0.542  1.00  0.00    -0.000 C 
BRANCH  27  28
ATOM     28  C   UNL     1       2.841 -11.500   0.201  1.00  0.00    -0.000 C 
BRANCH  28  29
ATOM     29  C   UNL     1       3.099 -13.009   0.015  1.00  0.00    -0.000 C 
BRANCH  29  30
ATOM     30  C   UNL     1       4.463 -13.479   0.553  1.00  0.00    -0.000 C 
BRANCH  30  31
ATOM     31  C   UNL     1       5.482 -12.341   0.774  1.00  0.00    -0.003 C 
ATOM     32  C   UNL     1       6.712 -12.469  -0.125  1.00  0.00     0.004 C 
ENDBRANCH  30  31
ENDBRANCH  29  30
ENDBRANCH  28  29
ENDBRANCH  27  28
ENDBRANCH  26  27
ENDBRANCH  25  26
ENDBRANCH  24  25
ENDBRANCH  23  24
ENDBRANCH  22  23
ENDBRANCH  21  22
ENDBRANCH  20  21
ENDBRANCH  19  20
ENDBRANCH  18  19
ENDBRANCH   1  18
TORSDOF 28
ENDMDL
MODEL 8
REMARK VINA RESULT:    -4.560      3.532      8.705
REMARK INTER + INTRA:         -16.783
REMARK INTER:                 -11.918
REMARK INTRA:                  -4.865
REMARK UNBOUND:                -4.759
REMARK SMILES CCCCCCCCCCCCCCCCCCCCCCCCCCCCCC(=O)[O-]
REMARK SMILES IDX 16 1 17 2 18 3 19 4 20 5 21 6 22 7 23 8 24 9 25 10 26 11
REMARK SMILES IDX 27 12 28 13 29 14 30 15 31 16 32 17 15 18 14 19 13 20 12 21
REMARK SMILES IDX 11 22 10 23 9 24 8 25 7 26 6 27 5 28 4 29 3 30 2 31 1 32
REMARK H PARENT
REMARK Flexibility Score: inf
ROOT
ATOM      1  C   UNL     1       5.672 -10.961   7.159  1.00  0.00     0.000 C 
ENDROOT
BRANCH   1   2
ATOM      2  C   UNL     1       4.141 -10.841   7.215  1.00  0.00     0.000 C 
BRANCH   2   3
ATOM      3  C   UNL     1       3.631  -9.477   6.718  1.00  0.00     0.000 C 
BRANCH   3   4
ATOM      4  C   UNL     1       3.784  -9.236   5.202  1.00  0.00     0.000 C 
BRANCH   4   5
ATOM      5  C   UNL     1       3.399 -10.452   4.333  1.00  0.00     0.000 C 
BRANCH   5   6
ATOM      6  C   UNL     1       1.944 -10.902   4.556  1.00  0.00     0.000 C 
BRANCH   6   7
ATOM      7  C   UNL     1       0.973 -10.334   3.503  1.00  0.00     0.000 C 
BRANCH   7   8
ATOM      8  C   UNL     1      -0.250  -9.593   4.074  1.00  0.00     0.000 C 
BRANCH   8   9
ATOM      9  C   UNL     1       0.111  -8.241   4.716  1.00  0.00     0.000 C 
BRANCH   9  10
ATOM     10  C   UNL     1      -0.522  -8.052   6.104  1.00  0.00     0.000 C 
BRANCH  10  11
ATOM     11  C   UNL     1      -0.039  -9.091   7.128  1.00  0.00     0.000 C 
BRANCH  11  12
ATOM     12  C   UNL     1       0.608  -8.409   8.342  1.00  0.00     0.000 C 
BRANCH  12  13
ATOM     13  C   UNL     1       0.454  -6.881   8.319  1.00  0.00     0.006 C 
BRANCH  13  14
ATOM     14  C   UNL     1       1.709  -6.151   8.815  1.00  0.00     0.053 C 
BRANCH  14  15
ATOM     15  C   UNL     1       2.675  -5.944   7.691  1.00  0.00     0.041 C 
ATOM     16  O   UNL     1       2.263  -5.895   6.503  1.00  0.00    -0.550 OA
ATOM     17  O   UNL     1       4.036  -5.843   7.952  1.00  0.00    -0.550 OA
ENDBRANCH  14  15
ENDBRANCH  13  14
ENDBRANCH  12  13
ENDBRANCH  11  12
ENDBRANCH  10  11
ENDBRANCH   9  10
ENDBRANCH   8   9
ENDBRANCH   7   8
ENDBRANCH   6   7
ENDBRANCH   5   6
ENDBRANCH   4   5
ENDBRANCH   3   4
ENDBRANCH   2   3
ENDBRANCH   1   2
BRANCH   1  18
ATOM     18  C   UNL     1       6.102 -12.392   6.802  1.00  0.00     0.000 C 
BRANCH  18  19
ATOM     19  C   UNL     1       4.895 -13.307   6.503  1.00  0.00     0.000 C 
BRANCH  19  20
ATOM     20  C   UNL     1       4.804 -13.765   5.036  1.00  0.00     0.000 C 
BRANCH  20  21
ATOM     21  C   UNL     1       3.439 -14.375   4.681  1.00  0.00     0.000 C 
BRANCH  21  22
ATOM     22  C   UNL     1       3.159 -14.373   3.169  1.00  0.00     0.000 C 
BRANCH  22  23
ATOM     23  C   UNL     1       1.660 -14.462   2.843  1.00  0.00     0.000 C 
BRANCH  23  24
ATOM     24  C   UNL     1       1.319 -13.640   1.592  1.00  0.00    -0.000 C 
BRANCH  24  25
ATOM     25  C   UNL     1       2.564 -13.178   0.813  1.00  0.00    -0.000 C 
BRANCH  25  26
ATOM     26  C   UNL     1       2.709 -11.652   0.660  1.00  0.00    -0.000 C 
BRANCH  26  27
ATOM     27  C   UNL     1       4.153 -11.164   0.837  1.00  0.00    -0.000 C 
BRANCH  27  28
ATOM     28  C   UNL     1       5.124 -12.351   0.941  1.00  0.00    -0.000 C 
BRANCH  28  29
ATOM     29  C   UNL     1       6.400 -12.138   0.103  1.00  0.00    -0.000 C 
BRANCH  29  30
ATOM     30  C   UNL     1       7.094 -13.445  -0.323  1.00  0.00    -0.000 C 
BRANCH  30  31
ATOM     31  C   UNL     1       8.007 -14.057   0.761  1.00  0.00    -0.003 C 
ATOM     32  C   UNL     1       9.378 -14.458   0.218  1.00  0.00     0.004 C 
ENDBRANCH  30  31
ENDBRANCH  29  30
ENDBRANCH  28  29
ENDBRANCH  27  28
ENDBRANCH  26  27
ENDBRANCH  25  26
ENDBRANCH  24  25
ENDBRANCH  23  24
ENDBRANCH  22  23
ENDBRANCH  21  22
ENDBRANCH  20  21
ENDBRANCH  19  20
ENDBRANCH  18  19
ENDBRANCH   1  18
TORSDOF 28
ENDMDL
MODEL 9
REMARK VINA RESULT:    -4.555      1.292      2.130
REMARK INTER + INTRA:         -16.769
REMARK INTER:                 -11.737
REMARK INTRA:                  -5.032
REMARK UNBOUND:                -4.759
REMARK SMILES CCCCCCCCCCCCCCCCCCCCCCCCCCCCCC(=O)[O-]
REMARK SMILES IDX 16 1 17 2 18 3 19 4 20 5 21 6 22 7 23 8 24 9 25 10 26 11
REMARK SMILES IDX 27 12 28 13 29 14 30 15 31 16 32 17 15 18 14 19 13 20 12 21
REMARK SMILES IDX 11 22 10 23 9 24 8 25 7 26 6 27 5 28 4 29 3 30 2 31 1 32
REMARK H PARENT
REMARK Flexibility Score: inf
ROOT
ATOM      1  C   UNL     1       4.034 -10.726   6.926  1.00  0.00     0.000 C 
ENDROOT
BRANCH   1   2
ATOM      2  C   UNL     1       5.549 -10.977   6.970  1.00  0.00     0.000 C 
BRANCH   2   3
ATOM      3  C   UNL     1       5.906 -12.473   6.961  1.00  0.00     0.000 C 
BRANCH   3   4
ATOM      4  C   UNL     1       4.885 -13.384   6.248  1.00  0.00     0.000 C 
BRANCH   4   5
ATOM      5  C   UNL     1       5.047 -13.425   4.714  1.00  0.00     0.000 C 
BRANCH   5   6
ATOM      6  C   UNL     1       4.168 -14.502   4.055  1.00  0.00     0.000 C 
BRANCH   6   7
ATOM      7  C   UNL     1       2.672 -14.338   4.379  1.00  0.00     0.000 C 
BRANCH   7   8
ATOM      8  C   UNL     1       1.784 -13.934   3.188  1.00  0.00     0.000 C 
BRANCH   8   9
ATOM      9  C   UNL     1       2.460 -14.173   1.826  1.00  0.00     0.000 C 
BRANCH   9  10
ATOM     10  C   UNL     1       2.356 -12.960   0.887  1.00  0.00     0.000 C 
BRANCH  10  11
ATOM     11  C   UNL     1       3.619 -12.752   0.037  1.00  0.00     0.000 C 
BRANCH  11  12
ATOM     12  C   UNL     1       4.730 -12.076   0.856  1.00  0.00     0.000 C 
BRANCH  12  13
ATOM     13  C   UNL     1       6.137 -12.525   0.434  1.00  0.00     0.006 C 
BRANCH  13  14
ATOM     14  C   UNL     1       6.667 -13.687   1.285  1.00  0.00     0.053 C 
BRANCH  14  15
ATOM     15  C   UNL     1       7.808 -14.365   0.594  1.00  0.00     0.041 C 
ATOM     16  O   UNL     1       7.642 -15.488   0.048  1.00  0.00    -0.550 OA
ATOM     17  O   UNL     1       9.067 -13.777   0.586  1.00  0.00    -0.550 OA
ENDBRANCH  14  15
ENDBRANCH  13  14
ENDBRANCH  12  13
ENDBRANCH  11  12
ENDBRANCH  10  11
ENDBRANCH   9  10
ENDBRANCH   8   9
ENDBRANCH   7   8
ENDBRANCH   6   7
ENDBRANCH   5   6
ENDBRANCH   4   5
ENDBRANCH   3   4
ENDBRANCH   2   3
ENDBRANCH   1   2
BRANCH   1  18
ATOM     18  C   UNL     1       3.649  -9.874   5.706  1.00  0.00     0.000 C 
BRANCH  18  19
ATOM     19  C   UNL     1       2.848 -10.681   4.662  1.00  0.00     0.000 C 
BRANCH  19  20
ATOM     20  C   UNL     1       2.977 -10.147   3.224  1.00  0.00     0.000 C 
BRANCH  20  21
ATOM     21  C   UNL     1       1.681  -9.511   2.700  1.00  0.00     0.000 C 
BRANCH  21  22
ATOM     22  C   UNL     1       0.418 -10.246   3.180  1.00  0.00     0.000 C 
BRANCH  22  23
ATOM     23  C   UNL     1      -0.408  -9.416   4.175  1.00  0.00     0.000 C 
BRANCH  23  24
ATOM     24  C   UNL     1       0.239  -8.045   4.420  1.00  0.00    -0.000 C 
BRANCH  24  25
ATOM     25  C   UNL     1       0.100  -7.562   5.876  1.00  0.00    -0.000 C 
BRANCH  25  26
ATOM     26  C   UNL     1       0.303  -8.650   6.947  1.00  0.00    -0.000 C 
BRANCH  26  27
ATOM     27  C   UNL     1       1.341  -8.262   8.009  1.00  0.00    -0.000 C 
BRANCH  27  28
ATOM     28  C   UNL     1       0.809  -7.139   8.912  1.00  0.00    -0.000 C 
BRANCH  28  29
ATOM     29  C   UNL     1       1.632  -5.842   8.780  1.00  0.00    -0.000 C 
BRANCH  29  30
ATOM     30  C   UNL     1       2.944  -6.013   7.993  1.00  0.00    -0.000 C 
BRANCH  30  31
ATOM     31  C   UNL     1       2.997  -5.216   6.672  1.00  0.00    -0.003 C 
ATOM     32  C   UNL     1       1.804  -4.275   6.504  1.00  0.00     0.004 C 
ENDBRANCH  30  31
ENDBRANCH  29  30
ENDBRANCH  28  29
ENDBRANCH  27  28
ENDBRANCH  26  27
ENDBRANCH  25  26
ENDBRANCH  24  25
ENDBRANCH  23  24
ENDBRANCH  22  23
ENDBRANCH  21  22
ENDBRANCH  20  21
ENDBRANCH  19  20
ENDBRANCH  18  19
ENDBRANCH   1  18
TORSDOF 28
ENDMDL
