MODEL 1
REMARK VINA RESULT:    -5.867      0.000      0.000
REMARK INTER + INTRA:         -13.018
REMARK INTER:                 -11.354
REMARK INTRA:                  -1.664
REMARK UNBOUND:                -1.664
REMARK SMILES CCCCCCCCCCCCCCCCCC(=O)[O-]
REMARK SMILES IDX 10 1 11 2 12 3 13 4 14 5 15 6 16 7 17 8 18 9 19 10 20 11
REMARK SMILES IDX 9 12 8 13 7 14 6 15 5 16 4 17 3 18 2 19 1 20
REMARK H PARENT
REMARK Flexibility Score: inf
ROOT
ATOM      1  C   UNL     1      40.627 -47.677 162.212  1.00  0.00     0.000 C 
ENDROOT
BRANCH   1   2
ATOM      2  C   UNL     1      39.367 -47.282 161.412  1.00  0.00     0.000 C 
BRANCH   2   3
ATOM      3  C   UNL     1      38.269 -48.360 161.482  1.00  0.00     0.000 C 
BRANCH   3   4
ATOM      4  C   UNL     1      37.051 -48.005 160.601  1.00  0.00     0.000 C 
BRANCH   4   5
ATOM      5  C   UNL     1      35.708 -48.474 161.188  1.00  0.00     0.000 C 
BRANCH   5   6
ATOM      6  C   UNL     1      35.870 -49.250 162.501  1.00  0.00     0.000 C 
BRANCH   6   7
ATOM      7  C   UNL     1      35.343 -50.684 162.365  1.00  0.00     0.006 C 
BRANCH   7   8
ATOM      8  C   UNL     1      36.424 -51.701 162.740  1.00  0.00     0.053 C 
BRANCH   8   9
ATOM      9  C   UNL     1      35.856 -52.774 163.616  1.00  0.00     0.041 C 
ATOM     10  O   UNL     1      36.041 -53.986 163.332  1.00  0.00    -0.550 OA
ATOM     11  O   UNL     1      35.159 -52.434 164.768  1.00  0.00    -0.550 OA
ENDBRANCH   8   9
ENDBRANCH   7   8
ENDBRANCH   6   7
ENDBRANCH   5   6
ENDBRANCH   4   5
ENDBRANCH   3   4
ENDBRANCH   2   3
ENDBRANCH   1   2
BRANCH   1  12
ATOM     12  C   UNL     1      40.511 -49.041 162.914  1.00  0.00     0.000 C 
BRANCH  12  13
ATOM     13  C   UNL     1      41.678 -49.313 163.876  1.00  0.00    -0.000 C 
BRANCH  13  14
ATOM     14  C   UNL     1      41.540 -48.553 165.204  1.00  0.00    -0.000 C 
BRANCH  14  15
ATOM     15  C   UNL     1      42.886 -48.040 165.740  1.00  0.00    -0.000 C 
BRANCH  15  16
ATOM     16  C   UNL     1      43.997 -48.218 164.698  1.00  0.00    -0.000 C 
BRANCH  16  17
ATOM     17  C   UNL     1      44.656 -46.872 164.359  1.00  0.00    -0.000 C 
BRANCH  17  18
ATOM     18  C   UNL     1      44.561 -46.538 162.855  1.00  0.00    -0.000 C 
BRANCH  18  19
ATOM     19  C   UNL     1      44.977 -47.702 161.940  1.00  0.00    -0.003 C 
ATOM     20  C   UNL     1      43.995 -47.942 160.794  1.00  0.00     0.004 C 
ENDBRANCH  18  19
ENDBRANCH  17  18
ENDBRANCH  16  17
ENDBRANCH  15  16
ENDBRANCH  14  15
ENDBRANCH  13  14
ENDBRANCH  12  13
ENDBRANCH   1  12
TORSDOF 16
ENDMDL
MODEL 2
REMARK VINA RESULT:    -5.792      9.178     13.894
REMARK INTER + INTRA:         -12.873
REMARK INTER:                 -11.482
REMARK INTRA:                  -1.391
REMARK UNBOUND:                -1.664
REMARK SMILES CCCCCCCCCCCCCCCCCC(=O)[O-]
REMARK SMILES IDX 10 1 11 2 12 3 13 4 14 5 15 6 16 7 17 8 18 9 19 10 20 11
REMARK SMILES IDX 9 12 8 13 7 14 6 15 5 16 4 17 3 18 2 19 1 20
REMARK H PARENT
REMARK Flexibility Score: inf
ROOT
ATOM      1  C   UNL     1      50.022 -46.946 164.785  1.00  0.00     0.000 C 
ENDROOT
BRANCH   1   2
ATOM      2  C   UNL     1      50.717 -48.174 165.411  1.00  0.00     0.000 C 
BRANCH   2   3
ATOM      3  C   UNL     1      52.127 -47.843 165.935  1.00  0.00     0.000 C 
BRANCH   3   4
ATOM      4  C   UNL     1      52.291 -46.341 166.251  1.00  0.00     0.000 C 
BRANCH   4   5
ATOM      5  C   UNL     1      53.632 -45.994 166.920  1.00  0.00     0.000 C 
BRANCH   5   6
ATOM      6  C   UNL     1      54.474 -45.014 166.094  1.00  0.00     0.000 C 
BRANCH   6   7
ATOM      7  C   UNL     1      53.608 -44.256 165.081  1.00  0.00     0.006 C 
BRANCH   7   8
ATOM      8  C   UNL     1      54.467 -43.343 164.201  1.00  0.00     0.053 C 
BRANCH   8   9
ATOM      9  C   UNL     1      53.881 -41.968 164.141  1.00  0.00     0.041 C 
ATOM     10  O   UNL     1      52.643 -41.800 164.285  1.00  0.00    -0.550 OA
ATOM     11  O   UNL     1      54.710 -40.866 163.967  1.00  0.00    -0.550 OA
ENDBRANCH   8   9
ENDBRANCH   7   8
ENDBRANCH   6   7
ENDBRANCH   5   6
ENDBRANCH   4   5
ENDBRANCH   3   4
ENDBRANCH   2   3
ENDBRANCH   1   2
BRANCH   1  12
ATOM     12  C   UNL     1      48.573 -47.214 164.344  1.00  0.00     0.000 C 
BRANCH  12  13
ATOM     13  C   UNL     1      48.161 -48.682 164.529  1.00  0.00    -0.000 C 
BRANCH  13  14
ATOM     14  C   UNL     1      47.871 -49.389 163.195  1.00  0.00    -0.000 C 
BRANCH  14  15
ATOM     15  C   UNL     1      46.368 -49.505 162.897  1.00  0.00    -0.000 C 
BRANCH  15  16
ATOM     16  C   UNL     1      45.538 -49.344 164.176  1.00  0.00    -0.000 C 
BRANCH  16  17
ATOM     17  C   UNL     1      44.411 -48.319 163.978  1.00  0.00    -0.000 C 
BRANCH  17  18
ATOM     18  C   UNL     1      44.380 -47.261 165.102  1.00  0.00    -0.000 C 
BRANCH  18  19
ATOM     19  C   UNL     1      45.165 -45.983 164.764  1.00  0.00    -0.003 C 
ATOM     20  C   UNL     1      45.984 -45.455 165.941  1.00  0.00     0.004 C 
ENDBRANCH  18  19
ENDBRANCH  17  18
ENDBRANCH  16  17
ENDBRANCH  15  16
ENDBRANCH  14  15
ENDBRANCH  13  14
ENDBRANCH  12  13
ENDBRANCH   1  12
TORSDOF 16
ENDMDL
MODEL 3
REMARK VINA RESULT:    -5.790      8.711     13.303
REMARK INTER + INTRA:         -12.868
REMARK INTER:                 -11.461
REMARK INTRA:                  -1.408
REMARK UNBOUND:                -1.664
REMARK SMILES CCCCCCCCCCCCCCCCCC(=O)[O-]
REMARK SMILES IDX 10 1 11 2 12 3 13 4 14 5 15 6 16 7 17 8 18 9 19 10 20 11
REMARK SMILES IDX 9 12 8 13 7 14 6 15 5 16 4 17 3 18 2 19 1 20
REMARK H PARENT
REMARK Flexibility Score: inf
ROOT
ATOM      1  C   UNL     1      49.941 -47.806 165.148  1.00  0.00     0.000 C 
ENDROOT
BRANCH   1   2
ATOM      2  C   UNL     1      51.431 -47.673 165.533  1.00  0.00     0.000 C 
BRANCH   2   3
ATOM      3  C   UNL     1      51.817 -46.224 165.882  1.00  0.00     0.000 C 
BRANCH   3   4
ATOM      4  C   UNL     1      53.226 -46.133 166.508  1.00  0.00     0.000 C 
BRANCH   4   5
ATOM      5  C   UNL     1      53.958 -47.484 166.576  1.00  0.00     0.000 C 
BRANCH   5   6
ATOM      6  C   UNL     1      54.780 -47.653 167.860  1.00  0.00     0.000 C 
BRANCH   6   7
ATOM      7  C   UNL     1      54.561 -49.040 168.477  1.00  0.00     0.006 C 
BRANCH   7   8
ATOM      8  C   UNL     1      53.623 -49.884 167.609  1.00  0.00     0.053 C 
BRANCH   8   9
ATOM      9  C   UNL     1      54.052 -51.317 167.610  1.00  0.00     0.041 C 
ATOM     10  O   UNL     1      54.810 -51.751 166.705  1.00  0.00    -0.550 OA
ATOM     11  O   UNL     1      53.648 -52.163 168.636  1.00  0.00    -0.550 OA
ENDBRANCH   8   9
ENDBRANCH   7   8
ENDBRANCH   6   7
ENDBRANCH   5   6
ENDBRANCH   4   5
ENDBRANCH   3   4
ENDBRANCH   2   3
ENDBRANCH   1   2
BRANCH   1  12
ATOM     12  C   UNL     1      49.247 -46.458 164.894  1.00  0.00     0.000 C 
BRANCH  12  13
ATOM     13  C   UNL     1      47.743 -46.610 164.615  1.00  0.00    -0.000 C 
BRANCH  13  14
ATOM     14  C   UNL     1      46.874 -45.802 165.591  1.00  0.00    -0.000 C 
BRANCH  14  15
ATOM     15  C   UNL     1      45.382 -45.832 165.227  1.00  0.00    -0.000 C 
BRANCH  15  16
ATOM     16  C   UNL     1      45.187 -46.065 163.723  1.00  0.00    -0.000 C 
BRANCH  16  17
ATOM     17  C   UNL     1      44.285 -47.282 163.466  1.00  0.00    -0.000 C 
BRANCH  17  18
ATOM     18  C   UNL     1      44.222 -48.229 164.683  1.00  0.00    -0.000 C 
BRANCH  18  19
ATOM     19  C   UNL     1      45.028 -49.525 164.495  1.00  0.00    -0.003 C 
ATOM     20  C   UNL     1      45.852 -49.535 163.209  1.00  0.00     0.004 C 
ENDBRANCH  18  19
ENDBRANCH  17  18
ENDBRANCH  16  17
ENDBRANCH  15  16
ENDBRANCH  14  15
ENDBRANCH  13  14
ENDBRANCH  12  13
ENDBRANCH   1  12
TORSDOF 16
ENDMDL
MODEL 4
REMARK VINA RESULT:    -5.756      8.948     13.546
REMARK INTER + INTRA:         -12.804
REMARK INTER:                 -11.410
REMARK INTRA:                  -1.394
REMARK UNBOUND:                -1.664
REMARK SMILES CCCCCCCCCCCCCCCCCC(=O)[O-]
REMARK SMILES IDX 10 1 11 2 12 3 13 4 14 5 15 6 16 7 17 8 18 9 19 10 20 11
REMARK SMILES IDX 9 12 8 13 7 14 6 15 5 16 4 17 3 18 2 19 1 20
REMARK H PARENT
REMARK Flexibility Score: inf
ROOT
ATOM      1  C   UNL     1      49.143 -46.239 164.338  1.00  0.00     0.000 C 
ENDROOT
BRANCH   1   2
ATOM      2  C   UNL     1      50.450 -46.289 165.159  1.00  0.00     0.000 C 
BRANCH   2   3
ATOM      3  C   UNL     1      50.929 -47.731 165.407  1.00  0.00     0.000 C 
BRANCH   3   4
ATOM      4  C   UNL     1      52.421 -47.787 165.800  1.00  0.00     0.000 C 
BRANCH   4   5
ATOM      5  C   UNL     1      52.979 -46.443 166.296  1.00  0.00     0.000 C 
BRANCH   5   6
ATOM      6  C   UNL     1      54.460 -46.246 165.947  1.00  0.00     0.000 C 
BRANCH   6   7
ATOM      7  C   UNL     1      54.657 -45.021 165.046  1.00  0.00     0.006 C 
BRANCH   7   8
ATOM      8  C   UNL     1      53.424 -44.113 165.080  1.00  0.00     0.053 C 
BRANCH   8   9
ATOM      9  C   UNL     1      53.828 -42.674 164.993  1.00  0.00     0.041 C 
ATOM     10  O   UNL     1      53.770 -41.939 166.013  1.00  0.00    -0.550 OA
ATOM     11  O   UNL     1      54.309 -42.158 163.797  1.00  0.00    -0.550 OA
ENDBRANCH   8   9
ENDBRANCH   7   8
ENDBRANCH   6   7
ENDBRANCH   5   6
ENDBRANCH   4   5
ENDBRANCH   3   4
ENDBRANCH   2   3
ENDBRANCH   1   2
BRANCH   1  12
ATOM     12  C   UNL     1      47.895 -46.650 165.138  1.00  0.00     0.000 C 
BRANCH  12  13
ATOM     13  C   UNL     1      47.257 -45.470 165.886  1.00  0.00    -0.000 C 
BRANCH  13  14
ATOM     14  C   UNL     1      45.742 -45.365 165.647  1.00  0.00    -0.000 C 
BRANCH  14  15
ATOM     15  C   UNL     1      45.144 -46.645 165.044  1.00  0.00    -0.000 C 
BRANCH  15  16
ATOM     16  C   UNL     1      44.650 -46.400 163.612  1.00  0.00    -0.000 C 
BRANCH  16  17
ATOM     17  C   UNL     1      44.153 -47.704 162.970  1.00  0.00    -0.000 C 
BRANCH  17  18
ATOM     18  C   UNL     1      45.277 -48.449 162.218  1.00  0.00    -0.000 C 
BRANCH  18  19
ATOM     19  C   UNL     1      45.996 -49.503 163.076  1.00  0.00    -0.003 C 
ATOM     20  C   UNL     1      47.493 -49.592 162.785  1.00  0.00     0.004 C 
ENDBRANCH  18  19
ENDBRANCH  17  18
ENDBRANCH  16  17
ENDBRANCH  15  16
ENDBRANCH  14  15
ENDBRANCH  13  14
ENDBRANCH  12  13
ENDBRANCH   1  12
TORSDOF 16
ENDMDL
MODEL 5
REMARK VINA RESULT:    -5.716      8.489     12.995
REMARK INTER + INTRA:         -12.727
REMARK INTER:                 -11.246
REMARK INTRA:                  -1.481
REMARK UNBOUND:                -1.664
REMARK SMILES CCCCCCCCCCCCCCCCCC(=O)[O-]
REMARK SMILES IDX 10 1 11 2 12 3 13 4 14 5 15 6 16 7 17 8 18 9 19 10 20 11
REMARK SMILES IDX 9 12 8 13 7 14 6 15 5 16 4 17 3 18 2 19 1 20
REMARK H PARENT
REMARK Flexibility Score: inf
ROOT
ATOM      1  C   UNL     1      49.120 -47.769 164.437  1.00  0.00     0.000 C 
ENDROOT
BRANCH   1   2
ATOM      2  C   UNL     1      50.225 -48.038 165.482  1.00  0.00     0.000 C 
BRANCH   2   3
ATOM      3  C   UNL     1      51.289 -46.926 165.507  1.00  0.00     0.000 C 
BRANCH   3   4
ATOM      4  C   UNL     1      52.720 -47.494 165.632  1.00  0.00     0.000 C 
BRANCH   4   5
ATOM      5  C   UNL     1      53.624 -46.686 166.579  1.00  0.00     0.000 C 
BRANCH   5   6
ATOM      6  C   UNL     1      54.542 -47.574 167.429  1.00  0.00     0.000 C 
BRANCH   6   7
ATOM      7  C   UNL     1      54.375 -49.054 167.062  1.00  0.00     0.006 C 
BRANCH   7   8
ATOM      8  C   UNL     1      54.016 -49.886 168.297  1.00  0.00     0.053 C 
BRANCH   8   9
ATOM      9  C   UNL     1      54.008 -51.345 167.964  1.00  0.00     0.041 C 
ATOM     10  O   UNL     1      54.501 -51.749 166.879  1.00  0.00    -0.550 OA
ATOM     11  O   UNL     1      53.493 -52.262 168.872  1.00  0.00    -0.550 OA
ENDBRANCH   8   9
ENDBRANCH   7   8
ENDBRANCH   6   7
ENDBRANCH   5   6
ENDBRANCH   4   5
ENDBRANCH   3   4
ENDBRANCH   2   3
ENDBRANCH   1   2
BRANCH   1  12
ATOM     12  C   UNL     1      47.931 -48.739 164.532  1.00  0.00     0.000 C 
BRANCH  12  13
ATOM     13  C   UNL     1      47.612 -49.418 163.191  1.00  0.00    -0.000 C 
BRANCH  13  14
ATOM     14  C   UNL     1      46.106 -49.456 162.889  1.00  0.00    -0.000 C 
BRANCH  14  15
ATOM     15  C   UNL     1      45.243 -49.500 164.159  1.00  0.00    -0.000 C 
BRANCH  15  16
ATOM     16  C   UNL     1      44.239 -48.340 164.183  1.00  0.00    -0.000 C 
BRANCH  16  17
ATOM     17  C   UNL     1      44.554 -47.316 163.083  1.00  0.00    -0.000 C 
BRANCH  17  18
ATOM     18  C   UNL     1      45.382 -46.126 163.613  1.00  0.00    -0.000 C 
BRANCH  18  19
ATOM     19  C   UNL     1      45.158 -45.839 165.107  1.00  0.00    -0.003 C 
ATOM     20  C   UNL     1      46.460 -45.604 165.872  1.00  0.00     0.004 C 
ENDBRANCH  18  19
ENDBRANCH  17  18
ENDBRANCH  16  17
ENDBRANCH  15  16
ENDBRANCH  14  15
ENDBRANCH  13  14
ENDBRANCH  12  13
ENDBRANCH   1  12
TORSDOF 16
ENDMDL
MODEL 6
REMARK VINA RESULT:    -5.716      3.626      4.652
REMARK INTER + INTRA:         -12.726
REMARK INTER:                 -11.152
REMARK INTRA:                  -1.574
REMARK UNBOUND:                -1.664
REMARK SMILES CCCCCCCCCCCCCCCCCC(=O)[O-]
REMARK SMILES IDX 10 1 11 2 12 3 13 4 14 5 15 6 16 7 17 8 18 9 19 10 20 11
REMARK SMILES IDX 9 12 8 13 7 14 6 15 5 16 4 17 3 18 2 19 1 20
REMARK H PARENT
REMARK Flexibility Score: inf
ROOT
ATOM      1  C   UNL     1      41.398 -47.700 162.517  1.00  0.00     0.000 C 
ENDROOT
BRANCH   1   2
ATOM      2  C   UNL     1      40.010 -47.930 161.880  1.00  0.00     0.000 C 
BRANCH   2   3
ATOM      3  C   UNL     1      39.199 -49.010 162.620  1.00  0.00     0.000 C 
BRANCH   3   4
ATOM      4  C   UNL     1      37.740 -49.084 162.120  1.00  0.00     0.000 C 
BRANCH   4   5
ATOM      5  C   UNL     1      37.469 -48.218 160.878  1.00  0.00     0.000 C 
BRANCH   5   6
ATOM      6  C   UNL     1      36.342 -48.774 159.998  1.00  0.00     0.000 C 
BRANCH   6   7
ATOM      7  C   UNL     1      35.686 -47.661 159.172  1.00  0.00     0.006 C 
BRANCH   7   8
ATOM      8  C   UNL     1      35.624 -46.354 159.967  1.00  0.00     0.053 C 
BRANCH   8   9
ATOM      9  C   UNL     1      35.972 -45.190 159.093  1.00  0.00     0.041 C 
ATOM     10  O   UNL     1      35.934 -44.019 159.554  1.00  0.00    -0.550 OA
ATOM     11  O   UNL     1      36.378 -45.402 157.782  1.00  0.00    -0.550 OA
ENDBRANCH   8   9
ENDBRANCH   7   8
ENDBRANCH   6   7
ENDBRANCH   5   6
ENDBRANCH   4   5
ENDBRANCH   3   4
ENDBRANCH   2   3
ENDBRANCH   1   2
BRANCH   1  12
ATOM     12  C   UNL     1      41.740 -48.703 163.631  1.00  0.00     0.000 C 
BRANCH  12  13
ATOM     13  C   UNL     1      42.371 -48.031 164.860  1.00  0.00    -0.000 C 
BRANCH  13  14
ATOM     14  C   UNL     1      43.633 -48.757 165.352  1.00  0.00    -0.000 C 
BRANCH  14  15
ATOM     15  C   UNL     1      44.310 -49.587 164.251  1.00  0.00    -0.000 C 
BRANCH  15  16
ATOM     16  C   UNL     1      45.603 -48.914 163.771  1.00  0.00    -0.000 C 
BRANCH  16  17
ATOM     17  C   UNL     1      45.311 -47.879 162.673  1.00  0.00    -0.000 C 
BRANCH  17  18
ATOM     18  C   UNL     1      45.506 -46.431 163.170  1.00  0.00    -0.000 C 
BRANCH  18  19
ATOM     19  C   UNL     1      46.471 -46.315 164.362  1.00  0.00    -0.003 C 
ATOM     20  C   UNL     1      45.810 -45.740 165.613  1.00  0.00     0.004 C 
ENDBRANCH  18  19
ENDBRANCH  17  18
ENDBRANCH  16  17
ENDBRANCH  15  16
ENDBRANCH  14  15
ENDBRANCH  13  14
ENDBRANCH  12  13
ENDBRANCH   1  12
TORSDOF 16
ENDMDL
MODEL 7
REMARK VINA RESULT:    -5.716      0.945      2.004
REMARK INTER + INTRA:         -12.726
REMARK INTER:                 -11.223
REMARK INTRA:                  -1.503
REMARK UNBOUND:                -1.664
REMARK SMILES CCCCCCCCCCCCCCCCCC(=O)[O-]
REMARK SMILES IDX 10 1 11 2 12 3 13 4 14 5 15 6 16 7 17 8 18 9 19 10 20 11
REMARK SMILES IDX 9 12 8 13 7 14 6 15 5 16 4 17 3 18 2 19 1 20
REMARK H PARENT
REMARK Flexibility Score: inf
ROOT
ATOM      1  C   UNL     1      41.579 -49.193 163.747  1.00  0.00     0.000 C 
ENDROOT
BRANCH   1   2
ATOM      2  C   UNL     1      40.239 -49.821 163.304  1.00  0.00     0.000 C 
BRANCH   2   3
ATOM      3  C   UNL     1      39.389 -48.851 162.465  1.00  0.00     0.000 C 
BRANCH   3   4
ATOM      4  C   UNL     1      37.878 -49.148 162.587  1.00  0.00     0.000 C 
BRANCH   4   5
ATOM      5  C   UNL     1      37.091 -48.887 161.292  1.00  0.00     0.000 C 
BRANCH   5   6
ATOM      6  C   UNL     1      35.915 -49.854 161.103  1.00  0.00     0.000 C 
BRANCH   6   7
ATOM      7  C   UNL     1      35.694 -50.707 162.358  1.00  0.00     0.006 C 
BRANCH   7   8
ATOM      8  C   UNL     1      35.678 -52.198 162.009  1.00  0.00     0.053 C 
BRANCH   8   9
ATOM      9  C   UNL     1      35.799 -53.030 163.247  1.00  0.00     0.041 C 
ATOM     10  O   UNL     1      35.622 -52.509 164.379  1.00  0.00    -0.550 OA
ATOM     11  O   UNL     1      36.065 -54.390 163.148  1.00  0.00    -0.550 OA
ENDBRANCH   8   9
ENDBRANCH   7   8
ENDBRANCH   6   7
ENDBRANCH   5   6
ENDBRANCH   4   5
ENDBRANCH   3   4
ENDBRANCH   2   3
ENDBRANCH   1   2
BRANCH   1  12
ATOM     12  C   UNL     1      41.561 -48.652 165.186  1.00  0.00     0.000 C 
BRANCH  12  13
ATOM     13  C   UNL     1      42.950 -48.204 165.667  1.00  0.00    -0.000 C 
BRANCH  13  14
ATOM     14  C   UNL     1      44.087 -49.039 165.058  1.00  0.00    -0.000 C 
BRANCH  14  15
ATOM     15  C   UNL     1      45.197 -48.175 164.441  1.00  0.00    -0.000 C 
BRANCH  15  16
ATOM     16  C   UNL     1      44.714 -46.738 164.212  1.00  0.00    -0.000 C 
BRANCH  16  17
ATOM     17  C   UNL     1      44.257 -46.535 162.759  1.00  0.00    -0.000 C 
BRANCH  17  18
ATOM     18  C   UNL     1      44.986 -47.481 161.781  1.00  0.00    -0.000 C 
BRANCH  18  19
ATOM     19  C   UNL     1      44.073 -48.049 160.682  1.00  0.00    -0.003 C 
ATOM     20  C   UNL     1      42.606 -47.665 160.865  1.00  0.00     0.004 C 
ENDBRANCH  18  19
ENDBRANCH  17  18
ENDBRANCH  16  17
ENDBRANCH  15  16
ENDBRANCH  14  15
ENDBRANCH  13  14
ENDBRANCH  12  13
ENDBRANCH   1  12
TORSDOF 16
ENDMDL
MODEL 8
REMARK VINA RESULT:    -5.667      7.813     11.149
REMARK INTER + INTRA:         -12.631
REMARK INTER:                 -11.158
REMARK INTRA:                  -1.473
REMARK UNBOUND:                -1.664
REMARK SMILES CCCCCCCCCCCCCCCCCC(=O)[O-]
REMARK SMILES IDX 10 1 11 2 12 3 13 4 14 5 15 6 16 7 17 8 18 9 19 10 20 11
REMARK SMILES IDX 9 12 8 13 7 14 6 15 5 16 4 17 3 18 2 19 1 20
REMARK H PARENT
REMARK Flexibility Score: inf
ROOT
ATOM      1  C   UNL     1      50.190 -47.495 165.153  1.00  0.00     0.000 C 
ENDROOT
BRANCH   1   2
ATOM      2  C   UNL     1      49.608 -46.139 164.698  1.00  0.00     0.000 C 
BRANCH   2   3
ATOM      3  C   UNL     1      48.110 -46.232 164.352  1.00  0.00     0.000 C 
BRANCH   3   4
ATOM      4  C   UNL     1      47.213 -45.858 165.552  1.00  0.00     0.000 C 
BRANCH   4   5
ATOM      5  C   UNL     1      45.710 -46.017 165.271  1.00  0.00     0.000 C 
BRANCH   5   6
ATOM      6  C   UNL     1      45.384 -46.065 163.773  1.00  0.00     0.000 C 
BRANCH   6   7
ATOM      7  C   UNL     1      44.592 -47.329 163.419  1.00  0.00     0.006 C 
BRANCH   7   8
ATOM      8  C   UNL     1      45.374 -48.208 162.439  1.00  0.00     0.053 C 
BRANCH   8   9
ATOM      9  C   UNL     1      46.220 -49.196 163.179  1.00  0.00     0.041 C 
ATOM     10  O   UNL     1      45.971 -49.468 164.382  1.00  0.00    -0.550 OA
ATOM     11  O   UNL     1      47.258 -49.849 162.526  1.00  0.00    -0.550 OA
ENDBRANCH   8   9
ENDBRANCH   7   8
ENDBRANCH   6   7
ENDBRANCH   5   6
ENDBRANCH   4   5
ENDBRANCH   3   4
ENDBRANCH   2   3
ENDBRANCH   1   2
BRANCH   1  12
ATOM     12  C   UNL     1      51.569 -47.381 165.823  1.00  0.00     0.000 C 
BRANCH  12  13
ATOM     13  C   UNL     1      52.177 -45.976 165.692  1.00  0.00    -0.000 C 
BRANCH  13  14
ATOM     14  C   UNL     1      53.681 -45.949 166.007  1.00  0.00    -0.000 C 
BRANCH  14  15
ATOM     15  C   UNL     1      54.022 -45.059 167.212  1.00  0.00    -0.000 C 
BRANCH  15  16
ATOM     16  C   UNL     1      54.355 -45.907 168.446  1.00  0.00    -0.000 C 
BRANCH  16  17
ATOM     17  C   UNL     1      54.877 -47.293 168.038  1.00  0.00    -0.000 C 
BRANCH  17  18
ATOM     18  C   UNL     1      54.610 -48.359 169.123  1.00  0.00    -0.000 C 
BRANCH  18  19
ATOM     19  C   UNL     1      54.218 -49.732 168.551  1.00  0.00    -0.003 C 
ATOM     20  C   UNL     1      54.045 -49.720 167.033  1.00  0.00     0.004 C 
ENDBRANCH  18  19
ENDBRANCH  17  18
ENDBRANCH  16  17
ENDBRANCH  15  16
ENDBRANCH  14  15
ENDBRANCH  13  14
ENDBRANCH  12  13
ENDBRANCH   1  12
TORSDOF 16
ENDMDL
MODEL 9
REMARK VINA RESULT:    -5.660      7.318     10.531
REMARK INTER + INTRA:         -12.618
REMARK INTER:                 -11.075
REMARK INTRA:                  -1.544
REMARK UNBOUND:                -1.664
REMARK SMILES CCCCCCCCCCCCCCCCCC(=O)[O-]
REMARK SMILES IDX 10 1 11 2 12 3 13 4 14 5 15 6 16 7 17 8 18 9 19 10 20 11
REMARK SMILES IDX 9 12 8 13 7 14 6 15 5 16 4 17 3 18 2 19 1 20
REMARK H PARENT
REMARK Flexibility Score: inf
ROOT
ATOM      1  C   UNL     1      50.181 -46.578 165.119  1.00  0.00     0.000 C 
ENDROOT
BRANCH   1   2
ATOM      2  C   UNL     1      49.547 -47.986 165.117  1.00  0.00     0.000 C 
BRANCH   2   3
ATOM      3  C   UNL     1      48.074 -47.962 164.669  1.00  0.00     0.000 C 
BRANCH   3   4
ATOM      4  C   UNL     1      47.467 -46.544 164.747  1.00  0.00     0.000 C 
BRANCH   4   5
ATOM      5  C   UNL     1      45.929 -46.532 164.774  1.00  0.00     0.000 C 
BRANCH   5   6
ATOM      6  C   UNL     1      45.307 -46.575 163.372  1.00  0.00     0.000 C 
BRANCH   6   7
ATOM      7  C   UNL     1      44.804 -47.983 163.033  1.00  0.00     0.006 C 
BRANCH   7   8
ATOM      8  C   UNL     1      44.272 -48.690 164.283  1.00  0.00     0.053 C 
BRANCH   8   9
ATOM      9  C   UNL     1      42.815 -48.403 164.470  1.00  0.00     0.041 C 
ATOM     10  O   UNL     1      42.362 -48.152 165.617  1.00  0.00    -0.550 OA
ATOM     11  O   UNL     1      41.966 -48.370 163.371  1.00  0.00    -0.550 OA
ENDBRANCH   8   9
ENDBRANCH   7   8
ENDBRANCH   6   7
ENDBRANCH   5   6
ENDBRANCH   4   5
ENDBRANCH   3   4
ENDBRANCH   2   3
ENDBRANCH   1   2
BRANCH   1  12
ATOM     12  C   UNL     1      51.661 -46.569 165.536  1.00  0.00     0.000 C 
BRANCH  12  13
ATOM     13  C   UNL     1      52.198 -47.975 165.847  1.00  0.00    -0.000 C 
BRANCH  13  14
ATOM     14  C   UNL     1      53.731 -48.018 165.936  1.00  0.00    -0.000 C 
BRANCH  14  15
ATOM     15  C   UNL     1      54.242 -48.103 167.383  1.00  0.00    -0.000 C 
BRANCH  15  16
ATOM     16  C   UNL     1      55.108 -46.886 167.733  1.00  0.00    -0.000 C 
BRANCH  16  17
ATOM     17  C   UNL     1      54.265 -45.779 168.384  1.00  0.00    -0.000 C 
BRANCH  17  18
ATOM     18  C   UNL     1      54.376 -44.439 167.625  1.00  0.00    -0.000 C 
BRANCH  18  19
ATOM     19  C   UNL     1      54.838 -44.596 166.167  1.00  0.00    -0.003 C 
ATOM     20  C   UNL     1      54.019 -43.757 165.187  1.00  0.00     0.004 C 
ENDBRANCH  18  19
ENDBRANCH  17  18
ENDBRANCH  16  17
ENDBRANCH  15  16
ENDBRANCH  14  15
ENDBRANCH  13  14
ENDBRANCH  12  13
ENDBRANCH   1  12
TORSDOF 16
ENDMDL
