MODEL 1
REMARK VINA RESULT:    -6.031      0.000      0.000
REMARK INTER + INTRA:          -6.935
REMARK INTER:                  -6.736
REMARK INTRA:                  -0.199
REMARK UNBOUND:                -0.199
REMARK SMILES CC(C)c1ccc(C(=O)[O-])cc1
REMARK SMILES IDX 7 1 6 2 11 3 5 4 12 5 4 6 8 7 9 8 10 9 2 10 1 11 3 12
REMARK H PARENT
REMARK Flexibility Score: inf
ROOT
ATOM      1  C   UNL     1       9.183  23.221  -8.964  1.00  0.00    -0.003 A 
ATOM      2  C   UNL     1       8.247  24.179  -8.537  1.00  0.00     0.010 A 
ATOM      3  C   UNL     1       8.760  22.190  -9.820  1.00  0.00     0.010 A 
ATOM      4  C   UNL     1       6.916  24.107  -8.958  1.00  0.00     0.004 A 
ATOM      5  C   UNL     1       7.429  22.118 -10.240  1.00  0.00     0.004 A 
ATOM      6  C   UNL     1       6.492  23.075  -9.815  1.00  0.00    -0.045 A 
ENDROOT
BRANCH   1   7
ATOM      7  C   UNL     1      10.591  23.301  -8.515  1.00  0.00     0.071 C 
ATOM      8  O   UNL     1      11.400  24.084  -9.082  1.00  0.00    -0.545 OA
ATOM      9  O   UNL     1      11.041  22.513  -7.463  1.00  0.00    -0.545 OA
ENDBRANCH   1   7
BRANCH   6  10
ATOM     10  C   UNL     1       5.050  22.985 -10.279  1.00  0.00     0.013 C 
ATOM     11  C   UNL     1       4.615  24.275 -10.986  1.00  0.00     0.012 C 
ATOM     12  C   UNL     1       4.113  22.653  -9.113  1.00  0.00     0.012 C 
ENDBRANCH   6  10
TORSDOF 2
ENDMDL
MODEL 2
REMARK VINA RESULT:    -6.016      0.054      1.399
REMARK INTER + INTRA:          -6.918
REMARK INTER:                  -6.717
REMARK INTRA:                  -0.201
REMARK UNBOUND:                -0.199
REMARK SMILES CC(C)c1ccc(C(=O)[O-])cc1
REMARK SMILES IDX 7 1 6 2 11 3 5 4 12 5 4 6 8 7 9 8 10 9 2 10 1 11 3 12
REMARK H PARENT
REMARK Flexibility Score: inf
ROOT
ATOM      1  C   UNL     1       9.202  23.182  -8.953  1.00  0.00    -0.003 A 
ATOM      2  C   UNL     1       8.791  22.144  -9.805  1.00  0.00     0.010 A 
ATOM      3  C   UNL     1       8.258  24.136  -8.536  1.00  0.00     0.010 A 
ATOM      4  C   UNL     1       7.462  22.059 -10.230  1.00  0.00     0.004 A 
ATOM      5  C   UNL     1       6.929  24.052  -8.961  1.00  0.00     0.004 A 
ATOM      6  C   UNL     1       6.516  23.013  -9.812  1.00  0.00    -0.045 A 
ENDROOT
BRANCH   1   7
ATOM      7  C   UNL     1      10.610  23.268  -8.506  1.00  0.00     0.071 C 
ATOM      8  O   UNL     1      11.423  24.032  -9.092  1.00  0.00    -0.545 OA
ATOM      9  O   UNL     1      11.056  22.506  -7.432  1.00  0.00    -0.545 OA
ENDBRANCH   1   7
BRANCH   6  10
ATOM     10  C   UNL     1       5.070  22.933 -10.266  1.00  0.00     0.013 C 
ATOM     11  C   UNL     1       4.640  24.224 -10.974  1.00  0.00     0.012 C 
ATOM     12  C   UNL     1       4.138  22.612  -9.092  1.00  0.00     0.012 C 
ENDBRANCH   6  10
TORSDOF 2
ENDMDL
MODEL 3
REMARK VINA RESULT:    -5.976      2.018      3.107
REMARK INTER + INTRA:          -6.874
REMARK INTER:                  -6.664
REMARK INTRA:                  -0.210
REMARK UNBOUND:                -0.199
REMARK SMILES CC(C)c1ccc(C(=O)[O-])cc1
REMARK SMILES IDX 7 1 6 2 11 3 5 4 12 5 4 6 8 7 9 8 10 9 2 10 1 11 3 12
REMARK H PARENT
REMARK Flexibility Score: inf
ROOT
ATOM      1  C   UNL     1      10.690  21.565  -8.133  1.00  0.00    -0.003 A 
ATOM      2  C   UNL     1      10.010  21.813  -6.928  1.00  0.00     0.010 A 
ATOM      3  C   UNL     1      10.211  22.150  -9.317  1.00  0.00     0.010 A 
ATOM      4  C   UNL     1       8.876  22.629  -6.909  1.00  0.00     0.004 A 
ATOM      5  C   UNL     1       9.077  22.966  -9.298  1.00  0.00     0.004 A 
ATOM      6  C   UNL     1       8.397  23.215  -8.094  1.00  0.00    -0.045 A 
ENDROOT
BRANCH   1   7
ATOM      7  C   UNL     1      11.891  20.700  -8.149  1.00  0.00     0.071 C 
ATOM      8  O   UNL     1      11.776  19.446  -8.193  1.00  0.00    -0.545 OA
ATOM      9  O   UNL     1      13.162  21.259  -8.115  1.00  0.00    -0.545 OA
ENDBRANCH   1   7
BRANCH   6  10
ATOM     10  C   UNL     1       7.166  24.103  -8.087  1.00  0.00     0.013 C 
ATOM     11  C   UNL     1       6.530  24.156  -6.693  1.00  0.00     0.012 C 
ATOM     12  C   UNL     1       6.149  23.648  -9.140  1.00  0.00     0.012 C 
ENDBRANCH   6  10
TORSDOF 2
ENDMDL
MODEL 4
REMARK VINA RESULT:    -5.964      1.983      3.226
REMARK INTER + INTRA:          -6.860
REMARK INTER:                  -6.650
REMARK INTRA:                  -0.210
REMARK UNBOUND:                -0.199
REMARK SMILES CC(C)c1ccc(C(=O)[O-])cc1
REMARK SMILES IDX 7 1 6 2 11 3 5 4 12 5 4 6 8 7 9 8 10 9 2 10 1 11 3 12
REMARK H PARENT
REMARK Flexibility Score: inf
ROOT
ATOM      1  C   UNL     1      10.721  21.595  -8.176  1.00  0.00    -0.003 A 
ATOM      2  C   UNL     1      10.278  22.188  -9.370  1.00  0.00     0.010 A 
ATOM      3  C   UNL     1      10.015  21.847  -6.988  1.00  0.00     0.010 A 
ATOM      4  C   UNL     1       9.152  23.017  -9.376  1.00  0.00     0.004 A 
ATOM      5  C   UNL     1       8.889  22.675  -6.993  1.00  0.00     0.004 A 
ATOM      6  C   UNL     1       8.445  23.269  -8.186  1.00  0.00    -0.045 A 
ENDROOT
BRANCH   1   7
ATOM      7  C   UNL     1      11.914  20.719  -8.175  1.00  0.00     0.071 C 
ATOM      8  O   UNL     1      11.788  19.466  -8.231  1.00  0.00    -0.545 OA
ATOM      9  O   UNL     1      13.189  21.266  -8.112  1.00  0.00    -0.545 OA
ENDBRANCH   1   7
BRANCH   6  10
ATOM     10  C   UNL     1       7.221  24.166  -8.179  1.00  0.00     0.013 C 
ATOM     11  C   UNL     1       6.582  24.218  -6.786  1.00  0.00     0.012 C 
ATOM     12  C   UNL     1       6.203  23.722  -9.236  1.00  0.00     0.012 C 
ENDBRANCH   6  10
TORSDOF 2
ENDMDL
MODEL 5
REMARK VINA RESULT:    -5.845      3.269      5.035
REMARK INTER + INTRA:          -6.727
REMARK INTER:                  -6.517
REMARK INTRA:                  -0.211
REMARK UNBOUND:                -0.199
REMARK SMILES CC(C)c1ccc(C(=O)[O-])cc1
REMARK SMILES IDX 7 1 6 2 11 3 5 4 12 5 4 6 8 7 9 8 10 9 2 10 1 11 3 12
REMARK H PARENT
REMARK Flexibility Score: inf
ROOT
ATOM      1  C   UNL     1       7.258  23.639  -6.897  1.00  0.00    -0.003 A 
ATOM      2  C   UNL     1       7.291  23.952  -8.266  1.00  0.00     0.010 A 
ATOM      3  C   UNL     1       8.296  22.867  -6.349  1.00  0.00     0.010 A 
ATOM      4  C   UNL     1       8.342  23.502  -9.071  1.00  0.00     0.004 A 
ATOM      5  C   UNL     1       9.347  22.417  -7.153  1.00  0.00     0.004 A 
ATOM      6  C   UNL     1       9.382  22.729  -8.523  1.00  0.00    -0.045 A 
ENDROOT
BRANCH   1   7
ATOM      7  C   UNL     1       6.143  24.117  -6.048  1.00  0.00     0.071 C 
ATOM      8  O   UNL     1       5.073  23.458  -5.966  1.00  0.00    -0.545 OA
ATOM      9  O   UNL     1       6.262  25.301  -5.330  1.00  0.00    -0.545 OA
ENDBRANCH   1   7
BRANCH   6  10
ATOM     10  C   UNL     1      10.528  22.235  -9.385  1.00  0.00     0.013 C 
ATOM     11  C   UNL     1      11.600  21.541  -8.536  1.00  0.00     0.012 C 
ATOM     12  C   UNL     1      11.132  23.377 -10.210  1.00  0.00     0.012 C 
ENDBRANCH   6  10
TORSDOF 2
ENDMDL
MODEL 6
REMARK VINA RESULT:    -5.793      3.398      5.353
REMARK INTER + INTRA:          -6.669
REMARK INTER:                  -6.470
REMARK INTRA:                  -0.199
REMARK UNBOUND:                -0.199
REMARK SMILES CC(C)c1ccc(C(=O)[O-])cc1
REMARK SMILES IDX 7 1 6 2 11 3 5 4 12 5 4 6 8 7 9 8 10 9 2 10 1 11 3 12
REMARK H PARENT
REMARK Flexibility Score: inf
ROOT
ATOM      1  C   UNL     1       7.585  23.427  -6.653  1.00  0.00    -0.003 A 
ATOM      2  C   UNL     1       8.370  22.600  -5.832  1.00  0.00     0.010 A 
ATOM      3  C   UNL     1       7.925  23.560  -8.010  1.00  0.00     0.010 A 
ATOM      4  C   UNL     1       9.472  21.919  -6.358  1.00  0.00     0.004 A 
ATOM      5  C   UNL     1       9.026  22.879  -8.536  1.00  0.00     0.004 A 
ATOM      6  C   UNL     1       9.812  22.051  -7.717  1.00  0.00    -0.045 A 
ENDROOT
BRANCH   1   7
ATOM      7  C   UNL     1       6.420  24.146  -6.091  1.00  0.00     0.071 C 
ATOM      8  O   UNL     1       6.539  25.328  -5.671  1.00  0.00    -0.545 OA
ATOM      9  O   UNL     1       5.178  23.527  -6.021  1.00  0.00    -0.545 OA
ENDBRANCH   1   7
BRANCH   6  10
ATOM     10  C   UNL     1      11.005  21.317  -8.301  1.00  0.00     0.013 C 
ATOM     11  C   UNL     1      10.996  19.838  -7.898  1.00  0.00     0.012 C 
ATOM     12  C   UNL     1      12.321  21.991  -7.895  1.00  0.00     0.012 C 
ENDBRANCH   6  10
TORSDOF 2
ENDMDL
MODEL 7
REMARK VINA RESULT:    -5.787      3.094      4.934
REMARK INTER + INTRA:          -6.662
REMARK INTER:                  -6.461
REMARK INTRA:                  -0.201
REMARK UNBOUND:                -0.199
REMARK SMILES CC(C)c1ccc(C(=O)[O-])cc1
REMARK SMILES IDX 7 1 6 2 11 3 5 4 12 5 4 6 8 7 9 8 10 9 2 10 1 11 3 12
REMARK H PARENT
REMARK Flexibility Score: inf
ROOT
ATOM      1  C   UNL     1       6.198  23.225  -9.540  1.00  0.00    -0.003 A 
ATOM      2  C   UNL     1       6.796  24.019  -8.548  1.00  0.00     0.010 A 
ATOM      3  C   UNL     1       7.009  22.385 -10.321  1.00  0.00     0.010 A 
ATOM      4  C   UNL     1       8.178  23.973  -8.340  1.00  0.00     0.004 A 
ATOM      5  C   UNL     1       8.391  22.338 -10.113  1.00  0.00     0.004 A 
ATOM      6  C   UNL     1       8.990  23.131  -9.121  1.00  0.00    -0.045 A 
ENDROOT
BRANCH   1   7
ATOM      7  C   UNL     1       4.735  23.278  -9.757  1.00  0.00     0.071 C 
ATOM      8  O   UNL     1       4.248  24.003 -10.665  1.00  0.00    -0.545 OA
ATOM      9  O   UNL     1       3.877  22.527  -8.962  1.00  0.00    -0.545 OA
ENDBRANCH   1   7
BRANCH   6  10
ATOM     10  C   UNL     1      10.491  23.071  -8.905  1.00  0.00     0.013 C 
ATOM     11  C   UNL     1      11.248  23.559 -10.147  1.00  0.00     0.012 C 
ATOM     12  C   UNL     1      10.937  21.660  -8.506  1.00  0.00     0.012 C 
ENDBRANCH   6  10
TORSDOF 2
ENDMDL
MODEL 8
REMARK VINA RESULT:    -5.781      2.243      3.419
REMARK INTER + INTRA:          -6.656
REMARK INTER:                  -6.450
REMARK INTRA:                  -0.206
REMARK UNBOUND:                -0.199
REMARK SMILES CC(C)c1ccc(C(=O)[O-])cc1
REMARK SMILES IDX 7 1 6 2 11 3 5 4 12 5 4 6 8 7 9 8 10 9 2 10 1 11 3 12
REMARK H PARENT
REMARK Flexibility Score: inf
ROOT
ATOM      1  C   UNL     1      11.869  22.551  -7.438  1.00  0.00    -0.003 A 
ATOM      2  C   UNL     1      10.812  21.972  -6.717  1.00  0.00     0.010 A 
ATOM      3  C   UNL     1      11.577  23.316  -8.580  1.00  0.00     0.010 A 
ATOM      4  C   UNL     1       9.489  22.155  -7.129  1.00  0.00     0.004 A 
ATOM      5  C   UNL     1      10.254  23.499  -8.992  1.00  0.00     0.004 A 
ATOM      6  C   UNL     1       9.195  22.922  -8.272  1.00  0.00    -0.045 A 
ENDROOT
BRANCH   1   7
ATOM      7  C   UNL     1      13.269  22.354  -6.998  1.00  0.00     0.071 C 
ATOM      8  O   UNL     1      14.177  22.120  -7.840  1.00  0.00    -0.545 OA
ATOM      9  O   UNL     1      13.600  22.425  -5.651  1.00  0.00    -0.545 OA
ENDBRANCH   1   7
BRANCH   6  10
ATOM     10  C   UNL     1       7.763  23.128  -8.730  1.00  0.00     0.013 C 
ATOM     11  C   UNL     1       7.552  22.585 -10.148  1.00  0.00     0.012 C 
ATOM     12  C   UNL     1       7.361  24.605  -8.639  1.00  0.00     0.012 C 
ENDBRANCH   6  10
TORSDOF 2
ENDMDL
MODEL 9
REMARK VINA RESULT:    -5.762      2.283      3.587
REMARK INTER + INTRA:          -6.635
REMARK INTER:                  -6.430
REMARK INTRA:                  -0.204
REMARK UNBOUND:                -0.199
REMARK SMILES CC(C)c1ccc(C(=O)[O-])cc1
REMARK SMILES IDX 7 1 6 2 11 3 5 4 12 5 4 6 8 7 9 8 10 9 2 10 1 11 3 12
REMARK H PARENT
REMARK Flexibility Score: inf
ROOT
ATOM      1  C   UNL     1      11.938  22.530  -7.377  1.00  0.00    -0.003 A 
ATOM      2  C   UNL     1      11.670  23.273  -8.539  1.00  0.00     0.010 A 
ATOM      3  C   UNL     1      10.863  21.990  -6.650  1.00  0.00     0.010 A 
ATOM      4  C   UNL     1      10.354  23.471  -8.966  1.00  0.00     0.004 A 
ATOM      5  C   UNL     1       9.547  22.189  -7.078  1.00  0.00     0.004 A 
ATOM      6  C   UNL     1       9.277  22.930  -8.240  1.00  0.00    -0.045 A 
ENDROOT
BRANCH   1   7
ATOM      7  C   UNL     1      13.333  22.323  -6.928  1.00  0.00     0.071 C 
ATOM      8  O   UNL     1      13.620  22.346  -5.701  1.00  0.00    -0.545 OA
ATOM      9  O   UNL     1      14.345  22.100  -7.854  1.00  0.00    -0.545 OA
ENDBRANCH   1   7
BRANCH   6  10
ATOM     10  C   UNL     1       7.844  23.138  -8.692  1.00  0.00     0.013 C 
ATOM     11  C   UNL     1       7.627  22.595 -10.110  1.00  0.00     0.012 C 
ATOM     12  C   UNL     1       7.443  24.615  -8.601  1.00  0.00     0.012 C 
ENDBRANCH   6  10
TORSDOF 2
ENDMDL
