MODEL 1
REMARK VINA RESULT:     2.384      0.000      0.000
REMARK INTER + INTRA:           2.160
REMARK INTER:                   3.638
REMARK INTRA:                  -1.478
REMARK UNBOUND:                -1.478
REMARK SMILES OC[C@@H]1O[C@H](O[C@]2(CO)O[C@H](CO)[C@@H](O)[C@H]2O)[C@@H](O)[C@H](O)[C@@H]1O
REMARK SMILES IDX 6 1 5 2 3 3 22 4 4 5 20 6 18 7 2 8 1 9 23 11 21 13 19 15
REMARK SMILES IDX 7 17 16 18 10 19 14 20 11 21 8 22 9 23 17 25 15 27 12 29
REMARK SMILES IDX 13 30
REMARK H PARENT 1 10 23 12 21 14 19 16 9 24 17 26 15 28 13 31
REMARK Flexibility Score: inf
ROOT
ATOM      1  O   UNL     1     101.184  51.995  50.056  1.00  0.00    -0.313 OA
ENDROOT
BRANCH   1   2
ATOM      2  C   UNL     1     100.160  52.728  50.709  1.00  0.00     0.285 C 
ATOM      3  C   UNL     1      98.391  52.435  52.231  1.00  0.00     0.178 C 
ATOM      4  C   UNL     1      98.562  53.934  52.638  1.00  0.00     0.177 C 
ATOM      5  O   UNL     1      99.581  51.875  51.687  1.00  0.00    -0.341 OA
ATOM      6  C   UNL     1     100.059  54.306  52.739  1.00  0.00     0.179 C 
ATOM      7  C   UNL     1     100.776  53.976  51.405  1.00  0.00     0.202 C 
BRANCH   3   8
ATOM      8  C   UNL     1      97.894  51.520  53.369  1.00  0.00     0.191 C 
BRANCH   8   9
ATOM      9  O   UNL     1      98.975  50.990  54.092  1.00  0.00    -0.394 OA
ATOM     10  H   UNL     1      98.636  50.738  54.987  1.00  0.00     0.210 HD
ENDBRANCH   8   9
ENDBRANCH   3   8
BRANCH   4  11
ATOM     11  O   UNL     1      97.893  54.276  53.828  1.00  0.00    -0.387 OA
ATOM     12  H   UNL     1      98.579  54.250  54.555  1.00  0.00     0.211 HD
ENDBRANCH   4  11
BRANCH   6  13
ATOM     13  O   UNL     1     100.675  53.579  53.773  1.00  0.00    -0.387 OA
ATOM     14  H   UNL     1     101.035  54.233  54.428  1.00  0.00     0.211 HD
ENDBRANCH   6  13
BRANCH   7  15
ATOM     15  O   UNL     1     100.765  55.084  50.533  1.00  0.00    -0.385 OA
ATOM     16  H   UNL     1     100.901  55.903  51.073  1.00  0.00     0.211 HD
ENDBRANCH   7  15
ENDBRANCH   1   2
BRANCH   1  17
ATOM     17  C   UNL     1     101.222  52.065  48.621  1.00  0.00     0.224 C 
ATOM     18  C   UNL     1     102.405  52.975  48.235  1.00  0.00     0.208 C 
ATOM     19  O   UNL     1     101.407  50.803  47.989  1.00  0.00    -0.337 OA
ATOM     20  C   UNL     1     102.977  52.335  46.987  1.00  0.00     0.180 C 
ATOM     21  C   UNL     1     102.519  50.876  47.114  1.00  0.00     0.179 C 
BRANCH  17  22
ATOM     22  C   UNL     1      99.862  52.639  48.142  1.00  0.00     0.225 C 
BRANCH  22  23
ATOM     23  O   UNL     1      99.751  52.543  46.747  1.00  0.00    -0.391 OA
ATOM     24  H   UNL     1      99.246  51.709  46.531  1.00  0.00     0.210 HD
ENDBRANCH  22  23
ENDBRANCH  17  22
BRANCH  18  25
ATOM     25  O   UNL     1     102.027  54.314  48.031  1.00  0.00    -0.385 OA
ATOM     26  H   UNL     1     101.034  54.322  48.003  1.00  0.00     0.211 HD
ENDBRANCH  18  25
BRANCH  20  27
ATOM     27  O   UNL     1     102.491  52.963  45.817  1.00  0.00    -0.387 OA
ATOM     28  H   UNL     1     101.608  53.372  46.000  1.00  0.00     0.211 HD
ENDBRANCH  20  27
BRANCH  21  29
ATOM     29  C   UNL     1     103.653  49.956  47.629  1.00  0.00     0.191 C 
BRANCH  29  30
ATOM     30  O   UNL     1     103.158  48.880  48.395  1.00  0.00    -0.394 OA
ATOM     31  H   UNL     1     103.467  49.015  49.332  1.00  0.00     0.210 HD
ENDBRANCH  29  30
ENDBRANCH  21  29
ENDBRANCH   1  17
TORSDOF 13
ENDMDL
MODEL 2
REMARK VINA RESULT:     3.047      1.543      6.130
REMARK INTER + INTRA:           3.172
REMARK INTER:                   4.176
REMARK INTRA:                  -1.004
REMARK UNBOUND:                -1.478
REMARK SMILES OC[C@@H]1O[C@H](O[C@]2(CO)O[C@H](CO)[C@@H](O)[C@H]2O)[C@@H](O)[C@H](O)[C@@H]1O
REMARK SMILES IDX 6 1 5 2 3 3 22 4 4 5 20 6 18 7 2 8 1 9 23 11 21 13 19 15
REMARK SMILES IDX 7 17 16 18 10 19 14 20 11 21 8 22 9 23 17 25 15 27 12 29
REMARK SMILES IDX 13 30
REMARK H PARENT 1 10 23 12 21 14 19 16 9 24 17 26 15 28 13 31
REMARK Flexibility Score: inf
ROOT
ATOM      1  O   UNL     1      99.250  53.422  51.071  1.00  0.00    -0.313 OA
ENDROOT
BRANCH   1   2
ATOM      2  C   UNL     1     100.460  53.106  50.399  1.00  0.00     0.285 C 
ATOM      3  C   UNL     1     101.248  51.987  48.486  1.00  0.00     0.178 C 
ATOM      4  C   UNL     1     102.493  52.933  48.511  1.00  0.00     0.177 C 
ATOM      5  O   UNL     1     100.116  52.554  49.136  1.00  0.00    -0.341 OA
ATOM      6  C   UNL     1     102.072  54.381  48.852  1.00  0.00     0.179 C 
ATOM      7  C   UNL     1     101.295  54.403  50.191  1.00  0.00     0.202 C 
BRANCH   3   8
ATOM      8  C   UNL     1     100.826  51.528  47.076  1.00  0.00     0.191 C 
BRANCH   8   9
ATOM      9  O   UNL     1     101.537  50.380  46.691  1.00  0.00    -0.394 OA
ATOM     10  H   UNL     1     101.008  49.927  45.988  1.00  0.00     0.210 HD
ENDBRANCH   8   9
ENDBRANCH   3   8
BRANCH   4  11
ATOM     11  O   UNL     1     103.242  52.910  47.319  1.00  0.00    -0.387 OA
ATOM     12  H   UNL     1     104.102  52.448  47.535  1.00  0.00     0.211 HD
ENDBRANCH   4  11
BRANCH   6  13
ATOM     13  O   UNL     1     101.244  54.900  47.841  1.00  0.00    -0.387 OA
ATOM     14  H   UNL     1     101.352  55.888  47.841  1.00  0.00     0.211 HD
ENDBRANCH   6  13
BRANCH   7  15
ATOM     15  O   UNL     1     102.164  54.611  51.282  1.00  0.00    -0.385 OA
ATOM     16  H   UNL     1     102.354  53.731  51.697  1.00  0.00     0.211 HD
ENDBRANCH   7  15
ENDBRANCH   1   2
BRANCH   1  17
ATOM     17  C   UNL     1      99.131  52.989  52.436  1.00  0.00     0.224 C 
ATOM     18  C   UNL     1      97.636  52.729  52.707  1.00  0.00     0.208 C 
ATOM     19  O   UNL     1      99.849  51.794  52.722  1.00  0.00    -0.337 OA
ATOM     20  C   UNL     1      97.626  51.517  53.616  1.00  0.00     0.180 C 
ATOM     21  C   UNL     1      98.968  50.845  53.298  1.00  0.00     0.179 C 
BRANCH  17  22
ATOM     22  C   UNL     1      99.704  54.113  53.339  1.00  0.00     0.225 C 
BRANCH  22  23
ATOM     23  O   UNL     1     101.024  53.820  53.710  1.00  0.00    -0.391 OA
ATOM     24  H   UNL     1     101.482  53.397  52.929  1.00  0.00     0.210 HD
ENDBRANCH  22  23
ENDBRANCH  17  22
BRANCH  18  25
ATOM     25  O   UNL     1      96.979  53.836  53.275  1.00  0.00    -0.385 OA
ATOM     26  H   UNL     1      96.197  54.025  52.692  1.00  0.00     0.211 HD
ENDBRANCH  18  25
BRANCH  20  27
ATOM     27  O   UNL     1      97.509  51.893  54.974  1.00  0.00    -0.387 OA
ATOM     28  H   UNL     1      98.379  52.230  55.304  1.00  0.00     0.211 HD
ENDBRANCH  20  27
BRANCH  21  29
ATOM     29  C   UNL     1      98.798  49.639  52.343  1.00  0.00     0.191 C 
BRANCH  29  30
ATOM     30  O   UNL     1      97.825  48.728  52.805  1.00  0.00    -0.394 OA
ATOM     31  H   UNL     1      96.932  49.140  52.645  1.00  0.00     0.210 HD
ENDBRANCH  29  30
ENDBRANCH  21  29
ENDBRANCH   1  17
TORSDOF 13
ENDMDL
MODEL 3
REMARK VINA RESULT:     3.269      1.232      2.082
REMARK INTER + INTRA:           3.511
REMARK INTER:                   2.971
REMARK INTRA:                   0.540
REMARK UNBOUND:                -1.478
REMARK SMILES OC[C@@H]1O[C@H](O[C@]2(CO)O[C@H](CO)[C@@H](O)[C@H]2O)[C@@H](O)[C@H](O)[C@@H]1O
REMARK SMILES IDX 6 1 5 2 3 3 22 4 4 5 20 6 18 7 2 8 1 9 23 11 21 13 19 15
REMARK SMILES IDX 7 17 16 18 10 19 14 20 11 21 8 22 9 23 17 25 15 27 12 29
REMARK SMILES IDX 13 30
REMARK H PARENT 1 10 23 12 21 14 19 16 9 24 17 26 15 28 13 31
REMARK Flexibility Score: inf
ROOT
ATOM      1  O   UNL     1     101.090  52.164  49.865  1.00  0.00    -0.313 OA
ENDROOT
BRANCH   1   2
ATOM      2  C   UNL     1     100.043  52.727  50.641  1.00  0.00     0.285 C 
ATOM      3  C   UNL     1      98.362  52.106  52.164  1.00  0.00     0.178 C 
ATOM      4  C   UNL     1      98.443  53.549  52.760  1.00  0.00     0.177 C 
ATOM      5  O   UNL     1      99.565  51.713  51.514  1.00  0.00    -0.341 OA
ATOM      6  C   UNL     1      99.913  54.016  52.863  1.00  0.00     0.179 C 
ATOM      7  C   UNL     1     100.597  53.917  51.477  1.00  0.00     0.202 C 
BRANCH   3   8
ATOM      8  C   UNL     1      97.977  51.017  53.185  1.00  0.00     0.191 C 
BRANCH   8   9
ATOM      9  O   UNL     1      98.981  50.864  54.155  1.00  0.00    -0.394 OA
ATOM     10  H   UNL     1      99.798  51.299  53.803  1.00  0.00     0.210 HD
ENDBRANCH   8   9
ENDBRANCH   3   8
BRANCH   4  11
ATOM     11  O   UNL     1      97.800  53.682  54.005  1.00  0.00    -0.387 OA
ATOM     12  H   UNL     1      98.432  53.320  54.689  1.00  0.00     0.211 HD
ENDBRANCH   4  11
BRANCH   6  13
ATOM     13  O   UNL     1     100.619  53.209  53.773  1.00  0.00    -0.387 OA
ATOM     14  H   UNL     1     100.966  53.800  54.493  1.00  0.00     0.211 HD
ENDBRANCH   6  13
BRANCH   7  15
ATOM     15  O   UNL     1     100.473  55.124  50.759  1.00  0.00    -0.385 OA
ATOM     16  H   UNL     1      99.509  55.348  50.696  1.00  0.00     0.211 HD
ENDBRANCH   7  15
ENDBRANCH   1   2
BRANCH   1  17
ATOM     17  C   UNL     1     101.432  52.840  48.644  1.00  0.00     0.224 C 
ATOM     18  C   UNL     1     102.467  51.967  47.908  1.00  0.00     0.208 C 
ATOM     19  O   UNL     1     100.324  53.046  47.773  1.00  0.00    -0.337 OA
ATOM     20  C   UNL     1     102.110  52.117  46.444  1.00  0.00     0.180 C 
ATOM     21  C   UNL     1     100.628  52.512  46.496  1.00  0.00     0.179 C 
BRANCH  17  22
ATOM     22  C   UNL     1     102.001  54.233  49.021  1.00  0.00     0.225 C 
BRANCH  22  23
ATOM     23  O   UNL     1     102.018  55.078  47.901  1.00  0.00    -0.391 OA
ATOM     24  H   UNL     1     102.452  54.587  47.147  1.00  0.00     0.210 HD
ENDBRANCH  22  23
ENDBRANCH  17  22
BRANCH  18  25
ATOM     25  O   UNL     1     103.796  52.341  48.181  1.00  0.00    -0.385 OA
ATOM     26  H   UNL     1     104.062  51.845  49.000  1.00  0.00     0.211 HD
ENDBRANCH  18  25
BRANCH  20  27
ATOM     27  O   UNL     1     102.916  53.093  45.814  1.00  0.00    -0.387 OA
ATOM     28  H   UNL     1     103.220  53.757  46.483  1.00  0.00     0.211 HD
ENDBRANCH  20  27
BRANCH  21  29
ATOM     29  C   UNL     1      99.698  51.312  46.194  1.00  0.00     0.191 C 
BRANCH  29  30
ATOM     30  O   UNL     1      99.121  51.398  44.909  1.00  0.00    -0.394 OA
ATOM     31  H   UNL     1      98.132  51.410  45.028  1.00  0.00     0.210 HD
ENDBRANCH  29  30
ENDBRANCH  21  29
ENDBRANCH   1  17
TORSDOF 13
ENDMDL
MODEL 4
REMARK VINA RESULT:     3.640      9.389     12.199
REMARK INTER + INTRA:           4.077
REMARK INTER:                   4.768
REMARK INTRA:                  -0.691
REMARK UNBOUND:                -1.478
REMARK SMILES OC[C@@H]1O[C@H](O[C@]2(CO)O[C@H](CO)[C@@H](O)[C@H]2O)[C@@H](O)[C@H](O)[C@@H]1O
REMARK SMILES IDX 6 1 5 2 3 3 22 4 4 5 20 6 18 7 2 8 1 9 23 11 21 13 19 15
REMARK SMILES IDX 7 17 16 18 10 19 14 20 11 21 8 22 9 23 17 25 15 27 12 29
REMARK SMILES IDX 13 30
REMARK H PARENT 1 10 23 12 21 14 19 16 9 24 17 26 15 28 13 31
REMARK Flexibility Score: inf
ROOT
ATOM      1  O   UNL     1      97.091  52.072  39.646  1.00  0.00    -0.313 OA
ENDROOT
BRANCH   1   2
ATOM      2  C   UNL     1      95.924  52.041  38.839  1.00  0.00     0.285 C 
ATOM      3  C   UNL     1      94.001  50.741  38.459  1.00  0.00     0.178 C 
ATOM      4  C   UNL     1      93.282  52.041  37.973  1.00  0.00     0.177 C 
ATOM      5  O   UNL     1      95.085  51.010  39.341  1.00  0.00    -0.341 OA
ATOM      6  C   UNL     1      93.647  53.238  38.880  1.00  0.00     0.179 C 
ATOM      7  C   UNL     1      95.186  53.408  38.937  1.00  0.00     0.202 C 
BRANCH   3   8
ATOM      8  C   UNL     1      93.068  49.710  39.127  1.00  0.00     0.191 C 
BRANCH   8   9
ATOM      9  O   UNL     1      92.482  48.871  38.166  1.00  0.00    -0.394 OA
ATOM     10  H   UNL     1      91.544  48.716  38.443  1.00  0.00     0.210 HD
ENDBRANCH   8   9
ENDBRANCH   3   8
BRANCH   4  11
ATOM     11  O   UNL     1      91.884  51.910  37.877  1.00  0.00    -0.387 OA
ATOM     12  H   UNL     1      91.513  52.188  38.763  1.00  0.00     0.211 HD
ENDBRANCH   4  11
BRANCH   6  13
ATOM     13  O   UNL     1      93.169  53.027  40.185  1.00  0.00    -0.387 OA
ATOM     14  H   UNL     1      93.950  53.036  40.798  1.00  0.00     0.211 HD
ENDBRANCH   6  13
BRANCH   7  15
ATOM     15  O   UNL     1      95.640  54.287  37.932  1.00  0.00    -0.385 OA
ATOM     16  H   UNL     1      95.019  55.058  37.893  1.00  0.00     0.211 HD
ENDBRANCH   7  15
ENDBRANCH   1   2
BRANCH   1  17
ATOM     17  C   UNL     1      98.063  51.037  39.425  1.00  0.00     0.224 C 
ATOM     18  C   UNL     1      99.430  51.723  39.229  1.00  0.00     0.208 C 
ATOM     19  O   UNL     1      98.178  50.119  40.507  1.00  0.00    -0.337 OA
ATOM     20  C   UNL     1     100.415  50.796  39.910  1.00  0.00     0.180 C 
ATOM     21  C   UNL     1      99.533  50.046  40.916  1.00  0.00     0.179 C 
BRANCH  17  22
ATOM     22  C   UNL     1      97.623  50.238  38.170  1.00  0.00     0.225 C 
BRANCH  22  23
ATOM     23  O   UNL     1      98.361  49.050  38.060  1.00  0.00    -0.391 OA
ATOM     24  H   UNL     1      98.493  48.854  37.089  1.00  0.00     0.210 HD
ENDBRANCH  22  23
ENDBRANCH  17  22
BRANCH  18  25
ATOM     25  O   UNL     1      99.744  51.946  37.875  1.00  0.00    -0.385 OA
ATOM     26  H   UNL     1      98.945  51.668  37.354  1.00  0.00     0.211 HD
ENDBRANCH  18  25
BRANCH  20  27
ATOM     27  O   UNL     1     101.040  49.935  38.979  1.00  0.00    -0.387 OA
ATOM     28  H   UNL     1     101.064  50.366  38.089  1.00  0.00     0.211 HD
ENDBRANCH  20  27
BRANCH  21  29
ATOM     29  C   UNL     1      99.679  50.612  42.349  1.00  0.00     0.191 C 
BRANCH  29  30
ATOM     30  O   UNL     1      98.429  50.802  42.976  1.00  0.00    -0.394 OA
ATOM     31  H   UNL     1      98.573  50.719  43.958  1.00  0.00     0.210 HD
ENDBRANCH  29  30
ENDBRANCH  21  29
ENDBRANCH   1  17
TORSDOF 13
ENDMDL
MODEL 5
REMARK VINA RESULT:     4.613      1.335      6.052
REMARK INTER + INTRA:           5.562
REMARK INTER:                   6.221
REMARK INTRA:                  -0.659
REMARK UNBOUND:                -1.478
REMARK SMILES OC[C@@H]1O[C@H](O[C@]2(CO)O[C@H](CO)[C@@H](O)[C@H]2O)[C@@H](O)[C@H](O)[C@@H]1O
REMARK SMILES IDX 6 1 5 2 3 3 22 4 4 5 20 6 18 7 2 8 1 9 23 11 21 13 19 15
REMARK SMILES IDX 7 17 16 18 10 19 14 20 11 21 8 22 9 23 17 25 15 27 12 29
REMARK SMILES IDX 13 30
REMARK H PARENT 1 10 23 12 21 14 19 16 9 24 17 26 15 28 13 31
REMARK Flexibility Score: inf
ROOT
ATOM      1  O   UNL     1     100.062  53.232  50.285  1.00  0.00    -0.313 OA
ENDROOT
BRANCH   1   2
ATOM      2  C   UNL     1     101.164  52.979  49.427  1.00  0.00     0.285 C 
ATOM      3  C   UNL     1     102.242  51.210  48.313  1.00  0.00     0.178 C 
ATOM      4  C   UNL     1     102.735  52.247  47.253  1.00  0.00     0.177 C 
ATOM      5  O   UNL     1     101.061  51.632  48.986  1.00  0.00    -0.341 OA
ATOM      6  C   UNL     1     101.611  53.251  46.908  1.00  0.00     0.179 C 
ATOM      7  C   UNL     1     101.098  53.935  48.200  1.00  0.00     0.202 C 
BRANCH   3   8
ATOM      8  C   UNL     1     102.009  49.791  47.755  1.00  0.00     0.191 C 
BRANCH   8   9
ATOM      9  O   UNL     1     102.666  48.831  48.541  1.00  0.00    -0.394 OA
ATOM     10  H   UNL     1     102.087  48.643  49.322  1.00  0.00     0.210 HD
ENDBRANCH   8   9
ENDBRANCH   3   8
BRANCH   4  11
ATOM     11  O   UNL     1     103.240  51.658  46.079  1.00  0.00    -0.387 OA
ATOM     12  H   UNL     1     102.565  51.833  45.362  1.00  0.00     0.211 HD
ENDBRANCH   4  11
BRANCH   6  13
ATOM     13  O   UNL     1     100.535  52.588  46.292  1.00  0.00    -0.387 OA
ATOM     14  H   UNL     1      99.917  52.286  47.008  1.00  0.00     0.211 HD
ENDBRANCH   6  13
BRANCH   7  15
ATOM     15  O   UNL     1     101.807  55.125  48.464  1.00  0.00    -0.385 OA
ATOM     16  H   UNL     1     101.237  55.704  49.031  1.00  0.00     0.211 HD
ENDBRANCH   7  15
ENDBRANCH   1   2
BRANCH   1  17
ATOM     17  C   UNL     1     100.273  53.028  51.692  1.00  0.00     0.224 C 
ATOM     18  C   UNL     1      99.073  53.651  52.433  1.00  0.00     0.208 C 
ATOM     19  O   UNL     1     100.362  51.657  52.065  1.00  0.00    -0.337 OA
ATOM     20  C   UNL     1      98.817  52.708  53.590  1.00  0.00     0.180 C 
ATOM     21  C   UNL     1      99.424  51.390  53.092  1.00  0.00     0.179 C 
BRANCH  17  22
ATOM     22  C   UNL     1     101.614  53.709  52.071  1.00  0.00     0.225 C 
BRANCH  22  23
ATOM     23  O   UNL     1     101.645  55.031  51.603  1.00  0.00    -0.391 OA
ATOM     24  H   UNL     1     101.296  55.626  52.326  1.00  0.00     0.210 HD
ENDBRANCH  22  23
ENDBRANCH  17  22
BRANCH  18  25
ATOM     25  O   UNL     1      99.313  54.972  52.854  1.00  0.00    -0.385 OA
ATOM     26  H   UNL     1     100.025  54.920  53.544  1.00  0.00     0.211 HD
ENDBRANCH  18  25
BRANCH  20  27
ATOM     27  O   UNL     1      99.423  53.176  54.779  1.00  0.00    -0.387 OA
ATOM     28  H   UNL     1     100.356  52.851  54.829  1.00  0.00     0.211 HD
ENDBRANCH  20  27
BRANCH  21  29
ATOM     29  C   UNL     1      98.339  50.415  52.573  1.00  0.00     0.191 C 
BRANCH  29  30
ATOM     30  O   UNL     1      98.298  49.218  53.320  1.00  0.00    -0.394 OA
ATOM     31  H   UNL     1      97.794  48.549  52.782  1.00  0.00     0.210 HD
ENDBRANCH  29  30
ENDBRANCH  21  29
ENDBRANCH   1  17
TORSDOF 13
ENDMDL
