MODEL 1
REMARK VINA RESULT:    -6.360      0.000      0.000
REMARK INTER + INTRA:          -7.992
REMARK INTER:                  -7.662
REMARK INTRA:                  -0.330
REMARK UNBOUND:                -0.330
REMARK SMILES Oc1cc(O)c2cc(O)c(-c3ccc(O)c(O)c3)[o+]c2c1.[Cl-]
REMARK SMILES IDX 10 1 19 2 20 3 21 4 2 5 3 6 4 7 6 8 7 9 8 10 11 11 12 12
REMARK SMILES IDX 13 13 14 14 18 15 16 16 15 17 17 19 9 21 1 23 5 25
REMARK H PARENT 15 18 17 20 9 22 1 24 5 26
REMARK Flexibility Score: inf
ROOT
ATOM      1  C   UNL     1     479.596  37.653 459.481  1.00  0.00     0.402 A 
ATOM      2  O   UNL     1     479.367  36.458 460.018  1.00  0.00    -0.202 OA
ATOM      3  C   UNL     1     478.385  36.222 460.881  1.00  0.00     0.368 A 
ATOM      4  C   UNL     1     478.225  34.932 461.393  1.00  0.00     0.162 A 
ATOM      5  C   UNL     1     477.205  34.655 462.305  1.00  0.00     0.128 A 
ATOM      6  C   UNL     1     476.336  35.675 462.708  1.00  0.00     0.093 A 
ATOM      7  C   UNL     1     476.476  36.976 462.211  1.00  0.00     0.136 A 
ATOM      8  C   UNL     1     477.510  37.262 461.282  1.00  0.00     0.125 A 
ATOM      9  C   UNL     1     477.718  38.532 460.722  1.00  0.00     0.078 A 
ATOM     10  C   UNL     1     478.757  38.734 459.808  1.00  0.00     0.223 A 
ENDROOT
BRANCH   1  11
ATOM     11  C   UNL     1     480.729  37.792 458.538  1.00  0.00     0.087 A 
ATOM     12  C   UNL     1     480.598  37.452 457.182  1.00  0.00     0.022 A 
ATOM     13  C   UNL     1     481.675  37.614 456.308  1.00  0.00     0.051 A 
ATOM     14  C   UNL     1     482.894  38.127 456.763  1.00  0.00     0.157 A 
ATOM     15  C   UNL     1     481.944  38.327 458.992  1.00  0.00     0.068 A 
ATOM     16  C   UNL     1     483.030  38.493 458.122  1.00  0.00     0.158 A 
BRANCH  14  17
ATOM     17  O   UNL     1     483.933  38.259 455.838  1.00  0.00    -0.504 OA
ATOM     18  H   UNL     1     484.909  38.133 456.063  1.00  0.00     0.293 HD
ENDBRANCH  14  17
BRANCH  16  19
ATOM     19  O   UNL     1     484.211  39.020 458.647  1.00  0.00    -0.504 OA
ATOM     20  H   UNL     1     485.042  39.198 458.102  1.00  0.00     0.293 HD
ENDBRANCH  16  19
ENDBRANCH   1  11
BRANCH  10  21
ATOM     21  O   UNL     1     478.930  39.984 459.213  1.00  0.00    -0.500 OA
ATOM     22  H   UNL     1     479.822  40.270 458.826  1.00  0.00     0.294 HD
ENDBRANCH  10  21
BRANCH   5  23
ATOM     23  O   UNL     1     477.060  33.362 462.803  1.00  0.00    -0.507 OA
ATOM     24  H   UNL     1     477.686  32.615 462.529  1.00  0.00     0.293 HD
ENDBRANCH   5  23
BRANCH   7  25
ATOM     25  O   UNL     1     475.571  37.941 462.666  1.00  0.00    -0.507 OA
ATOM     26  H   UNL     1     474.668  38.117 462.250  1.00  0.00     0.293 HD
ENDBRANCH   7  25
TORSDOF 6
ENDMDL
MODEL 2
REMARK VINA RESULT:    -5.781      1.554      7.008
REMARK INTER + INTRA:          -7.295
REMARK INTER:                  -7.070
REMARK INTRA:                  -0.224
REMARK UNBOUND:                -0.330
REMARK SMILES Oc1cc(O)c2cc(O)c(-c3ccc(O)c(O)c3)[o+]c2c1.[Cl-]
REMARK SMILES IDX 10 1 19 2 20 3 21 4 2 5 3 6 4 7 6 8 7 9 8 10 11 11 12 12
REMARK SMILES IDX 13 13 14 14 18 15 16 16 15 17 17 19 9 21 1 23 5 25
REMARK H PARENT 15 18 17 20 9 22 1 24 5 26
REMARK Flexibility Score: inf
ROOT
ATOM      1  C   UNL     1     480.141  37.932 459.134  1.00  0.00     0.402 A 
ATOM      2  O   UNL     1     481.428  37.925 459.470  1.00  0.00    -0.202 OA
ATOM      3  C   UNL     1     482.369  38.539 458.761  1.00  0.00     0.368 A 
ATOM      4  C   UNL     1     483.696  38.473 459.193  1.00  0.00     0.162 A 
ATOM      5  C   UNL     1     484.707  39.104 458.467  1.00  0.00     0.128 A 
ATOM      6  C   UNL     1     484.391  39.807 457.300  1.00  0.00     0.093 A 
ATOM      7  C   UNL     1     483.069  39.887 456.845  1.00  0.00     0.136 A 
ATOM      8  C   UNL     1     482.038  39.248 457.581  1.00  0.00     0.125 A 
ATOM      9  C   UNL     1     480.685  39.286 457.209  1.00  0.00     0.078 A 
ATOM     10  C   UNL     1     479.724  38.635 457.989  1.00  0.00     0.223 A 
ENDROOT
BRANCH   1  11
ATOM     11  C   UNL     1     479.187  37.201 460.001  1.00  0.00     0.087 A 
ATOM     12  C   UNL     1     479.211  35.801 460.098  1.00  0.00     0.022 A 
ATOM     13  C   UNL     1     478.316  35.138 460.940  1.00  0.00     0.051 A 
ATOM     14  C   UNL     1     477.393  35.854 461.709  1.00  0.00     0.157 A 
ATOM     15  C   UNL     1     478.277  37.923 460.787  1.00  0.00     0.068 A 
ATOM     16  C   UNL     1     477.375  37.266 461.635  1.00  0.00     0.158 A 
BRANCH  14  17
ATOM     17  O   UNL     1     476.523  35.130 462.527  1.00  0.00    -0.504 OA
ATOM     18  H   UNL     1     476.787  34.721 463.411  1.00  0.00     0.293 HD
ENDBRANCH  14  17
BRANCH  16  19
ATOM     19  O   UNL     1     476.489  38.049 462.378  1.00  0.00    -0.504 OA
ATOM     20  H   UNL     1     476.703  38.975 462.718  1.00  0.00     0.293 HD
ENDBRANCH  16  19
ENDBRANCH   1  11
BRANCH  10  21
ATOM     21  O   UNL     1     478.374  38.716 457.647  1.00  0.00    -0.500 OA
ATOM     22  H   UNL     1     477.854  39.581 457.731  1.00  0.00     0.294 HD
ENDBRANCH  10  21
BRANCH   5  23
ATOM     23  O   UNL     1     486.024  39.029 458.915  1.00  0.00    -0.507 OA
ATOM     24  H   UNL     1     486.466  38.141 459.118  1.00  0.00     0.293 HD
ENDBRANCH   5  23
BRANCH   7  25
ATOM     25  O   UNL     1     482.835  40.605 455.668  1.00  0.00    -0.507 OA
ATOM     26  H   UNL     1     481.942  40.657 455.200  1.00  0.00     0.293 HD
ENDBRANCH   7  25
TORSDOF 6
ENDMDL
MODEL 3
REMARK VINA RESULT:    -5.780      1.541      7.065
REMARK INTER + INTRA:          -7.292
REMARK INTER:                  -7.016
REMARK INTRA:                  -0.277
REMARK UNBOUND:                -0.330
REMARK SMILES Oc1cc(O)c2cc(O)c(-c3ccc(O)c(O)c3)[o+]c2c1.[Cl-]
REMARK SMILES IDX 10 1 19 2 20 3 21 4 2 5 3 6 4 7 6 8 7 9 8 10 11 11 12 12
REMARK SMILES IDX 13 13 14 14 18 15 16 16 15 17 17 19 9 21 1 23 5 25
REMARK H PARENT 15 18 17 20 9 22 1 24 5 26
REMARK Flexibility Score: inf
ROOT
ATOM      1  C   UNL     1     480.172  38.233 459.477  1.00  0.00     0.402 A 
ATOM      2  O   UNL     1     481.390  38.311 460.006  1.00  0.00    -0.202 OA
ATOM      3  C   UNL     1     482.461  38.692 459.318  1.00  0.00     0.368 A 
ATOM      4  C   UNL     1     483.700  38.740 459.962  1.00  0.00     0.162 A 
ATOM      5  C   UNL     1     484.843  39.132 459.264  1.00  0.00     0.128 A 
ATOM      6  C   UNL     1     484.748  39.480 457.912  1.00  0.00     0.093 A 
ATOM      7  C   UNL     1     483.518  39.440 457.244  1.00  0.00     0.136 A 
ATOM      8  C   UNL     1     482.353  39.043 457.950  1.00  0.00     0.125 A 
ATOM      9  C   UNL     1     481.078  38.985 457.367  1.00  0.00     0.078 A 
ATOM     10  C   UNL     1     479.975  38.589 458.130  1.00  0.00     0.223 A 
ENDROOT
BRANCH   1  11
ATOM     11  C   UNL     1     479.058  37.785 460.345  1.00  0.00     0.087 A 
ATOM     12  C   UNL     1     478.094  38.687 460.822  1.00  0.00     0.022 A 
ATOM     13  C   UNL     1     477.041  38.235 461.620  1.00  0.00     0.051 A 
ATOM     14  C   UNL     1     476.920  36.880 461.946  1.00  0.00     0.157 A 
ATOM     15  C   UNL     1     478.928  36.423 460.652  1.00  0.00     0.068 A 
ATOM     16  C   UNL     1     477.875  35.960 461.453  1.00  0.00     0.158 A 
BRANCH  14  17
ATOM     17  O   UNL     1     475.847  36.495 462.752  1.00  0.00    -0.504 OA
ATOM     18  H   UNL     1     475.941  35.948 463.595  1.00  0.00     0.293 HD
ENDBRANCH  14  17
BRANCH  16  19
ATOM     19  O   UNL     1     477.816  34.593 461.728  1.00  0.00    -0.504 OA
ATOM     20  H   UNL     1     477.036  34.000 461.483  1.00  0.00     0.293 HD
ENDBRANCH  16  19
ENDBRANCH   1  11
BRANCH  10  21
ATOM     21  O   UNL     1     478.700  38.582 457.564  1.00  0.00    -0.500 OA
ATOM     22  H   UNL     1     478.406  37.855 456.922  1.00  0.00     0.294 HD
ENDBRANCH  10  21
BRANCH   5  23
ATOM     23  O   UNL     1     486.070  39.175 459.923  1.00  0.00    -0.507 OA
ATOM     24  H   UNL     1     486.944  39.234 459.415  1.00  0.00     0.293 HD
ENDBRANCH   5  23
BRANCH   7  25
ATOM     25  O   UNL     1     483.507  39.798 455.893  1.00  0.00    -0.507 OA
ATOM     26  H   UNL     1     483.625  40.741 455.552  1.00  0.00     0.293 HD
ENDBRANCH   7  25
TORSDOF 6
ENDMDL
MODEL 4
REMARK VINA RESULT:    -5.388      1.473      6.925
REMARK INTER + INTRA:          -6.821
REMARK INTER:                  -6.529
REMARK INTRA:                  -0.293
REMARK UNBOUND:                -0.330
REMARK SMILES Oc1cc(O)c2cc(O)c(-c3ccc(O)c(O)c3)[o+]c2c1.[Cl-]
REMARK SMILES IDX 10 1 19 2 20 3 21 4 2 5 3 6 4 7 6 8 7 9 8 10 11 11 12 12
REMARK SMILES IDX 13 13 14 14 18 15 16 16 15 17 17 19 9 21 1 23 5 25
REMARK H PARENT 15 18 17 20 9 22 1 24 5 26
REMARK Flexibility Score: inf
ROOT
ATOM      1  C   UNL     1     479.321  37.609 460.473  1.00  0.00     0.402 A 
ATOM      2  O   UNL     1     479.405  37.303 459.181  1.00  0.00    -0.202 OA
ATOM      3  C   UNL     1     480.300  37.843 458.360  1.00  0.00     0.368 A 
ATOM      4  C   UNL     1     480.309  37.460 457.017  1.00  0.00     0.162 A 
ATOM      5  C   UNL     1     481.235  38.013 456.131  1.00  0.00     0.128 A 
ATOM      6  C   UNL     1     482.160  38.957 456.590  1.00  0.00     0.093 A 
ATOM      7  C   UNL     1     482.172  39.358 457.932  1.00  0.00     0.136 A 
ATOM      8  C   UNL     1     481.233  38.797 458.836  1.00  0.00     0.125 A 
ATOM      9  C   UNL     1     481.179  39.129 460.199  1.00  0.00     0.078 A 
ATOM     10  C   UNL     1     480.228  38.529 461.030  1.00  0.00     0.223 A 
ENDROOT
BRANCH   1  11
ATOM     11  C   UNL     1     478.273  36.946 461.283  1.00  0.00     0.087 A 
ATOM     12  C   UNL     1     477.142  37.648 461.732  1.00  0.00     0.022 A 
ATOM     13  C   UNL     1     476.157  36.994 462.474  1.00  0.00     0.051 A 
ATOM     14  C   UNL     1     476.271  35.632 462.772  1.00  0.00     0.157 A 
ATOM     15  C   UNL     1     478.379  35.575 461.561  1.00  0.00     0.068 A 
ATOM     16  C   UNL     1     477.395  34.911 462.305  1.00  0.00     0.158 A 
BRANCH  14  17
ATOM     17  O   UNL     1     475.253  35.040 463.522  1.00  0.00    -0.504 OA
ATOM     18  H   UNL     1     474.560  34.413 463.139  1.00  0.00     0.293 HD
ENDBRANCH  14  17
BRANCH  16  19
ATOM     19  O   UNL     1     477.574  33.549 462.554  1.00  0.00    -0.504 OA
ATOM     20  H   UNL     1     478.429  33.048 462.363  1.00  0.00     0.293 HD
ENDBRANCH  16  19
ENDBRANCH   1  11
BRANCH  10  21
ATOM     21  O   UNL     1     480.208  38.821 462.394  1.00  0.00    -0.500 OA
ATOM     22  H   UNL     1     479.381  38.669 462.959  1.00  0.00     0.294 HD
ENDBRANCH  10  21
BRANCH   5  23
ATOM     23  O   UNL     1     481.229  37.617 454.795  1.00  0.00    -0.507 OA
ATOM     24  H   UNL     1     480.365  37.422 454.303  1.00  0.00     0.293 HD
ENDBRANCH   5  23
BRANCH   7  25
ATOM     25  O   UNL     1     483.125  40.308 458.312  1.00  0.00    -0.507 OA
ATOM     26  H   UNL     1     483.002  40.969 459.064  1.00  0.00     0.293 HD
ENDBRANCH   7  25
TORSDOF 6
ENDMDL
MODEL 5
REMARK VINA RESULT:    -5.328      1.181      2.852
REMARK INTER + INTRA:          -6.749
REMARK INTER:                  -6.450
REMARK INTRA:                  -0.299
REMARK UNBOUND:                -0.330
REMARK SMILES Oc1cc(O)c2cc(O)c(-c3ccc(O)c(O)c3)[o+]c2c1.[Cl-]
REMARK SMILES IDX 10 1 19 2 20 3 21 4 2 5 3 6 4 7 6 8 7 9 8 10 11 11 12 12
REMARK SMILES IDX 13 13 14 14 18 15 16 16 15 17 17 19 9 21 1 23 5 25
REMARK H PARENT 15 18 17 20 9 22 1 24 5 26
REMARK Flexibility Score: inf
ROOT
ATOM      1  C   UNL     1     479.644  37.552 459.496  1.00  0.00     0.402 A 
ATOM      2  O   UNL     1     479.001  38.637 459.921  1.00  0.00    -0.202 OA
ATOM      3  C   UNL     1     477.982  38.594 460.773  1.00  0.00     0.368 A 
ATOM      4  C   UNL     1     477.369  39.788 461.159  1.00  0.00     0.162 A 
ATOM      5  C   UNL     1     476.294  39.774 462.049  1.00  0.00     0.128 A 
ATOM      6  C   UNL     1     475.828  38.557 462.559  1.00  0.00     0.093 A 
ATOM      7  C   UNL     1     476.426  37.347 462.187  1.00  0.00     0.136 A 
ATOM      8  C   UNL     1     477.520  37.357 461.284  1.00  0.00     0.125 A 
ATOM      9  C   UNL     1     478.188  36.195 460.866  1.00  0.00     0.078 A 
ATOM     10  C   UNL     1     479.262  36.286 459.976  1.00  0.00     0.223 A 
ENDROOT
BRANCH   1  11
ATOM     11  C   UNL     1     480.759  37.729 458.537  1.00  0.00     0.087 A 
ATOM     12  C   UNL     1     480.624  37.376 457.185  1.00  0.00     0.022 A 
ATOM     13  C   UNL     1     481.682  37.574 456.296  1.00  0.00     0.051 A 
ATOM     14  C   UNL     1     482.886  38.138 456.732  1.00  0.00     0.157 A 
ATOM     15  C   UNL     1     481.957  38.315 458.972  1.00  0.00     0.068 A 
ATOM     16  C   UNL     1     483.025  38.517 458.087  1.00  0.00     0.158 A 
BRANCH  14  17
ATOM     17  O   UNL     1     483.906  38.305 455.793  1.00  0.00    -0.504 OA
ATOM     18  H   UNL     1     483.820  38.864 454.958  1.00  0.00     0.293 HD
ENDBRANCH  14  17
BRANCH  16  19
ATOM     19  O   UNL     1     484.191  39.093 458.594  1.00  0.00    -0.504 OA
ATOM     20  H   UNL     1     485.111  38.936 458.210  1.00  0.00     0.293 HD
ENDBRANCH  16  19
ENDBRANCH   1  11
BRANCH  10  21
ATOM     21  O   UNL     1     479.958  35.136 459.601  1.00  0.00    -0.500 OA
ATOM     22  H   UNL     1     480.955  35.042 459.756  1.00  0.00     0.294 HD
ENDBRANCH  10  21
BRANCH   5  23
ATOM     23  O   UNL     1     475.696  40.975 462.423  1.00  0.00    -0.507 OA
ATOM     24  H   UNL     1     474.690  41.067 462.496  1.00  0.00     0.293 HD
ENDBRANCH   5  23
BRANCH   7  25
ATOM     25  O   UNL     1     475.900  36.173 462.737  1.00  0.00    -0.507 OA
ATOM     26  H   UNL     1     475.129  36.144 463.388  1.00  0.00     0.293 HD
ENDBRANCH   7  25
TORSDOF 6
ENDMDL
MODEL 6
REMARK VINA RESULT:    -5.192      2.531      7.237
REMARK INTER + INTRA:          -6.584
REMARK INTER:                  -6.257
REMARK INTRA:                  -0.328
REMARK UNBOUND:                -0.330
REMARK SMILES Oc1cc(O)c2cc(O)c(-c3ccc(O)c(O)c3)[o+]c2c1.[Cl-]
REMARK SMILES IDX 10 1 19 2 20 3 21 4 2 5 3 6 4 7 6 8 7 9 8 10 11 11 12 12
REMARK SMILES IDX 13 13 14 14 18 15 16 16 15 17 17 19 9 21 1 23 5 25
REMARK H PARENT 15 18 17 20 9 22 1 24 5 26
REMARK Flexibility Score: inf
ROOT
ATOM      1  C   UNL     1     480.761  38.734 460.522  1.00  0.00     0.402 A 
ATOM      2  O   UNL     1     481.609  39.252 461.407  1.00  0.00    -0.202 OA
ATOM      3  C   UNL     1     482.912  39.377 461.182  1.00  0.00     0.368 A 
ATOM      4  C   UNL     1     483.723  39.932 462.175  1.00  0.00     0.162 A 
ATOM      5  C   UNL     1     485.096  40.073 461.969  1.00  0.00     0.128 A 
ATOM      6  C   UNL     1     485.664  39.657 460.759  1.00  0.00     0.093 A 
ATOM      7  C   UNL     1     484.873  39.098 459.748  1.00  0.00     0.136 A 
ATOM      8  C   UNL     1     483.477  38.954 459.954  1.00  0.00     0.125 A 
ATOM      9  C   UNL     1     482.605  38.417 458.994  1.00  0.00     0.078 A 
ATOM     10  C   UNL     1     481.238  38.313 459.267  1.00  0.00     0.223 A 
ENDROOT
BRANCH   1  11
ATOM     11  C   UNL     1     479.331  38.638 460.895  1.00  0.00     0.087 A 
ATOM     12  C   UNL     1     478.466  39.736 460.769  1.00  0.00     0.022 A 
ATOM     13  C   UNL     1     477.117  39.613 461.105  1.00  0.00     0.051 A 
ATOM     14  C   UNL     1     476.601  38.395 461.561  1.00  0.00     0.157 A 
ATOM     15  C   UNL     1     478.813  37.409 461.331  1.00  0.00     0.068 A 
ATOM     16  C   UNL     1     477.460  37.276 461.671  1.00  0.00     0.158 A 
BRANCH  14  17
ATOM     17  O   UNL     1     475.244  38.340 461.885  1.00  0.00    -0.504 OA
ATOM     18  H   UNL     1     474.889  38.031 462.778  1.00  0.00     0.293 HD
ENDBRANCH  14  17
BRANCH  16  19
ATOM     19  O   UNL     1     477.017  36.026 462.109  1.00  0.00    -0.504 OA
ATOM     20  H   UNL     1     476.490  35.382 461.538  1.00  0.00     0.293 HD
ENDBRANCH  16  19
ENDBRANCH   1  11
BRANCH  10  21
ATOM     21  O   UNL     1     480.365  37.826 458.294  1.00  0.00    -0.500 OA
ATOM     22  H   UNL     1     480.000  38.422 457.560  1.00  0.00     0.294 HD
ENDBRANCH  10  21
BRANCH   5  23
ATOM     23  O   UNL     1     485.888  40.629 462.970  1.00  0.00    -0.507 OA
ATOM     24  H   UNL     1     486.169  40.095 463.784  1.00  0.00     0.293 HD
ENDBRANCH   5  23
BRANCH   7  25
ATOM     25  O   UNL     1     485.517  38.703 458.571  1.00  0.00    -0.507 OA
ATOM     26  H   UNL     1     485.286  39.050 457.652  1.00  0.00     0.293 HD
ENDBRANCH   7  25
TORSDOF 6
ENDMDL
MODEL 7
REMARK VINA RESULT:    -5.124      3.841      6.667
REMARK INTER + INTRA:          -6.503
REMARK INTER:                  -6.180
REMARK INTRA:                  -0.322
REMARK UNBOUND:                -0.330
REMARK SMILES Oc1cc(O)c2cc(O)c(-c3ccc(O)c(O)c3)[o+]c2c1.[Cl-]
REMARK SMILES IDX 10 1 19 2 20 3 21 4 2 5 3 6 4 7 6 8 7 9 8 10 11 11 12 12
REMARK SMILES IDX 13 13 14 14 18 15 16 16 15 17 17 19 9 21 1 23 5 25
REMARK H PARENT 15 18 17 20 9 22 1 24 5 26
REMARK Flexibility Score: inf
ROOT
ATOM      1  C   UNL     1     484.262  39.993 459.779  1.00  0.00     0.402 A 
ATOM      2  O   UNL     1     482.991  39.809 460.125  1.00  0.00    -0.202 OA
ATOM      3  C   UNL     1     482.147  39.055 459.429  1.00  0.00     0.368 A 
ATOM      4  C   UNL     1     480.828  38.925 459.871  1.00  0.00     0.162 A 
ATOM      5  C   UNL     1     479.919  38.142 459.159  1.00  0.00     0.128 A 
ATOM      6  C   UNL     1     480.329  37.482 457.995  1.00  0.00     0.093 A 
ATOM      7  C   UNL     1     481.646  37.597 457.531  1.00  0.00     0.136 A 
ATOM      8  C   UNL     1     482.574  38.390 458.253  1.00  0.00     0.125 A 
ATOM      9  C   UNL     1     483.915  38.552 457.871  1.00  0.00     0.078 A 
ATOM     10  C   UNL     1     484.772  39.347 458.638  1.00  0.00     0.223 A 
ENDROOT
BRANCH   1  11
ATOM     11  C   UNL     1     485.101  40.866 460.632  1.00  0.00     0.087 A 
ATOM     12  C   UNL     1     485.979  40.331 461.588  1.00  0.00     0.022 A 
ATOM     13  C   UNL     1     486.776  41.175 462.363  1.00  0.00     0.051 A 
ATOM     14  C   UNL     1     486.724  42.563 462.194  1.00  0.00     0.157 A 
ATOM     15  C   UNL     1     485.062  42.256 460.445  1.00  0.00     0.068 A 
ATOM     16  C   UNL     1     485.859  43.112 461.218  1.00  0.00     0.158 A 
BRANCH  14  17
ATOM     17  O   UNL     1     487.543  43.351 463.005  1.00  0.00    -0.504 OA
ATOM     18  H   UNL     1     487.203  44.092 463.601  1.00  0.00     0.293 HD
ENDBRANCH  14  17
BRANCH  16  19
ATOM     19  O   UNL     1     485.758  44.484 460.985  1.00  0.00    -0.504 OA
ATOM     20  H   UNL     1     486.541  45.120 461.013  1.00  0.00     0.293 HD
ENDBRANCH  16  19
ENDBRANCH   1  11
BRANCH  10  21
ATOM     21  O   UNL     1     486.117  39.467 458.286  1.00  0.00    -0.500 OA
ATOM     22  H   UNL     1     486.808  38.791 458.588  1.00  0.00     0.294 HD
ENDBRANCH  10  21
BRANCH   5  23
ATOM     23  O   UNL     1     478.608  38.023 459.616  1.00  0.00    -0.507 OA
ATOM     24  H   UNL     1     478.366  37.403 460.379  1.00  0.00     0.293 HD
ENDBRANCH   5  23
BRANCH   7  25
ATOM     25  O   UNL     1     481.977  36.910 456.359  1.00  0.00    -0.507 OA
ATOM     26  H   UNL     1     481.804  35.928 456.205  1.00  0.00     0.293 HD
ENDBRANCH   7  25
TORSDOF 6
ENDMDL
MODEL 8
REMARK VINA RESULT:    -5.086      1.721      2.527
REMARK INTER + INTRA:          -6.457
REMARK INTER:                  -6.196
REMARK INTRA:                  -0.261
REMARK UNBOUND:                -0.330
REMARK SMILES Oc1cc(O)c2cc(O)c(-c3ccc(O)c(O)c3)[o+]c2c1.[Cl-]
REMARK SMILES IDX 10 1 19 2 20 3 21 4 2 5 3 6 4 7 6 8 7 9 8 10 11 11 12 12
REMARK SMILES IDX 13 13 14 14 18 15 16 16 15 17 17 19 9 21 1 23 5 25
REMARK H PARENT 15 18 17 20 9 22 1 24 5 26
REMARK Flexibility Score: inf
ROOT
ATOM      1  C   UNL     1     480.639  39.151 460.223  1.00  0.00     0.402 A 
ATOM      2  O   UNL     1     480.116  38.026 460.704  1.00  0.00    -0.202 OA
ATOM      3  C   UNL     1     478.855  37.923 461.110  1.00  0.00     0.368 A 
ATOM      4  C   UNL     1     478.398  36.699 461.603  1.00  0.00     0.162 A 
ATOM      5  C   UNL     1     477.079  36.562 462.040  1.00  0.00     0.128 A 
ATOM      6  C   UNL     1     476.210  37.657 461.983  1.00  0.00     0.093 A 
ATOM      7  C   UNL     1     476.644  38.895 461.493  1.00  0.00     0.136 A 
ATOM      8  C   UNL     1     477.983  39.038 461.046  1.00  0.00     0.125 A 
ATOM      9  C   UNL     1     478.502  40.235 460.528  1.00  0.00     0.078 A 
ATOM     10  C   UNL     1     479.833  40.297 460.103  1.00  0.00     0.223 A 
ENDROOT
BRANCH   1  11
ATOM     11  C   UNL     1     482.063  39.142 459.813  1.00  0.00     0.087 A 
ATOM     12  C   UNL     1     483.032  39.872 460.519  1.00  0.00     0.022 A 
ATOM     13  C   UNL     1     484.371  39.828 460.126  1.00  0.00     0.051 A 
ATOM     14  C   UNL     1     484.772  39.050 459.035  1.00  0.00     0.157 A 
ATOM     15  C   UNL     1     482.465  38.344 458.732  1.00  0.00     0.068 A 
ATOM     16  C   UNL     1     483.806  38.294 458.330  1.00  0.00     0.158 A 
BRANCH  14  17
ATOM     17  O   UNL     1     486.125  39.055 458.691  1.00  0.00    -0.504 OA
ATOM     18  H   UNL     1     486.512  38.540 457.914  1.00  0.00     0.293 HD
ENDBRANCH  14  17
BRANCH  16  19
ATOM     19  O   UNL     1     484.131  37.488 457.237  1.00  0.00    -0.504 OA
ATOM     20  H   UNL     1     485.072  37.217 456.995  1.00  0.00     0.293 HD
ENDBRANCH  16  19
ENDBRANCH   1  11
BRANCH  10  21
ATOM     21  O   UNL     1     480.333  41.472 459.542  1.00  0.00    -0.500 OA
ATOM     22  H   UNL     1     479.750  42.090 458.991  1.00  0.00     0.294 HD
ENDBRANCH  10  21
BRANCH   5  23
ATOM     23  O   UNL     1     476.641  35.333 462.528  1.00  0.00    -0.507 OA
ATOM     24  H   UNL     1     475.750  35.237 462.999  1.00  0.00     0.293 HD
ENDBRANCH   5  23
BRANCH   7  25
ATOM     25  O   UNL     1     475.716  39.941 461.472  1.00  0.00    -0.507 OA
ATOM     26  H   UNL     1     474.974  40.031 460.794  1.00  0.00     0.293 HD
ENDBRANCH   7  25
TORSDOF 6
ENDMDL
MODEL 9
REMARK VINA RESULT:    -5.074      2.299      7.207
REMARK INTER + INTRA:          -6.442
REMARK INTER:                  -6.099
REMARK INTRA:                  -0.342
REMARK UNBOUND:                -0.330
REMARK SMILES Oc1cc(O)c2cc(O)c(-c3ccc(O)c(O)c3)[o+]c2c1.[Cl-]
REMARK SMILES IDX 10 1 19 2 20 3 21 4 2 5 3 6 4 7 6 8 7 9 8 10 11 11 12 12
REMARK SMILES IDX 13 13 14 14 18 15 16 16 15 17 17 19 9 21 1 23 5 25
REMARK H PARENT 15 18 17 20 9 22 1 24 5 26
REMARK Flexibility Score: inf
ROOT
ATOM      1  C   UNL     1     480.688  39.003 461.211  1.00  0.00     0.402 A 
ATOM      2  O   UNL     1     481.171  38.637 460.027  1.00  0.00    -0.202 OA
ATOM      3  C   UNL     1     482.460  38.709 459.711  1.00  0.00     0.368 A 
ATOM      4  C   UNL     1     482.871  38.304 458.439  1.00  0.00     0.162 A 
ATOM      5  C   UNL     1     484.217  38.372 458.078  1.00  0.00     0.128 A 
ATOM      6  C   UNL     1     485.161  38.848 458.994  1.00  0.00     0.093 A 
ATOM      7  C   UNL     1     484.774  39.261 460.275  1.00  0.00     0.136 A 
ATOM      8  C   UNL     1     483.407  39.192 460.647  1.00  0.00     0.125 A 
ATOM      9  C   UNL     1     482.929  39.572 461.911  1.00  0.00     0.078 A 
ATOM     10  C   UNL     1     481.566  39.470 462.206  1.00  0.00     0.223 A 
ENDROOT
BRANCH   1  11
ATOM     11  C   UNL     1     479.229  38.885 461.440  1.00  0.00     0.087 A 
ATOM     12  C   UNL     1     478.379  39.996 461.325  1.00  0.00     0.022 A 
ATOM     13  C   UNL     1     477.004  39.854 461.523  1.00  0.00     0.051 A 
ATOM     14  C   UNL     1     476.450  38.605 461.824  1.00  0.00     0.157 A 
ATOM     15  C   UNL     1     478.674  37.628 461.720  1.00  0.00     0.068 A 
ATOM     16  C   UNL     1     477.295  37.475 461.920  1.00  0.00     0.158 A 
BRANCH  14  17
ATOM     17  O   UNL     1     475.068  38.532 462.015  1.00  0.00    -0.504 OA
ATOM     18  H   UNL     1     474.562  37.670 462.151  1.00  0.00     0.293 HD
ENDBRANCH  14  17
BRANCH  16  19
ATOM     19  O   UNL     1     476.815  36.196 462.208  1.00  0.00    -0.504 OA
ATOM     20  H   UNL     1     477.320  35.346 462.009  1.00  0.00     0.293 HD
ENDBRANCH  16  19
ENDBRANCH   1  11
BRANCH  10  21
ATOM     21  O   UNL     1     481.100  39.799 463.479  1.00  0.00    -0.500 OA
ATOM     22  H   UNL     1     480.162  40.152 463.628  1.00  0.00     0.294 HD
ENDBRANCH  10  21
BRANCH   5  23
ATOM     23  O   UNL     1     484.609  37.961 456.805  1.00  0.00    -0.507 OA
ATOM     24  H   UNL     1     484.878  38.628 456.092  1.00  0.00     0.293 HD
ENDBRANCH   5  23
BRANCH   7  25
ATOM     25  O   UNL     1     485.776  39.729 461.131  1.00  0.00    -0.507 OA
ATOM     26  H   UNL     1     486.081  40.690 461.181  1.00  0.00     0.293 HD
ENDBRANCH   7  25
TORSDOF 6
ENDMDL
