MODEL 1
REMARK VINA RESULT:    -6.221      0.000      0.000
REMARK INTER + INTRA:         -10.125
REMARK INTER:                  -8.948
REMARK INTRA:                  -1.177
REMARK UNBOUND:                -1.177
REMARK SMILES CC(C)=CCCC(C)=CCCC(C)=CCO
REMARK SMILES IDX 10 1 9 2 7 3 8 4 6 5 5 6 4 7 1 8 2 9 3 10 11 11 12 12 14 13
REMARK SMILES IDX 13 14 15 15 16 16
REMARK H PARENT 16 17
REMARK Flexibility Score: inf
ROOT
ATOM      1  C   UNL     1     155.308 133.124 138.894  1.00  0.00     0.032 C 
ENDROOT
BRANCH   1   2
ATOM      2  C   UNL     1     154.579 134.415 138.614  1.00  0.00    -0.028 C 
ATOM      3  C   UNL     1     154.332 135.369 139.541  1.00  0.00    -0.077 C 
ATOM      4  C   UNL     1     154.854 135.264 140.954  1.00  0.00     0.039 C 
BRANCH   3   5
ATOM      5  C   UNL     1     153.571 136.610 139.136  1.00  0.00     0.034 C 
BRANCH   5   6
ATOM      6  C   UNL     1     154.163 137.211 137.857  1.00  0.00     0.032 C 
BRANCH   6   7
ATOM      7  C   UNL     1     153.081 137.556 136.861  1.00  0.00    -0.028 C 
ATOM      8  C   UNL     1     151.762 137.280 134.804  1.00  0.00     0.039 C 
ATOM      9  C   UNL     1     152.869 136.849 135.731  1.00  0.00    -0.080 C 
ATOM     10  C   UNL     1     153.720 135.653 135.376  1.00  0.00     0.039 C 
ENDBRANCH   6   7
ENDBRANCH   5   6
ENDBRANCH   3   5
ENDBRANCH   1   2
BRANCH   1  11
ATOM     11  C   UNL     1     154.344 131.934 138.848  1.00  0.00     0.034 C 
BRANCH  11  12
ATOM     12  C   UNL     1     153.716 131.697 140.203  1.00  0.00    -0.075 C 
ATOM     13  C   UNL     1     152.375 131.537 140.287  1.00  0.00    -0.000 C 
ATOM     14  C   UNL     1     154.600 131.613 141.425  1.00  0.00     0.039 C 
BRANCH  13  15
ATOM     15  C   UNL     1     151.640 131.283 141.574  1.00  0.00     0.183 C 
BRANCH  15  16
ATOM     16  O   UNL     1     150.280 131.078 141.313  1.00  0.00    -0.392 OA
ATOM     17  H   UNL     1     149.976 130.393 141.965  1.00  0.00     0.210 HD
ENDBRANCH  15  16
ENDBRANCH  13  15
ENDBRANCH  11  12
ENDBRANCH   1  11
TORSDOF 8
ENDMDL
MODEL 2
REMARK VINA RESULT:    -6.061      1.184      1.471
REMARK INTER + INTRA:          -9.896
REMARK INTER:                  -8.717
REMARK INTRA:                  -1.179
REMARK UNBOUND:                -1.177
REMARK SMILES CC(C)=CCCC(C)=CCCC(C)=CCO
REMARK SMILES IDX 10 1 9 2 7 3 8 4 6 5 5 6 4 7 1 8 2 9 3 10 11 11 12 12 14 13
REMARK SMILES IDX 13 14 15 15 16 16
REMARK H PARENT 16 17
REMARK Flexibility Score: inf
ROOT
ATOM      1  C   UNL     1     155.333 133.260 139.027  1.00  0.00     0.032 C 
ENDROOT
BRANCH   1   2
ATOM      2  C   UNL     1     154.649 134.583 138.792  1.00  0.00    -0.028 C 
ATOM      3  C   UNL     1     154.362 135.478 139.766  1.00  0.00    -0.077 C 
ATOM      4  C   UNL     1     154.791 135.264 141.199  1.00  0.00     0.039 C 
BRANCH   3   5
ATOM      5  C   UNL     1     153.654 136.762 139.402  1.00  0.00     0.034 C 
BRANCH   5   6
ATOM      6  C   UNL     1     153.528 136.895 137.881  1.00  0.00     0.032 C 
BRANCH   6   7
ATOM      7  C   UNL     1     154.461 137.955 137.344  1.00  0.00    -0.028 C 
ATOM      8  C   UNL     1     156.082 138.917 135.765  1.00  0.00     0.039 C 
ATOM      9  C   UNL     1     155.180 137.796 136.213  1.00  0.00    -0.080 C 
ATOM     10  C   UNL     1     155.107 136.525 135.401  1.00  0.00     0.039 C 
ENDBRANCH   6   7
ENDBRANCH   5   6
ENDBRANCH   3   5
ENDBRANCH   1   2
BRANCH   1  11
ATOM     11  C   UNL     1     154.339 132.101 138.881  1.00  0.00     0.034 C 
BRANCH  11  12
ATOM     12  C   UNL     1     153.719 131.753 140.216  1.00  0.00    -0.075 C 
ATOM     13  C   UNL     1     152.376 131.623 140.301  1.00  0.00    -0.000 C 
ATOM     14  C   UNL     1     154.613 131.528 141.412  1.00  0.00     0.039 C 
BRANCH  13  15
ATOM     15  C   UNL     1     151.647 131.267 141.567  1.00  0.00     0.183 C 
BRANCH  15  16
ATOM     16  O   UNL     1     150.291 131.053 141.293  1.00  0.00    -0.392 OA
ATOM     17  H   UNL     1     150.249 130.231 140.738  1.00  0.00     0.210 HD
ENDBRANCH  15  16
ENDBRANCH  13  15
ENDBRANCH  11  12
ENDBRANCH   1  11
TORSDOF 8
ENDMDL
MODEL 3
REMARK VINA RESULT:    -5.895      2.253      3.362
REMARK INTER + INTRA:          -9.658
REMARK INTER:                  -8.382
REMARK INTRA:                  -1.276
REMARK UNBOUND:                -1.177
REMARK SMILES CC(C)=CCCC(C)=CCCC(C)=CCO
REMARK SMILES IDX 10 1 9 2 7 3 8 4 6 5 5 6 4 7 1 8 2 9 3 10 11 11 12 12 14 13
REMARK SMILES IDX 13 14 15 15 16 16
REMARK H PARENT 16 17
REMARK Flexibility Score: inf
ROOT
ATOM      1  C   UNL     1     155.776 133.816 143.013  1.00  0.00     0.032 C 
ENDROOT
BRANCH   1   2
ATOM      2  C   UNL     1     155.331 134.390 141.691  1.00  0.00    -0.028 C 
ATOM      3  C   UNL     1     154.808 135.628 141.533  1.00  0.00    -0.077 C 
ATOM      4  C   UNL     1     154.701 136.602 142.682  1.00  0.00     0.039 C 
BRANCH   3   5
ATOM      5  C   UNL     1     154.383 136.077 140.154  1.00  0.00     0.034 C 
BRANCH   5   6
ATOM      6  C   UNL     1     153.779 134.908 139.369  1.00  0.00     0.032 C 
BRANCH   6   7
ATOM      7  C   UNL     1     154.595 134.595 138.137  1.00  0.00    -0.028 C 
ATOM      8  C   UNL     1     155.848 133.151 136.591  1.00  0.00     0.039 C 
ATOM      9  C   UNL     1     155.041 133.355 137.846  1.00  0.00    -0.080 C 
ATOM     10  C   UNL     1     154.758 132.181 138.752  1.00  0.00     0.039 C 
ENDBRANCH   6   7
ENDBRANCH   5   6
ENDBRANCH   3   5
ENDBRANCH   1   2
BRANCH   1  11
ATOM     11  C   UNL     1     154.627 133.061 143.691  1.00  0.00     0.034 C 
BRANCH  11  12
ATOM     12  C   UNL     1     154.098 131.965 142.792  1.00  0.00    -0.075 C 
ATOM     13  C   UNL     1     152.790 131.972 142.449  1.00  0.00    -0.000 C 
ATOM     14  C   UNL     1     155.047 130.910 142.275  1.00  0.00     0.039 C 
BRANCH  13  15
ATOM     15  C   UNL     1     152.154 130.945 141.553  1.00  0.00     0.183 C 
BRANCH  15  16
ATOM     16  O   UNL     1     150.787 131.215 141.415  1.00  0.00    -0.392 OA
ATOM     17  H   UNL     1     150.470 131.491 142.314  1.00  0.00     0.210 HD
ENDBRANCH  15  16
ENDBRANCH  13  15
ENDBRANCH  11  12
ENDBRANCH   1  11
TORSDOF 8
ENDMDL
MODEL 4
REMARK VINA RESULT:    -5.823      3.566      6.669
REMARK INTER + INTRA:          -9.553
REMARK INTER:                  -7.959
REMARK INTRA:                  -1.595
REMARK UNBOUND:                -1.177
REMARK SMILES CC(C)=CCCC(C)=CCCC(C)=CCO
REMARK SMILES IDX 10 1 9 2 7 3 8 4 6 5 5 6 4 7 1 8 2 9 3 10 11 11 12 12 14 13
REMARK SMILES IDX 13 14 15 15 16 16
REMARK H PARENT 16 17
REMARK Flexibility Score: inf
ROOT
ATOM      1  C   UNL     1     154.671 134.494 139.318  1.00  0.00     0.032 C 
ENDROOT
BRANCH   1   2
ATOM      2  C   UNL     1     153.704 133.353 139.515  1.00  0.00    -0.028 C 
ATOM      3  C   UNL     1     154.058 132.048 139.548  1.00  0.00    -0.077 C 
ATOM      4  C   UNL     1     155.502 131.611 139.475  1.00  0.00     0.039 C 
BRANCH   3   5
ATOM      5  C   UNL     1     152.987 130.998 139.733  1.00  0.00     0.034 C 
BRANCH   5   6
ATOM      6  C   UNL     1     152.283 131.178 141.081  1.00  0.00     0.032 C 
BRANCH   6   7
ATOM      7  C   UNL     1     153.068 130.537 142.200  1.00  0.00    -0.028 C 
ATOM      8  C   UNL     1     154.440 130.507 144.241  1.00  0.00     0.039 C 
ATOM      9  C   UNL     1     153.681 131.247 143.170  1.00  0.00    -0.080 C 
ATOM     10  C   UNL     1     153.631 132.756 143.196  1.00  0.00     0.039 C 
ENDBRANCH   6   7
ENDBRANCH   5   6
ENDBRANCH   3   5
ENDBRANCH   1   2
BRANCH   1  11
ATOM     11  C   UNL     1     154.370 135.637 140.294  1.00  0.00     0.034 C 
BRANCH  11  12
ATOM     12  C   UNL     1     155.249 135.542 141.521  1.00  0.00    -0.075 C 
ATOM     13  C   UNL     1     156.404 134.843 141.449  1.00  0.00    -0.000 C 
ATOM     14  C   UNL     1     154.834 136.255 142.787  1.00  0.00     0.039 C 
BRANCH  13  15
ATOM     15  C   UNL     1     157.365 134.690 142.596  1.00  0.00     0.183 C 
BRANCH  15  16
ATOM     16  O   UNL     1     158.446 135.564 142.432  1.00  0.00    -0.392 OA
ATOM     17  H   UNL     1     158.054 136.471 142.334  1.00  0.00     0.210 HD
ENDBRANCH  15  16
ENDBRANCH  13  15
ENDBRANCH  11  12
ENDBRANCH   1  11
TORSDOF 8
ENDMDL
MODEL 5
REMARK VINA RESULT:    -5.795      2.650      5.851
REMARK INTER + INTRA:          -9.514
REMARK INTER:                  -7.783
REMARK INTRA:                  -1.731
REMARK UNBOUND:                -1.177
REMARK SMILES CC(C)=CCCC(C)=CCCC(C)=CCO
REMARK SMILES IDX 10 1 9 2 7 3 8 4 6 5 5 6 4 7 1 8 2 9 3 10 11 11 12 12 14 13
REMARK SMILES IDX 13 14 15 15 16 16
REMARK H PARENT 16 17
REMARK Flexibility Score: inf
ROOT
ATOM      1  C   UNL     1     155.359 132.602 138.699  1.00  0.00     0.032 C 
ENDROOT
BRANCH   1   2
ATOM      2  C   UNL     1     155.290 132.259 140.166  1.00  0.00    -0.028 C 
ATOM      3  C   UNL     1     154.141 132.074 140.855  1.00  0.00    -0.077 C 
ATOM      4  C   UNL     1     152.791 132.109 140.178  1.00  0.00     0.039 C 
BRANCH   3   5
ATOM      5  C   UNL     1     154.209 131.753 142.330  1.00  0.00     0.034 C 
BRANCH   5   6
ATOM      6  C   UNL     1     155.185 132.695 143.042  1.00  0.00     0.032 C 
BRANCH   6   7
ATOM      7  C   UNL     1     154.636 134.100 143.117  1.00  0.00    -0.028 C 
ATOM      8  C   UNL     1     154.677 136.538 142.802  1.00  0.00     0.039 C 
ATOM      9  C   UNL     1     155.317 135.180 142.680  1.00  0.00    -0.080 C 
ATOM     10  C   UNL     1     156.700 135.055 142.086  1.00  0.00     0.039 C 
ENDBRANCH   6   7
ENDBRANCH   5   6
ENDBRANCH   3   5
ENDBRANCH   1   2
BRANCH   1  11
ATOM     11  C   UNL     1     155.961 133.997 138.495  1.00  0.00     0.034 C 
BRANCH  11  12
ATOM     12  C   UNL     1     154.890 134.995 138.116  1.00  0.00    -0.075 C 
ATOM     13  C   UNL     1     154.352 135.777 139.078  1.00  0.00    -0.000 C 
ATOM     14  C   UNL     1     154.470 135.117 136.670  1.00  0.00     0.039 C 
BRANCH  13  15
ATOM     15  C   UNL     1     153.292 136.814 138.822  1.00  0.00     0.183 C 
BRANCH  15  16
ATOM     16  O   UNL     1     153.891 138.037 138.499  1.00  0.00    -0.392 OA
ATOM     17  H   UNL     1     153.523 138.298 137.615  1.00  0.00     0.210 HD
ENDBRANCH  15  16
ENDBRANCH  13  15
ENDBRANCH  11  12
ENDBRANCH   1  11
TORSDOF 8
ENDMDL
MODEL 6
REMARK VINA RESULT:    -5.776      3.501      5.486
REMARK INTER + INTRA:          -9.485
REMARK INTER:                  -8.097
REMARK INTRA:                  -1.388
REMARK UNBOUND:                -1.177
REMARK SMILES CC(C)=CCCC(C)=CCCC(C)=CCO
REMARK SMILES IDX 10 1 9 2 7 3 8 4 6 5 5 6 4 7 1 8 2 9 3 10 11 11 12 12 14 13
REMARK SMILES IDX 13 14 15 15 16 16
REMARK H PARENT 16 17
REMARK Flexibility Score: inf
ROOT
ATOM      1  C   UNL     1     154.770 132.700 142.999  1.00  0.00     0.032 C 
ENDROOT
BRANCH   1   2
ATOM      2  C   UNL     1     154.590 132.019 141.665  1.00  0.00    -0.028 C 
ATOM      3  C   UNL     1     155.599 131.499 140.930  1.00  0.00    -0.077 C 
ATOM      4  C   UNL     1     157.023 131.476 141.433  1.00  0.00     0.039 C 
BRANCH   3   5
ATOM      5  C   UNL     1     155.287 130.860 139.597  1.00  0.00     0.034 C 
BRANCH   5   6
ATOM      6  C   UNL     1     154.356 131.757 138.775  1.00  0.00     0.032 C 
BRANCH   6   7
ATOM      7  C   UNL     1     155.139 132.742 137.940  1.00  0.00    -0.028 C 
ATOM      8  C   UNL     1     155.889 134.973 137.228  1.00  0.00     0.039 C 
ATOM      9  C   UNL     1     155.066 134.078 138.117  1.00  0.00    -0.080 C 
ATOM     10  C   UNL     1     154.173 134.687 139.173  1.00  0.00     0.039 C 
ENDBRANCH   6   7
ENDBRANCH   5   6
ENDBRANCH   3   5
ENDBRANCH   1   2
BRANCH   1  11
ATOM     11  C   UNL     1     154.188 134.117 142.970  1.00  0.00     0.034 C 
BRANCH  11  12
ATOM     12  C   UNL     1     155.287 135.148 142.832  1.00  0.00    -0.075 C 
ATOM     13  C   UNL     1     156.557 134.730 142.631  1.00  0.00    -0.000 C 
ATOM     14  C   UNL     1     154.936 136.616 142.892  1.00  0.00     0.039 C 
BRANCH  13  15
ATOM     15  C   UNL     1     157.728 135.659 142.466  1.00  0.00     0.183 C 
BRANCH  15  16
ATOM     16  O   UNL     1     158.817 135.189 143.210  1.00  0.00    -0.392 OA
ATOM     17  H   UNL     1     158.549 135.259 144.163  1.00  0.00     0.210 HD
ENDBRANCH  15  16
ENDBRANCH  13  15
ENDBRANCH  11  12
ENDBRANCH   1  11
TORSDOF 8
ENDMDL
MODEL 7
REMARK VINA RESULT:    -5.664      3.221      4.955
REMARK INTER + INTRA:          -9.325
REMARK INTER:                  -7.423
REMARK INTRA:                  -1.901
REMARK UNBOUND:                -1.177
REMARK SMILES CC(C)=CCCC(C)=CCCC(C)=CCO
REMARK SMILES IDX 10 1 9 2 7 3 8 4 6 5 5 6 4 7 1 8 2 9 3 10 11 11 12 12 14 13
REMARK SMILES IDX 13 14 15 15 16 16
REMARK H PARENT 16 17
REMARK Flexibility Score: inf
ROOT
ATOM      1  C   UNL     1     152.892 130.873 140.706  1.00  0.00     0.032 C 
ENDROOT
BRANCH   1   2
ATOM      2  C   UNL     1     153.174 132.143 139.943  1.00  0.00    -0.028 C 
ATOM      3  C   UNL     1     154.366 132.447 139.379  1.00  0.00    -0.077 C 
ATOM      4  C   UNL     1     155.524 131.477 139.388  1.00  0.00     0.039 C 
BRANCH   3   5
ATOM      5  C   UNL     1     154.526 133.765 138.657  1.00  0.00     0.034 C 
BRANCH   5   6
ATOM      6  C   UNL     1     155.542 134.655 139.380  1.00  0.00     0.032 C 
BRANCH   6   7
ATOM      7  C   UNL     1     154.948 135.267 140.626  1.00  0.00    -0.028 C 
ATOM      8  C   UNL     1     154.724 135.643 143.046  1.00  0.00     0.039 C 
ATOM      9  C   UNL     1     155.388 134.977 141.869  1.00  0.00    -0.080 C 
ATOM     10  C   UNL     1     156.514 133.998 142.100  1.00  0.00     0.039 C 
ENDBRANCH   6   7
ENDBRANCH   5   6
ENDBRANCH   3   5
ENDBRANCH   1   2
BRANCH   1  11
ATOM     11  C   UNL     1     152.587 131.179 142.177  1.00  0.00     0.034 C 
BRANCH  11  12
ATOM     12  C   UNL     1     153.847 131.118 143.012  1.00  0.00    -0.075 C 
ATOM     13  C   UNL     1     154.785 130.189 142.717  1.00  0.00    -0.000 C 
ATOM     14  C   UNL     1     154.043 132.113 144.132  1.00  0.00     0.039 C 
BRANCH  13  15
ATOM     15  C   UNL     1     156.082 130.041 143.466  1.00  0.00     0.183 C 
BRANCH  15  16
ATOM     16  O   UNL     1     157.136 130.547 142.696  1.00  0.00    -0.392 OA
ATOM     17  H   UNL     1     156.768 130.688 141.785  1.00  0.00     0.210 HD
ENDBRANCH  15  16
ENDBRANCH  13  15
ENDBRANCH  11  12
ENDBRANCH   1  11
TORSDOF 8
ENDMDL
MODEL 8
REMARK VINA RESULT:    -5.634      2.852      5.356
REMARK INTER + INTRA:          -9.282
REMARK INTER:                  -7.747
REMARK INTRA:                  -1.535
REMARK UNBOUND:                -1.177
REMARK SMILES CC(C)=CCCC(C)=CCCC(C)=CCO
REMARK SMILES IDX 10 1 9 2 7 3 8 4 6 5 5 6 4 7 1 8 2 9 3 10 11 11 12 12 14 13
REMARK SMILES IDX 13 14 15 15 16 16
REMARK H PARENT 16 17
REMARK Flexibility Score: inf
ROOT
ATOM      1  C   UNL     1     155.894 134.196 138.908  1.00  0.00     0.032 C 
ENDROOT
BRANCH   1   2
ATOM      2  C   UNL     1     155.619 134.653 140.319  1.00  0.00    -0.028 C 
ATOM      3  C   UNL     1     154.767 135.652 140.646  1.00  0.00    -0.077 C 
ATOM      4  C   UNL     1     153.928 136.358 139.607  1.00  0.00     0.039 C 
BRANCH   3   5
ATOM      5  C   UNL     1     154.595 136.027 142.100  1.00  0.00     0.034 C 
BRANCH   5   6
ATOM      6  C   UNL     1     155.260 134.987 143.007  1.00  0.00     0.032 C 
BRANCH   6   7
ATOM      7  C   UNL     1     154.333 133.828 143.285  1.00  0.00    -0.028 C 
ATOM      8  C   UNL     1     153.744 131.463 143.615  1.00  0.00     0.039 C 
ATOM      9  C   UNL     1     154.752 132.546 143.330  1.00  0.00    -0.080 C 
ATOM     10  C   UNL     1     156.197 132.178 143.091  1.00  0.00     0.039 C 
ENDBRANCH   6   7
ENDBRANCH   5   6
ENDBRANCH   3   5
ENDBRANCH   1   2
BRANCH   1  11
ATOM     11  C   UNL     1     154.724 133.366 138.368  1.00  0.00     0.034 C 
BRANCH  11  12
ATOM     12  C   UNL     1     154.437 132.188 139.273  1.00  0.00    -0.075 C 
ATOM     13  C   UNL     1     155.367 131.214 139.398  1.00  0.00    -0.000 C 
ATOM     14  C   UNL     1     153.136 132.143 140.039  1.00  0.00     0.039 C 
BRANCH  13  15
ATOM     15  C   UNL     1     155.201 130.004 140.276  1.00  0.00     0.183 C 
BRANCH  15  16
ATOM     16  O   UNL     1     156.453 129.444 140.557  1.00  0.00    -0.392 OA
ATOM     17  H   UNL     1     157.099 129.907 139.963  1.00  0.00     0.210 HD
ENDBRANCH  15  16
ENDBRANCH  13  15
ENDBRANCH  11  12
ENDBRANCH   1  11
TORSDOF 8
ENDMDL
MODEL 9
REMARK VINA RESULT:    -5.625      2.708      4.273
REMARK INTER + INTRA:          -9.269
REMARK INTER:                  -7.805
REMARK INTRA:                  -1.463
REMARK UNBOUND:                -1.177
REMARK SMILES CC(C)=CCCC(C)=CCCC(C)=CCO
REMARK SMILES IDX 10 1 9 2 7 3 8 4 6 5 5 6 4 7 1 8 2 9 3 10 11 11 12 12 14 13
REMARK SMILES IDX 13 14 15 15 16 16
REMARK H PARENT 16 17
REMARK Flexibility Score: inf
ROOT
ATOM      1  C   UNL     1     156.120 131.783 141.457  1.00  0.00     0.032 C 
ENDROOT
BRANCH   1   2
ATOM      2  C   UNL     1     156.101 132.303 140.041  1.00  0.00    -0.028 C 
ATOM      3  C   UNL     1     154.976 132.501 139.315  1.00  0.00    -0.077 C 
ATOM      4  C   UNL     1     153.600 132.297 139.904  1.00  0.00     0.039 C 
BRANCH   3   5
ATOM      5  C   UNL     1     155.095 133.008 137.896  1.00  0.00     0.034 C 
BRANCH   5   6
ATOM      6  C   UNL     1     155.804 134.365 137.867  1.00  0.00     0.032 C 
BRANCH   6   7
ATOM      7  C   UNL     1     154.941 135.421 137.219  1.00  0.00    -0.028 C 
ATOM      8  C   UNL     1     153.272 137.227 137.170  1.00  0.00     0.039 C 
ATOM      9  C   UNL     1     154.088 136.203 137.915  1.00  0.00    -0.080 C 
ATOM     10  C   UNL     1     153.930 136.063 139.410  1.00  0.00     0.039 C 
ENDBRANCH   6   7
ENDBRANCH   5   6
ENDBRANCH   3   5
ENDBRANCH   1   2
BRANCH   1  11
ATOM     11  C   UNL     1     156.762 132.806 142.402  1.00  0.00     0.034 C 
BRANCH  11  12
ATOM     12  C   UNL     1     155.768 133.879 142.788  1.00  0.00    -0.075 C 
ATOM     13  C   UNL     1     156.055 135.171 142.510  1.00  0.00    -0.000 C 
ATOM     14  C   UNL     1     154.467 133.481 143.446  1.00  0.00     0.039 C 
BRANCH  13  15
ATOM     15  C   UNL     1     155.142 136.321 142.833  1.00  0.00     0.183 C 
BRANCH  15  16
ATOM     16  O   UNL     1     155.800 137.232 143.668  1.00  0.00    -0.392 OA
ATOM     17  H   UNL     1     156.618 137.511 143.179  1.00  0.00     0.210 HD
ENDBRANCH  15  16
ENDBRANCH  13  15
ENDBRANCH  11  12
ENDBRANCH   1  11
TORSDOF 8
ENDMDL
