MODEL 1
REMARK VINA RESULT:    -5.275      0.000      0.000
REMARK INTER + INTRA:          -5.805
REMARK INTER:                  -5.737
REMARK INTRA:                  -0.068
REMARK UNBOUND:                -0.068
REMARK SMILES CCc1cccc(O)c1
REMARK SMILES IDX 3 1 9 2 7 3 6 4 5 5 4 6 2 7 1 8 8 9
REMARK H PARENT 8 10
REMARK Flexibility Score: inf
ROOT
ATOM      1  C   UNL     1      32.270 -14.809  42.083  1.00  0.00    -0.045 A 
ATOM      2  C   UNL     1      31.835 -13.555  41.621  1.00  0.00     0.049 A 
ATOM      3  C   UNL     1      30.979 -13.467  40.513  1.00  0.00     0.115 A 
ATOM      4  C   UNL     1      30.551 -14.634  39.871  1.00  0.00     0.046 A 
ATOM      5  C   UNL     1      30.969 -15.885  40.335  1.00  0.00     0.004 A 
ATOM      6  C   UNL     1      31.821 -15.974  41.440  1.00  0.00     0.004 A 
ENDROOT
BRANCH   1   7
ATOM      7  C   UNL     1      33.162 -14.905  43.293  1.00  0.00     0.032 C 
ATOM      8  C   UNL     1      34.289 -15.903  43.053  1.00  0.00     0.009 C 
ENDBRANCH   1   7
BRANCH   3   9
ATOM      9  O   UNL     1      30.549 -12.228  40.045  1.00  0.00    -0.508 OA
ATOM     10  H   UNL     1      29.751 -12.143  39.427  1.00  0.00     0.293 HD
ENDBRANCH   3   9
TORSDOF 2
ENDMDL
MODEL 2
REMARK VINA RESULT:    -5.096      1.376      2.402
REMARK INTER + INTRA:          -5.611
REMARK INTER:                  -5.559
REMARK INTRA:                  -0.052
REMARK UNBOUND:                -0.068
REMARK SMILES CCc1cccc(O)c1
REMARK SMILES IDX 3 1 9 2 7 3 6 4 5 5 4 6 2 7 1 8 8 9
REMARK H PARENT 8 10
REMARK Flexibility Score: inf
ROOT
ATOM      1  C   UNL     1      31.701 -13.553  41.703  1.00  0.00    -0.045 A 
ATOM      2  C   UNL     1      30.859 -13.200  40.634  1.00  0.00     0.049 A 
ATOM      3  C   UNL     1      30.406 -14.178  39.738  1.00  0.00     0.115 A 
ATOM      4  C   UNL     1      30.788 -15.513  39.913  1.00  0.00     0.046 A 
ATOM      5  C   UNL     1      31.614 -15.872  40.982  1.00  0.00     0.004 A 
ATOM      6  C   UNL     1      32.066 -14.898  41.877  1.00  0.00     0.004 A 
ENDROOT
BRANCH   1   7
ATOM      7  C   UNL     1      32.160 -12.508  42.685  1.00  0.00     0.032 C 
ATOM      8  C   UNL     1      31.351 -11.226  42.526  1.00  0.00     0.009 C 
ENDBRANCH   1   7
BRANCH   3   9
ATOM      9  O   UNL     1      29.577 -13.835  38.672  1.00  0.00    -0.508 OA
ATOM     10  H   UNL     1      29.089 -14.540  38.133  1.00  0.00     0.293 HD
ENDBRANCH   3   9
TORSDOF 2
ENDMDL
MODEL 3
REMARK VINA RESULT:    -5.060      1.726      3.480
REMARK INTER + INTRA:          -5.571
REMARK INTER:                  -5.520
REMARK INTRA:                  -0.052
REMARK UNBOUND:                -0.068
REMARK SMILES CCc1cccc(O)c1
REMARK SMILES IDX 3 1 9 2 7 3 6 4 5 5 4 6 2 7 1 8 8 9
REMARK H PARENT 8 10
REMARK Flexibility Score: inf
ROOT
ATOM      1  C   UNL     1      31.479 -13.799  41.429  1.00  0.00    -0.045 A 
ATOM      2  C   UNL     1      30.522 -12.770  41.410  1.00  0.00     0.049 A 
ATOM      3  C   UNL     1      30.738 -11.590  42.136  1.00  0.00     0.115 A 
ATOM      4  C   UNL     1      31.916 -11.433  42.875  1.00  0.00     0.046 A 
ATOM      5  C   UNL     1      32.878 -12.448  42.886  1.00  0.00     0.004 A 
ATOM      6  C   UNL     1      32.664 -13.624  42.163  1.00  0.00     0.004 A 
ENDROOT
BRANCH   1   7
ATOM      7  C   UNL     1      31.263 -15.052  40.623  1.00  0.00     0.032 C 
ATOM      8  C   UNL     1      30.263 -14.804  39.499  1.00  0.00     0.009 C 
ENDBRANCH   1   7
BRANCH   3   9
ATOM      9  O   UNL     1      29.791 -10.568  42.127  1.00  0.00    -0.508 OA
ATOM     10  H   UNL     1      30.065  -9.593  42.097  1.00  0.00     0.293 HD
ENDBRANCH   3   9
TORSDOF 2
ENDMDL
MODEL 4
REMARK VINA RESULT:    -4.868      2.449      3.729
REMARK INTER + INTRA:          -5.363
REMARK INTER:                  -5.288
REMARK INTRA:                  -0.075
REMARK UNBOUND:                -0.068
REMARK SMILES CCc1cccc(O)c1
REMARK SMILES IDX 3 1 9 2 7 3 6 4 5 5 4 6 2 7 1 8 8 9
REMARK H PARENT 8 10
REMARK Flexibility Score: inf
ROOT
ATOM      1  C   UNL     1      31.854 -13.501  41.934  1.00  0.00    -0.045 A 
ATOM      2  C   UNL     1      32.804 -12.895  42.773  1.00  0.00     0.049 A 
ATOM      3  C   UNL     1      32.618 -11.578  43.218  1.00  0.00     0.115 A 
ATOM      4  C   UNL     1      31.477 -10.868  42.829  1.00  0.00     0.046 A 
ATOM      5  C   UNL     1      30.522 -11.470  42.004  1.00  0.00     0.004 A 
ATOM      6  C   UNL     1      30.706 -12.783  41.562  1.00  0.00     0.004 A 
ENDROOT
BRANCH   1   7
ATOM      7  C   UNL     1      32.038 -14.926  41.483  1.00  0.00     0.032 C 
ATOM      8  C   UNL     1      30.979 -15.307  40.454  1.00  0.00     0.009 C 
ENDBRANCH   1   7
BRANCH   3   9
ATOM      9  O   UNL     1      33.558 -10.969  44.046  1.00  0.00    -0.508 OA
ATOM     10  H   UNL     1      33.776 -11.341  44.962  1.00  0.00     0.293 HD
ENDBRANCH   3   9
TORSDOF 2
ENDMDL
MODEL 5
REMARK VINA RESULT:    -4.825      3.309      4.251
REMARK INTER + INTRA:          -5.315
REMARK INTER:                  -5.265
REMARK INTRA:                  -0.050
REMARK UNBOUND:                -0.068
REMARK SMILES CCc1cccc(O)c1
REMARK SMILES IDX 3 1 9 2 7 3 6 4 5 5 4 6 2 7 1 8 8 9
REMARK H PARENT 8 10
REMARK Flexibility Score: inf
ROOT
ATOM      1  C   UNL     1      31.978 -12.348  42.745  1.00  0.00    -0.045 A 
ATOM      2  C   UNL     1      32.409 -11.546  43.816  1.00  0.00     0.049 A 
ATOM      3  C   UNL     1      31.597 -10.506  44.292  1.00  0.00     0.115 A 
ATOM      4  C   UNL     1      30.351 -10.271  43.703  1.00  0.00     0.046 A 
ATOM      5  C   UNL     1      29.911 -11.074  42.646  1.00  0.00     0.004 A 
ATOM      6  C   UNL     1      30.718 -12.112  42.171  1.00  0.00     0.004 A 
ENDROOT
BRANCH   1   7
ATOM      7  C   UNL     1      32.835 -13.486  42.256  1.00  0.00     0.032 C 
ATOM      8  C   UNL     1      33.086 -14.491  43.375  1.00  0.00     0.009 C 
ENDBRANCH   1   7
BRANCH   3   9
ATOM      9  O   UNL     1      32.020  -9.703  45.349  1.00  0.00    -0.508 OA
ATOM     10  H   UNL     1      31.794  -8.716  45.387  1.00  0.00     0.293 HD
ENDBRANCH   3   9
TORSDOF 2
ENDMDL
MODEL 6
REMARK VINA RESULT:    -4.695      1.285      2.412
REMARK INTER + INTRA:          -5.174
REMARK INTER:                  -5.104
REMARK INTRA:                  -0.070
REMARK UNBOUND:                -0.068
REMARK SMILES CCc1cccc(O)c1
REMARK SMILES IDX 3 1 9 2 7 3 6 4 5 5 4 6 2 7 1 8 8 9
REMARK H PARENT 8 10
REMARK Flexibility Score: inf
ROOT
ATOM      1  C   UNL     1      32.375 -14.427  42.525  1.00  0.00    -0.045 A 
ATOM      2  C   UNL     1      31.741 -14.036  41.334  1.00  0.00     0.049 A 
ATOM      3  C   UNL     1      31.196 -12.749  41.213  1.00  0.00     0.115 A 
ATOM      4  C   UNL     1      31.292 -11.850  42.280  1.00  0.00     0.046 A 
ATOM      5  C   UNL     1      31.934 -12.230  43.463  1.00  0.00     0.004 A 
ATOM      6  C   UNL     1      32.478 -13.511  43.585  1.00  0.00     0.004 A 
ENDROOT
BRANCH   1   7
ATOM      7  C   UNL     1      32.990 -15.797  42.644  1.00  0.00     0.032 C 
ATOM      8  C   UNL     1      34.370 -15.715  43.286  1.00  0.00     0.009 C 
ENDBRANCH   1   7
BRANCH   3   9
ATOM      9  O   UNL     1      30.560 -12.355  40.038  1.00  0.00    -0.508 OA
ATOM     10  H   UNL     1      30.845 -12.716  39.136  1.00  0.00     0.293 HD
ENDBRANCH   3   9
TORSDOF 2
ENDMDL
MODEL 7
REMARK VINA RESULT:    -4.630      2.507      3.482
REMARK INTER + INTRA:          -5.104
REMARK INTER:                  -5.052
REMARK INTRA:                  -0.052
REMARK UNBOUND:                -0.068
REMARK SMILES CCc1cccc(O)c1
REMARK SMILES IDX 3 1 9 2 7 3 6 4 5 5 4 6 2 7 1 8 8 9
REMARK H PARENT 8 10
REMARK Flexibility Score: inf
ROOT
ATOM      1  C   UNL     1      31.911 -13.275  42.312  1.00  0.00    -0.045 A 
ATOM      2  C   UNL     1      32.804 -14.011  43.108  1.00  0.00     0.049 A 
ATOM      3  C   UNL     1      32.973 -15.387  42.894  1.00  0.00     0.115 A 
ATOM      4  C   UNL     1      32.255 -16.027  41.879  1.00  0.00     0.046 A 
ATOM      5  C   UNL     1      31.374 -15.296  41.075  1.00  0.00     0.004 A 
ATOM      6  C   UNL     1      31.205 -13.925  41.286  1.00  0.00     0.004 A 
ENDROOT
BRANCH   1   7
ATOM      7  C   UNL     1      31.754 -11.792  42.519  1.00  0.00     0.032 C 
ATOM      8  C   UNL     1      32.891 -11.244  43.375  1.00  0.00     0.009 C 
ENDBRANCH   1   7
BRANCH   3   9
ATOM      9  O   UNL     1      33.853 -16.125  43.684  1.00  0.00    -0.508 OA
ATOM     10  H   UNL     1      34.794 -15.801  43.871  1.00  0.00     0.293 HD
ENDBRANCH   3   9
TORSDOF 2
ENDMDL
MODEL 8
REMARK VINA RESULT:    -4.592      2.297      3.552
REMARK INTER + INTRA:          -5.062
REMARK INTER:                  -5.011
REMARK INTRA:                  -0.051
REMARK UNBOUND:                -0.068
REMARK SMILES CCc1cccc(O)c1
REMARK SMILES IDX 3 1 9 2 7 3 6 4 5 5 4 6 2 7 1 8 8 9
REMARK H PARENT 8 10
REMARK Flexibility Score: inf
ROOT
ATOM      1  C   UNL     1      31.636 -11.989  43.112  1.00  0.00    -0.045 A 
ATOM      2  C   UNL     1      30.890 -12.021  41.922  1.00  0.00     0.049 A 
ATOM      3  C   UNL     1      31.033 -13.091  41.027  1.00  0.00     0.115 A 
ATOM      4  C   UNL     1      31.917 -14.134  41.324  1.00  0.00     0.046 A 
ATOM      5  C   UNL     1      32.651 -14.113  42.514  1.00  0.00     0.004 A 
ATOM      6  C   UNL     1      32.509 -13.048  43.408  1.00  0.00     0.004 A 
ENDROOT
BRANCH   1   7
ATOM      7  C   UNL     1      31.458 -10.857  44.090  1.00  0.00     0.032 C 
ATOM      8  C   UNL     1      30.393  -9.882  43.597  1.00  0.00     0.009 C 
ENDBRANCH   1   7
BRANCH   3   9
ATOM      9  O   UNL     1      30.302 -13.127  39.841  1.00  0.00    -0.508 OA
ATOM     10  H   UNL     1      30.760 -13.150  38.938  1.00  0.00     0.293 HD
ENDBRANCH   3   9
TORSDOF 2
ENDMDL
MODEL 9
REMARK VINA RESULT:    -4.529      2.783      3.961
REMARK INTER + INTRA:          -4.994
REMARK INTER:                  -4.920
REMARK INTRA:                  -0.075
REMARK UNBOUND:                -0.068
REMARK SMILES CCc1cccc(O)c1
REMARK SMILES IDX 3 1 9 2 7 3 6 4 5 5 4 6 2 7 1 8 8 9
REMARK H PARENT 8 10
REMARK Flexibility Score: inf
ROOT
ATOM      1  C   UNL     1      31.636 -12.533  42.432  1.00  0.00    -0.045 A 
ATOM      2  C   UNL     1      30.485 -11.837  42.025  1.00  0.00     0.049 A 
ATOM      3  C   UNL     1      30.076 -10.684  42.711  1.00  0.00     0.115 A 
ATOM      4  C   UNL     1      30.822 -10.222  43.800  1.00  0.00     0.046 A 
ATOM      5  C   UNL     1      31.976 -10.903  44.201  1.00  0.00     0.004 A 
ATOM      6  C   UNL     1      32.385 -12.051  43.518  1.00  0.00     0.004 A 
ENDROOT
BRANCH   1   7
ATOM      7  C   UNL     1      32.094 -13.752  41.675  1.00  0.00     0.032 C 
ATOM      8  C   UNL     1      33.151 -14.513  42.468  1.00  0.00     0.009 C 
ENDBRANCH   1   7
BRANCH   3   9
ATOM      9  O   UNL     1      28.933  -9.992  42.318  1.00  0.00    -0.508 OA
ATOM     10  H   UNL     1      28.512 -10.140  41.409  1.00  0.00     0.293 HD
ENDBRANCH   3   9
TORSDOF 2
ENDMDL
