MODEL 1
REMARK VINA RESULT:    -5.856      0.000      0.000
REMARK INTER + INTRA:          -6.027
REMARK INTER:                  -6.027
REMARK INTRA:                   0.000
REMARK UNBOUND:                 0.000
REMARK SMILES O=c1ccc2ccc(O)cc2o1
REMARK SMILES IDX 6 1 7 2 8 3 10 4 11 5 5 6 4 7 3 8 2 9 1 10 12 11 9 12
REMARK H PARENT 9 13
REMARK Flexibility Score: inf
ROOT
ATOM      1  C   UNL     1       8.363   2.451  11.365  1.00  0.00     0.016 A 
ATOM      2  C   UNL     1       7.857   1.257  10.843  1.00  0.00     0.047 A 
ATOM      3  C   UNL     1       6.739   1.271   9.997  1.00  0.00     0.119 A 
ATOM      4  C   UNL     1       6.125   2.486   9.672  1.00  0.00     0.094 A 
ATOM      5  C   UNL     1       6.625   3.687  10.189  1.00  0.00     0.142 A 
ATOM      6  C   UNL     1       7.751   3.670  11.041  1.00  0.00     0.018 A 
ATOM      7  C   UNL     1       8.227   4.886  11.542  1.00  0.00     0.019 A 
ATOM      8  C   UNL     1       7.582   6.070  11.189  1.00  0.00     0.094 A 
ATOM      9  C   UNL     1       6.471   6.011  10.340  1.00  0.00     0.336 A 
ATOM     10  O   UNL     1       5.875   7.070  10.010  1.00  0.00    -0.246 OA
ATOM     11  O   UNL     1       6.038   4.840   9.877  1.00  0.00    -0.423 OA
ENDROOT
BRANCH   3  12
ATOM     12  O   UNL     1       6.230   0.085   9.474  1.00  0.00    -0.508 OA
ATOM     13  H   UNL     1       6.741  -0.451   8.782  1.00  0.00     0.293 HD
ENDBRANCH   3  12
TORSDOF 1
ENDMDL
MODEL 2
REMARK VINA RESULT:    -5.535      1.652      4.768
REMARK INTER + INTRA:          -5.697
REMARK INTER:                  -5.697
REMARK INTRA:                   0.000
REMARK UNBOUND:                 0.000
REMARK SMILES O=c1ccc2ccc(O)cc2o1
REMARK SMILES IDX 6 1 7 2 8 3 10 4 11 5 5 6 4 7 3 8 2 9 1 10 12 11 9 12
REMARK H PARENT 9 13
REMARK Flexibility Score: inf
ROOT
ATOM      1  C   UNL     1       5.928   4.885   9.788  1.00  0.00     0.016 A 
ATOM      2  C   UNL     1       6.309   6.165  10.202  1.00  0.00     0.047 A 
ATOM      3  C   UNL     1       7.427   6.338  11.030  1.00  0.00     0.119 A 
ATOM      4  C   UNL     1       8.168   5.225  11.444  1.00  0.00     0.094 A 
ATOM      5  C   UNL     1       7.796   3.940  11.034  1.00  0.00     0.142 A 
ATOM      6  C   UNL     1       6.668   3.769  10.201  1.00  0.00     0.018 A 
ATOM      7  C   UNL     1       6.320   2.472   9.807  1.00  0.00     0.019 A 
ATOM      8  C   UNL     1       7.089   1.395  10.245  1.00  0.00     0.094 A 
ATOM      9  C   UNL     1       8.193   1.640  11.069  1.00  0.00     0.336 A 
ATOM     10  O   UNL     1       8.900   0.681  11.475  1.00  0.00    -0.246 OA
ATOM     11  O   UNL     1       8.503   2.884  11.430  1.00  0.00    -0.423 OA
ENDROOT
BRANCH   3  12
ATOM     12  O   UNL     1       7.812   7.610  11.447  1.00  0.00    -0.508 OA
ATOM     13  H   UNL     1       8.510   8.144  10.942  1.00  0.00     0.293 HD
ENDBRANCH   3  12
TORSDOF 1
ENDMDL
MODEL 3
REMARK VINA RESULT:    -5.315      1.453      2.224
REMARK INTER + INTRA:          -5.471
REMARK INTER:                  -5.471
REMARK INTRA:                   0.000
REMARK UNBOUND:                 0.000
REMARK SMILES O=c1ccc2ccc(O)cc2o1
REMARK SMILES IDX 6 1 7 2 8 3 10 4 11 5 5 6 4 7 3 8 2 9 1 10 12 11 9 12
REMARK H PARENT 9 13
REMARK Flexibility Score: inf
ROOT
ATOM      1  C   UNL     1       6.279   2.432   9.642  1.00  0.00     0.016 A 
ATOM      2  C   UNL     1       7.006   1.315  10.065  1.00  0.00     0.047 A 
ATOM      3  C   UNL     1       8.088   1.466  10.945  1.00  0.00     0.119 A 
ATOM      4  C   UNL     1       8.441   2.740  11.403  1.00  0.00     0.094 A 
ATOM      5  C   UNL     1       7.719   3.864  10.987  1.00  0.00     0.142 A 
ATOM      6  C   UNL     1       6.631   3.709  10.100  1.00  0.00     0.018 A 
ATOM      7  C   UNL     1       5.928   4.850   9.702  1.00  0.00     0.019 A 
ATOM      8  C   UNL     1       6.318   6.098  10.186  1.00  0.00     0.094 A 
ATOM      9  C   UNL     1       7.406   6.176  11.062  1.00  0.00     0.336 A 
ATOM     10  O   UNL     1       7.774   7.293  11.510  1.00  0.00    -0.246 OA
ATOM     11  O   UNL     1       8.059   5.074  11.426  1.00  0.00    -0.423 OA
ENDROOT
BRANCH   3  12
ATOM     12  O   UNL     1       8.817   0.358  11.369  1.00  0.00    -0.508 OA
ATOM     13  H   UNL     1       8.425  -0.577  11.339  1.00  0.00     0.293 HD
ENDBRANCH   3  12
TORSDOF 1
ENDMDL
MODEL 4
REMARK VINA RESULT:    -4.888     12.336     13.263
REMARK INTER + INTRA:          -5.031
REMARK INTER:                  -5.031
REMARK INTRA:                   0.000
REMARK UNBOUND:                 0.000
REMARK SMILES O=c1ccc2ccc(O)cc2o1
REMARK SMILES IDX 6 1 7 2 8 3 10 4 11 5 5 6 4 7 3 8 2 9 1 10 12 11 9 12
REMARK H PARENT 9 13
REMARK Flexibility Score: inf
ROOT
ATOM      1  C   UNL     1       8.646  -4.180  18.751  1.00  0.00     0.016 A 
ATOM      2  C   UNL     1       7.872  -5.312  19.025  1.00  0.00     0.047 A 
ATOM      3  C   UNL     1       8.450  -6.434  19.637  1.00  0.00     0.119 A 
ATOM      4  C   UNL     1       9.808  -6.422  19.975  1.00  0.00     0.094 A 
ATOM      5  C   UNL     1      10.591  -5.294  19.706  1.00  0.00     0.142 A 
ATOM      6  C   UNL     1      10.006  -4.166  19.089  1.00  0.00     0.018 A 
ATOM      7  C   UNL     1      10.813  -3.053  18.832  1.00  0.00     0.019 A 
ATOM      8  C   UNL     1      12.160  -3.088  19.188  1.00  0.00     0.094 A 
ATOM      9  C   UNL     1      12.672  -4.240  19.796  1.00  0.00     0.336 A 
ATOM     10  O   UNL     1      13.886  -4.292  20.125  1.00  0.00    -0.246 OA
ATOM     11  O   UNL     1      11.882  -5.287  20.029  1.00  0.00    -0.423 OA
ENDROOT
BRANCH   3  12
ATOM     12  O   UNL     1       7.685  -7.565  19.912  1.00  0.00    -0.508 OA
ATOM     13  H   UNL     1       7.129  -7.635  20.756  1.00  0.00     0.293 HD
ENDBRANCH   3  12
TORSDOF 1
ENDMDL
MODEL 5
REMARK VINA RESULT:    -4.868     10.695     12.228
REMARK INTER + INTRA:          -5.010
REMARK INTER:                  -5.010
REMARK INTRA:                   0.000
REMARK UNBOUND:                 0.000
REMARK SMILES O=c1ccc2ccc(O)cc2o1
REMARK SMILES IDX 6 1 7 2 8 3 10 4 11 5 5 6 4 7 3 8 2 9 1 10 12 11 9 12
REMARK H PARENT 9 13
REMARK Flexibility Score: inf
ROOT
ATOM      1  C   UNL     1      10.635  -5.966  20.034  1.00  0.00     0.016 A 
ATOM      2  C   UNL     1       9.609  -6.911  20.125  1.00  0.00     0.047 A 
ATOM      3  C   UNL     1       8.335  -6.625  19.615  1.00  0.00     0.119 A 
ATOM      4  C   UNL     1       8.087  -5.387  19.010  1.00  0.00     0.094 A 
ATOM      5  C   UNL     1       9.108  -4.435  18.913  1.00  0.00     0.142 A 
ATOM      6  C   UNL     1      10.390  -4.726  19.428  1.00  0.00     0.018 A 
ATOM      7  C   UNL     1      11.390  -3.754  19.317  1.00  0.00     0.019 A 
ATOM      8  C   UNL     1      11.095  -2.536  18.706  1.00  0.00     0.094 A 
ATOM      9  C   UNL     1       9.802  -2.317  18.218  1.00  0.00     0.336 A 
ATOM     10  O   UNL     1       9.516  -1.224  17.664  1.00  0.00    -0.246 OA
ATOM     11  O   UNL     1       8.868  -3.259  18.337  1.00  0.00    -0.423 OA
ENDROOT
BRANCH   3  12
ATOM     12  O   UNL     1       7.308  -7.562  19.703  1.00  0.00    -0.508 OA
ATOM     13  H   UNL     1       7.117  -8.058  20.566  1.00  0.00     0.293 HD
ENDBRANCH   3  12
TORSDOF 1
ENDMDL
MODEL 6
REMARK VINA RESULT:    -4.844     10.140     12.227
REMARK INTER + INTRA:          -4.986
REMARK INTER:                  -4.986
REMARK INTRA:                   0.000
REMARK UNBOUND:                 0.000
REMARK SMILES O=c1ccc2ccc(O)cc2o1
REMARK SMILES IDX 6 1 7 2 8 3 10 4 11 5 5 6 4 7 3 8 2 9 1 10 12 11 9 12
REMARK H PARENT 9 13
REMARK Flexibility Score: inf
ROOT
ATOM      1  C   UNL     1      11.937  -2.995  19.157  1.00  0.00     0.016 A 
ATOM      2  C   UNL     1      11.766  -1.816  18.425  1.00  0.00     0.047 A 
ATOM      3  C   UNL     1      10.545  -1.545  17.792  1.00  0.00     0.119 A 
ATOM      4  C   UNL     1       9.490  -2.459  17.893  1.00  0.00     0.094 A 
ATOM      5  C   UNL     1       9.650  -3.642  18.623  1.00  0.00     0.142 A 
ATOM      6  C   UNL     1      10.881  -3.912  19.259  1.00  0.00     0.018 A 
ATOM      7  C   UNL     1      11.011  -5.102  19.982  1.00  0.00     0.019 A 
ATOM      8  C   UNL     1       9.931  -5.980  20.053  1.00  0.00     0.094 A 
ATOM      9  C   UNL     1       8.741  -5.647  19.398  1.00  0.00     0.336 A 
ATOM     10  O   UNL     1       7.755  -6.427  19.450  1.00  0.00    -0.246 OA
ATOM     11  O   UNL     1       8.643  -4.508  18.716  1.00  0.00    -0.423 OA
ENDROOT
BRANCH   3  12
ATOM     12  O   UNL     1      10.369  -0.372  17.062  1.00  0.00    -0.508 OA
ATOM     13  H   UNL     1      11.077  -0.038  16.419  1.00  0.00     0.293 HD
ENDBRANCH   3  12
TORSDOF 1
ENDMDL
MODEL 7
REMARK VINA RESULT:    -4.820     10.723     12.379
REMARK INTER + INTRA:          -4.961
REMARK INTER:                  -4.961
REMARK INTRA:                   0.000
REMARK UNBOUND:                 0.000
REMARK SMILES O=c1ccc2ccc(O)cc2o1
REMARK SMILES IDX 6 1 7 2 8 3 10 4 11 5 5 6 4 7 3 8 2 9 1 10 12 11 9 12
REMARK H PARENT 9 13
REMARK Flexibility Score: inf
ROOT
ATOM      1  C   UNL     1      10.532  -1.748  17.739  1.00  0.00     0.016 A 
ATOM      2  C   UNL     1      11.866  -1.339  17.827  1.00  0.00     0.047 A 
ATOM      3  C   UNL     1      12.803  -2.122  18.516  1.00  0.00     0.119 A 
ATOM      4  C   UNL     1      12.403  -3.320  19.118  1.00  0.00     0.094 A 
ATOM      5  C   UNL     1      11.070  -3.739  19.035  1.00  0.00     0.142 A 
ATOM      6  C   UNL     1      10.128  -2.948  18.342  1.00  0.00     0.018 A 
ATOM      7  C   UNL     1       8.804  -3.392  18.276  1.00  0.00     0.019 A 
ATOM      8  C   UNL     1       8.454  -4.592  18.892  1.00  0.00     0.094 A 
ATOM      9  C   UNL     1       9.440  -5.324  19.562  1.00  0.00     0.336 A 
ATOM     10  O   UNL     1       9.143  -6.411  20.124  1.00  0.00    -0.246 OA
ATOM     11  O   UNL     1      10.694  -4.879  19.610  1.00  0.00    -0.423 OA
ENDROOT
BRANCH   3  12
ATOM     12  O   UNL     1      14.134  -1.720  18.607  1.00  0.00    -0.508 OA
ATOM     13  H   UNL     1      14.874  -2.383  18.808  1.00  0.00     0.293 HD
ENDBRANCH   3  12
TORSDOF 1
ENDMDL
MODEL 8
REMARK VINA RESULT:    -4.786      9.830     11.954
REMARK INTER + INTRA:          -4.926
REMARK INTER:                  -4.926
REMARK INTRA:                   0.000
REMARK UNBOUND:                 0.000
REMARK SMILES O=c1ccc2ccc(O)cc2o1
REMARK SMILES IDX 6 1 7 2 8 3 10 4 11 5 5 6 4 7 3 8 2 9 1 10 12 11 9 12
REMARK H PARENT 9 13
REMARK Flexibility Score: inf
ROOT
ATOM      1  C   UNL     1       7.676  -2.279  18.269  1.00  0.00     0.016 A 
ATOM      2  C   UNL     1       8.349  -1.182  17.723  1.00  0.00     0.047 A 
ATOM      3  C   UNL     1       9.749  -1.174  17.650  1.00  0.00     0.119 A 
ATOM      4  C   UNL     1      10.479  -2.269  18.127  1.00  0.00     0.094 A 
ATOM      5  C   UNL     1       9.815  -3.373  18.675  1.00  0.00     0.142 A 
ATOM      6  C   UNL     1       8.404  -3.377  18.747  1.00  0.00     0.018 A 
ATOM      7  C   UNL     1       7.769  -4.493  19.301  1.00  0.00     0.019 A 
ATOM      8  C   UNL     1       8.538  -5.560  19.761  1.00  0.00     0.094 A 
ATOM      9  C   UNL     1       9.932  -5.486  19.658  1.00  0.00     0.336 A 
ATOM     10  O   UNL     1      10.644  -6.439  20.069  1.00  0.00    -0.246 OA
ATOM     11  O   UNL     1      10.512  -4.412  19.127  1.00  0.00    -0.423 OA
ENDROOT
BRANCH   3  12
ATOM     12  O   UNL     1      10.426  -0.084  17.107  1.00  0.00    -0.508 OA
ATOM     13  H   UNL     1      10.543   0.020  16.106  1.00  0.00     0.293 HD
ENDBRANCH   3  12
TORSDOF 1
ENDMDL
MODEL 9
REMARK VINA RESULT:    -4.681     10.531     12.077
REMARK INTER + INTRA:          -4.818
REMARK INTER:                  -4.818
REMARK INTRA:                   0.000
REMARK UNBOUND:                 0.000
REMARK SMILES O=c1ccc2ccc(O)cc2o1
REMARK SMILES IDX 6 1 7 2 8 3 10 4 11 5 5 6 4 7 3 8 2 9 1 10 12 11 9 12
REMARK H PARENT 9 13
REMARK Flexibility Score: inf
ROOT
ATOM      1  C   UNL     1      10.613  -4.578  19.638  1.00  0.00     0.016 A 
ATOM      2  C   UNL     1      10.577  -5.942  19.940  1.00  0.00     0.047 A 
ATOM      3  C   UNL     1       9.379  -6.662  19.825  1.00  0.00     0.119 A 
ATOM      4  C   UNL     1       8.212  -6.012  19.407  1.00  0.00     0.094 A 
ATOM      5  C   UNL     1       8.238  -4.647  19.102  1.00  0.00     0.142 A 
ATOM      6  C   UNL     1       9.445  -3.925  19.219  1.00  0.00     0.018 A 
ATOM      7  C   UNL     1       9.440  -2.561  18.907  1.00  0.00     0.019 A 
ATOM      8  C   UNL     1       8.253  -1.959  18.494  1.00  0.00     0.094 A 
ATOM      9  C   UNL     1       7.093  -2.737  18.401  1.00  0.00     0.336 A 
ATOM     10  O   UNL     1       6.012  -2.211  18.030  1.00  0.00    -0.246 OA
ATOM     11  O   UNL     1       7.126  -4.033  18.704  1.00  0.00    -0.423 OA
ENDROOT
BRANCH   3  12
ATOM     12  O   UNL     1       9.336  -8.022  20.125  1.00  0.00    -0.508 OA
ATOM     13  H   UNL     1       9.855  -8.408  20.904  1.00  0.00     0.293 HD
ENDBRANCH   3  12
TORSDOF 1
ENDMDL
