MODEL 1
REMARK VINA RESULT:    -5.452      0.000      0.000
REMARK INTER + INTRA:          -7.132
REMARK INTER:                  -7.046
REMARK INTRA:                  -0.087
REMARK UNBOUND:                -0.087
REMARK SMILES CCO[C@@H]1O[C@H](CO)[C@H](O)[C@@H](O)[C@@H]1O
REMARK SMILES IDX 4 1 13 2 11 3 9 4 6 5 5 6 3 7 2 8 1 9 14 10 12 12 7 14 8 15
REMARK SMILES IDX 10 17
REMARK H PARENT 14 11 12 13 8 16 10 18
REMARK Flexibility Score: inf
ROOT
ATOM      1  C   UNL     1       7.505   6.067  20.202  1.00  0.00     0.281 C 
ATOM      2  C   UNL     1       7.012   6.339  21.635  1.00  0.00     0.202 C 
ATOM      3  C   UNL     1       6.732   5.024  22.369  1.00  0.00     0.179 C 
ATOM      4  C   UNL     1       7.987   4.136  22.294  1.00  0.00     0.177 C 
ATOM      5  C   UNL     1       8.490   3.977  20.835  1.00  0.00     0.178 C 
ATOM      6  O   UNL     1       8.657   5.230  20.177  1.00  0.00    -0.341 OA
ENDROOT
BRANCH   1   7
ATOM      7  O   UNL     1       6.457   5.506  19.420  1.00  0.00    -0.350 OA
BRANCH   7   8
ATOM      8  C   UNL     1       6.072   6.354  18.353  1.00  0.00     0.160 C 
ATOM      9  C   UNL     1       7.276   6.787  17.520  1.00  0.00     0.035 C 
ENDBRANCH   7   8
ENDBRANCH   1   7
BRANCH   2  10
ATOM     10  O   UNL     1       5.848   7.124  21.584  1.00  0.00    -0.385 OA
ATOM     11  H   UNL     1       6.139   8.071  21.524  1.00  0.00     0.211 HD
ENDBRANCH   2  10
BRANCH   3  12
ATOM     12  O   UNL     1       6.422   5.299  23.711  1.00  0.00    -0.387 OA
ATOM     13  H   UNL     1       7.175   5.833  24.077  1.00  0.00     0.211 HD
ENDBRANCH   3  12
BRANCH   5  14
ATOM     14  C   UNL     1       7.687   2.975  19.975  1.00  0.00     0.191 C 
BRANCH  14  15
ATOM     15  O   UNL     1       6.339   2.981  20.361  1.00  0.00    -0.394 OA
ATOM     16  H   UNL     1       5.817   2.788  19.540  1.00  0.00     0.210 HD
ENDBRANCH  14  15
ENDBRANCH   5  14
BRANCH   4  17
ATOM     17  O   UNL     1       7.786   2.888  22.913  1.00  0.00    -0.387 OA
ATOM     18  H   UNL     1       8.393   2.229  22.484  1.00  0.00     0.211 HD
ENDBRANCH   4  17
TORSDOF 7
ENDMDL
MODEL 2
REMARK VINA RESULT:    -5.004     12.475     14.361
REMARK INTER + INTRA:          -6.553
REMARK INTER:                  -6.082
REMARK INTRA:                  -0.471
REMARK UNBOUND:                -0.087
REMARK SMILES CCO[C@@H]1O[C@H](CO)[C@H](O)[C@@H](O)[C@@H]1O
REMARK SMILES IDX 4 1 13 2 11 3 9 4 6 5 5 6 3 7 2 8 1 9 14 10 12 12 7 14 8 15
REMARK SMILES IDX 10 17
REMARK H PARENT 14 11 12 13 8 16 10 18
REMARK Flexibility Score: inf
ROOT
ATOM      1  C   UNL     1      19.227  -3.881  22.572  1.00  0.00     0.281 C 
ATOM      2  C   UNL     1      19.246  -4.096  24.096  1.00  0.00     0.202 C 
ATOM      3  C   UNL     1      18.037  -3.421  24.753  1.00  0.00     0.179 C 
ATOM      4  C   UNL     1      16.755  -3.920  24.063  1.00  0.00     0.177 C 
ATOM      5  C   UNL     1      16.835  -3.764  22.521  1.00  0.00     0.178 C 
ATOM      6  O   UNL     1      18.019  -4.342  21.976  1.00  0.00    -0.341 OA
ENDROOT
BRANCH   1   7
ATOM      7  O   UNL     1      19.449  -2.508  22.266  1.00  0.00    -0.350 OA
BRANCH   7   8
ATOM      8  C   UNL     1      20.330  -2.338  21.171  1.00  0.00     0.160 C 
ATOM      9  C   UNL     1      21.782  -2.245  21.631  1.00  0.00     0.035 C 
ENDBRANCH   7   8
ENDBRANCH   1   7
BRANCH   2  10
ATOM     10  O   UNL     1      20.439  -3.574  24.624  1.00  0.00    -0.385 OA
ATOM     11  H   UNL     1      21.149  -4.246  24.456  1.00  0.00     0.211 HD
ENDBRANCH   2  10
BRANCH   3  12
ATOM     12  O   UNL     1      18.004  -3.753  26.117  1.00  0.00    -0.387 OA
ATOM     13  H   UNL     1      17.822  -2.912  26.613  1.00  0.00     0.211 HD
ENDBRANCH   3  12
BRANCH   5  14
ATOM     14  C   UNL     1      16.599  -2.329  21.999  1.00  0.00     0.191 C 
BRANCH  14  15
ATOM     15  O   UNL     1      15.240  -1.997  22.099  1.00  0.00    -0.394 OA
ATOM     16  H   UNL     1      15.162  -1.389  22.879  1.00  0.00     0.210 HD
ENDBRANCH  14  15
ENDBRANCH   5  14
BRANCH   4  17
ATOM     17  O   UNL     1      15.602  -3.307  24.587  1.00  0.00    -0.387 OA
ATOM     18  H   UNL     1      15.027  -4.014  24.980  1.00  0.00     0.211 HD
ENDBRANCH   4  17
TORSDOF 7
ENDMDL
MODEL 3
REMARK VINA RESULT:    -4.987      1.745      3.731
REMARK INTER + INTRA:          -6.531
REMARK INTER:                  -6.186
REMARK INTRA:                  -0.345
REMARK UNBOUND:                -0.087
REMARK SMILES CCO[C@@H]1O[C@H](CO)[C@H](O)[C@@H](O)[C@@H]1O
REMARK SMILES IDX 4 1 13 2 11 3 9 4 6 5 5 6 3 7 2 8 1 9 14 10 12 12 7 14 8 15
REMARK SMILES IDX 10 17
REMARK H PARENT 14 11 12 13 8 16 10 18
REMARK Flexibility Score: inf
ROOT
ATOM      1  C   UNL     1       7.542   3.544  18.550  1.00  0.00     0.281 C 
ATOM      2  C   UNL     1       6.613   4.704  18.148  1.00  0.00     0.202 C 
ATOM      3  C   UNL     1       6.235   5.543  19.372  1.00  0.00     0.179 C 
ATOM      4  C   UNL     1       7.524   5.988  20.086  1.00  0.00     0.177 C 
ATOM      5  C   UNL     1       8.461   4.787  20.379  1.00  0.00     0.178 C 
ATOM      6  O   UNL     1       8.714   3.998  19.219  1.00  0.00    -0.341 OA
ENDROOT
BRANCH   1   7
ATOM      7  O   UNL     1       6.836   2.602  19.349  1.00  0.00    -0.350 OA
BRANCH   7   8
ATOM      8  C   UNL     1       7.159   1.265  19.015  1.00  0.00     0.160 C 
ATOM      9  C   UNL     1       6.289   0.749  17.872  1.00  0.00     0.035 C 
ENDBRANCH   7   8
ENDBRANCH   1   7
BRANCH   2  10
ATOM     10  O   UNL     1       5.458   4.183  17.540  1.00  0.00    -0.385 OA
ATOM     11  H   UNL     1       4.686   4.466  18.096  1.00  0.00     0.211 HD
ENDBRANCH   2  10
BRANCH   3  12
ATOM     12  O   UNL     1       5.506   6.669  18.956  1.00  0.00    -0.387 OA
ATOM     13  H   UNL     1       4.562   6.515  19.221  1.00  0.00     0.211 HD
ENDBRANCH   3  12
BRANCH   5  14
ATOM     14  C   UNL     1       8.049   3.920  21.590  1.00  0.00     0.191 C 
BRANCH  14  15
ATOM     15  O   UNL     1       6.700   4.140  21.903  1.00  0.00    -0.394 OA
ATOM     16  H   UNL     1       6.208   4.109  21.043  1.00  0.00     0.210 HD
ENDBRANCH  14  15
ENDBRANCH   5  14
BRANCH   4  17
ATOM     17  O   UNL     1       7.251   6.730  21.250  1.00  0.00    -0.387 OA
ATOM     18  H   UNL     1       6.640   7.473  21.008  1.00  0.00     0.211 HD
ENDBRANCH   4  17
TORSDOF 7
ENDMDL
MODEL 4
REMARK VINA RESULT:    -4.975      2.350      4.634
REMARK INTER + INTRA:          -6.515
REMARK INTER:                  -6.143
REMARK INTRA:                  -0.372
REMARK UNBOUND:                -0.087
REMARK SMILES CCO[C@@H]1O[C@H](CO)[C@H](O)[C@@H](O)[C@@H]1O
REMARK SMILES IDX 4 1 13 2 11 3 9 4 6 5 5 6 3 7 2 8 1 9 14 10 12 12 7 14 8 15
REMARK SMILES IDX 10 17
REMARK H PARENT 14 11 12 13 8 16 10 18
REMARK Flexibility Score: inf
ROOT
ATOM      1  C   UNL     1       6.576   6.378  18.378  1.00  0.00     0.281 C 
ATOM      2  C   UNL     1       7.310   6.742  17.075  1.00  0.00     0.202 C 
ATOM      3  C   UNL     1       8.110   5.544  16.552  1.00  0.00     0.179 C 
ATOM      4  C   UNL     1       7.167   4.334  16.426  1.00  0.00     0.177 C 
ATOM      5  C   UNL     1       6.386   4.077  17.742  1.00  0.00     0.178 C 
ATOM      6  O   UNL     1       5.727   5.246  18.222  1.00  0.00    -0.341 OA
ENDROOT
BRANCH   1   7
ATOM      7  O   UNL     1       7.514   6.165  19.427  1.00  0.00    -0.350 OA
BRANCH   7   8
ATOM      8  C   UNL     1       6.987   6.508  20.696  1.00  0.00     0.160 C 
ATOM      9  C   UNL     1       7.644   5.700  21.812  1.00  0.00     0.035 C 
ENDBRANCH   7   8
ENDBRANCH   1   7
BRANCH   2  10
ATOM     10  O   UNL     1       8.166   7.830  17.312  1.00  0.00    -0.385 OA
ATOM     11  H   UNL     1       8.674   7.624  18.140  1.00  0.00     0.211 HD
ENDBRANCH   2  10
BRANCH   3  12
ATOM     12  O   UNL     1       8.651   5.860  15.295  1.00  0.00    -0.387 OA
ATOM     13  H   UNL     1       9.175   5.069  15.000  1.00  0.00     0.211 HD
ENDBRANCH   3  12
BRANCH   5  14
ATOM     14  C   UNL     1       7.197   3.373  18.853  1.00  0.00     0.191 C 
BRANCH  14  15
ATOM     15  O   UNL     1       6.392   3.169  19.983  1.00  0.00    -0.394 OA
ATOM     16  H   UNL     1       5.539   2.788  19.649  1.00  0.00     0.210 HD
ENDBRANCH  14  15
ENDBRANCH   5  14
BRANCH   4  17
ATOM     17  O   UNL     1       7.845   3.181  15.992  1.00  0.00    -0.387 OA
ATOM     18  H   UNL     1       8.354   3.411  15.171  1.00  0.00     0.211 HD
ENDBRANCH   4  17
TORSDOF 7
ENDMDL
MODEL 5
REMARK VINA RESULT:    -4.904      2.212      3.946
REMARK INTER + INTRA:          -6.424
REMARK INTER:                  -6.130
REMARK INTRA:                  -0.293
REMARK UNBOUND:                -0.087
REMARK SMILES CCO[C@@H]1O[C@H](CO)[C@H](O)[C@@H](O)[C@@H]1O
REMARK SMILES IDX 4 1 13 2 11 3 9 4 6 5 5 6 3 7 2 8 1 9 14 10 12 12 7 14 8 15
REMARK SMILES IDX 10 17
REMARK H PARENT 14 11 12 13 8 16 10 18
REMARK Flexibility Score: inf
ROOT
ATOM      1  C   UNL     1       6.644   3.901  17.974  1.00  0.00     0.281 C 
ATOM      2  C   UNL     1       6.980   3.408  19.393  1.00  0.00     0.202 C 
ATOM      3  C   UNL     1       7.749   4.481  20.171  1.00  0.00     0.179 C 
ATOM      4  C   UNL     1       6.943   5.792  20.135  1.00  0.00     0.177 C 
ATOM      5  C   UNL     1       6.554   6.186  18.686  1.00  0.00     0.178 C 
ATOM      6  O   UNL     1       5.912   5.123  17.986  1.00  0.00    -0.341 OA
ENDROOT
BRANCH   1   7
ATOM      7  O   UNL     1       7.834   4.033  17.204  1.00  0.00    -0.350 OA
BRANCH   7   8
ATOM      8  C   UNL     1       7.654   3.617  15.863  1.00  0.00     0.160 C 
ATOM      9  C   UNL     1       8.181   4.658  14.879  1.00  0.00     0.035 C 
ENDBRANCH   7   8
ENDBRANCH   1   7
BRANCH   2  10
ATOM     10  O   UNL     1       7.744   2.231  19.306  1.00  0.00    -0.385 OA
ATOM     11  H   UNL     1       8.603   2.409  19.768  1.00  0.00     0.211 HD
ENDBRANCH   2  10
BRANCH   3  12
ATOM     12  O   UNL     1       7.917   4.060  21.500  1.00  0.00    -0.387 OA
ATOM     13  H   UNL     1       8.790   3.590  21.545  1.00  0.00     0.211 HD
ENDBRANCH   3  12
BRANCH   5  14
ATOM     14  C   UNL     1       7.691   6.822  17.856  1.00  0.00     0.191 C 
BRANCH  14  15
ATOM     15  O   UNL     1       7.184   7.854  17.054  1.00  0.00    -0.394 OA
ATOM     16  H   UNL     1       7.864   8.576  17.069  1.00  0.00     0.210 HD
ENDBRANCH  14  15
ENDBRANCH   5  14
BRANCH   4  17
ATOM     17  O   UNL     1       7.612   6.839  20.795  1.00  0.00    -0.387 OA
ATOM     18  H   UNL     1       8.550   6.554  20.957  1.00  0.00     0.211 HD
ENDBRANCH   4  17
TORSDOF 7
ENDMDL
MODEL 6
REMARK VINA RESULT:    -4.872     12.325     14.365
REMARK INTER + INTRA:          -6.383
REMARK INTER:                  -5.862
REMARK INTRA:                  -0.520
REMARK UNBOUND:                -0.087
REMARK SMILES CCO[C@@H]1O[C@H](CO)[C@H](O)[C@@H](O)[C@@H]1O
REMARK SMILES IDX 4 1 13 2 11 3 9 4 6 5 5 6 3 7 2 8 1 9 14 10 12 12 7 14 8 15
REMARK SMILES IDX 10 17
REMARK H PARENT 14 11 12 13 8 16 10 18
REMARK Flexibility Score: inf
ROOT
ATOM      1  C   UNL     1      18.675  -4.099  23.785  1.00  0.00     0.281 C 
ATOM      2  C   UNL     1      17.447  -4.076  24.713  1.00  0.00     0.202 C 
ATOM      3  C   UNL     1      16.451  -3.001  24.266  1.00  0.00     0.179 C 
ATOM      4  C   UNL     1      16.113  -3.225  22.782  1.00  0.00     0.177 C 
ATOM      5  C   UNL     1      17.393  -3.334  21.912  1.00  0.00     0.178 C 
ATOM      6  O   UNL     1      18.317  -4.293  22.420  1.00  0.00    -0.341 OA
ENDROOT
BRANCH   1   7
ATOM      7  O   UNL     1      19.434  -2.905  23.943  1.00  0.00    -0.350 OA
BRANCH   7   8
ATOM      8  C   UNL     1      20.828  -3.148  23.910  1.00  0.00     0.160 C 
ATOM      9  C   UNL     1      21.181  -4.475  24.576  1.00  0.00     0.035 C 
ENDBRANCH   7   8
ENDBRANCH   1   7
BRANCH   2  10
ATOM     10  O   UNL     1      17.867  -3.830  26.032  1.00  0.00    -0.385 OA
ATOM     11  H   UNL     1      18.722  -4.316  26.159  1.00  0.00     0.211 HD
ENDBRANCH   2  10
BRANCH   3  12
ATOM     12  O   UNL     1      15.284  -3.099  25.041  1.00  0.00    -0.387 OA
ATOM     13  H   UNL     1      15.509  -2.753  25.945  1.00  0.00     0.211 HD
ENDBRANCH   3  12
BRANCH   5  14
ATOM     14  C   UNL     1      18.077  -1.986  21.589  1.00  0.00     0.191 C 
BRANCH  14  15
ATOM     15  O   UNL     1      19.277  -2.208  20.899  1.00  0.00    -0.394 OA
ATOM     16  H   UNL     1      19.170  -3.076  20.431  1.00  0.00     0.210 HD
ENDBRANCH  14  15
ENDBRANCH   5  14
BRANCH   4  17
ATOM     17  O   UNL     1      15.233  -2.243  22.289  1.00  0.00    -0.387 OA
ATOM     18  H   UNL     1      15.767  -1.445  22.039  1.00  0.00     0.211 HD
ENDBRANCH   4  17
TORSDOF 7
ENDMDL
MODEL 7
REMARK VINA RESULT:    -4.852     12.415     14.594
REMARK INTER + INTRA:          -6.357
REMARK INTER:                  -5.894
REMARK INTRA:                  -0.462
REMARK UNBOUND:                -0.087
REMARK SMILES CCO[C@@H]1O[C@H](CO)[C@H](O)[C@@H](O)[C@@H]1O
REMARK SMILES IDX 4 1 13 2 11 3 9 4 6 5 5 6 3 7 2 8 1 9 14 10 12 12 7 14 8 15
REMARK SMILES IDX 10 17
REMARK H PARENT 14 11 12 13 8 16 10 18
REMARK Flexibility Score: inf
ROOT
ATOM      1  C   UNL     1      12.212   3.567   7.326  1.00  0.00     0.281 C 
ATOM      2  C   UNL     1      11.183   3.839   8.438  1.00  0.00     0.202 C 
ATOM      3  C   UNL     1      11.094   5.339   8.737  1.00  0.00     0.179 C 
ATOM      4  C   UNL     1      10.815   6.091   7.423  1.00  0.00     0.177 C 
ATOM      5  C   UNL     1      11.828   5.703   6.314  1.00  0.00     0.178 C 
ATOM      6  O   UNL     1      11.926   4.292   6.135  1.00  0.00    -0.341 OA
ENDROOT
BRANCH   1   7
ATOM      7  O   UNL     1      13.526   3.856   7.790  1.00  0.00    -0.350 OA
BRANCH   7   8
ATOM      8  C   UNL     1      14.451   2.840   7.452  1.00  0.00     0.160 C 
ATOM      9  C   UNL     1      15.005   2.150   8.696  1.00  0.00     0.035 C 
ENDBRANCH   7   8
ENDBRANCH   1   7
BRANCH   2  10
ATOM     10  O   UNL     1      11.554   3.135   9.596  1.00  0.00    -0.385 OA
ATOM     11  H   UNL     1      12.470   2.787   9.443  1.00  0.00     0.211 HD
ENDBRANCH   2  10
BRANCH   3  12
ATOM     12  O   UNL     1      10.052   5.570   9.650  1.00  0.00    -0.387 OA
ATOM     13  H   UNL     1       9.326   6.026   9.148  1.00  0.00     0.211 HD
ENDBRANCH   3  12
BRANCH   5  14
ATOM     14  C   UNL     1      13.217   6.368   6.439  1.00  0.00     0.191 C 
BRANCH  14  15
ATOM     15  O   UNL     1      13.177   7.669   5.919  1.00  0.00    -0.394 OA
ATOM     16  H   UNL     1      12.304   8.050   6.195  1.00  0.00     0.210 HD
ENDBRANCH  14  15
ENDBRANCH   5  14
BRANCH   4  17
ATOM     17  O   UNL     1      10.764   7.484   7.615  1.00  0.00    -0.387 OA
ATOM     18  H   UNL     1      11.627   7.870   7.313  1.00  0.00     0.211 HD
ENDBRANCH   4  17
TORSDOF 7
ENDMDL
MODEL 8
REMARK VINA RESULT:    -4.657      2.148      4.241
REMARK INTER + INTRA:          -6.105
REMARK INTER:                  -5.678
REMARK INTRA:                  -0.427
REMARK UNBOUND:                -0.087
REMARK SMILES CCO[C@@H]1O[C@H](CO)[C@H](O)[C@@H](O)[C@@H]1O
REMARK SMILES IDX 4 1 13 2 11 3 9 4 6 5 5 6 3 7 2 8 1 9 14 10 12 12 7 14 8 15
REMARK SMILES IDX 10 17
REMARK H PARENT 14 11 12 13 8 16 10 18
REMARK Flexibility Score: inf
ROOT
ATOM      1  C   UNL     1       7.056   2.997  19.528  1.00  0.00     0.281 C 
ATOM      2  C   UNL     1       7.266   4.042  20.638  1.00  0.00     0.202 C 
ATOM      3  C   UNL     1       7.838   5.340  20.058  1.00  0.00     0.179 C 
ATOM      4  C   UNL     1       6.927   5.814  18.911  1.00  0.00     0.177 C 
ATOM      5  C   UNL     1       6.677   4.687  17.875  1.00  0.00     0.178 C 
ATOM      6  O   UNL     1       6.221   3.481  18.481  1.00  0.00    -0.341 OA
ENDROOT
BRANCH   1   7
ATOM      7  O   UNL     1       8.312   2.566  19.014  1.00  0.00    -0.350 OA
BRANCH   7   8
ATOM      8  C   UNL     1       8.293   1.205  18.623  1.00  0.00     0.160 C 
ATOM      9  C   UNL     1       9.350   0.914  17.562  1.00  0.00     0.035 C 
ENDBRANCH   7   8
ENDBRANCH   1   7
BRANCH   2  10
ATOM     10  O   UNL     1       8.138   3.520  21.608  1.00  0.00    -0.385 OA
ATOM     11  H   UNL     1       7.667   2.762  22.043  1.00  0.00     0.211 HD
ENDBRANCH   2  10
BRANCH   3  12
ATOM     12  O   UNL     1       7.886   6.317  21.065  1.00  0.00    -0.387 OA
ATOM     13  H   UNL     1       7.827   5.839  21.933  1.00  0.00     0.211 HD
ENDBRANCH   3  12
BRANCH   5  14
ATOM     14  C   UNL     1       7.842   4.437  16.891  1.00  0.00     0.191 C 
BRANCH  14  15
ATOM     15  O   UNL     1       7.978   5.525  16.018  1.00  0.00    -0.394 OA
ATOM     16  H   UNL     1       7.271   6.173  16.271  1.00  0.00     0.210 HD
ENDBRANCH  14  15
ENDBRANCH   5  14
BRANCH   4  17
ATOM     17  O   UNL     1       7.417   6.983  18.299  1.00  0.00    -0.387 OA
ATOM     18  H   UNL     1       7.598   7.652  19.010  1.00  0.00     0.211 HD
ENDBRANCH   4  17
TORSDOF 7
ENDMDL
MODEL 9
REMARK VINA RESULT:    -4.618     13.257     15.095
REMARK INTER + INTRA:          -6.054
REMARK INTER:                  -5.581
REMARK INTRA:                  -0.473
REMARK UNBOUND:                -0.087
REMARK SMILES CCO[C@@H]1O[C@H](CO)[C@H](O)[C@@H](O)[C@@H]1O
REMARK SMILES IDX 4 1 13 2 11 3 9 4 6 5 5 6 3 7 2 8 1 9 14 10 12 12 7 14 8 15
REMARK SMILES IDX 10 17
REMARK H PARENT 14 11 12 13 8 16 10 18
REMARK Flexibility Score: inf
ROOT
ATOM      1  C   UNL     1      18.677  -3.508  21.684  1.00  0.00     0.281 C 
ATOM      2  C   UNL     1      17.238  -3.426  22.224  1.00  0.00     0.202 C 
ATOM      3  C   UNL     1      17.167  -3.965  23.657  1.00  0.00     0.179 C 
ATOM      4  C   UNL     1      18.206  -3.224  24.518  1.00  0.00     0.177 C 
ATOM      5  C   UNL     1      19.617  -3.262  23.873  1.00  0.00     0.178 C 
ATOM      6  O   UNL     1      19.607  -2.824  22.517  1.00  0.00    -0.341 OA
ENDROOT
BRANCH   1   7
ATOM      7  O   UNL     1      19.060  -4.868  21.510  1.00  0.00    -0.350 OA
BRANCH   7   8
ATOM      8  C   UNL     1      19.733  -5.083  20.283  1.00  0.00     0.160 C 
ATOM      9  C   UNL     1      21.229  -5.300  20.497  1.00  0.00     0.035 C 
ENDBRANCH   7   8
ENDBRANCH   1   7
BRANCH   2  10
ATOM     10  O   UNL     1      16.385  -4.162  21.386  1.00  0.00    -0.385 OA
ATOM     11  H   UNL     1      16.235  -3.615  20.572  1.00  0.00     0.211 HD
ENDBRANCH   2  10
BRANCH   3  12
ATOM     12  O   UNL     1      15.879  -3.747  24.171  1.00  0.00    -0.387 OA
ATOM     13  H   UNL     1      15.463  -4.640  24.295  1.00  0.00     0.211 HD
ENDBRANCH   3  12
BRANCH   5  14
ATOM     14  C   UNL     1      20.375  -4.597  24.045  1.00  0.00     0.191 C 
BRANCH  14  15
ATOM     15  O   UNL     1      20.761  -4.764  25.382  1.00  0.00    -0.394 OA
ATOM     16  H   UNL     1      20.931  -5.734  25.501  1.00  0.00     0.210 HD
ENDBRANCH  14  15
ENDBRANCH   5  14
BRANCH   4  17
ATOM     17  O   UNL     1      18.228  -3.700  25.842  1.00  0.00    -0.387 OA
ATOM     18  H   UNL     1      17.539  -4.410  25.927  1.00  0.00     0.211 HD
ENDBRANCH   4  17
TORSDOF 7
ENDMDL
