MODEL 1
REMARK VINA RESULT:    -3.902      0.000      0.000
REMARK INTER + INTRA:          -4.914
REMARK INTER:                  -4.815
REMARK INTRA:                  -0.099
REMARK UNBOUND:                -0.099
REMARK SMILES CCCCCC=O
REMARK SMILES IDX 4 1 3 2 2 3 1 4 5 5 6 6 7 7
REMARK H PARENT
REMARK Flexibility Score: inf
ROOT
ATOM      1  C   UNL     1      28.172  35.203  26.807  1.00  0.00     0.008 C 
ENDROOT
BRANCH   1   2
ATOM      2  C   UNL     1      27.618  36.543  27.326  1.00  0.00     0.000 C 
BRANCH   2   3
ATOM      3  C   UNL     1      26.733  37.258  26.294  1.00  0.00    -0.003 C 
ATOM      4  C   UNL     1      25.433  37.744  26.927  1.00  0.00     0.004 C 
ENDBRANCH   2   3
ENDBRANCH   1   2
BRANCH   1   5
ATOM      5  C   UNL     1      29.692  35.047  26.982  1.00  0.00     0.072 C 
BRANCH   5   6
ATOM      6  C   UNL     1      30.412  36.365  26.952  1.00  0.00     0.224 C 
ATOM      7  O   UNL     1      30.896  36.768  25.908  1.00  0.00    -0.303 OA
ENDBRANCH   5   6
ENDBRANCH   1   5
TORSDOF 4
ENDMDL
MODEL 2
REMARK VINA RESULT:    -3.883      2.438      2.930
REMARK INTER + INTRA:          -4.890
REMARK INTER:                  -4.798
REMARK INTRA:                  -0.091
REMARK UNBOUND:                -0.099
REMARK SMILES CCCCCC=O
REMARK SMILES IDX 4 1 3 2 2 3 1 4 5 5 6 6 7 7
REMARK H PARENT
REMARK Flexibility Score: inf
ROOT
ATOM      1  C   UNL     1      28.292  38.749  29.268  1.00  0.00     0.008 C 
ENDROOT
BRANCH   1   2
ATOM      2  C   UNL     1      27.694  38.652  27.852  1.00  0.00     0.000 C 
BRANCH   2   3
ATOM      3  C   UNL     1      26.783  37.427  27.676  1.00  0.00    -0.003 C 
ATOM      4  C   UNL     1      25.520  37.789  26.901  1.00  0.00     0.004 C 
ENDBRANCH   2   3
ENDBRANCH   1   2
BRANCH   1   5
ATOM      5  C   UNL     1      29.771  39.168  29.293  1.00  0.00     0.072 C 
BRANCH   5   6
ATOM      6  C   UNL     1      30.544  38.617  28.129  1.00  0.00     0.224 C 
ATOM      7  O   UNL     1      31.086  37.529  28.220  1.00  0.00    -0.303 OA
ENDBRANCH   5   6
ENDBRANCH   1   5
TORSDOF 4
ENDMDL
MODEL 3
REMARK VINA RESULT:    -3.883      2.174      2.699
REMARK INTER + INTRA:          -4.889
REMARK INTER:                  -4.806
REMARK INTRA:                  -0.084
REMARK UNBOUND:                -0.099
REMARK SMILES CCCCCC=O
REMARK SMILES IDX 4 1 3 2 2 3 1 4 5 5 6 6 7 7
REMARK H PARENT
REMARK Flexibility Score: inf
ROOT
ATOM      1  C   UNL     1      28.255  38.891  24.675  1.00  0.00     0.008 C 
ENDROOT
BRANCH   1   2
ATOM      2  C   UNL     1      27.677  37.902  25.705  1.00  0.00     0.000 C 
BRANCH   2   3
ATOM      3  C   UNL     1      26.730  38.577  26.708  1.00  0.00    -0.003 C 
ATOM      4  C   UNL     1      25.464  37.751  26.912  1.00  0.00     0.004 C 
ENDBRANCH   2   3
ENDBRANCH   1   2
BRANCH   1   5
ATOM      5  C   UNL     1      29.784  38.818  24.531  1.00  0.00     0.072 C 
BRANCH   5   6
ATOM      6  C   UNL     1      30.443  38.181  25.720  1.00  0.00     0.224 C 
ATOM      7  O   UNL     1      31.560  37.704  25.612  1.00  0.00    -0.303 OA
ENDBRANCH   5   6
ENDBRANCH   1   5
TORSDOF 4
ENDMDL
MODEL 4
REMARK VINA RESULT:    -3.826      2.368      4.180
REMARK INTER + INTRA:          -4.820
REMARK INTER:                  -4.730
REMARK INTRA:                  -0.090
REMARK UNBOUND:                -0.099
REMARK SMILES CCCCCC=O
REMARK SMILES IDX 4 1 3 2 2 3 1 4 5 5 6 6 7 7
REMARK H PARENT
REMARK Flexibility Score: inf
ROOT
ATOM      1  C   UNL     1      27.842  36.385  27.192  1.00  0.00     0.008 C 
ENDROOT
BRANCH   1   2
ATOM      2  C   UNL     1      28.260  34.974  26.738  1.00  0.00     0.000 C 
BRANCH   2   3
ATOM      3  C   UNL     1      29.769  34.726  26.889  1.00  0.00    -0.003 C 
ATOM      4  C   UNL     1      30.512  36.024  27.189  1.00  0.00     0.004 C 
ENDBRANCH   2   3
ENDBRANCH   1   2
BRANCH   1   5
ATOM      5  C   UNL     1      27.026  37.161  26.145  1.00  0.00     0.072 C 
BRANCH   5   6
ATOM      6  C   UNL     1      26.034  38.100  26.770  1.00  0.00     0.224 C 
ATOM      7  O   UNL     1      24.887  37.733  26.962  1.00  0.00    -0.303 OA
ENDBRANCH   5   6
ENDBRANCH   1   5
TORSDOF 4
ENDMDL
MODEL 5
REMARK VINA RESULT:    -3.764      3.428      4.669
REMARK INTER + INTRA:          -4.743
REMARK INTER:                  -4.670
REMARK INTRA:                  -0.073
REMARK UNBOUND:                -0.099
REMARK SMILES CCCCCC=O
REMARK SMILES IDX 4 1 3 2 2 3 1 4 5 5 6 6 7 7
REMARK H PARENT
REMARK Flexibility Score: inf
ROOT
ATOM      1  C   UNL     1      28.028  37.872  28.360  1.00  0.00     0.008 C 
ENDROOT
BRANCH   1   2
ATOM      2  C   UNL     1      28.246  38.760  29.601  1.00  0.00     0.000 C 
BRANCH   2   3
ATOM      3  C   UNL     1      29.727  39.094  29.838  1.00  0.00    -0.003 C 
ATOM      4  C   UNL     1      30.462  39.298  28.517  1.00  0.00     0.004 C 
ENDBRANCH   2   3
ENDBRANCH   1   2
BRANCH   1   5
ATOM      5  C   UNL     1      27.092  38.489  27.309  1.00  0.00     0.072 C 
BRANCH   5   6
ATOM      6  C   UNL     1      26.053  37.519  26.825  1.00  0.00     0.224 C 
ATOM      7  O   UNL     1      24.871  37.814  26.886  1.00  0.00    -0.303 OA
ENDBRANCH   5   6
ENDBRANCH   1   5
TORSDOF 4
ENDMDL
MODEL 6
REMARK VINA RESULT:    -3.593      2.223      3.508
REMARK INTER + INTRA:          -4.532
REMARK INTER:                  -4.343
REMARK INTRA:                  -0.189
REMARK UNBOUND:                -0.099
REMARK SMILES CCCCCC=O
REMARK SMILES IDX 4 1 3 2 2 3 1 4 5 5 6 6 7 7
REMARK H PARENT
REMARK Flexibility Score: inf
ROOT
ATOM      1  C   UNL     1      30.658  36.499  26.604  1.00  0.00     0.008 C 
ENDROOT
BRANCH   1   2
ATOM      2  C   UNL     1      31.249  37.363  27.734  1.00  0.00     0.000 C 
BRANCH   2   3
ATOM      3  C   UNL     1      30.713  38.802  27.722  1.00  0.00    -0.003 C 
ATOM      4  C   UNL     1      29.928  39.107  28.993  1.00  0.00     0.004 C 
ENDBRANCH   2   3
ENDBRANCH   1   2
BRANCH   1   5
ATOM      5  C   UNL     1      29.848  35.291  27.101  1.00  0.00     0.072 C 
BRANCH   5   6
ATOM      6  C   UNL     1      28.366  35.521  27.019  1.00  0.00     0.224 C 
ATOM      7  O   UNL     1      27.848  36.392  27.697  1.00  0.00    -0.303 OA
ENDBRANCH   5   6
ENDBRANCH   1   5
TORSDOF 4
ENDMDL
MODEL 7
REMARK VINA RESULT:    -3.583      3.361      4.320
REMARK INTER + INTRA:          -4.519
REMARK INTER:                  -4.312
REMARK INTRA:                  -0.207
REMARK UNBOUND:                -0.099
REMARK SMILES CCCCCC=O
REMARK SMILES IDX 4 1 3 2 2 3 1 4 5 5 6 6 7 7
REMARK H PARENT
REMARK Flexibility Score: inf
ROOT
ATOM      1  C   UNL     1      30.844  38.024  28.181  1.00  0.00     0.008 C 
ENDROOT
BRANCH   1   2
ATOM      2  C   UNL     1      31.536  38.352  26.845  1.00  0.00     0.000 C 
BRANCH   2   3
ATOM      3  C   UNL     1      30.938  37.575  25.662  1.00  0.00    -0.003 C 
ATOM      4  C   UNL     1      30.049  38.474  24.807  1.00  0.00     0.004 C 
ENDBRANCH   2   3
ENDBRANCH   1   2
BRANCH   1   5
ATOM      5  C   UNL     1      30.025  39.188  28.762  1.00  0.00     0.072 C 
BRANCH   5   6
ATOM      6  C   UNL     1      28.546  38.934  28.710  1.00  0.00     0.224 C 
ATOM      7  O   UNL     1      27.955  39.004  27.646  1.00  0.00    -0.303 OA
ENDBRANCH   5   6
ENDBRANCH   1   5
TORSDOF 4
ENDMDL
MODEL 8
REMARK VINA RESULT:    -3.569      2.173      3.321
REMARK INTER + INTRA:          -4.502
REMARK INTER:                  -4.296
REMARK INTRA:                  -0.206
REMARK UNBOUND:                -0.099
REMARK SMILES CCCCCC=O
REMARK SMILES IDX 4 1 3 2 2 3 1 4 5 5 6 6 7 7
REMARK H PARENT
REMARK Flexibility Score: inf
ROOT
ATOM      1  C   UNL     1      30.768  36.459  27.211  1.00  0.00     0.008 C 
ENDROOT
BRANCH   1   2
ATOM      2  C   UNL     1      31.091  37.195  25.896  1.00  0.00     0.000 C 
BRANCH   2   3
ATOM      3  C   UNL     1      30.377  38.550  25.784  1.00  0.00    -0.003 C 
ATOM      4  C   UNL     1      29.508  38.612  24.532  1.00  0.00     0.004 C 
ENDBRANCH   2   3
ENDBRANCH   1   2
BRANCH   1   5
ATOM      5  C   UNL     1      29.861  35.230  27.031  1.00  0.00     0.072 C 
BRANCH   5   6
ATOM      6  C   UNL     1      28.402  35.581  27.081  1.00  0.00     0.224 C 
ATOM      7  O   UNL     1      27.755  35.638  26.050  1.00  0.00    -0.303 OA
ENDBRANCH   5   6
ENDBRANCH   1   5
TORSDOF 4
ENDMDL
MODEL 9
REMARK VINA RESULT:    -3.568      3.087      4.612
REMARK INTER + INTRA:          -4.501
REMARK INTER:                  -4.383
REMARK INTRA:                  -0.118
REMARK UNBOUND:                -0.099
REMARK SMILES CCCCCC=O
REMARK SMILES IDX 4 1 3 2 2 3 1 4 5 5 6 6 7 7
REMARK H PARENT
REMARK Flexibility Score: inf
ROOT
ATOM      1  C   UNL     1      28.231  38.772  28.994  1.00  0.00     0.008 C 
ENDROOT
BRANCH   1   2
ATOM      2  C   UNL     1      29.721  39.165  29.014  1.00  0.00     0.000 C 
BRANCH   2   3
ATOM      3  C   UNL     1      30.441  38.823  27.701  1.00  0.00    -0.003 C 
ATOM      4  C   UNL     1      31.252  37.539  27.837  1.00  0.00     0.004 C 
ENDBRANCH   2   3
ENDBRANCH   1   2
BRANCH   1   5
ATOM      5  C   UNL     1      27.614  38.740  27.587  1.00  0.00     0.072 C 
BRANCH   5   6
ATOM      6  C   UNL     1      26.703  37.563  27.386  1.00  0.00     0.224 C 
ATOM      7  O   UNL     1      25.560  37.739  26.997  1.00  0.00    -0.303 OA
ENDBRANCH   5   6
ENDBRANCH   1   5
TORSDOF 4
ENDMDL
