MODEL 1
REMARK VINA RESULT:    -5.322      0.000      0.000
REMARK INTER + INTRA:          -5.762
REMARK INTER:                  -5.633
REMARK INTRA:                  -0.129
REMARK UNBOUND:                -0.129
REMARK SMILES C=C(C)[C@H]1CC=C(C)CC1
REMARK SMILES IDX 8 1 7 2 6 3 5 4 4 5 10 6 9 7 2 8 1 9 3 10
REMARK H PARENT
REMARK Flexibility Score: inf
ROOT
ATOM      1  C   UNL     1      11.805 -24.652 -28.469  1.00  0.00     0.039 C 
ATOM      2  C   UNL     1      11.929 -23.217 -28.035  1.00  0.00    -0.077 C 
ATOM      3  C   UNL     1      11.862 -22.922 -26.718  1.00  0.00    -0.027 C 
ATOM      4  C   UNL     1      11.922 -21.511 -26.188  1.00  0.00     0.035 C 
ATOM      5  C   UNL     1      12.598 -20.546 -27.178  1.00  0.00     0.018 C 
ATOM      6  C   UNL     1      12.002 -20.735 -28.580  1.00  0.00     0.013 C 
ATOM      7  C   UNL     1      12.255 -22.164 -29.076  1.00  0.00     0.031 C 
ENDROOT
BRANCH   5   8
ATOM      8  C   UNL     1      12.483 -19.102 -26.710  1.00  0.00    -0.077 C 
ATOM      9  C   UNL     1      12.323 -18.114 -27.607  1.00  0.00     0.008 C 
ATOM     10  C   UNL     1      12.558 -18.740 -25.247  1.00  0.00     0.039 C 
ENDBRANCH   5   8
TORSDOF 1
ENDMDL
MODEL 2
REMARK VINA RESULT:    -4.930      2.821      4.955
REMARK INTER + INTRA:          -5.348
REMARK INTER:                  -5.216
REMARK INTRA:                  -0.132
REMARK UNBOUND:                -0.129
REMARK SMILES C=C(C)[C@H]1CC=C(C)CC1
REMARK SMILES IDX 8 1 7 2 6 3 5 4 4 5 10 6 9 7 2 8 1 9 3 10
REMARK H PARENT
REMARK Flexibility Score: inf
ROOT
ATOM      1  C   UNL     1       8.060 -16.628 -29.386  1.00  0.00     0.039 C 
ATOM      2  C   UNL     1       9.114 -17.222 -28.492  1.00  0.00    -0.077 C 
ATOM      3  C   UNL     1      10.243 -17.714 -29.046  1.00  0.00    -0.027 C 
ATOM      4  C   UNL     1      11.333 -18.377 -28.239  1.00  0.00     0.035 C 
ATOM      5  C   UNL     1      11.301 -17.954 -26.761  1.00  0.00     0.018 C 
ATOM      6  C   UNL     1       9.869 -18.068 -26.216  1.00  0.00     0.013 C 
ATOM      7  C   UNL     1       8.933 -17.132 -26.989  1.00  0.00     0.031 C 
ENDROOT
BRANCH   5   8
ATOM      8  C   UNL     1      12.282 -18.770 -25.930  1.00  0.00    -0.077 C 
ATOM      9  C   UNL     1      12.875 -19.853 -26.458  1.00  0.00     0.008 C 
ATOM     10  C   UNL     1      12.604 -18.398 -24.503  1.00  0.00     0.039 C 
ENDBRANCH   5   8
TORSDOF 1
ENDMDL
MODEL 3
REMARK VINA RESULT:    -4.831      1.454      4.441
REMARK INTER + INTRA:          -5.242
REMARK INTER:                  -5.121
REMARK INTRA:                  -0.122
REMARK UNBOUND:                -0.129
REMARK SMILES C=C(C)[C@H]1CC=C(C)CC1
REMARK SMILES IDX 8 1 7 2 6 3 5 4 4 5 10 6 9 7 2 8 1 9 3 10
REMARK H PARENT
REMARK Flexibility Score: inf
ROOT
ATOM      1  C   UNL     1      10.479 -17.691 -26.756  1.00  0.00     0.039 C 
ATOM      2  C   UNL     1      11.155 -19.005 -27.037  1.00  0.00    -0.077 C 
ATOM      3  C   UNL     1      11.381 -19.366 -28.319  1.00  0.00    -0.027 C 
ATOM      4  C   UNL     1      12.004 -20.685 -28.704  1.00  0.00     0.035 C 
ATOM      5  C   UNL     1      12.830 -21.295 -27.558  1.00  0.00     0.018 C 
ATOM      6  C   UNL     1      12.015 -21.267 -26.256  1.00  0.00     0.013 C 
ATOM      7  C   UNL     1      11.681 -19.821 -25.871  1.00  0.00     0.031 C 
ENDROOT
BRANCH   5   8
ATOM      8  C   UNL     1      13.294 -22.704 -27.898  1.00  0.00    -0.077 C 
ATOM      9  C   UNL     1      14.581 -23.049 -27.731  1.00  0.00     0.008 C 
ATOM     10  C   UNL     1      12.337 -23.739 -28.438  1.00  0.00     0.039 C 
ENDBRANCH   5   8
TORSDOF 1
ENDMDL
MODEL 4
REMARK VINA RESULT:    -4.737      3.154      4.842
REMARK INTER + INTRA:          -5.144
REMARK INTER:                  -5.014
REMARK INTRA:                  -0.130
REMARK UNBOUND:                -0.129
REMARK SMILES C=C(C)[C@H]1CC=C(C)CC1
REMARK SMILES IDX 8 1 7 2 6 3 5 4 4 5 10 6 9 7 2 8 1 9 3 10
REMARK H PARENT
REMARK Flexibility Score: inf
ROOT
ATOM      1  C   UNL     1      12.873 -20.029 -26.628  1.00  0.00     0.039 C 
ATOM      2  C   UNL     1      11.729 -19.123 -26.996  1.00  0.00    -0.077 C 
ATOM      3  C   UNL     1      11.433 -18.937 -28.301  1.00  0.00    -0.027 C 
ATOM      4  C   UNL     1      10.341 -18.009 -28.772  1.00  0.00     0.035 C 
ATOM      5  C   UNL     1       9.287 -17.750 -27.681  1.00  0.00     0.018 C 
ATOM      6  C   UNL     1       9.982 -17.389 -26.360  1.00  0.00     0.013 C 
ATOM      7  C   UNL     1      10.863 -18.552 -25.890  1.00  0.00     0.031 C 
ENDROOT
BRANCH   5   8
ATOM      8  C   UNL     1       8.301 -16.672 -28.108  1.00  0.00    -0.077 C 
ATOM      9  C   UNL     1       8.039 -16.476 -29.411  1.00  0.00     0.008 C 
ATOM     10  C   UNL     1       7.608 -15.793 -27.095  1.00  0.00     0.039 C 
ENDBRANCH   5   8
TORSDOF 1
ENDMDL
MODEL 5
REMARK VINA RESULT:    -4.652      1.127      1.982
REMARK INTER + INTRA:          -5.054
REMARK INTER:                  -4.933
REMARK INTRA:                  -0.121
REMARK UNBOUND:                -0.129
REMARK SMILES C=C(C)[C@H]1CC=C(C)CC1
REMARK SMILES IDX 8 1 7 2 6 3 5 4 4 5 10 6 9 7 2 8 1 9 3 10
REMARK H PARENT
REMARK Flexibility Score: inf
ROOT
ATOM      1  C   UNL     1      12.272 -23.528 -29.082  1.00  0.00     0.039 C 
ATOM      2  C   UNL     1      12.136 -22.282 -28.250  1.00  0.00    -0.077 C 
ATOM      3  C   UNL     1      12.121 -21.080 -28.865  1.00  0.00    -0.027 C 
ATOM      4  C   UNL     1      12.042 -19.773 -28.115  1.00  0.00     0.035 C 
ATOM      5  C   UNL     1      11.441 -19.945 -26.710  1.00  0.00     0.018 C 
ATOM      6  C   UNL     1      12.124 -21.117 -25.989  1.00  0.00     0.013 C 
ATOM      7  C   UNL     1      11.888 -22.421 -26.760  1.00  0.00     0.031 C 
ENDROOT
BRANCH   5   8
ATOM      8  C   UNL     1      11.541 -18.658 -25.903  1.00  0.00    -0.077 C 
ATOM      9  C   UNL     1      10.641 -17.677 -26.084  1.00  0.00     0.008 C 
ATOM     10  C   UNL     1      12.647 -18.442 -24.899  1.00  0.00     0.039 C 
ENDBRANCH   5   8
TORSDOF 1
ENDMDL
MODEL 6
REMARK VINA RESULT:    -4.651      2.631      4.846
REMARK INTER + INTRA:          -5.053
REMARK INTER:                  -4.922
REMARK INTRA:                  -0.130
REMARK UNBOUND:                -0.129
REMARK SMILES C=C(C)[C@H]1CC=C(C)CC1
REMARK SMILES IDX 8 1 7 2 6 3 5 4 4 5 10 6 9 7 2 8 1 9 3 10
REMARK H PARENT
REMARK Flexibility Score: inf
ROOT
ATOM      1  C   UNL     1       7.864 -16.309 -28.901  1.00  0.00     0.039 C 
ATOM      2  C   UNL     1       9.008 -17.102 -28.328  1.00  0.00    -0.077 C 
ATOM      3  C   UNL     1       9.004 -17.401 -27.011  1.00  0.00    -0.027 C 
ATOM      4  C   UNL     1      10.128 -18.145 -26.334  1.00  0.00     0.035 C 
ATOM      5  C   UNL     1      10.956 -18.978 -27.327  1.00  0.00     0.018 C 
ATOM      6  C   UNL     1      11.328 -18.119 -28.545  1.00  0.00     0.013 C 
ATOM      7  C   UNL     1      10.060 -17.652 -29.271  1.00  0.00     0.031 C 
ENDROOT
BRANCH   5   8
ATOM      8  C   UNL     1      12.191 -19.569 -26.662  1.00  0.00    -0.077 C 
ATOM      9  C   UNL     1      12.883 -18.847 -25.764  1.00  0.00     0.008 C 
ATOM     10  C   UNL     1      12.677 -20.958 -26.995  1.00  0.00     0.039 C 
ENDBRANCH   5   8
TORSDOF 1
ENDMDL
MODEL 7
REMARK VINA RESULT:    -4.570      6.932      7.430
REMARK INTER + INTRA:          -4.966
REMARK INTER:                  -4.846
REMARK INTRA:                  -0.121
REMARK UNBOUND:                -0.129
REMARK SMILES C=C(C)[C@H]1CC=C(C)CC1
REMARK SMILES IDX 8 1 7 2 6 3 5 4 4 5 10 6 9 7 2 8 1 9 3 10
REMARK H PARENT
REMARK Flexibility Score: inf
ROOT
ATOM      1  C   UNL     1      15.874 -25.125 -22.887  1.00  0.00     0.039 C 
ATOM      2  C   UNL     1      16.879 -24.255 -23.591  1.00  0.00    -0.077 C 
ATOM      3  C   UNL     1      17.879 -23.697 -22.875  1.00  0.00    -0.027 C 
ATOM      4  C   UNL     1      18.903 -22.768 -23.479  1.00  0.00     0.035 C 
ATOM      5  C   UNL     1      19.035 -22.958 -25.000  1.00  0.00     0.018 C 
ATOM      6  C   UNL     1      17.642 -22.968 -25.647  1.00  0.00     0.013 C 
ATOM      7  C   UNL     1      16.814 -24.138 -25.102  1.00  0.00     0.031 C 
ENDROOT
BRANCH   5   8
ATOM      8  C   UNL     1      19.930 -21.892 -25.616  1.00  0.00    -0.077 C 
ATOM      9  C   UNL     1      21.015 -22.249 -26.324  1.00  0.00     0.008 C 
ATOM     10  C   UNL     1      19.638 -20.421 -25.441  1.00  0.00     0.039 C 
ENDBRANCH   5   8
TORSDOF 1
ENDMDL
MODEL 8
REMARK VINA RESULT:    -4.541      6.776      7.415
REMARK INTER + INTRA:          -4.936
REMARK INTER:                  -4.807
REMARK INTRA:                  -0.130
REMARK UNBOUND:                -0.129
REMARK SMILES C=C(C)[C@H]1CC=C(C)CC1
REMARK SMILES IDX 8 1 7 2 6 3 5 4 4 5 10 6 9 7 2 8 1 9 3 10
REMARK H PARENT
REMARK Flexibility Score: inf
ROOT
ATOM      1  C   UNL     1      15.908 -25.069 -22.876  1.00  0.00     0.039 C 
ATOM      2  C   UNL     1      16.895 -24.232 -23.644  1.00  0.00    -0.077 C 
ATOM      3  C   UNL     1      16.760 -24.121 -24.983  1.00  0.00    -0.027 C 
ATOM      4  C   UNL     1      17.727 -23.349 -25.846  1.00  0.00     0.035 C 
ATOM      5  C   UNL     1      18.506 -22.293 -25.044  1.00  0.00     0.018 C 
ATOM      6  C   UNL     1      19.072 -22.923 -23.762  1.00  0.00     0.013 C 
ATOM      7  C   UNL     1      17.930 -23.433 -22.875  1.00  0.00     0.031 C 
ENDROOT
BRANCH   5   8
ATOM      8  C   UNL     1      19.604 -21.656 -25.886  1.00  0.00    -0.077 C 
ATOM      9  C   UNL     1      20.411 -22.426 -26.635  1.00  0.00     0.008 C 
ATOM     10  C   UNL     1      19.824 -20.163 -25.893  1.00  0.00     0.039 C 
ENDBRANCH   5   8
TORSDOF 1
ENDMDL
MODEL 9
REMARK VINA RESULT:    -4.460      6.355      7.255
REMARK INTER + INTRA:          -4.850
REMARK INTER:                  -4.720
REMARK INTRA:                  -0.129
REMARK UNBOUND:                -0.129
REMARK SMILES C=C(C)[C@H]1CC=C(C)CC1
REMARK SMILES IDX 8 1 7 2 6 3 5 4 4 5 10 6 9 7 2 8 1 9 3 10
REMARK H PARENT
REMARK Flexibility Score: inf
ROOT
ATOM      1  C   UNL     1      18.884 -21.120 -29.156  1.00  0.00     0.039 C 
ATOM      2  C   UNL     1      18.565 -21.730 -27.818  1.00  0.00    -0.077 C 
ATOM      3  C   UNL     1      17.631 -22.703 -27.747  1.00  0.00    -0.027 C 
ATOM      4  C   UNL     1      17.204 -23.339 -26.447  1.00  0.00     0.035 C 
ATOM      5  C   UNL     1      18.271 -23.191 -25.349  1.00  0.00     0.018 C 
ATOM      6  C   UNL     1      18.752 -21.733 -25.282  1.00  0.00     0.013 C 
ATOM      7  C   UNL     1      19.394 -21.326 -26.614  1.00  0.00     0.031 C 
ENDROOT
BRANCH   5   8
ATOM      8  C   UNL     1      17.750 -23.670 -24.001  1.00  0.00    -0.077 C 
ATOM      9  C   UNL     1      18.418 -23.369 -22.875  1.00  0.00     0.008 C 
ATOM     10  C   UNL     1      16.493 -24.498 -23.893  1.00  0.00     0.039 C 
ENDBRANCH   5   8
TORSDOF 1
ENDMDL
