MODEL 1
REMARK VINA RESULT:    -4.415      0.000      0.000
REMARK INTER + INTRA:          -8.223
REMARK INTER:                  -6.996
REMARK INTRA:                  -1.228
REMARK UNBOUND:                -1.228
REMARK SMILES CCCCCCCCCCCC(=O)[O-]
REMARK SMILES IDX 7 1 8 2 9 3 10 4 11 5 12 6 13 7 14 8 6 9 5 10 4 11 3 12 2 13
REMARK SMILES IDX 1 14
REMARK H PARENT
REMARK Flexibility Score: inf
ROOT
ATOM      1  C   UNL     1     -37.954  21.756 -28.245  1.00  0.00     0.000 C 
ENDROOT
BRANCH   1   2
ATOM      2  C   UNL     1     -37.975  22.630 -29.513  1.00  0.00     0.000 C 
BRANCH   2   3
ATOM      3  C   UNL     1     -39.387  23.089 -29.903  1.00  0.00     0.000 C 
BRANCH   3   4
ATOM      4  C   UNL     1     -40.322  23.085 -28.684  1.00  0.00     0.006 C 
BRANCH   4   5
ATOM      5  C   UNL     1     -41.684  22.452 -28.998  1.00  0.00     0.053 C 
BRANCH   5   6
ATOM      6  C   UNL     1     -41.983  21.302 -28.087  1.00  0.00     0.041 C 
ATOM      7  O   UNL     1     -43.176  20.962 -27.863  1.00  0.00    -0.550 OA
ATOM      8  O   UNL     1     -40.946  20.623 -27.458  1.00  0.00    -0.550 OA
ENDBRANCH   5   6
ENDBRANCH   4   5
ENDBRANCH   3   4
ENDBRANCH   2   3
ENDBRANCH   1   2
BRANCH   1   9
ATOM      9  C   UNL     1     -37.118  20.467 -28.353  1.00  0.00     0.000 C 
BRANCH   9  10
ATOM     10  C   UNL     1     -36.969  19.969 -29.801  1.00  0.00    -0.000 C 
BRANCH  10  11
ATOM     11  C   UNL     1     -37.595  18.582 -30.015  1.00  0.00    -0.000 C 
BRANCH  11  12
ATOM     12  C   UNL     1     -39.071  18.526 -29.589  1.00  0.00    -0.000 C 
BRANCH  12  13
ATOM     13  C   UNL     1     -39.942  19.383 -30.515  1.00  0.00    -0.003 C 
ATOM     14  C   UNL     1     -41.108  18.578 -31.078  1.00  0.00     0.004 C 
ENDBRANCH  12  13
ENDBRANCH  11  12
ENDBRANCH  10  11
ENDBRANCH   9  10
ENDBRANCH   1   9
TORSDOF 10
ENDMDL
MODEL 2
REMARK VINA RESULT:    -4.149      1.600      3.365
REMARK INTER + INTRA:          -7.802
REMARK INTER:                  -6.537
REMARK INTRA:                  -1.265
REMARK UNBOUND:                -1.228
REMARK SMILES CCCCCCCCCCCC(=O)[O-]
REMARK SMILES IDX 7 1 8 2 9 3 10 4 11 5 12 6 13 7 14 8 6 9 5 10 4 11 3 12 2 13
REMARK SMILES IDX 1 14
REMARK H PARENT
REMARK Flexibility Score: inf
ROOT
ATOM      1  C   UNL     1     -38.859  18.492 -29.466  1.00  0.00     0.000 C 
ENDROOT
BRANCH   1   2
ATOM      2  C   UNL     1     -40.090  18.693 -30.371  1.00  0.00     0.000 C 
BRANCH   2   3
ATOM      3  C   UNL     1     -40.689  20.103 -30.264  1.00  0.00     0.000 C 
BRANCH   3   4
ATOM      4  C   UNL     1     -40.578  20.639 -28.828  1.00  0.00     0.006 C 
BRANCH   4   5
ATOM      5  C   UNL     1     -41.776  21.515 -28.440  1.00  0.00     0.053 C 
BRANCH   5   6
ATOM      6  C   UNL     1     -41.586  22.937 -28.868  1.00  0.00     0.041 C 
ATOM      7  O   UNL     1     -40.528  23.553 -28.570  1.00  0.00    -0.550 OA
ATOM      8  O   UNL     1     -42.590  23.593 -29.569  1.00  0.00    -0.550 OA
ENDBRANCH   5   6
ENDBRANCH   4   5
ENDBRANCH   3   4
ENDBRANCH   2   3
ENDBRANCH   1   2
BRANCH   1   9
ATOM      9  C   UNL     1     -37.532  19.025 -30.038  1.00  0.00     0.000 C 
BRANCH   9  10
ATOM     10  C   UNL     1     -36.850  20.048 -29.113  1.00  0.00    -0.000 C 
BRANCH  10  11
ATOM     11  C   UNL     1     -36.407  21.315 -29.861  1.00  0.00    -0.000 C 
BRANCH  11  12
ATOM     12  C   UNL     1     -37.508  22.386 -29.918  1.00  0.00    -0.000 C 
BRANCH  12  13
ATOM     13  C   UNL     1     -37.671  22.929 -31.342  1.00  0.00    -0.003 C 
ATOM     14  C   UNL     1     -39.126  22.863 -31.795  1.00  0.00     0.004 C 
ENDBRANCH  12  13
ENDBRANCH  11  12
ENDBRANCH  10  11
ENDBRANCH   9  10
ENDBRANCH   1   9
TORSDOF 10
ENDMDL
MODEL 3
REMARK VINA RESULT:    -4.141      1.869      3.458
REMARK INTER + INTRA:          -7.790
REMARK INTER:                  -6.261
REMARK INTRA:                  -1.529
REMARK UNBOUND:                -1.228
REMARK SMILES CCCCCCCCCCCC(=O)[O-]
REMARK SMILES IDX 7 1 8 2 9 3 10 4 11 5 12 6 13 7 14 8 6 9 5 10 4 11 3 12 2 13
REMARK SMILES IDX 1 14
REMARK H PARENT
REMARK Flexibility Score: inf
ROOT
ATOM      1  C   UNL     1     -40.127  18.761 -30.299  1.00  0.00     0.000 C 
ENDROOT
BRANCH   1   2
ATOM      2  C   UNL     1     -40.491  20.241 -30.074  1.00  0.00     0.000 C 
BRANCH   2   3
ATOM      3  C   UNL     1     -40.031  21.153 -31.220  1.00  0.00     0.000 C 
BRANCH   3   4
ATOM      4  C   UNL     1     -40.316  22.627 -30.896  1.00  0.00     0.006 C 
BRANCH   4   5
ATOM      5  C   UNL     1     -41.063  22.797 -29.566  1.00  0.00     0.053 C 
BRANCH   5   6
ATOM      6  C   UNL     1     -40.599  24.010 -28.821  1.00  0.00     0.041 C 
ATOM      7  O   UNL     1     -39.398  24.382 -28.898  1.00  0.00    -0.550 OA
ATOM      8  O   UNL     1     -41.487  24.714 -28.016  1.00  0.00    -0.550 OA
ENDBRANCH   5   6
ENDBRANCH   4   5
ENDBRANCH   3   4
ENDBRANCH   2   3
ENDBRANCH   1   2
BRANCH   1   9
ATOM      9  C   UNL     1     -38.900  18.262 -29.512  1.00  0.00     0.000 C 
BRANCH   9  10
ATOM     10  C   UNL     1     -37.601  18.310 -30.335  1.00  0.00    -0.000 C 
BRANCH  10  11
ATOM     11  C   UNL     1     -36.710  19.505 -29.962  1.00  0.00    -0.000 C 
BRANCH  11  12
ATOM     12  C   UNL     1     -37.042  20.082 -28.577  1.00  0.00    -0.000 C 
BRANCH  12  13
ATOM     13  C   UNL     1     -37.288  21.594 -28.657  1.00  0.00    -0.003 C 
ATOM     14  C   UNL     1     -36.695  22.181 -29.934  1.00  0.00     0.004 C 
ENDBRANCH  12  13
ENDBRANCH  11  12
ENDBRANCH  10  11
ENDBRANCH   9  10
ENDBRANCH   1   9
TORSDOF 10
ENDMDL
MODEL 4
REMARK VINA RESULT:    -4.138      1.872      4.121
REMARK INTER + INTRA:          -7.785
REMARK INTER:                  -6.275
REMARK INTRA:                  -1.509
REMARK UNBOUND:                -1.228
REMARK SMILES CCCCCCCCCCCC(=O)[O-]
REMARK SMILES IDX 7 1 8 2 9 3 10 4 11 5 12 6 13 7 14 8 6 9 5 10 4 11 3 12 2 13
REMARK SMILES IDX 1 14
REMARK H PARENT
REMARK Flexibility Score: inf
ROOT
ATOM      1  C   UNL     1     -37.281  23.199 -28.481  1.00  0.00     0.000 C 
ENDROOT
BRANCH   1   2
ATOM      2  C   UNL     1     -37.254  22.098 -27.403  1.00  0.00     0.000 C 
BRANCH   2   3
ATOM      3  C   UNL     1     -38.206  20.933 -27.711  1.00  0.00     0.000 C 
BRANCH   3   4
ATOM      4  C   UNL     1     -37.576  19.962 -28.721  1.00  0.00     0.006 C 
BRANCH   4   5
ATOM      5  C   UNL     1     -38.357  19.909 -30.041  1.00  0.00     0.053 C 
BRANCH   5   6
ATOM      6  C   UNL     1     -39.376  18.812 -30.038  1.00  0.00     0.041 C 
ATOM      7  O   UNL     1     -39.180  17.764 -29.366  1.00  0.00    -0.550 OA
ATOM      8  O   UNL     1     -40.530  18.932 -30.802  1.00  0.00    -0.550 OA
ENDBRANCH   5   6
ENDBRANCH   4   5
ENDBRANCH   3   4
ENDBRANCH   2   3
ENDBRANCH   1   2
BRANCH   1   9
ATOM      9  C   UNL     1     -38.136  24.432 -28.137  1.00  0.00     0.000 C 
BRANCH   9  10
ATOM     10  C   UNL     1     -39.570  24.340 -28.686  1.00  0.00    -0.000 C 
BRANCH  10  11
ATOM     11  C   UNL     1     -39.645  23.568 -30.013  1.00  0.00    -0.000 C 
BRANCH  11  12
ATOM     12  C   UNL     1     -40.752  22.502 -30.017  1.00  0.00    -0.000 C 
BRANCH  12  13
ATOM     13  C   UNL     1     -41.602  22.589 -28.744  1.00  0.00    -0.003 C 
ATOM     14  C   UNL     1     -41.963  21.201 -28.225  1.00  0.00     0.004 C 
ENDBRANCH  12  13
ENDBRANCH  11  12
ENDBRANCH  10  11
ENDBRANCH   9  10
ENDBRANCH   1   9
TORSDOF 10
ENDMDL
MODEL 5
REMARK VINA RESULT:    -4.115      2.371      3.283
REMARK INTER + INTRA:          -7.747
REMARK INTER:                  -6.358
REMARK INTRA:                  -1.390
REMARK UNBOUND:                -1.228
REMARK SMILES CCCCCCCCCCCC(=O)[O-]
REMARK SMILES IDX 7 1 8 2 9 3 10 4 11 5 12 6 13 7 14 8 6 9 5 10 4 11 3 12 2 13
REMARK SMILES IDX 1 14
REMARK H PARENT
REMARK Flexibility Score: inf
ROOT
ATOM      1  C   UNL     1     -41.086  20.947 -28.151  1.00  0.00     0.000 C 
ENDROOT
BRANCH   1   2
ATOM      2  C   UNL     1     -41.364  22.314 -28.806  1.00  0.00     0.000 C 
BRANCH   2   3
ATOM      3  C   UNL     1     -40.622  22.504 -30.136  1.00  0.00     0.000 C 
BRANCH   3   4
ATOM      4  C   UNL     1     -39.403  23.422 -29.960  1.00  0.00     0.006 C 
BRANCH   4   5
ATOM      5  C   UNL     1     -39.558  24.370 -28.764  1.00  0.00     0.053 C 
BRANCH   5   6
ATOM      6  C   UNL     1     -38.269  24.540 -28.020  1.00  0.00     0.041 C 
ATOM      7  O   UNL     1     -37.950  25.665 -27.551  1.00  0.00    -0.550 OA
ATOM      8  O   UNL     1     -37.404  23.463 -27.872  1.00  0.00    -0.550 OA
ENDBRANCH   5   6
ENDBRANCH   4   5
ENDBRANCH   3   4
ENDBRANCH   2   3
ENDBRANCH   1   2
BRANCH   1   9
ATOM      9  C   UNL     1     -39.728  20.829 -27.434  1.00  0.00     0.000 C 
BRANCH   9  10
ATOM     10  C   UNL     1     -38.916  19.603 -27.887  1.00  0.00    -0.000 C 
BRANCH  10  11
ATOM     11  C   UNL     1     -38.129  19.862 -29.181  1.00  0.00    -0.000 C 
BRANCH  11  12
ATOM     12  C   UNL     1     -38.339  18.762 -30.234  1.00  0.00    -0.000 C 
BRANCH  12  13
ATOM     13  C   UNL     1     -39.733  18.137 -30.101  1.00  0.00    -0.003 C 
ATOM     14  C   UNL     1     -40.741  18.836 -31.007  1.00  0.00     0.004 C 
ENDBRANCH  12  13
ENDBRANCH  11  12
ENDBRANCH  10  11
ENDBRANCH   9  10
ENDBRANCH   1   9
TORSDOF 10
ENDMDL
MODEL 6
REMARK VINA RESULT:    -4.101      2.212      3.909
REMARK INTER + INTRA:          -7.726
REMARK INTER:                  -6.391
REMARK INTRA:                  -1.334
REMARK UNBOUND:                -1.228
REMARK SMILES CCCCCCCCCCCC(=O)[O-]
REMARK SMILES IDX 7 1 8 2 9 3 10 4 11 5 12 6 13 7 14 8 6 9 5 10 4 11 3 12 2 13
REMARK SMILES IDX 1 14
REMARK H PARENT
REMARK Flexibility Score: inf
ROOT
ATOM      1  C   UNL     1     -37.175  18.776 -30.131  1.00  0.00     0.000 C 
ENDROOT
BRANCH   1   2
ATOM      2  C   UNL     1     -36.359  20.073 -29.977  1.00  0.00     0.000 C 
BRANCH   2   3
ATOM      3  C   UNL     1     -36.648  20.812 -28.663  1.00  0.00     0.000 C 
BRANCH   3   4
ATOM      4  C   UNL     1     -37.204  22.218 -28.934  1.00  0.00     0.006 C 
BRANCH   4   5
ATOM      5  C   UNL     1     -37.395  22.489 -30.432  1.00  0.00     0.053 C 
BRANCH   5   6
ATOM      6  C   UNL     1     -38.632  23.290 -30.698  1.00  0.00     0.041 C 
ATOM      7  O   UNL     1     -38.868  24.332 -30.031  1.00  0.00    -0.550 OA
ATOM      8  O   UNL     1     -39.541  22.869 -31.660  1.00  0.00    -0.550 OA
ENDBRANCH   5   6
ENDBRANCH   4   5
ENDBRANCH   3   4
ENDBRANCH   2   3
ENDBRANCH   1   2
BRANCH   1   9
ATOM      9  C   UNL     1     -38.515  18.753 -29.372  1.00  0.00     0.000 C 
BRANCH   9  10
ATOM     10  C   UNL     1     -39.734  18.690 -30.309  1.00  0.00    -0.000 C 
BRANCH  10  11
ATOM     11  C   UNL     1     -40.695  19.872 -30.108  1.00  0.00    -0.000 C 
BRANCH  11  12
ATOM     12  C   UNL     1     -40.439  20.627 -28.794  1.00  0.00    -0.000 C 
BRANCH  12  13
ATOM     13  C   UNL     1     -41.469  21.745 -28.594  1.00  0.00    -0.003 C 
ATOM     14  C   UNL     1     -42.717  21.226 -27.888  1.00  0.00     0.004 C 
ENDBRANCH  12  13
ENDBRANCH  11  12
ENDBRANCH  10  11
ENDBRANCH   9  10
ENDBRANCH   1   9
TORSDOF 10
ENDMDL
MODEL 7
REMARK VINA RESULT:    -4.088      1.866      3.918
REMARK INTER + INTRA:          -7.706
REMARK INTER:                  -6.401
REMARK INTRA:                  -1.304
REMARK UNBOUND:                -1.228
REMARK SMILES CCCCCCCCCCCC(=O)[O-]
REMARK SMILES IDX 7 1 8 2 9 3 10 4 11 5 12 6 13 7 14 8 6 9 5 10 4 11 3 12 2 13
REMARK SMILES IDX 1 14
REMARK H PARENT
REMARK Flexibility Score: inf
ROOT
ATOM      1  C   UNL     1     -40.093  23.700 -28.568  1.00  0.00     0.000 C 
ENDROOT
BRANCH   1   2
ATOM      2  C   UNL     1     -41.355  23.079 -29.196  1.00  0.00     0.000 C 
BRANCH   2   3
ATOM      3  C   UNL     1     -41.728  21.724 -28.578  1.00  0.00     0.000 C 
BRANCH   3   4
ATOM      4  C   UNL     1     -40.558  20.734 -28.679  1.00  0.00     0.006 C 
BRANCH   4   5
ATOM      5  C   UNL     1     -40.197  20.405 -30.134  1.00  0.00     0.053 C 
BRANCH   5   6
ATOM      6  C   UNL     1     -40.240  18.932 -30.396  1.00  0.00     0.041 C 
ATOM      7  O   UNL     1     -39.356  18.175 -29.915  1.00  0.00    -0.550 OA
ATOM      8  O   UNL     1     -41.240  18.397 -31.200  1.00  0.00    -0.550 OA
ENDBRANCH   5   6
ENDBRANCH   4   5
ENDBRANCH   3   4
ENDBRANCH   2   3
ENDBRANCH   1   2
BRANCH   1   9
ATOM      9  C   UNL     1     -39.022  24.163 -29.574  1.00  0.00     0.000 C 
BRANCH   9  10
ATOM     10  C   UNL     1     -37.633  23.567 -29.287  1.00  0.00    -0.000 C 
BRANCH  10  11
ATOM     11  C   UNL     1     -37.614  22.699 -28.018  1.00  0.00    -0.000 C 
BRANCH  11  12
ATOM     12  C   UNL     1     -36.448  21.698 -28.002  1.00  0.00    -0.000 C 
BRANCH  12  13
ATOM     13  C   UNL     1     -36.907  20.314 -28.476  1.00  0.00    -0.003 C 
ATOM     14  C   UNL     1     -36.400  20.016 -29.883  1.00  0.00     0.004 C 
ENDBRANCH  12  13
ENDBRANCH  11  12
ENDBRANCH  10  11
ENDBRANCH   9  10
ENDBRANCH   1   9
TORSDOF 10
ENDMDL
MODEL 8
REMARK VINA RESULT:    -4.049      1.146      3.396
REMARK INTER + INTRA:          -7.644
REMARK INTER:                  -6.218
REMARK INTRA:                  -1.426
REMARK UNBOUND:                -1.228
REMARK SMILES CCCCCCCCCCCC(=O)[O-]
REMARK SMILES IDX 7 1 8 2 9 3 10 4 11 5 12 6 13 7 14 8 6 9 5 10 4 11 3 12 2 13
REMARK SMILES IDX 1 14
REMARK H PARENT
REMARK Flexibility Score: inf
ROOT
ATOM      1  C   UNL     1     -37.444  19.373 -29.930  1.00  0.00     0.000 C 
ENDROOT
BRANCH   1   2
ATOM      2  C   UNL     1     -38.812  18.866 -29.436  1.00  0.00     0.000 C 
BRANCH   2   3
ATOM      3  C   UNL     1     -39.902  18.931 -30.515  1.00  0.00     0.000 C 
BRANCH   3   4
ATOM      4  C   UNL     1     -41.109  19.747 -30.028  1.00  0.00     0.006 C 
BRANCH   4   5
ATOM      5  C   UNL     1     -40.768  20.622 -28.815  1.00  0.00     0.053 C 
BRANCH   5   6
ATOM      6  C   UNL     1     -41.899  21.534 -28.453  1.00  0.00     0.041 C 
ATOM      7  O   UNL     1     -41.874  22.745 -28.799  1.00  0.00    -0.550 OA
ATOM      8  O   UNL     1     -42.968  21.054 -27.707  1.00  0.00    -0.550 OA
ENDBRANCH   5   6
ENDBRANCH   4   5
ENDBRANCH   3   4
ENDBRANCH   2   3
ENDBRANCH   1   2
BRANCH   1   9
ATOM      9  C   UNL     1     -36.544  19.992 -28.844  1.00  0.00     0.000 C 
BRANCH   9  10
ATOM     10  C   UNL     1     -37.252  21.093 -28.035  1.00  0.00    -0.000 C 
BRANCH  10  11
ATOM     11  C   UNL     1     -37.084  22.486 -28.663  1.00  0.00    -0.000 C 
BRANCH  11  12
ATOM     12  C   UNL     1     -38.375  23.318 -28.612  1.00  0.00    -0.000 C 
BRANCH  12  13
ATOM     13  C   UNL     1     -38.740  23.848 -30.004  1.00  0.00    -0.003 C 
ATOM     14  C   UNL     1     -38.686  22.738 -31.048  1.00  0.00     0.004 C 
ENDBRANCH  12  13
ENDBRANCH  11  12
ENDBRANCH  10  11
ENDBRANCH   9  10
ENDBRANCH   1   9
TORSDOF 10
ENDMDL
MODEL 9
REMARK VINA RESULT:    -4.000      1.622      3.907
REMARK INTER + INTRA:          -7.567
REMARK INTER:                  -6.560
REMARK INTRA:                  -1.007
REMARK UNBOUND:                -1.228
REMARK SMILES CCCCCCCCCCCC(=O)[O-]
REMARK SMILES IDX 7 1 8 2 9 3 10 4 11 5 12 6 13 7 14 8 6 9 5 10 4 11 3 12 2 13
REMARK SMILES IDX 1 14
REMARK H PARENT
REMARK Flexibility Score: inf
ROOT
ATOM      1  C   UNL     1     -37.403  18.744 -30.133  1.00  0.00     0.000 C 
ENDROOT
BRANCH   1   2
ATOM      2  C   UNL     1     -38.776  18.742 -29.434  1.00  0.00     0.000 C 
BRANCH   2   3
ATOM      3  C   UNL     1     -39.952  18.777 -30.420  1.00  0.00     0.000 C 
BRANCH   3   4
ATOM      4  C   UNL     1     -40.789  20.052 -30.232  1.00  0.00     0.006 C 
BRANCH   4   5
ATOM      5  C   UNL     1     -40.641  20.642 -28.823  1.00  0.00     0.053 C 
BRANCH   5   6
ATOM      6  C   UNL     1     -41.777  21.556 -28.484  1.00  0.00     0.041 C 
ATOM      7  O   UNL     1     -41.747  22.765 -28.838  1.00  0.00    -0.550 OA
ATOM      8  O   UNL     1     -42.856  21.082 -27.748  1.00  0.00    -0.550 OA
ENDBRANCH   5   6
ENDBRANCH   4   5
ENDBRANCH   3   4
ENDBRANCH   2   3
ENDBRANCH   1   2
BRANCH   1   9
ATOM      9  C   UNL     1     -36.449  19.873 -29.700  1.00  0.00     0.000 C 
BRANCH   9  10
ATOM     10  C   UNL     1     -37.106  21.264 -29.745  1.00  0.00    -0.000 C 
BRANCH  10  11
ATOM     11  C   UNL     1     -37.099  21.965 -28.378  1.00  0.00    -0.000 C 
BRANCH  11  12
ATOM     12  C   UNL     1     -36.889  20.987 -27.211  1.00  0.00    -0.000 C 
BRANCH  12  13
ATOM     13  C   UNL     1     -36.503  21.737 -25.931  1.00  0.00    -0.003 C 
ATOM     14  C   UNL     1     -36.664  20.848 -24.701  1.00  0.00     0.004 C 
ENDBRANCH  12  13
ENDBRANCH  11  12
ENDBRANCH  10  11
ENDBRANCH   9  10
ENDBRANCH   1   9
TORSDOF 10
ENDMDL
