MODEL 1
REMARK VINA RESULT:     6.301      0.000      0.000
REMARK INTER + INTRA:          10.882
REMARK INTER:                  11.827
REMARK INTRA:                  -0.945
REMARK UNBOUND:                -0.945
REMARK SMILES O=C([O-])CCCCCCCCCCCCCCC(=O)[O-]
REMARK SMILES IDX 10 1 9 2 8 3 7 4 6 5 5 6 4 7 2 8 1 9 3 10 11 11 12 12 13 13
REMARK SMILES IDX 14 14 15 15 16 16 17 17 18 18 19 19 20 20
REMARK H PARENT
REMARK Flexibility Score: inf
ROOT
ATOM      1  C   UNL     1     -31.924   7.262   0.482  1.00  0.00     0.000 C 
ENDROOT
BRANCH   1   2
ATOM      2  C   UNL     1     -32.672   8.213  -0.461  1.00  0.00     0.000 C 
BRANCH   2   3
ATOM      3  C   UNL     1     -32.674   7.675  -1.899  1.00  0.00     0.000 C 
BRANCH   3   4
ATOM      4  C   UNL     1     -33.409   8.598  -2.886  1.00  0.00     0.000 C 
BRANCH   4   5
ATOM      5  C   UNL     1     -33.897   7.915  -4.177  1.00  0.00     0.000 C 
BRANCH   5   6
ATOM      6  C   UNL     1     -32.765   7.666  -5.188  1.00  0.00     0.006 C 
BRANCH   6   7
ATOM      7  C   UNL     1     -33.287   7.550  -6.627  1.00  0.00     0.053 C 
BRANCH   7   8
ATOM      8  C   UNL     1     -33.696   6.148  -6.960  1.00  0.00     0.041 C 
ATOM      9  O   UNL     1     -32.825   5.244  -7.068  1.00  0.00    -0.550 OA
ATOM     10  O   UNL     1     -35.039   5.834  -7.125  1.00  0.00    -0.550 OA
ENDBRANCH   7   8
ENDBRANCH   6   7
ENDBRANCH   5   6
ENDBRANCH   4   5
ENDBRANCH   3   4
ENDBRANCH   2   3
ENDBRANCH   1   2
BRANCH   1  11
ATOM     11  C   UNL     1     -30.585   6.824  -0.129  1.00  0.00     0.000 C 
BRANCH  11  12
ATOM     12  C   UNL     1     -29.376   7.389   0.634  1.00  0.00     0.000 C 
BRANCH  12  13
ATOM     13  C   UNL     1     -28.259   7.874  -0.306  1.00  0.00     0.000 C 
BRANCH  13  14
ATOM     14  C   UNL     1     -28.702   7.893  -1.784  1.00  0.00     0.000 C 
BRANCH  14  15
ATOM     15  C   UNL     1     -27.560   8.204  -2.770  1.00  0.00     0.000 C 
BRANCH  15  16
ATOM     16  C   UNL     1     -27.914   8.007  -4.257  1.00  0.00     0.006 C 
BRANCH  16  17
ATOM     17  C   UNL     1     -26.735   7.555  -5.134  1.00  0.00     0.053 C 
BRANCH  17  18
ATOM     18  C   UNL     1     -26.291   8.634  -6.073  1.00  0.00     0.041 C 
ATOM     19  O   UNL     1     -25.079   8.976  -6.116  1.00  0.00    -0.550 OA
ATOM     20  O   UNL     1     -27.208   9.238  -6.924  1.00  0.00    -0.550 OA
ENDBRANCH  17  18
ENDBRANCH  16  17
ENDBRANCH  15  16
ENDBRANCH  14  15
ENDBRANCH  13  14
ENDBRANCH  12  13
ENDBRANCH  11  12
ENDBRANCH   1  11
TORSDOF 15
ENDMDL
MODEL 2
REMARK VINA RESULT:     6.607      0.634      6.160
REMARK INTER + INTRA:          11.456
REMARK INTER:                  12.520
REMARK INTRA:                  -1.064
REMARK UNBOUND:                -0.945
REMARK SMILES O=C([O-])CCCCCCCCCCCCCCC(=O)[O-]
REMARK SMILES IDX 10 1 9 2 8 3 7 4 6 5 5 6 4 7 2 8 1 9 3 10 11 11 12 12 13 13
REMARK SMILES IDX 14 14 15 15 16 16 17 17 18 18 19 19 20 20
REMARK H PARENT
REMARK Flexibility Score: inf
ROOT
ATOM      1  C   UNL     1     -30.932   6.942   0.452  1.00  0.00     0.000 C 
ENDROOT
BRANCH   1   2
ATOM      2  C   UNL     1     -29.983   6.774  -0.742  1.00  0.00     0.000 C 
BRANCH   2   3
ATOM      3  C   UNL     1     -28.644   7.482  -0.484  1.00  0.00     0.000 C 
BRANCH   3   4
ATOM      4  C   UNL     1     -27.992   8.021  -1.770  1.00  0.00     0.000 C 
BRANCH   4   5
ATOM      5  C   UNL     1     -28.812   7.808  -3.056  1.00  0.00     0.000 C 
BRANCH   5   6
ATOM      6  C   UNL     1     -28.232   8.558  -4.267  1.00  0.00     0.006 C 
BRANCH   6   7
ATOM      7  C   UNL     1     -26.913   7.941  -4.754  1.00  0.00     0.053 C 
BRANCH   7   8
ATOM      8  C   UNL     1     -26.439   8.572  -6.027  1.00  0.00     0.041 C 
ATOM      9  O   UNL     1     -25.207   8.634  -6.282  1.00  0.00    -0.550 OA
ATOM     10  O   UNL     1     -27.357   9.066  -6.944  1.00  0.00    -0.550 OA
ENDBRANCH   7   8
ENDBRANCH   6   7
ENDBRANCH   5   6
ENDBRANCH   4   5
ENDBRANCH   3   4
ENDBRANCH   2   3
ENDBRANCH   1   2
BRANCH   1  11
ATOM     11  C   UNL     1     -32.153   7.792   0.068  1.00  0.00     0.000 C 
BRANCH  11  12
ATOM     12  C   UNL     1     -32.230   8.063  -1.443  1.00  0.00     0.000 C 
BRANCH  12  13
ATOM     13  C   UNL     1     -33.668   7.989  -1.984  1.00  0.00     0.000 C 
BRANCH  13  14
ATOM     14  C   UNL     1     -33.833   8.746  -3.319  1.00  0.00     0.000 C 
BRANCH  14  15
ATOM     15  C   UNL     1     -34.018   7.822  -4.537  1.00  0.00     0.000 C 
BRANCH  15  16
ATOM     16  C   UNL     1     -32.846   7.820  -5.536  1.00  0.00     0.006 C 
BRANCH  16  17
ATOM     17  C   UNL     1     -33.231   7.402  -6.964  1.00  0.00     0.053 C 
BRANCH  17  18
ATOM     18  C   UNL     1     -33.666   5.970  -7.030  1.00  0.00     0.041 C 
ATOM     19  O   UNL     1     -32.811   5.046  -6.976  1.00  0.00    -0.550 OA
ATOM     20  O   UNL     1     -35.015   5.655  -7.118  1.00  0.00    -0.550 OA
ENDBRANCH  17  18
ENDBRANCH  16  17
ENDBRANCH  15  16
ENDBRANCH  14  15
ENDBRANCH  13  14
ENDBRANCH  12  13
ENDBRANCH  11  12
ENDBRANCH   1  11
TORSDOF 15
ENDMDL
MODEL 3
REMARK VINA RESULT:     7.658      0.787      6.169
REMARK INTER + INTRA:          13.429
REMARK INTER:                  14.292
REMARK INTRA:                  -0.863
REMARK UNBOUND:                -0.945
REMARK SMILES O=C([O-])CCCCCCCCCCCCCCC(=O)[O-]
REMARK SMILES IDX 10 1 9 2 8 3 7 4 6 5 5 6 4 7 2 8 1 9 3 10 11 11 12 12 13 13
REMARK SMILES IDX 14 14 15 15 16 16 17 17 18 18 19 19 20 20
REMARK H PARENT
REMARK Flexibility Score: inf
ROOT
ATOM      1  C   UNL     1     -29.735   7.140   0.467  1.00  0.00     0.000 C 
ENDROOT
BRANCH   1   2
ATOM      2  C   UNL     1     -28.609   7.891  -0.256  1.00  0.00     0.000 C 
BRANCH   2   3
ATOM      3  C   UNL     1     -28.594   7.552  -1.754  1.00  0.00     0.000 C 
BRANCH   3   4
ATOM      4  C   UNL     1     -27.470   8.269  -2.522  1.00  0.00     0.000 C 
BRANCH   4   5
ATOM      5  C   UNL     1     -27.227   7.756  -3.953  1.00  0.00     0.000 C 
BRANCH   5   6
ATOM      6  C   UNL     1     -27.913   8.621  -5.024  1.00  0.00     0.006 C 
BRANCH   6   7
ATOM      7  C   UNL     1     -27.456   8.255  -6.443  1.00  0.00     0.053 C 
BRANCH   7   8
ATOM      8  C   UNL     1     -26.103   8.816  -6.755  1.00  0.00     0.041 C 
ATOM      9  O   UNL     1     -25.091   8.066  -6.757  1.00  0.00    -0.550 OA
ATOM     10  O   UNL     1     -25.962  10.162  -7.071  1.00  0.00    -0.550 OA
ENDBRANCH   7   8
ENDBRANCH   6   7
ENDBRANCH   5   6
ENDBRANCH   4   5
ENDBRANCH   3   4
ENDBRANCH   2   3
ENDBRANCH   1   2
BRANCH   1  11
ATOM     11  C   UNL     1     -30.825   6.699  -0.522  1.00  0.00     0.000 C 
BRANCH  11  12
ATOM     12  C   UNL     1     -32.233   7.117  -0.072  1.00  0.00     0.000 C 
BRANCH  12  13
ATOM     13  C   UNL     1     -32.710   8.413  -0.749  1.00  0.00     0.000 C 
BRANCH  13  14
ATOM     14  C   UNL     1     -33.623   8.139  -1.963  1.00  0.00     0.000 C 
BRANCH  14  15
ATOM     15  C   UNL     1     -32.946   8.410  -3.320  1.00  0.00     0.000 C 
BRANCH  15  16
ATOM     16  C   UNL     1     -33.691   7.840  -4.543  1.00  0.00     0.006 C 
BRANCH  16  17
ATOM     17  C   UNL     1     -32.771   7.311  -5.655  1.00  0.00     0.053 C 
BRANCH  17  18
ATOM     18  C   UNL     1     -33.477   6.341  -6.552  1.00  0.00     0.041 C 
ATOM     19  O   UNL     1     -32.984   5.202  -6.765  1.00  0.00    -0.550 OA
ATOM     20  O   UNL     1     -34.696   6.682  -7.124  1.00  0.00    -0.550 OA
ENDBRANCH  17  18
ENDBRANCH  16  17
ENDBRANCH  15  16
ENDBRANCH  14  15
ENDBRANCH  13  14
ENDBRANCH  12  13
ENDBRANCH  11  12
ENDBRANCH   1  11
TORSDOF 15
ENDMDL
MODEL 4
REMARK VINA RESULT:     8.294      3.762      7.013
REMARK INTER + INTRA:          14.622
REMARK INTER:                  15.322
REMARK INTRA:                  -0.700
REMARK UNBOUND:                -0.945
REMARK SMILES O=C([O-])CCCCCCCCCCCCCCC(=O)[O-]
REMARK SMILES IDX 10 1 9 2 8 3 7 4 6 5 5 6 4 7 2 8 1 9 3 10 11 11 12 12 13 13
REMARK SMILES IDX 14 14 15 15 16 16 17 17 18 18 19 19 20 20
REMARK H PARENT
REMARK Flexibility Score: inf
ROOT
ATOM      1  C   UNL     1     -29.126   7.198   0.505  1.00  0.00     0.000 C 
ENDROOT
BRANCH   1   2
ATOM      2  C   UNL     1     -27.888   7.657  -0.277  1.00  0.00     0.000 C 
BRANCH   2   3
ATOM      3  C   UNL     1     -28.290   8.317  -1.605  1.00  0.00     0.000 C 
BRANCH   3   4
ATOM      4  C   UNL     1     -27.163   8.293  -2.653  1.00  0.00     0.000 C 
BRANCH   4   5
ATOM      5  C   UNL     1     -27.543   7.661  -4.005  1.00  0.00     0.000 C 
BRANCH   5   6
ATOM      6  C   UNL     1     -28.017   8.696  -5.039  1.00  0.00     0.006 C 
BRANCH   6   7
ATOM      7  C   UNL     1     -27.466   8.408  -6.442  1.00  0.00     0.053 C 
BRANCH   7   8
ATOM      8  C   UNL     1     -26.031   8.819  -6.572  1.00  0.00     0.041 C 
ATOM      9  O   UNL     1     -25.736   9.947  -7.052  1.00  0.00    -0.550 OA
ATOM     10  O   UNL     1     -25.021   7.971  -6.139  1.00  0.00    -0.550 OA
ENDBRANCH   7   8
ENDBRANCH   6   7
ENDBRANCH   5   6
ENDBRANCH   4   5
ENDBRANCH   3   4
ENDBRANCH   2   3
ENDBRANCH   1   2
BRANCH   1  11
ATOM     11  C   UNL     1     -30.293   6.888  -0.445  1.00  0.00     0.000 C 
BRANCH  11  12
ATOM     12  C   UNL     1     -31.608   6.625   0.304  1.00  0.00     0.000 C 
BRANCH  12  13
ATOM     13  C   UNL     1     -32.101   7.856   1.083  1.00  0.00     0.000 C 
BRANCH  13  14
ATOM     14  C   UNL     1     -32.729   8.922   0.160  1.00  0.00     0.000 C 
BRANCH  14  15
ATOM     15  C   UNL     1     -33.514  10.010   0.916  1.00  0.00     0.000 C 
BRANCH  15  16
ATOM     16  C   UNL     1     -33.128  11.458   0.556  1.00  0.00     0.006 C 
BRANCH  16  17
ATOM     17  C   UNL     1     -34.277  12.292  -0.033  1.00  0.00     0.053 C 
BRANCH  17  18
ATOM     18  C   UNL     1     -33.973  12.761  -1.423  1.00  0.00     0.041 C 
ATOM     19  O   UNL     1     -32.806  13.124  -1.727  1.00  0.00    -0.550 OA
ATOM     20  O   UNL     1     -34.970  12.765  -2.390  1.00  0.00    -0.550 OA
ENDBRANCH  17  18
ENDBRANCH  16  17
ENDBRANCH  15  16
ENDBRANCH  14  15
ENDBRANCH  13  14
ENDBRANCH  12  13
ENDBRANCH  11  12
ENDBRANCH   1  11
TORSDOF 15
ENDMDL
MODEL 5
REMARK VINA RESULT:     8.667      3.688      4.711
REMARK INTER + INTRA:          15.323
REMARK INTER:                  15.312
REMARK INTRA:                   0.010
REMARK UNBOUND:                -0.945
REMARK SMILES O=C([O-])CCCCCCCCCCCCCCC(=O)[O-]
REMARK SMILES IDX 10 1 9 2 8 3 7 4 6 5 5 6 4 7 2 8 1 9 3 10 11 11 12 12 13 13
REMARK SMILES IDX 14 14 15 15 16 16 17 17 18 18 19 19 20 20
REMARK H PARENT
REMARK Flexibility Score: inf
ROOT
ATOM      1  C   UNL     1     -30.384   6.919   0.999  1.00  0.00     0.000 C 
ENDROOT
BRANCH   1   2
ATOM      2  C   UNL     1     -31.473   6.782  -0.072  1.00  0.00     0.000 C 
BRANCH   2   3
ATOM      3  C   UNL     1     -32.378   8.022  -0.099  1.00  0.00     0.000 C 
BRANCH   3   4
ATOM      4  C   UNL     1     -32.870   8.438   1.299  1.00  0.00     0.000 C 
BRANCH   4   5
ATOM      5  C   UNL     1     -33.442   9.864   1.392  1.00  0.00     0.000 C 
BRANCH   5   6
ATOM      6  C   UNL     1     -33.093  10.731   0.170  1.00  0.00     0.006 C 
BRANCH   6   7
ATOM      7  C   UNL     1     -33.863  12.058   0.162  1.00  0.00     0.053 C 
BRANCH   7   8
ATOM      8  C   UNL     1     -33.748  12.761  -1.156  1.00  0.00     0.041 C 
ATOM      9  O   UNL     1     -32.620  13.125  -1.584  1.00  0.00    -0.550 OA
ATOM     10  O   UNL     1     -34.882  12.990  -1.925  1.00  0.00    -0.550 OA
ENDBRANCH   7   8
ENDBRANCH   6   7
ENDBRANCH   5   6
ENDBRANCH   4   5
ENDBRANCH   3   4
ENDBRANCH   2   3
ENDBRANCH   1   2
BRANCH   1  11
ATOM     11  C   UNL     1     -29.023   7.241   0.363  1.00  0.00     0.000 C 
BRANCH  11  12
ATOM     12  C   UNL     1     -29.076   7.240  -1.173  1.00  0.00     0.000 C 
BRANCH  12  13
ATOM     13  C   UNL     1     -28.245   8.376  -1.793  1.00  0.00     0.000 C 
BRANCH  13  14
ATOM     14  C   UNL     1     -27.227   7.859  -2.831  1.00  0.00     0.000 C 
BRANCH  14  15
ATOM     15  C   UNL     1     -27.784   7.789  -4.265  1.00  0.00     0.000 C 
BRANCH  15  16
ATOM     16  C   UNL     1     -27.930   9.150  -4.972  1.00  0.00     0.006 C 
BRANCH  16  17
ATOM     17  C   UNL     1     -27.213   9.239  -6.329  1.00  0.00     0.053 C 
BRANCH  17  18
ATOM     18  C   UNL     1     -26.091   8.252  -6.435  1.00  0.00     0.041 C 
ATOM     19  O   UNL     1     -24.922   8.648  -6.688  1.00  0.00    -0.550 OA
ATOM     20  O   UNL     1     -26.330   6.901  -6.223  1.00  0.00    -0.550 OA
ENDBRANCH  17  18
ENDBRANCH  16  17
ENDBRANCH  15  16
ENDBRANCH  14  15
ENDBRANCH  13  14
ENDBRANCH  12  13
ENDBRANCH  11  12
ENDBRANCH   1  11
TORSDOF 15
ENDMDL
