MODEL 1
REMARK VINA RESULT:    -2.365      0.000      0.000
REMARK INTER + INTRA:          -2.811
REMARK INTER:                  -2.780
REMARK INTRA:                  -0.031
REMARK UNBOUND:                -0.031
REMARK SMILES CCCCC(=O)[O-]
REMARK SMILES IDX 4 1 5 2 6 3 7 4 3 5 2 6 1 7
REMARK H PARENT
REMARK Flexibility Score: inf
ROOT
ATOM      1  C   UNL     1      15.901  -8.286  29.312  1.00  0.00     0.053 C 
ENDROOT
BRANCH   1   2
ATOM      2  C   UNL     1      17.207  -8.926  29.662  1.00  0.00     0.041 C 
ATOM      3  O   UNL     1      17.259 -10.154  29.933  1.00  0.00    -0.550 OA
ATOM      4  O   UNL     1      18.376  -8.175  29.642  1.00  0.00    -0.550 OA
ENDBRANCH   1   2
BRANCH   1   5
ATOM      5  C   UNL     1      15.875  -7.893  27.832  1.00  0.00     0.006 C 
BRANCH   5   6
ATOM      6  C   UNL     1      16.281  -9.075  26.944  1.00  0.00    -0.003 C 
ATOM      7  C   UNL     1      16.891  -8.593  25.630  1.00  0.00     0.004 C 
ENDBRANCH   5   6
ENDBRANCH   1   5
TORSDOF 3
ENDMDL
MODEL 2
REMARK VINA RESULT:    -2.205     10.006     10.725
REMARK INTER + INTRA:          -2.622
REMARK INTER:                  -2.606
REMARK INTRA:                  -0.017
REMARK UNBOUND:                -0.031
REMARK SMILES CCCCC(=O)[O-]
REMARK SMILES IDX 4 1 5 2 6 3 7 4 3 5 2 6 1 7
REMARK H PARENT
REMARK Flexibility Score: inf
ROOT
ATOM      1  C   UNL     1      17.743 -19.376  27.091  1.00  0.00     0.053 C 
ENDROOT
BRANCH   1   2
ATOM      2  C   UNL     1      16.677 -19.173  28.120  1.00  0.00     0.041 C 
ATOM      3  O   UNL     1      16.444 -18.022  28.575  1.00  0.00    -0.550 OA
ATOM      4  O   UNL     1      15.906 -20.249  28.544  1.00  0.00    -0.550 OA
ENDBRANCH   1   2
BRANCH   1   5
ATOM      5  C   UNL     1      17.475 -18.502  25.862  1.00  0.00     0.006 C 
BRANCH   5   6
ATOM      6  C   UNL     1      18.132 -19.098  24.611  1.00  0.00    -0.003 C 
ATOM      7  C   UNL     1      17.099 -19.360  23.518  1.00  0.00     0.004 C 
ENDBRANCH   5   6
ENDBRANCH   1   5
TORSDOF 3
ENDMDL
MODEL 3
REMARK VINA RESULT:    -2.200     16.121     16.919
REMARK INTER + INTRA:          -2.617
REMARK INTER:                  -2.518
REMARK INTRA:                  -0.099
REMARK UNBOUND:                -0.031
REMARK SMILES CCCCC(=O)[O-]
REMARK SMILES IDX 4 1 5 2 6 3 7 4 3 5 2 6 1 7
REMARK H PARENT
REMARK Flexibility Score: inf
ROOT
ATOM      1  C   UNL     1      33.353  -5.996  26.804  1.00  0.00     0.053 C 
ENDROOT
BRANCH   1   2
ATOM      2  C   UNL     1      31.920  -5.730  27.139  1.00  0.00     0.041 C 
ATOM      3  O   UNL     1      31.216  -5.008  26.385  1.00  0.00    -0.550 OA
ATOM      4  O   UNL     1      31.347  -6.319  28.260  1.00  0.00    -0.550 OA
ENDBRANCH   1   2
BRANCH   1   5
ATOM      5  C   UNL     1      34.247  -4.875  27.342  1.00  0.00     0.006 C 
BRANCH   5   6
ATOM      6  C   UNL     1      34.991  -5.324  28.605  1.00  0.00    -0.003 C 
ATOM      7  C   UNL     1      34.257  -4.875  29.866  1.00  0.00     0.004 C 
ENDBRANCH   5   6
ENDBRANCH   1   5
TORSDOF 3
ENDMDL
MODEL 4
REMARK VINA RESULT:    -1.964      2.904      3.871
REMARK INTER + INTRA:          -2.340
REMARK INTER:                  -2.302
REMARK INTRA:                  -0.038
REMARK UNBOUND:                -0.031
REMARK SMILES CCCCC(=O)[O-]
REMARK SMILES IDX 4 1 5 2 6 3 7 4 3 5 2 6 1 7
REMARK H PARENT
REMARK Flexibility Score: inf
ROOT
ATOM      1  C   UNL     1      17.420  -8.900  26.765  1.00  0.00     0.053 C 
ENDROOT
BRANCH   1   2
ATOM      2  C   UNL     1      17.179  -8.511  25.341  1.00  0.00     0.041 C 
ATOM      3  O   UNL     1      16.009  -8.495  24.877  1.00  0.00    -0.550 OA
ATOM      4  O   UNL     1      18.243  -8.119  24.538  1.00  0.00    -0.550 OA
ENDBRANCH   1   2
BRANCH   1   5
ATOM      5  C   UNL     1      16.123  -8.806  27.574  1.00  0.00     0.006 C 
BRANCH   5   6
ATOM      6  C   UNL     1      16.369  -9.149  29.047  1.00  0.00    -0.003 C 
ATOM      7  C   UNL     1      17.812  -8.856  29.448  1.00  0.00     0.004 C 
ENDBRANCH   5   6
ENDBRANCH   1   5
TORSDOF 3
ENDMDL
MODEL 5
REMARK VINA RESULT:    -1.903      9.526     10.131
REMARK INTER + INTRA:          -2.268
REMARK INTER:                  -2.204
REMARK INTRA:                  -0.063
REMARK UNBOUND:                -0.031
REMARK SMILES CCCCC(=O)[O-]
REMARK SMILES IDX 4 1 5 2 6 3 7 4 3 5 2 6 1 7
REMARK H PARENT
REMARK Flexibility Score: inf
ROOT
ATOM      1  C   UNL     1      16.648 -19.505  27.980  1.00  0.00     0.053 C 
ENDROOT
BRANCH   1   2
ATOM      2  C   UNL     1      16.817 -18.390  28.963  1.00  0.00     0.041 C 
ATOM      3  O   UNL     1      17.675 -18.478  29.880  1.00  0.00    -0.550 OA
ATOM      4  O   UNL     1      16.060 -17.232  28.838  1.00  0.00    -0.550 OA
ENDBRANCH   1   2
BRANCH   1   5
ATOM      5  C   UNL     1      17.800 -19.510  26.971  1.00  0.00     0.006 C 
BRANCH   5   6
ATOM      6  C   UNL     1      17.577 -18.460  25.877  1.00  0.00    -0.003 C 
ATOM      7  C   UNL     1      17.540 -19.104  24.494  1.00  0.00     0.004 C 
ENDBRANCH   5   6
ENDBRANCH   1   5
TORSDOF 3
ENDMDL
MODEL 6
REMARK VINA RESULT:    -1.040      9.836     10.634
REMARK INTER + INTRA:          -1.253
REMARK INTER:                  -1.173
REMARK INTRA:                  -0.080
REMARK UNBOUND:                -0.031
REMARK SMILES CCCCC(=O)[O-]
REMARK SMILES IDX 4 1 5 2 6 3 7 4 3 5 2 6 1 7
REMARK H PARENT
REMARK Flexibility Score: inf
ROOT
ATOM      1  C   UNL     1      16.663 -19.178  27.154  1.00  0.00     0.053 C 
ENDROOT
BRANCH   1   2
ATOM      2  C   UNL     1      17.839 -19.109  26.233  1.00  0.00     0.041 C 
ATOM      3  O   UNL     1      18.994 -19.380  26.656  1.00  0.00    -0.550 OA
ATOM      4  O   UNL     1      17.655 -18.793  24.892  1.00  0.00    -0.550 OA
ENDBRANCH   1   2
BRANCH   1   5
ATOM      5  C   UNL     1      17.113 -19.538  28.573  1.00  0.00     0.006 C 
BRANCH   5   6
ATOM      6  C   UNL     1      17.065 -18.312  29.492  1.00  0.00    -0.003 C 
ATOM      7  C   UNL     1      16.083 -17.268  28.968  1.00  0.00     0.004 C 
ENDBRANCH   5   6
ENDBRANCH   1   5
TORSDOF 3
ENDMDL
MODEL 7
REMARK VINA RESULT:    -0.879     18.753     19.723
REMARK INTER + INTRA:          -1.064
REMARK INTER:                  -1.016
REMARK INTRA:                  -0.048
REMARK UNBOUND:                -0.031
REMARK SMILES CCCCC(=O)[O-]
REMARK SMILES IDX 4 1 5 2 6 3 7 4 3 5 2 6 1 7
REMARK H PARENT
REMARK Flexibility Score: inf
ROOT
ATOM      1  C   UNL     1      27.852 -16.217  14.808  1.00  0.00     0.053 C 
ENDROOT
BRANCH   1   2
ATOM      2  C   UNL     1      28.591 -16.680  13.593  1.00  0.00     0.041 C 
ATOM      3  O   UNL     1      28.012 -16.718  12.475  1.00  0.00    -0.550 OA
ATOM      4  O   UNL     1      29.934 -17.023  13.684  1.00  0.00    -0.550 OA
ENDBRANCH   1   2
BRANCH   1   5
ATOM      5  C   UNL     1      28.691 -15.202  15.591  1.00  0.00     0.006 C 
BRANCH   5   6
ATOM      6  C   UNL     1      29.089 -15.760  16.962  1.00  0.00    -0.003 C 
ATOM      7  C   UNL     1      29.433 -14.636  17.936  1.00  0.00     0.004 C 
ENDBRANCH   5   6
ENDBRANCH   1   5
TORSDOF 3
ENDMDL
MODEL 8
REMARK VINA RESULT:    -0.857     17.946     18.959
REMARK INTER + INTRA:          -1.038
REMARK INTER:                  -0.949
REMARK INTRA:                  -0.088
REMARK UNBOUND:                -0.031
REMARK SMILES CCCCC(=O)[O-]
REMARK SMILES IDX 4 1 5 2 6 3 7 4 3 5 2 6 1 7
REMARK H PARENT
REMARK Flexibility Score: inf
ROOT
ATOM      1  C   UNL     1      28.685 -15.049  15.604  1.00  0.00     0.053 C 
ENDROOT
BRANCH   1   2
ATOM      2  C   UNL     1      29.018 -15.390  17.022  1.00  0.00     0.041 C 
ATOM      3  O   UNL     1      28.749 -16.531  17.480  1.00  0.00    -0.550 OA
ATOM      4  O   UNL     1      29.672 -14.463  17.825  1.00  0.00    -0.550 OA
ENDBRANCH   1   2
BRANCH   1   5
ATOM      5  C   UNL     1      27.877 -16.177  14.957  1.00  0.00     0.006 C 
BRANCH   5   6
ATOM      6  C   UNL     1      28.462 -16.559  13.593  1.00  0.00    -0.003 C 
ATOM      7  C   UNL     1      29.912 -17.020  13.725  1.00  0.00     0.004 C 
ENDBRANCH   5   6
ENDBRANCH   1   5
TORSDOF 3
ENDMDL
