MODEL 1
REMARK VINA RESULT:    -3.015      0.000      0.000
REMARK INTER + INTRA:          -3.863
REMARK INTER:                  -3.720
REMARK INTRA:                  -0.143
REMARK UNBOUND:                -0.143
REMARK SMILES CCCCCC(=O)[O-]
REMARK SMILES IDX 4 1 5 2 6 3 7 4 8 5 3 6 2 7 1 8
REMARK H PARENT
REMARK Flexibility Score: inf
ROOT
ATOM      1  C   UNL     1      -1.311   8.993  39.176  1.00  0.00     0.006 C 
ENDROOT
BRANCH   1   2
ATOM      2  C   UNL     1      -1.822   9.794  37.971  1.00  0.00     0.053 C 
BRANCH   2   3
ATOM      3  C   UNL     1      -1.278   9.264  36.679  1.00  0.00     0.041 C 
ATOM      4  O   UNL     1      -1.599   9.802  35.587  1.00  0.00    -0.550 OA
ATOM      5  O   UNL     1      -0.392   8.194  36.685  1.00  0.00    -0.550 OA
ENDBRANCH   2   3
ENDBRANCH   1   2
BRANCH   1   6
ATOM      6  C   UNL     1      -2.384   8.047  39.742  1.00  0.00     0.000 C 
BRANCH   6   7
ATOM      7  C   UNL     1      -1.989   6.568  39.622  1.00  0.00    -0.003 C 
ATOM      8  C   UNL     1      -3.190   5.650  39.398  1.00  0.00     0.004 C 
ENDBRANCH   6   7
ENDBRANCH   1   6
TORSDOF 4
ENDMDL
MODEL 2
REMARK VINA RESULT:    -2.958      0.576      1.311
REMARK INTER + INTRA:          -3.793
REMARK INTER:                  -3.603
REMARK INTRA:                  -0.189
REMARK UNBOUND:                -0.143
REMARK SMILES CCCCCC(=O)[O-]
REMARK SMILES IDX 4 1 5 2 6 3 7 4 8 5 3 6 2 7 1 8
REMARK H PARENT
REMARK Flexibility Score: inf
ROOT
ATOM      1  C   UNL     1      -1.357   8.585  39.223  1.00  0.00     0.006 C 
ENDROOT
BRANCH   1   2
ATOM      2  C   UNL     1      -1.726   9.641  38.173  1.00  0.00     0.053 C 
BRANCH   2   3
ATOM      3  C   UNL     1      -1.198   9.285  36.817  1.00  0.00     0.041 C 
ATOM      4  O   UNL     1      -0.233   8.485  36.702  1.00  0.00    -0.550 OA
ATOM      5  O   UNL     1      -1.790   9.818  35.678  1.00  0.00    -0.550 OA
ENDBRANCH   2   3
ENDBRANCH   1   2
BRANCH   1   6
ATOM      6  C   UNL     1      -2.597   7.879  39.798  1.00  0.00     0.000 C 
BRANCH   6   7
ATOM      7  C   UNL     1      -2.461   6.349  39.790  1.00  0.00    -0.003 C 
ATOM      8  C   UNL     1      -1.846   5.815  38.497  1.00  0.00     0.004 C 
ENDBRANCH   6   7
ENDBRANCH   1   6
TORSDOF 4
ENDMDL
MODEL 3
REMARK VINA RESULT:    -2.924      2.666      4.187
REMARK INTER + INTRA:          -3.751
REMARK INTER:                  -3.639
REMARK INTRA:                  -0.112
REMARK UNBOUND:                -0.143
REMARK SMILES CCCCCC(=O)[O-]
REMARK SMILES IDX 4 1 5 2 6 3 7 4 8 5 3 6 2 7 1 8
REMARK H PARENT
REMARK Flexibility Score: inf
ROOT
ATOM      1  C   UNL     1      -0.932   8.424  39.514  1.00  0.00     0.006 C 
ENDROOT
BRANCH   1   2
ATOM      2  C   UNL     1      -2.419   8.095  39.704  1.00  0.00     0.053 C 
BRANCH   2   3
ATOM      3  C   UNL     1      -2.624   6.672  40.125  1.00  0.00     0.041 C 
ATOM      4  O   UNL     1      -3.229   5.867  39.368  1.00  0.00    -0.550 OA
ATOM      5  O   UNL     1      -2.122   6.227  41.342  1.00  0.00    -0.550 OA
ENDBRANCH   2   3
ENDBRANCH   1   2
BRANCH   1   6
ATOM      6  C   UNL     1      -0.723   9.755  38.772  1.00  0.00     0.000 C 
BRANCH   6   7
ATOM      7  C   UNL     1      -1.869  10.075  37.801  1.00  0.00    -0.003 C 
ATOM      8  C   UNL     1      -1.492   9.838  36.339  1.00  0.00     0.004 C 
ENDBRANCH   6   7
ENDBRANCH   1   6
TORSDOF 4
ENDMDL
MODEL 4
REMARK VINA RESULT:    -2.856      2.329      3.798
REMARK INTER + INTRA:          -3.667
REMARK INTER:                  -3.454
REMARK INTRA:                  -0.213
REMARK UNBOUND:                -0.143
REMARK SMILES CCCCCC(=O)[O-]
REMARK SMILES IDX 4 1 5 2 6 3 7 4 8 5 3 6 2 7 1 8
REMARK H PARENT
REMARK Flexibility Score: inf
ROOT
ATOM      1  C   UNL     1      -1.366   8.636  39.403  1.00  0.00     0.006 C 
ENDROOT
BRANCH   1   2
ATOM      2  C   UNL     1      -2.549   7.796  39.904  1.00  0.00     0.053 C 
BRANCH   2   3
ATOM      3  C   UNL     1      -2.449   6.370  39.456  1.00  0.00     0.041 C 
ATOM      4  O   UNL     1      -3.490   5.679  39.301  1.00  0.00    -0.550 OA
ATOM      5  O   UNL     1      -1.206   5.813  39.182  1.00  0.00    -0.550 OA
ENDBRANCH   2   3
ENDBRANCH   1   2
BRANCH   1   6
ATOM      6  C   UNL     1      -1.787   9.642  38.319  1.00  0.00     0.000 C 
BRANCH   6   7
ATOM      7  C   UNL     1      -1.321   9.227  36.915  1.00  0.00    -0.003 C 
ATOM      8  C   UNL     1      -0.086   8.326  36.943  1.00  0.00     0.004 C 
ENDBRANCH   6   7
ENDBRANCH   1   6
TORSDOF 4
ENDMDL
MODEL 5
REMARK VINA RESULT:    -2.800      9.046     11.085
REMARK INTER + INTRA:          -3.598
REMARK INTER:                  -3.389
REMARK INTRA:                  -0.209
REMARK UNBOUND:                -0.143
REMARK SMILES CCCCCC(=O)[O-]
REMARK SMILES IDX 4 1 5 2 6 3 7 4 8 5 3 6 2 7 1 8
REMARK H PARENT
REMARK Flexibility Score: inf
ROOT
ATOM      1  C   UNL     1       4.154   9.264  28.905  1.00  0.00     0.006 C 
ENDROOT
BRANCH   1   2
ATOM      2  C   UNL     1       2.806   9.395  29.628  1.00  0.00     0.053 C 
BRANCH   2   3
ATOM      3  C   UNL     1       2.292   8.065  30.091  1.00  0.00     0.041 C 
ATOM      4  O   UNL     1       2.191   7.107  29.281  1.00  0.00    -0.550 OA
ATOM      5  O   UNL     1       1.952   7.878  31.425  1.00  0.00    -0.550 OA
ENDBRANCH   2   3
ENDBRANCH   1   2
BRANCH   1   6
ATOM      6  C   UNL     1       4.033   9.545  27.398  1.00  0.00     0.000 C 
BRANCH   6   7
ATOM      7  C   UNL     1       2.664  10.125  27.014  1.00  0.00    -0.003 C 
ATOM      8  C   UNL     1       1.864   9.200  26.097  1.00  0.00     0.004 C 
ENDBRANCH   6   7
ENDBRANCH   1   6
TORSDOF 4
ENDMDL
MODEL 6
REMARK VINA RESULT:    -2.800      2.813      4.222
REMARK INTER + INTRA:          -3.597
REMARK INTER:                  -3.434
REMARK INTRA:                  -0.163
REMARK UNBOUND:                -0.143
REMARK SMILES CCCCCC(=O)[O-]
REMARK SMILES IDX 4 1 5 2 6 3 7 4 8 5 3 6 2 7 1 8
REMARK H PARENT
REMARK Flexibility Score: inf
ROOT
ATOM      1  C   UNL     1      -1.602   9.228  38.507  1.00  0.00     0.006 C 
ENDROOT
BRANCH   1   2
ATOM      2  C   UNL     1      -1.316   7.757  38.838  1.00  0.00     0.053 C 
BRANCH   2   3
ATOM      3  C   UNL     1      -2.374   7.169  39.721  1.00  0.00     0.041 C 
ATOM      4  O   UNL     1      -2.912   6.071  39.421  1.00  0.00    -0.550 OA
ATOM      5  O   UNL     1      -2.745   7.822  40.890  1.00  0.00    -0.550 OA
ENDBRANCH   2   3
ENDBRANCH   1   2
BRANCH   1   6
ATOM      6  C   UNL     1      -0.373  10.124  38.739  1.00  0.00     0.000 C 
BRANCH   6   7
ATOM      7  C   UNL     1       0.722   9.423  39.557  1.00  0.00    -0.003 C 
ATOM      8  C   UNL     1       2.106   9.543  38.919  1.00  0.00     0.004 C 
ENDBRANCH   6   7
ENDBRANCH   1   6
TORSDOF 4
ENDMDL
MODEL 7
REMARK VINA RESULT:    -2.789      2.698      3.170
REMARK INTER + INTRA:          -3.584
REMARK INTER:                  -3.416
REMARK INTRA:                  -0.167
REMARK UNBOUND:                -0.143
REMARK SMILES CCCCCC(=O)[O-]
REMARK SMILES IDX 4 1 5 2 6 3 7 4 8 5 3 6 2 7 1 8
REMARK H PARENT
REMARK Flexibility Score: inf
ROOT
ATOM      1  C   UNL     1      -0.875   8.631  38.640  1.00  0.00     0.006 C 
ENDROOT
BRANCH   1   2
ATOM      2  C   UNL     1      -0.159   9.960  38.917  1.00  0.00     0.053 C 
BRANCH   2   3
ATOM      3  C   UNL     1       1.069   9.767  39.753  1.00  0.00     0.041 C 
ATOM      4  O   UNL     1       2.202  10.069  39.295  1.00  0.00    -0.550 OA
ATOM      5  O   UNL     1       0.957   9.280  41.049  1.00  0.00    -0.550 OA
ENDBRANCH   2   3
ENDBRANCH   1   2
BRANCH   1   6
ATOM      6  C   UNL     1      -2.274   8.582  39.278  1.00  0.00     0.000 C 
BRANCH   6   7
ATOM      7  C   UNL     1      -2.507   7.300  40.090  1.00  0.00    -0.003 C 
ATOM      8  C   UNL     1      -2.248   7.490  41.585  1.00  0.00     0.004 C 
ENDBRANCH   6   7
ENDBRANCH   1   6
TORSDOF 4
ENDMDL
MODEL 8
REMARK VINA RESULT:    -2.691      2.378      3.571
REMARK INTER + INTRA:          -3.463
REMARK INTER:                  -3.216
REMARK INTRA:                  -0.247
REMARK UNBOUND:                -0.143
REMARK SMILES CCCCCC(=O)[O-]
REMARK SMILES IDX 4 1 5 2 6 3 7 4 8 5 3 6 2 7 1 8
REMARK H PARENT
REMARK Flexibility Score: inf
ROOT
ATOM      1  C   UNL     1      -0.343   9.017  39.745  1.00  0.00     0.006 C 
ENDROOT
BRANCH   1   2
ATOM      2  C   UNL     1       0.918   8.205  39.417  1.00  0.00     0.053 C 
BRANCH   2   3
ATOM      3  C   UNL     1       1.701   8.821  38.299  1.00  0.00     0.041 C 
ATOM      4  O   UNL     1       1.917   8.171  37.242  1.00  0.00    -0.550 OA
ATOM      5  O   UNL     1       2.168  10.125  38.412  1.00  0.00    -0.550 OA
ENDBRANCH   2   3
ENDBRANCH   1   2
BRANCH   1   6
ATOM      6  C   UNL     1      -1.479   8.753  38.742  1.00  0.00     0.000 C 
BRANCH   6   7
ATOM      7  C   UNL     1      -1.805   9.985  37.883  1.00  0.00    -0.003 C 
ATOM      8  C   UNL     1      -1.498   9.773  36.401  1.00  0.00     0.004 C 
ENDBRANCH   6   7
ENDBRANCH   1   6
TORSDOF 4
ENDMDL
