MODEL 1
REMARK VINA RESULT:    -5.616      0.000      0.000
REMARK INTER + INTRA:          -6.918
REMARK INTER:                  -6.601
REMARK INTRA:                  -0.317
REMARK UNBOUND:                -0.317
REMARK SMILES O=c1cc(-c2ccc(O)c(O)c2)oc2cc(O)cc(O)c12
REMARK SMILES IDX 4 1 3 2 2 3 1 4 21 5 19 6 18 7 16 8 15 9 14 10 13 11 5 12
REMARK SMILES IDX 6 13 7 14 8 15 12 16 10 17 9 18 11 20 20 22 17 24
REMARK H PARENT 9 19 11 21 20 23 17 25
REMARK Flexibility Score: inf
ROOT
ATOM      1  C   UNL     1      28.331  35.232  20.183  1.00  0.00     0.138 A 
ATOM      2  C   UNL     1      27.433  34.157  20.128  1.00  0.00     0.100 A 
ATOM      3  C   UNL     1      26.270  34.190  20.898  1.00  0.00     0.197 A 
ATOM      4  O   UNL     1      25.514  33.183  20.876  1.00  0.00    -0.289 OA
ATOM      5  C   UNL     1      25.989  35.320  21.702  1.00  0.00     0.107 A 
ATOM      6  C   UNL     1      24.815  35.482  22.495  1.00  0.00     0.134 A 
ATOM      7  C   UNL     1      24.701  36.592  23.341  1.00  0.00     0.093 A 
ATOM      8  C   UNL     1      25.689  37.575  23.377  1.00  0.00     0.123 A 
ATOM      9  C   UNL     1      26.817  37.455  22.565  1.00  0.00     0.094 A 
ATOM     10  C   UNL     1      26.976  36.341  21.736  1.00  0.00     0.146 A 
ATOM     11  O   UNL     1      28.071  36.257  20.988  1.00  0.00    -0.456 OA
ENDROOT
BRANCH   1  12
ATOM     12  C   UNL     1      29.584  35.250  19.385  1.00  0.00     0.021 A 
ATOM     13  C   UNL     1      29.954  34.108  18.654  1.00  0.00     0.016 A 
ATOM     14  C   UNL     1      31.132  34.097  17.903  1.00  0.00     0.051 A 
ATOM     15  C   UNL     1      31.964  35.222  17.877  1.00  0.00     0.157 A 
ATOM     16  C   UNL     1      30.432  36.374  19.365  1.00  0.00     0.062 A 
ATOM     17  C   UNL     1      31.616  36.362  18.612  1.00  0.00     0.158 A 
BRANCH  15  18
ATOM     18  O   UNL     1      33.139  35.215  17.127  1.00  0.00    -0.504 OA
ATOM     19  H   UNL     1      33.138  35.435  16.138  1.00  0.00     0.293 HD
ENDBRANCH  15  18
BRANCH  17  20
ATOM     20  O   UNL     1      32.452  37.476  18.593  1.00  0.00    -0.504 OA
ATOM     21  H   UNL     1      32.658  37.999  19.436  1.00  0.00     0.293 HD
ENDBRANCH  17  20
ENDBRANCH   1  12
BRANCH   6  22
ATOM     22  O   UNL     1      23.729  34.601  22.472  1.00  0.00    -0.507 OA
ATOM     23  H   UNL     1      22.914  34.707  21.888  1.00  0.00     0.293 HD
ENDBRANCH   6  22
BRANCH   8  24
ATOM     24  O   UNL     1      25.535  38.675  24.219  1.00  0.00    -0.508 OA
ATOM     25  H   UNL     1      25.744  39.615  23.907  1.00  0.00     0.293 HD
ENDBRANCH   8  24
TORSDOF 5
ENDMDL
MODEL 2
REMARK VINA RESULT:    -5.595      1.940      6.911
REMARK INTER + INTRA:          -6.893
REMARK INTER:                  -6.630
REMARK INTRA:                  -0.264
REMARK UNBOUND:                -0.317
REMARK SMILES O=c1cc(-c2ccc(O)c(O)c2)oc2cc(O)cc(O)c12
REMARK SMILES IDX 4 1 3 2 2 3 1 4 21 5 19 6 18 7 16 8 15 9 14 10 13 11 5 12
REMARK SMILES IDX 6 13 7 14 8 15 12 16 10 17 9 18 11 20 20 22 17 24
REMARK H PARENT 9 19 11 21 20 23 17 25
REMARK Flexibility Score: inf
ROOT
ATOM      1  C   UNL     1      28.463  34.604  20.044  1.00  0.00     0.138 A 
ATOM      2  C   UNL     1      28.879  33.607  19.150  1.00  0.00     0.100 A 
ATOM      3  C   UNL     1      30.061  33.780  18.428  1.00  0.00     0.197 A 
ATOM      4  O   UNL     1      30.377  32.898  17.588  1.00  0.00    -0.289 OA
ATOM      5  C   UNL     1      30.845  34.941  18.627  1.00  0.00     0.107 A 
ATOM      6  C   UNL     1      32.087  35.204  17.977  1.00  0.00     0.134 A 
ATOM      7  C   UNL     1      32.715  36.442  18.164  1.00  0.00     0.093 A 
ATOM      8  C   UNL     1      32.180  37.400  19.023  1.00  0.00     0.123 A 
ATOM      9  C   UNL     1      30.992  37.132  19.706  1.00  0.00     0.094 A 
ATOM     10  C   UNL     1      30.323  35.921  19.513  1.00  0.00     0.146 A 
ATOM     11  O   UNL     1      29.188  35.710  20.171  1.00  0.00    -0.456 OA
ENDROOT
BRANCH   1  12
ATOM     12  C   UNL     1      27.214  34.473  20.838  1.00  0.00     0.021 A 
ATOM     13  C   UNL     1      26.097  35.258  20.505  1.00  0.00     0.016 A 
ATOM     14  C   UNL     1      24.914  35.158  21.242  1.00  0.00     0.051 A 
ATOM     15  C   UNL     1      24.830  34.280  22.329  1.00  0.00     0.157 A 
ATOM     16  C   UNL     1      27.127  33.601  21.941  1.00  0.00     0.062 A 
ATOM     17  C   UNL     1      25.940  33.503  22.682  1.00  0.00     0.158 A 
BRANCH  15  18
ATOM     18  O   UNL     1      23.652  34.178  23.065  1.00  0.00    -0.504 OA
ATOM     19  H   UNL     1      22.771  34.532  22.709  1.00  0.00     0.293 HD
ENDBRANCH  15  18
BRANCH  17  20
ATOM     20  O   UNL     1      25.856  32.638  23.771  1.00  0.00    -0.504 OA
ATOM     21  H   UNL     1      26.015  31.642  23.671  1.00  0.00     0.293 HD
ENDBRANCH  17  20
ENDBRANCH   1  12
BRANCH   6  22
ATOM     22  O   UNL     1      32.754  34.282  17.164  1.00  0.00    -0.507 OA
ATOM     23  H   UNL     1      33.094  34.474  16.235  1.00  0.00     0.293 HD
ENDBRANCH   6  22
BRANCH   8  24
ATOM     24  O   UNL     1      32.840  38.613  19.198  1.00  0.00    -0.508 OA
ATOM     25  H   UNL     1      32.333  39.477  19.350  1.00  0.00     0.293 HD
ENDBRANCH   8  24
TORSDOF 5
ENDMDL
MODEL 3
REMARK VINA RESULT:    -5.594      2.003      7.498
REMARK INTER + INTRA:          -6.892
REMARK INTER:                  -6.624
REMARK INTRA:                  -0.268
REMARK UNBOUND:                -0.317
REMARK SMILES O=c1cc(-c2ccc(O)c(O)c2)oc2cc(O)cc(O)c12
REMARK SMILES IDX 4 1 3 2 2 3 1 4 21 5 19 6 18 7 16 8 15 9 14 10 13 11 5 12
REMARK SMILES IDX 6 13 7 14 8 15 12 16 10 17 9 18 11 20 20 22 17 24
REMARK H PARENT 9 19 11 21 20 23 17 25
REMARK Flexibility Score: inf
ROOT
ATOM      1  C   UNL     1      28.425  34.953  20.110  1.00  0.00     0.138 A 
ATOM      2  C   UNL     1      29.192  36.117  20.256  1.00  0.00     0.100 A 
ATOM      3  C   UNL     1      30.363  36.269  19.511  1.00  0.00     0.197 A 
ATOM      4  O   UNL     1      31.064  37.295  19.709  1.00  0.00    -0.289 OA
ATOM      5  C   UNL     1      30.749  35.263  18.593  1.00  0.00     0.107 A 
ATOM      6  C   UNL     1      31.899  35.329  17.752  1.00  0.00     0.134 A 
ATOM      7  C   UNL     1      32.244  34.222  16.968  1.00  0.00     0.093 A 
ATOM      8  C   UNL     1      31.451  33.076  16.948  1.00  0.00     0.123 A 
ATOM      9  C   UNL     1      30.293  33.021  17.726  1.00  0.00     0.094 A 
ATOM     10  C   UNL     1      29.940  34.096  18.546  1.00  0.00     0.146 A 
ATOM     11  O   UNL     1      28.839  34.000  19.282  1.00  0.00    -0.456 OA
ENDROOT
BRANCH   1  12
ATOM     12  C   UNL     1      27.171  34.739  20.877  1.00  0.00     0.021 A 
ATOM     13  C   UNL     1      26.031  35.499  20.564  1.00  0.00     0.016 A 
ATOM     14  C   UNL     1      24.842  35.322  21.276  1.00  0.00     0.051 A 
ATOM     15  C   UNL     1      24.775  34.390  22.318  1.00  0.00     0.157 A 
ATOM     16  C   UNL     1      27.100  33.812  21.935  1.00  0.00     0.062 A 
ATOM     17  C   UNL     1      25.907  33.636  22.651  1.00  0.00     0.158 A 
BRANCH  15  18
ATOM     18  O   UNL     1      23.590  34.210  23.030  1.00  0.00    -0.504 OA
ATOM     19  H   UNL     1      22.928  34.967  23.158  1.00  0.00     0.293 HD
ENDBRANCH  15  18
BRANCH  17  20
ATOM     20  O   UNL     1      25.840  32.718  23.697  1.00  0.00    -0.504 OA
ATOM     21  H   UNL     1      25.612  33.005  24.642  1.00  0.00     0.293 HD
ENDBRANCH  17  20
ENDBRANCH   1  12
BRANCH   6  22
ATOM     22  O   UNL     1      32.715  36.458  17.632  1.00  0.00    -0.507 OA
ATOM     23  H   UNL     1      33.519  36.526  17.028  1.00  0.00     0.293 HD
ENDBRANCH   6  22
BRANCH   8  24
ATOM     24  O   UNL     1      31.816  32.000  16.143  1.00  0.00    -0.508 OA
ATOM     25  H   UNL     1      32.371  32.127  15.305  1.00  0.00     0.293 HD
ENDBRANCH   8  24
TORSDOF 5
ENDMDL
MODEL 4
REMARK VINA RESULT:    -5.528      1.466      7.385
REMARK INTER + INTRA:          -6.814
REMARK INTER:                  -6.518
REMARK INTRA:                  -0.296
REMARK UNBOUND:                -0.317
REMARK SMILES O=c1cc(-c2ccc(O)c(O)c2)oc2cc(O)cc(O)c12
REMARK SMILES IDX 4 1 3 2 2 3 1 4 21 5 19 6 18 7 16 8 15 9 14 10 13 11 5 12
REMARK SMILES IDX 6 13 7 14 8 15 12 16 10 17 9 18 11 20 20 22 17 24
REMARK H PARENT 9 19 11 21 20 23 17 25
REMARK Flexibility Score: inf
ROOT
ATOM      1  C   UNL     1      28.382  35.154  20.074  1.00  0.00     0.138 A 
ATOM      2  C   UNL     1      29.200  36.284  20.209  1.00  0.00     0.100 A 
ATOM      3  C   UNL     1      30.399  36.356  19.499  1.00  0.00     0.197 A 
ATOM      4  O   UNL     1      31.142  37.354  19.688  1.00  0.00    -0.289 OA
ATOM      5  C   UNL     1      30.764  35.304  18.626  1.00  0.00     0.107 A 
ATOM      6  C   UNL     1      31.942  35.288  17.821  1.00  0.00     0.134 A 
ATOM      7  C   UNL     1      32.258  34.141  17.083  1.00  0.00     0.093 A 
ATOM      8  C   UNL     1      31.410  33.034  17.072  1.00  0.00     0.123 A 
ATOM      9  C   UNL     1      30.227  33.059  17.814  1.00  0.00     0.094 A 
ATOM     10  C   UNL     1      29.902  34.176  18.587  1.00  0.00     0.146 A 
ATOM     11  O   UNL     1      28.775  34.155  19.290  1.00  0.00    -0.456 OA
ENDROOT
BRANCH   1  12
ATOM     12  C   UNL     1      27.096  35.024  20.806  1.00  0.00     0.021 A 
ATOM     13  C   UNL     1      26.364  33.828  20.712  1.00  0.00     0.016 A 
ATOM     14  C   UNL     1      25.148  33.685  21.385  1.00  0.00     0.051 A 
ATOM     15  C   UNL     1      24.638  34.738  22.155  1.00  0.00     0.157 A 
ATOM     16  C   UNL     1      26.571  36.084  21.571  1.00  0.00     0.062 A 
ATOM     17  C   UNL     1      25.349  35.941  22.245  1.00  0.00     0.158 A 
BRANCH  15  18
ATOM     18  O   UNL     1      23.426  34.599  22.828  1.00  0.00    -0.504 OA
ATOM     19  H   UNL     1      23.064  35.332  23.426  1.00  0.00     0.293 HD
ENDBRANCH  15  18
BRANCH  17  20
ATOM     20  O   UNL     1      24.832  36.990  23.003  1.00  0.00    -0.504 OA
ATOM     21  H   UNL     1      24.406  36.831  23.908  1.00  0.00     0.293 HD
ENDBRANCH  17  20
ENDBRANCH   1  12
BRANCH   6  22
ATOM     22  O   UNL     1      32.815  36.373  17.692  1.00  0.00    -0.507 OA
ATOM     23  H   UNL     1      33.670  36.489  18.212  1.00  0.00     0.293 HD
ENDBRANCH   6  22
BRANCH   8  24
ATOM     24  O   UNL     1      31.748  31.916  16.313  1.00  0.00    -0.508 OA
ATOM     25  H   UNL     1      31.044  31.370  15.830  1.00  0.00     0.293 HD
ENDBRANCH   8  24
TORSDOF 5
ENDMDL
MODEL 5
REMARK VINA RESULT:    -5.318      2.019      2.715
REMARK INTER + INTRA:          -6.567
REMARK INTER:                  -6.301
REMARK INTRA:                  -0.266
REMARK UNBOUND:                -0.317
REMARK SMILES O=c1cc(-c2ccc(O)c(O)c2)oc2cc(O)cc(O)c12
REMARK SMILES IDX 4 1 3 2 2 3 1 4 21 5 19 6 18 7 16 8 15 9 14 10 13 11 5 12
REMARK SMILES IDX 6 13 7 14 8 15 12 16 10 17 9 18 11 20 20 22 17 24
REMARK H PARENT 9 19 11 21 20 23 17 25
REMARK Flexibility Score: inf
ROOT
ATOM      1  C   UNL     1      28.772  35.186  20.385  1.00  0.00     0.138 A 
ATOM      2  C   UNL     1      27.483  35.646  20.079  1.00  0.00     0.100 A 
ATOM      3  C   UNL     1      26.400  35.226  20.852  1.00  0.00     0.197 A 
ATOM      4  O   UNL     1      25.248  35.606  20.515  1.00  0.00    -0.289 OA
ATOM      5  C   UNL     1      26.613  34.368  21.956  1.00  0.00     0.107 A 
ATOM      6  C   UNL     1      25.590  33.909  22.839  1.00  0.00     0.134 A 
ATOM      7  C   UNL     1      25.903  32.968  23.828  1.00  0.00     0.093 A 
ATOM      8  C   UNL     1      27.210  32.516  24.006  1.00  0.00     0.123 A 
ATOM      9  C   UNL     1      28.229  32.999  23.183  1.00  0.00     0.094 A 
ATOM     10  C   UNL     1      27.942  33.912  22.165  1.00  0.00     0.146 A 
ATOM     11  O   UNL     1      28.938  34.337  21.394  1.00  0.00    -0.456 OA
ENDROOT
BRANCH   1  12
ATOM     12  C   UNL     1      29.960  35.600  19.597  1.00  0.00     0.021 A 
ATOM     13  C   UNL     1      30.446  34.756  18.583  1.00  0.00     0.016 A 
ATOM     14  C   UNL     1      31.567  35.119  17.832  1.00  0.00     0.051 A 
ATOM     15  C   UNL     1      32.227  36.327  18.088  1.00  0.00     0.157 A 
ATOM     16  C   UNL     1      30.637  36.807  19.857  1.00  0.00     0.062 A 
ATOM     17  C   UNL     1      31.764  37.171  19.105  1.00  0.00     0.158 A 
BRANCH  15  18
ATOM     18  O   UNL     1      33.345  36.693  17.341  1.00  0.00    -0.504 OA
ATOM     19  H   UNL     1      33.464  36.390  16.381  1.00  0.00     0.293 HD
ENDBRANCH  15  18
BRANCH  17  20
ATOM     20  O   UNL     1      32.431  38.367  19.364  1.00  0.00    -0.504 OA
ATOM     21  H   UNL     1      33.399  38.380  19.664  1.00  0.00     0.293 HD
ENDBRANCH  17  20
ENDBRANCH   1  12
BRANCH   6  22
ATOM     22  O   UNL     1      24.268  34.361  22.803  1.00  0.00    -0.507 OA
ATOM     23  H   UNL     1      23.528  34.024  23.398  1.00  0.00     0.293 HD
ENDBRANCH   6  22
BRANCH   8  24
ATOM     24  O   UNL     1      27.487  31.592  25.010  1.00  0.00    -0.508 OA
ATOM     25  H   UNL     1      27.096  31.685  25.940  1.00  0.00     0.293 HD
ENDBRANCH   8  24
TORSDOF 5
ENDMDL
MODEL 6
REMARK VINA RESULT:    -5.173      1.775      3.374
REMARK INTER + INTRA:          -6.398
REMARK INTER:                  -6.084
REMARK INTRA:                  -0.314
REMARK UNBOUND:                -0.317
REMARK SMILES O=c1cc(-c2ccc(O)c(O)c2)oc2cc(O)cc(O)c12
REMARK SMILES IDX 4 1 3 2 2 3 1 4 21 5 19 6 18 7 16 8 15 9 14 10 13 11 5 12
REMARK SMILES IDX 6 13 7 14 8 15 12 16 10 17 9 18 11 20 20 22 17 24
REMARK H PARENT 9 19 11 21 20 23 17 25
REMARK Flexibility Score: inf
ROOT
ATOM      1  C   UNL     1      28.981  34.846  19.770  1.00  0.00     0.138 A 
ATOM      2  C   UNL     1      29.396  35.945  20.535  1.00  0.00     0.100 A 
ATOM      3  C   UNL     1      28.523  36.505  21.468  1.00  0.00     0.197 A 
ATOM      4  O   UNL     1      28.901  37.529  22.095  1.00  0.00    -0.289 OA
ATOM      5  C   UNL     1      27.239  35.941  21.658  1.00  0.00     0.107 A 
ATOM      6  C   UNL     1      26.281  36.403  22.609  1.00  0.00     0.134 A 
ATOM      7  C   UNL     1      24.999  35.840  22.625  1.00  0.00     0.093 A 
ATOM      8  C   UNL     1      24.659  34.794  21.769  1.00  0.00     0.123 A 
ATOM      9  C   UNL     1      25.606  34.297  20.871  1.00  0.00     0.094 A 
ATOM     10  C   UNL     1      26.883  34.861  20.807  1.00  0.00     0.146 A 
ATOM     11  O   UNL     1      27.750  34.370  19.929  1.00  0.00    -0.456 OA
ENDROOT
BRANCH   1  12
ATOM     12  C   UNL     1      29.869  34.210  18.764  1.00  0.00     0.021 A 
ATOM     13  C   UNL     1      30.996  34.908  18.297  1.00  0.00     0.016 A 
ATOM     14  C   UNL     1      31.843  34.335  17.345  1.00  0.00     0.051 A 
ATOM     15  C   UNL     1      31.572  33.059  16.836  1.00  0.00     0.157 A 
ATOM     16  C   UNL     1      29.595  32.933  18.238  1.00  0.00     0.062 A 
ATOM     17  C   UNL     1      30.444  32.358  17.279  1.00  0.00     0.158 A 
BRANCH  15  18
ATOM     18  O   UNL     1      32.414  32.484  15.886  1.00  0.00    -0.504 OA
ATOM     19  H   UNL     1      32.841  31.577  16.036  1.00  0.00     0.293 HD
ENDBRANCH  15  18
BRANCH  17  20
ATOM     20  O   UNL     1      30.171  31.093  16.762  1.00  0.00    -0.504 OA
ATOM     21  H   UNL     1      29.229  30.813  16.517  1.00  0.00     0.293 HD
ENDBRANCH  17  20
ENDBRANCH   1  12
BRANCH   6  22
ATOM     22  O   UNL     1      26.543  37.386  23.567  1.00  0.00    -0.507 OA
ATOM     23  H   UNL     1      27.390  37.450  24.111  1.00  0.00     0.293 HD
ENDBRANCH   6  22
BRANCH   8  24
ATOM     24  O   UNL     1      23.379  34.247  21.825  1.00  0.00    -0.508 OA
ATOM     25  H   UNL     1      23.231  33.256  21.972  1.00  0.00     0.293 HD
ENDBRANCH   8  24
TORSDOF 5
ENDMDL
MODEL 7
REMARK VINA RESULT:    -5.104      2.273      7.312
REMARK INTER + INTRA:          -6.316
REMARK INTER:                  -6.051
REMARK INTRA:                  -0.265
REMARK UNBOUND:                -0.317
REMARK SMILES O=c1cc(-c2ccc(O)c(O)c2)oc2cc(O)cc(O)c12
REMARK SMILES IDX 4 1 3 2 2 3 1 4 21 5 19 6 18 7 16 8 15 9 14 10 13 11 5 12
REMARK SMILES IDX 6 13 7 14 8 15 12 16 10 17 9 18 11 20 20 22 17 24
REMARK H PARENT 9 19 11 21 20 23 17 25
REMARK Flexibility Score: inf
ROOT
ATOM      1  C   UNL     1      26.694  37.112  23.426  1.00  0.00     0.138 A 
ATOM      2  C   UNL     1      25.917  36.101  22.845  1.00  0.00     0.100 A 
ATOM      3  C   UNL     1      26.371  35.460  21.691  1.00  0.00     0.197 A 
ATOM      4  O   UNL     1      25.623  34.600  21.157  1.00  0.00    -0.289 OA
ATOM      5  C   UNL     1      27.623  35.814  21.135  1.00  0.00     0.107 A 
ATOM      6  C   UNL     1      28.204  35.201  19.986  1.00  0.00     0.134 A 
ATOM      7  C   UNL     1      29.395  35.714  19.458  1.00  0.00     0.093 A 
ATOM      8  C   UNL     1      30.057  36.776  20.072  1.00  0.00     0.123 A 
ATOM      9  C   UNL     1      29.526  37.349  21.229  1.00  0.00     0.094 A 
ATOM     10  C   UNL     1      28.321  36.882  21.759  1.00  0.00     0.146 A 
ATOM     11  O   UNL     1      27.841  37.463  22.853  1.00  0.00    -0.456 OA
ENDROOT
BRANCH   1  12
ATOM     12  C   UNL     1      26.261  37.827  24.654  1.00  0.00     0.021 A 
ATOM     13  C   UNL     1      27.043  37.738  25.819  1.00  0.00     0.016 A 
ATOM     14  C   UNL     1      26.653  38.395  26.989  1.00  0.00     0.051 A 
ATOM     15  C   UNL     1      25.469  39.142  27.017  1.00  0.00     0.157 A 
ATOM     16  C   UNL     1      25.065  38.569  24.694  1.00  0.00     0.062 A 
ATOM     17  C   UNL     1      24.672  39.227  25.870  1.00  0.00     0.158 A 
BRANCH  15  18
ATOM     18  O   UNL     1      25.077  39.799  28.182  1.00  0.00    -0.504 OA
ATOM     19  H   UNL     1      24.859  39.289  29.031  1.00  0.00     0.293 HD
ENDBRANCH  15  18
BRANCH  17  20
ATOM     20  O   UNL     1      23.488  39.962  25.906  1.00  0.00    -0.504 OA
ATOM     21  H   UNL     1      22.636  39.576  26.296  1.00  0.00     0.293 HD
ENDBRANCH  17  20
ENDBRANCH   1  12
BRANCH   6  22
ATOM     22  O   UNL     1      27.669  34.079  19.344  1.00  0.00    -0.507 OA
ATOM     23  H   UNL     1      28.179  33.477  18.718  1.00  0.00     0.293 HD
ENDBRANCH   6  22
BRANCH   8  24
ATOM     24  O   UNL     1      31.249  37.250  19.529  1.00  0.00    -0.508 OA
ATOM     25  H   UNL     1      31.840  36.663  18.952  1.00  0.00     0.293 HD
ENDBRANCH   8  24
TORSDOF 5
ENDMDL
MODEL 8
REMARK VINA RESULT:    -5.072      1.986      2.750
REMARK INTER + INTRA:          -6.279
REMARK INTER:                  -6.004
REMARK INTRA:                  -0.275
REMARK UNBOUND:                -0.317
REMARK SMILES O=c1cc(-c2ccc(O)c(O)c2)oc2cc(O)cc(O)c12
REMARK SMILES IDX 4 1 3 2 2 3 1 4 21 5 19 6 18 7 16 8 15 9 14 10 13 11 5 12
REMARK SMILES IDX 6 13 7 14 8 15 12 16 10 17 9 18 11 20 20 22 17 24
REMARK H PARENT 9 19 11 21 20 23 17 25
REMARK Flexibility Score: inf
ROOT
ATOM      1  C   UNL     1      29.990  34.519  19.280  1.00  0.00     0.138 A 
ATOM      2  C   UNL     1      30.265  33.475  20.174  1.00  0.00     0.100 A 
ATOM      3  C   UNL     1      29.288  33.074  21.088  1.00  0.00     0.197 A 
ATOM      4  O   UNL     1      29.586  32.177  21.919  1.00  0.00    -0.289 OA
ATOM      5  C   UNL     1      28.021  33.703  21.084  1.00  0.00     0.107 A 
ATOM      6  C   UNL     1      26.937  33.350  21.942  1.00  0.00     0.134 A 
ATOM      7  C   UNL     1      25.767  34.120  21.927  1.00  0.00     0.093 A 
ATOM      8  C   UNL     1      25.619  35.191  21.047  1.00  0.00     0.123 A 
ATOM      9  C   UNL     1      26.653  35.512  20.165  1.00  0.00     0.094 A 
ATOM     10  C   UNL     1      27.845  34.784  20.179  1.00  0.00     0.146 A 
ATOM     11  O   UNL     1      28.811  35.129  19.334  1.00  0.00    -0.456 OA
ENDROOT
BRANCH   1  12
ATOM     12  C   UNL     1      30.991  34.985  18.287  1.00  0.00     0.021 A 
ATOM     13  C   UNL     1      31.452  34.097  17.300  1.00  0.00     0.016 A 
ATOM     14  C   UNL     1      32.400  34.509  16.360  1.00  0.00     0.051 A 
ATOM     15  C   UNL     1      32.909  35.813  16.395  1.00  0.00     0.157 A 
ATOM     16  C   UNL     1      31.517  36.291  18.325  1.00  0.00     0.062 A 
ATOM     17  C   UNL     1      32.470  36.704  17.381  1.00  0.00     0.158 A 
BRANCH  15  18
ATOM     18  O   UNL     1      33.853  36.228  15.458  1.00  0.00    -0.504 OA
ATOM     19  H   UNL     1      34.666  36.770  15.729  1.00  0.00     0.293 HD
ENDBRANCH  15  18
BRANCH  17  20
ATOM     20  O   UNL     1      32.988  37.998  17.421  1.00  0.00    -0.504 OA
ATOM     21  H   UNL     1      33.017  38.583  16.593  1.00  0.00     0.293 HD
ENDBRANCH  17  20
ENDBRANCH   1  12
BRANCH   6  22
ATOM     22  O   UNL     1      26.947  32.247  22.801  1.00  0.00    -0.507 OA
ATOM     23  H   UNL     1      27.769  31.723  23.055  1.00  0.00     0.293 HD
ENDBRANCH   6  22
BRANCH   8  24
ATOM     24  O   UNL     1      24.435  35.925  21.049  1.00  0.00    -0.508 OA
ATOM     25  H   UNL     1      24.015  36.258  20.189  1.00  0.00     0.293 HD
ENDBRANCH   8  24
TORSDOF 5
ENDMDL
MODEL 9
REMARK VINA RESULT:    -5.004      1.825      7.116
REMARK INTER + INTRA:          -6.199
REMARK INTER:                  -5.882
REMARK INTRA:                  -0.317
REMARK UNBOUND:                -0.317
REMARK SMILES O=c1cc(-c2ccc(O)c(O)c2)oc2cc(O)cc(O)c12
REMARK SMILES IDX 4 1 3 2 2 3 1 4 21 5 19 6 18 7 16 8 15 9 14 10 13 11 5 12
REMARK SMILES IDX 6 13 7 14 8 15 12 16 10 17 9 18 11 20 20 22 17 24
REMARK H PARENT 9 19 11 21 20 23 17 25
REMARK Flexibility Score: inf
ROOT
ATOM      1  C   UNL     1      29.144  34.687  19.323  1.00  0.00     0.138 A 
ATOM      2  C   UNL     1      29.224  33.364  18.868  1.00  0.00     0.100 A 
ATOM      3  C   UNL     1      30.305  32.972  18.075  1.00  0.00     0.197 A 
ATOM      4  O   UNL     1      30.317  31.795  17.630  1.00  0.00    -0.289 OA
ATOM      5  C   UNL     1      31.324  33.903  17.765  1.00  0.00     0.107 A 
ATOM      6  C   UNL     1      32.491  33.605  17.000  1.00  0.00     0.134 A 
ATOM      7  C   UNL     1      33.374  34.637  16.659  1.00  0.00     0.093 A 
ATOM      8  C   UNL     1      33.165  35.942  17.103  1.00  0.00     0.123 A 
ATOM      9  C   UNL     1      32.055  36.235  17.897  1.00  0.00     0.094 A 
ATOM     10  C   UNL     1      31.137  35.233  18.226  1.00  0.00     0.146 A 
ATOM     11  O   UNL     1      30.086  35.555  18.972  1.00  0.00    -0.456 OA
ENDROOT
BRANCH   1  12
ATOM     12  C   UNL     1      28.017  35.158  20.169  1.00  0.00     0.021 A 
ATOM     13  C   UNL     1      26.928  34.303  20.410  1.00  0.00     0.016 A 
ATOM     14  C   UNL     1      25.853  34.725  21.196  1.00  0.00     0.051 A 
ATOM     15  C   UNL     1      25.844  36.013  21.746  1.00  0.00     0.157 A 
ATOM     16  C   UNL     1      27.995  36.456  20.715  1.00  0.00     0.062 A 
ATOM     17  C   UNL     1      26.914  36.881  21.502  1.00  0.00     0.158 A 
BRANCH  15  18
ATOM     18  O   UNL     1      24.773  36.437  22.531  1.00  0.00    -0.504 OA
ATOM     19  H   UNL     1      24.749  36.270  23.530  1.00  0.00     0.293 HD
ENDBRANCH  15  18
BRANCH  17  20
ATOM     20  O   UNL     1      26.895  38.166  22.042  1.00  0.00    -0.504 OA
ATOM     21  H   UNL     1      27.571  38.868  21.764  1.00  0.00     0.293 HD
ENDBRANCH  17  20
ENDBRANCH   1  12
BRANCH   6  22
ATOM     22  O   UNL     1      32.840  32.319  16.577  1.00  0.00    -0.507 OA
ATOM     23  H   UNL     1      33.749  31.900  16.696  1.00  0.00     0.293 HD
ENDBRANCH   6  22
BRANCH   8  24
ATOM     24  O   UNL     1      34.073  36.940  16.757  1.00  0.00    -0.508 OA
ATOM     25  H   UNL     1      34.155  37.793  17.297  1.00  0.00     0.293 HD
ENDBRANCH   8  24
TORSDOF 5
ENDMDL
