MODEL 1
REMARK VINA RESULT:    -4.901      0.000      0.000
REMARK INTER + INTRA:         -18.309
REMARK INTER:                 -12.922
REMARK INTRA:                  -5.386
REMARK UNBOUND:                -5.386
REMARK SMILES CCCCCCCCCCCCCCCCCCCCCCCCCCCCCC(=O)[O-]
REMARK SMILES IDX 16 1 17 2 18 3 19 4 20 5 21 6 22 7 23 8 24 9 25 10 26 11
REMARK SMILES IDX 27 12 28 13 29 14 30 15 31 16 32 17 15 18 14 19 13 20 12 21
REMARK SMILES IDX 11 22 10 23 9 24 8 25 7 26 6 27 5 28 4 29 3 30 2 31 1 32
REMARK H PARENT
REMARK Flexibility Score: inf
ROOT
ATOM      1  C   UNL     1      30.627  -7.113  12.203  1.00  0.00     0.000 C 
ENDROOT
BRANCH   1   2
ATOM      2  C   UNL     1      31.109  -7.466  10.787  1.00  0.00     0.000 C 
BRANCH   2   3
ATOM      3  C   UNL     1      31.937  -6.344  10.141  1.00  0.00     0.000 C 
BRANCH   3   4
ATOM      4  C   UNL     1      32.456  -5.320  11.167  1.00  0.00     0.000 C 
BRANCH   4   5
ATOM      5  C   UNL     1      33.993  -5.172  11.144  1.00  0.00     0.000 C 
BRANCH   5   6
ATOM      6  C   UNL     1      34.688  -6.018  10.059  1.00  0.00     0.000 C 
BRANCH   6   7
ATOM      7  C   UNL     1      35.774  -6.981  10.573  1.00  0.00     0.000 C 
BRANCH   7   8
ATOM      8  C   UNL     1      35.543  -7.519  11.999  1.00  0.00     0.000 C 
BRANCH   8   9
ATOM      9  C   UNL     1      34.450  -8.601  12.113  1.00  0.00     0.000 C 
BRANCH   9  10
ATOM     10  C   UNL     1      34.264  -9.479  10.857  1.00  0.00     0.000 C 
BRANCH  10  11
ATOM     11  C   UNL     1      34.092 -10.985  11.132  1.00  0.00     0.000 C 
BRANCH  11  12
ATOM     12  C   UNL     1      35.039 -11.500  12.231  1.00  0.00     0.000 C 
BRANCH  12  13
ATOM     13  C   UNL     1      34.748 -12.954  12.632  1.00  0.00     0.006 C 
BRANCH  13  14
ATOM     14  C   UNL     1      35.768 -13.949  12.061  1.00  0.00     0.053 C 
BRANCH  14  15
ATOM     15  C   UNL     1      35.091 -14.923  11.149  1.00  0.00     0.041 C 
ATOM     16  O   UNL     1      34.443 -14.511  10.149  1.00  0.00    -0.550 OA
ATOM     17  O   UNL     1      35.126 -16.281  11.435  1.00  0.00    -0.550 OA
ENDBRANCH  14  15
ENDBRANCH  13  14
ENDBRANCH  12  13
ENDBRANCH  11  12
ENDBRANCH  10  11
ENDBRANCH   9  10
ENDBRANCH   8   9
ENDBRANCH   7   8
ENDBRANCH   6   7
ENDBRANCH   5   6
ENDBRANCH   4   5
ENDBRANCH   3   4
ENDBRANCH   2   3
ENDBRANCH   1   2
BRANCH   1  18
ATOM     18  C   UNL     1      30.925  -8.252  13.190  1.00  0.00     0.000 C 
BRANCH  18  19
ATOM     19  C   UNL     1      30.772  -9.646  12.558  1.00  0.00     0.000 C 
BRANCH  19  20
ATOM     20  C   UNL     1      31.089 -10.786  13.539  1.00  0.00     0.000 C 
BRANCH  20  21
ATOM     21  C   UNL     1      32.309 -10.488  14.429  1.00  0.00     0.000 C 
BRANCH  21  22
ATOM     22  C   UNL     1      32.324 -11.273  15.758  1.00  0.00     0.000 C 
BRANCH  22  23
ATOM     23  C   UNL     1      31.178 -10.862  16.695  1.00  0.00     0.000 C 
BRANCH  23  24
ATOM     24  C   UNL     1      31.318  -9.394  17.125  1.00  0.00    -0.000 C 
BRANCH  24  25
ATOM     25  C   UNL     1      30.086  -8.542  16.767  1.00  0.00    -0.000 C 
BRANCH  25  26
ATOM     26  C   UNL     1      28.763  -9.323  16.673  1.00  0.00    -0.000 C 
BRANCH  26  27
ATOM     27  C   UNL     1      28.180  -9.342  15.249  1.00  0.00    -0.000 C 
BRANCH  27  28
ATOM     28  C   UNL     1      27.195 -10.501  15.034  1.00  0.00    -0.000 C 
BRANCH  28  29
ATOM     29  C   UNL     1      27.582 -11.394  13.843  1.00  0.00    -0.000 C 
BRANCH  29  30
ATOM     30  C   UNL     1      27.190 -12.865  14.055  1.00  0.00    -0.000 C 
BRANCH  30  31
ATOM     31  C   UNL     1      27.267 -13.288  15.530  1.00  0.00    -0.003 C 
ATOM     32  C   UNL     1      28.707 -13.563  15.950  1.00  0.00     0.004 C 
ENDBRANCH  30  31
ENDBRANCH  29  30
ENDBRANCH  28  29
ENDBRANCH  27  28
ENDBRANCH  26  27
ENDBRANCH  25  26
ENDBRANCH  24  25
ENDBRANCH  23  24
ENDBRANCH  22  23
ENDBRANCH  21  22
ENDBRANCH  20  21
ENDBRANCH  19  20
ENDBRANCH  18  19
ENDBRANCH   1  18
TORSDOF 28
ENDMDL
MODEL 2
REMARK VINA RESULT:    -4.738      1.133      3.607
REMARK INTER + INTRA:         -17.879
REMARK INTER:                 -13.012
REMARK INTRA:                  -4.867
REMARK UNBOUND:                -5.386
REMARK SMILES CCCCCCCCCCCCCCCCCCCCCCCCCCCCCC(=O)[O-]
REMARK SMILES IDX 16 1 17 2 18 3 19 4 20 5 21 6 22 7 23 8 24 9 25 10 26 11
REMARK SMILES IDX 27 12 28 13 29 14 30 15 31 16 32 17 15 18 14 19 13 20 12 21
REMARK SMILES IDX 11 22 10 23 9 24 8 25 7 26 6 27 5 28 4 29 3 30 2 31 1 32
REMARK H PARENT
REMARK Flexibility Score: inf
ROOT
ATOM      1  C   UNL     1      30.563  -8.629  13.587  1.00  0.00     0.000 C 
ENDROOT
BRANCH   1   2
ATOM      2  C   UNL     1      30.578  -7.443  12.611  1.00  0.00     0.000 C 
BRANCH   2   3
ATOM      3  C   UNL     1      31.121  -7.819  11.223  1.00  0.00     0.000 C 
BRANCH   3   4
ATOM      4  C   UNL     1      31.610  -6.599  10.423  1.00  0.00     0.000 C 
BRANCH   4   5
ATOM      5  C   UNL     1      32.128  -5.457  11.324  1.00  0.00     0.000 C 
BRANCH   5   6
ATOM      6  C   UNL     1      33.633  -5.164  11.161  1.00  0.00     0.000 C 
BRANCH   6   7
ATOM      7  C   UNL     1      34.399  -6.148  10.259  1.00  0.00     0.000 C 
BRANCH   7   8
ATOM      8  C   UNL     1      35.365  -7.093  11.000  1.00  0.00     0.000 C 
BRANCH   8   9
ATOM      9  C   UNL     1      34.935  -7.463  12.434  1.00  0.00     0.000 C 
BRANCH   9  10
ATOM     10  C   UNL     1      34.373  -8.890  12.603  1.00  0.00     0.000 C 
BRANCH  10  11
ATOM     11  C   UNL     1      34.309  -9.725  11.310  1.00  0.00     0.000 C 
BRANCH  11  12
ATOM     12  C   UNL     1      34.469 -11.233  11.567  1.00  0.00     0.000 C 
BRANCH  12  13
ATOM     13  C   UNL     1      34.064 -11.638  12.992  1.00  0.00     0.006 C 
BRANCH  13  14
ATOM     14  C   UNL     1      35.072 -12.588  13.656  1.00  0.00     0.053 C 
BRANCH  14  15
ATOM     15  C   UNL     1      34.771 -14.007  13.289  1.00  0.00     0.041 C 
ATOM     16  O   UNL     1      34.896 -14.394  12.096  1.00  0.00    -0.550 OA
ATOM     17  O   UNL     1      34.296 -14.887  14.252  1.00  0.00    -0.550 OA
ENDBRANCH  14  15
ENDBRANCH  13  14
ENDBRANCH  12  13
ENDBRANCH  11  12
ENDBRANCH  10  11
ENDBRANCH   9  10
ENDBRANCH   8   9
ENDBRANCH   7   8
ENDBRANCH   6   7
ENDBRANCH   5   6
ENDBRANCH   4   5
ENDBRANCH   3   4
ENDBRANCH   2   3
ENDBRANCH   1   2
BRANCH   1  18
ATOM     18  C   UNL     1      30.884  -9.947  12.864  1.00  0.00     0.000 C 
BRANCH  18  19
ATOM     19  C   UNL     1      29.700 -10.930  12.862  1.00  0.00     0.000 C 
BRANCH  19  20
ATOM     20  C   UNL     1      28.632 -10.583  13.912  1.00  0.00     0.000 C 
BRANCH  20  21
ATOM     21  C   UNL     1      27.283 -11.274  13.643  1.00  0.00     0.000 C 
BRANCH  21  22
ATOM     22  C   UNL     1      26.980 -12.450  14.597  1.00  0.00     0.000 C 
BRANCH  22  23
ATOM     23  C   UNL     1      27.707 -13.740  14.186  1.00  0.00     0.000 C 
BRANCH  23  24
ATOM     24  C   UNL     1      28.511 -14.318  15.361  1.00  0.00    -0.000 C 
BRANCH  24  25
ATOM     25  C   UNL     1      28.812 -13.276  16.453  1.00  0.00    -0.000 C 
BRANCH  25  26
ATOM     26  C   UNL     1      30.295 -13.156  16.845  1.00  0.00    -0.000 C 
BRANCH  26  27
ATOM     27  C   UNL     1      31.045 -12.088  16.029  1.00  0.00    -0.000 C 
BRANCH  27  28
ATOM     28  C   UNL     1      32.025 -11.275  16.889  1.00  0.00    -0.000 C 
BRANCH  28  29
ATOM     29  C   UNL     1      31.862  -9.757  16.697  1.00  0.00    -0.000 C 
BRANCH  29  30
ATOM     30  C   UNL     1      31.566  -9.024  18.015  1.00  0.00    -0.000 C 
BRANCH  30  31
ATOM     31  C   UNL     1      30.177  -8.368  18.026  1.00  0.00    -0.003 C 
ATOM     32  C   UNL     1      29.244  -9.040  17.024  1.00  0.00     0.004 C 
ENDBRANCH  30  31
ENDBRANCH  29  30
ENDBRANCH  28  29
ENDBRANCH  27  28
ENDBRANCH  26  27
ENDBRANCH  25  26
ENDBRANCH  24  25
ENDBRANCH  23  24
ENDBRANCH  22  23
ENDBRANCH  21  22
ENDBRANCH  20  21
ENDBRANCH  19  20
ENDBRANCH  18  19
ENDBRANCH   1  18
TORSDOF 28
ENDMDL
MODEL 3
REMARK VINA RESULT:    -4.702      1.612      2.897
REMARK INTER + INTRA:         -17.786
REMARK INTER:                 -12.081
REMARK INTRA:                  -5.705
REMARK UNBOUND:                -5.386
REMARK SMILES CCCCCCCCCCCCCCCCCCCCCCCCCCCCCC(=O)[O-]
REMARK SMILES IDX 16 1 17 2 18 3 19 4 20 5 21 6 22 7 23 8 24 9 25 10 26 11
REMARK SMILES IDX 27 12 28 13 29 14 30 15 31 16 32 17 15 18 14 19 13 20 12 21
REMARK SMILES IDX 11 22 10 23 9 24 8 25 7 26 6 27 5 28 4 29 3 30 2 31 1 32
REMARK H PARENT
REMARK Flexibility Score: inf
ROOT
ATOM      1  C   UNL     1      30.922  -9.016  13.051  1.00  0.00     0.000 C 
ENDROOT
BRANCH   1   2
ATOM      2  C   UNL     1      31.114  -8.257  11.729  1.00  0.00     0.000 C 
BRANCH   2   3
ATOM      3  C   UNL     1      30.838  -6.750  11.861  1.00  0.00     0.000 C 
BRANCH   3   4
ATOM      4  C   UNL     1      31.319  -5.947  10.639  1.00  0.00     0.000 C 
BRANCH   4   5
ATOM      5  C   UNL     1      31.670  -6.842   9.431  1.00  0.00     0.000 C 
BRANCH   5   6
ATOM      6  C   UNL     1      33.085  -6.606   8.866  1.00  0.00     0.000 C 
BRANCH   6   7
ATOM      7  C   UNL     1      34.206  -7.413   9.546  1.00  0.00     0.000 C 
BRANCH   7   8
ATOM      8  C   UNL     1      34.984  -6.652  10.638  1.00  0.00     0.000 C 
BRANCH   8   9
ATOM      9  C   UNL     1      34.636  -7.060  12.084  1.00  0.00     0.000 C 
BRANCH   9  10
ATOM     10  C   UNL     1      35.342  -8.335  12.593  1.00  0.00     0.000 C 
BRANCH  10  11
ATOM     11  C   UNL     1      34.423  -9.362  13.280  1.00  0.00     0.000 C 
BRANCH  11  12
ATOM     12  C   UNL     1      34.100 -10.567  12.379  1.00  0.00     0.000 C 
BRANCH  12  13
ATOM     13  C   UNL     1      34.263 -11.911  13.104  1.00  0.00     0.006 C 
BRANCH  13  14
ATOM     14  C   UNL     1      35.272 -11.851  14.259  1.00  0.00     0.053 C 
BRANCH  14  15
ATOM     15  C   UNL     1      36.417 -12.779  14.000  1.00  0.00     0.041 C 
ATOM     16  O   UNL     1      36.529 -13.352  12.883  1.00  0.00    -0.550 OA
ATOM     17  O   UNL     1      37.327 -13.057  15.011  1.00  0.00    -0.550 OA
ENDBRANCH  14  15
ENDBRANCH  13  14
ENDBRANCH  12  13
ENDBRANCH  11  12
ENDBRANCH  10  11
ENDBRANCH   9  10
ENDBRANCH   8   9
ENDBRANCH   7   8
ENDBRANCH   6   7
ENDBRANCH   5   6
ENDBRANCH   4   5
ENDBRANCH   3   4
ENDBRANCH   2   3
ENDBRANCH   1   2
BRANCH   1  18
ATOM     18  C   UNL     1      30.264 -10.385  12.813  1.00  0.00     0.000 C 
BRANCH  18  19
ATOM     19  C   UNL     1      29.083 -10.653  13.763  1.00  0.00     0.000 C 
BRANCH  19  20
ATOM     20  C   UNL     1      28.630  -9.396  14.524  1.00  0.00     0.000 C 
BRANCH  20  21
ATOM     21  C   UNL     1      28.033  -9.716  15.906  1.00  0.00     0.000 C 
BRANCH  21  22
ATOM     22  C   UNL     1      28.873  -9.190  17.090  1.00  0.00     0.000 C 
BRANCH  22  23
ATOM     23  C   UNL     1      30.257  -8.689  16.649  1.00  0.00     0.000 C 
BRANCH  23  24
ATOM     24  C   UNL     1      31.307  -8.939  17.743  1.00  0.00    -0.000 C 
BRANCH  24  25
ATOM     25  C   UNL     1      32.266 -10.094  17.402  1.00  0.00    -0.000 C 
BRANCH  25  26
ATOM     26  C   UNL     1      32.125 -10.656  15.976  1.00  0.00    -0.000 C 
BRANCH  26  27
ATOM     27  C   UNL     1      31.806 -12.161  15.955  1.00  0.00    -0.000 C 
BRANCH  27  28
ATOM     28  C   UNL     1      30.578 -12.512  16.810  1.00  0.00    -0.000 C 
BRANCH  28  29
ATOM     29  C   UNL     1      29.587 -13.429  16.073  1.00  0.00    -0.000 C 
BRANCH  29  30
ATOM     30  C   UNL     1      28.130 -13.191  16.503  1.00  0.00    -0.000 C 
BRANCH  30  31
ATOM     31  C   UNL     1      27.127 -13.504  15.383  1.00  0.00    -0.003 C 
ATOM     32  C   UNL     1      27.786 -14.300  14.260  1.00  0.00     0.004 C 
ENDBRANCH  30  31
ENDBRANCH  29  30
ENDBRANCH  28  29
ENDBRANCH  27  28
ENDBRANCH  26  27
ENDBRANCH  25  26
ENDBRANCH  24  25
ENDBRANCH  23  24
ENDBRANCH  22  23
ENDBRANCH  21  22
ENDBRANCH  20  21
ENDBRANCH  19  20
ENDBRANCH  18  19
ENDBRANCH   1  18
TORSDOF 28
ENDMDL
MODEL 4
REMARK VINA RESULT:    -4.651      1.507      2.571
REMARK INTER + INTRA:         -17.650
REMARK INTER:                 -12.461
REMARK INTRA:                  -5.189
REMARK UNBOUND:                -5.386
REMARK SMILES CCCCCCCCCCCCCCCCCCCCCCCCCCCCCC(=O)[O-]
REMARK SMILES IDX 16 1 17 2 18 3 19 4 20 5 21 6 22 7 23 8 24 9 25 10 26 11
REMARK SMILES IDX 27 12 28 13 29 14 30 15 31 16 32 17 15 18 14 19 13 20 12 21
REMARK SMILES IDX 11 22 10 23 9 24 8 25 7 26 6 27 5 28 4 29 3 30 2 31 1 32
REMARK H PARENT
REMARK Flexibility Score: inf
ROOT
ATOM      1  C   UNL     1      31.059  -8.370  11.618  1.00  0.00     0.000 C 
ENDROOT
BRANCH   1   2
ATOM      2  C   UNL     1      30.814  -6.881  11.911  1.00  0.00     0.000 C 
BRANCH   2   3
ATOM      3  C   UNL     1      31.538  -5.952  10.924  1.00  0.00     0.000 C 
BRANCH   3   4
ATOM      4  C   UNL     1      32.615  -5.085  11.601  1.00  0.00     0.000 C 
BRANCH   4   5
ATOM      5  C   UNL     1      34.026  -5.314  11.018  1.00  0.00     0.000 C 
BRANCH   5   6
ATOM      6  C   UNL     1      34.149  -6.587  10.156  1.00  0.00     0.000 C 
BRANCH   6   7
ATOM      7  C   UNL     1      34.823  -7.785  10.849  1.00  0.00     0.000 C 
BRANCH   7   8
ATOM      8  C   UNL     1      34.692  -7.806  12.385  1.00  0.00     0.000 C 
BRANCH   8   9
ATOM      9  C   UNL     1      34.745  -9.210  13.020  1.00  0.00     0.000 C 
BRANCH   9  10
ATOM     10  C   UNL     1      35.073 -10.359  12.043  1.00  0.00     0.000 C 
BRANCH  10  11
ATOM     11  C   UNL     1      34.310 -11.672  12.300  1.00  0.00     0.000 C 
BRANCH  11  12
ATOM     12  C   UNL     1      34.682 -12.323  13.644  1.00  0.00     0.000 C 
BRANCH  12  13
ATOM     13  C   UNL     1      34.691 -13.857  13.579  1.00  0.00     0.006 C 
BRANCH  13  14
ATOM     14  C   UNL     1      35.353 -14.505  14.803  1.00  0.00     0.053 C 
BRANCH  14  15
ATOM     15  C   UNL     1      36.682 -15.084  14.433  1.00  0.00     0.041 C 
ATOM     16  O   UNL     1      37.160 -14.890  13.282  1.00  0.00    -0.550 OA
ATOM     17  O   UNL     1      37.367 -15.885  15.336  1.00  0.00    -0.550 OA
ENDBRANCH  14  15
ENDBRANCH  13  14
ENDBRANCH  12  13
ENDBRANCH  11  12
ENDBRANCH  10  11
ENDBRANCH   9  10
ENDBRANCH   8   9
ENDBRANCH   7   8
ENDBRANCH   6   7
ENDBRANCH   5   6
ENDBRANCH   4   5
ENDBRANCH   3   4
ENDBRANCH   2   3
ENDBRANCH   1   2
BRANCH   1  18
ATOM     18  C   UNL     1      31.066  -9.196  12.914  1.00  0.00     0.000 C 
BRANCH  18  19
ATOM     19  C   UNL     1      30.243 -10.491  12.801  1.00  0.00     0.000 C 
BRANCH  19  20
ATOM     20  C   UNL     1      29.149 -10.601  13.875  1.00  0.00     0.000 C 
BRANCH  20  21
ATOM     21  C   UNL     1      28.883  -9.268  14.596  1.00  0.00     0.000 C 
BRANCH  21  22
ATOM     22  C   UNL     1      28.210  -9.425  15.977  1.00  0.00     0.000 C 
BRANCH  22  23
ATOM     23  C   UNL     1      29.139  -9.018  17.132  1.00  0.00     0.000 C 
BRANCH  23  24
ATOM     24  C   UNL     1      30.578  -8.810  16.634  1.00  0.00    -0.000 C 
BRANCH  24  25
ATOM     25  C   UNL     1      31.544  -9.909  17.112  1.00  0.00    -0.000 C 
BRANCH  25  26
ATOM     26  C   UNL     1      32.295 -10.647  15.990  1.00  0.00    -0.000 C 
BRANCH  26  27
ATOM     27  C   UNL     1      31.865 -12.118  15.850  1.00  0.00    -0.000 C 
BRANCH  27  28
ATOM     28  C   UNL     1      30.737 -12.494  16.823  1.00  0.00    -0.000 C 
BRANCH  28  29
ATOM     29  C   UNL     1      29.698 -13.435  16.188  1.00  0.00    -0.000 C 
BRANCH  29  30
ATOM     30  C   UNL     1      28.255 -12.947  16.397  1.00  0.00    -0.000 C 
BRANCH  30  31
ATOM     31  C   UNL     1      27.245 -13.705  15.523  1.00  0.00    -0.003 C 
ATOM     32  C   UNL     1      27.850 -14.068  14.171  1.00  0.00     0.004 C 
ENDBRANCH  30  31
ENDBRANCH  29  30
ENDBRANCH  28  29
ENDBRANCH  27  28
ENDBRANCH  26  27
ENDBRANCH  25  26
ENDBRANCH  24  25
ENDBRANCH  23  24
ENDBRANCH  22  23
ENDBRANCH  21  22
ENDBRANCH  20  21
ENDBRANCH  19  20
ENDBRANCH  18  19
ENDBRANCH   1  18
TORSDOF 28
ENDMDL
MODEL 5
REMARK VINA RESULT:    -4.597      2.382      7.155
REMARK INTER + INTRA:         -17.509
REMARK INTER:                 -12.239
REMARK INTRA:                  -5.270
REMARK UNBOUND:                -5.386
REMARK SMILES CCCCCCCCCCCCCCCCCCCCCCCCCCCCCC(=O)[O-]
REMARK SMILES IDX 16 1 17 2 18 3 19 4 20 5 21 6 22 7 23 8 24 9 25 10 26 11
REMARK SMILES IDX 27 12 28 13 29 14 30 15 31 16 32 17 15 18 14 19 13 20 12 21
REMARK SMILES IDX 11 22 10 23 9 24 8 25 7 26 6 27 5 28 4 29 3 30 2 31 1 32
REMARK H PARENT
REMARK Flexibility Score: inf
ROOT
ATOM      1  C   UNL     1      31.849  -9.462  11.114  1.00  0.00     0.000 C 
ENDROOT
BRANCH   1   2
ATOM      2  C   UNL     1      30.625 -10.159  11.728  1.00  0.00     0.000 C 
BRANCH   2   3
ATOM      3  C   UNL     1      30.721 -10.298  13.255  1.00  0.00     0.000 C 
BRANCH   3   4
ATOM      4  C   UNL     1      30.689  -8.941  13.981  1.00  0.00     0.000 C 
BRANCH   4   5
ATOM      5  C   UNL     1      29.894  -8.985  15.304  1.00  0.00     0.000 C 
BRANCH   5   6
ATOM      6  C   UNL     1      28.368  -8.867  15.123  1.00  0.00     0.000 C 
BRANCH   6   7
ATOM      7  C   UNL     1      27.577 -10.167  15.357  1.00  0.00     0.000 C 
BRANCH   7   8
ATOM      8  C   UNL     1      27.095 -10.875  14.076  1.00  0.00     0.000 C 
BRANCH   8   9
ATOM      9  C   UNL     1      27.023 -12.412  14.174  1.00  0.00     0.000 C 
BRANCH   9  10
ATOM     10  C   UNL     1      28.370 -13.116  14.440  1.00  0.00     0.000 C 
BRANCH  10  11
ATOM     11  C   UNL     1      28.439 -13.925  15.748  1.00  0.00     0.000 C 
BRANCH  11  12
ATOM     12  C   UNL     1      29.779 -13.752  16.485  1.00  0.00     0.000 C 
BRANCH  12  13
ATOM     13  C   UNL     1      30.293 -12.305  16.451  1.00  0.00     0.006 C 
BRANCH  13  14
ATOM     14  C   UNL     1      31.788 -12.207  16.117  1.00  0.00     0.053 C 
BRANCH  14  15
ATOM     15  C   UNL     1      32.508 -11.426  17.171  1.00  0.00     0.041 C 
ATOM     16  O   UNL     1      32.188 -10.228  17.402  1.00  0.00    -0.550 OA
ATOM     17  O   UNL     1      33.570 -11.999  17.856  1.00  0.00    -0.550 OA
ENDBRANCH  14  15
ENDBRANCH  13  14
ENDBRANCH  12  13
ENDBRANCH  11  12
ENDBRANCH  10  11
ENDBRANCH   9  10
ENDBRANCH   8   9
ENDBRANCH   7   8
ENDBRANCH   6   7
ENDBRANCH   5   6
ENDBRANCH   4   5
ENDBRANCH   3   4
ENDBRANCH   2   3
ENDBRANCH   1   2
BRANCH   1  18
ATOM     18  C   UNL     1      31.426  -8.416  10.071  1.00  0.00     0.000 C 
BRANCH  18  19
ATOM     19  C   UNL     1      31.000  -7.080  10.704  1.00  0.00     0.000 C 
BRANCH  19  20
ATOM     20  C   UNL     1      32.003  -6.566  11.750  1.00  0.00     0.000 C 
BRANCH  20  21
ATOM     21  C   UNL     1      32.607  -5.200  11.379  1.00  0.00     0.000 C 
BRANCH  21  22
ATOM     22  C   UNL     1      34.101  -5.258  10.994  1.00  0.00     0.000 C 
BRANCH  22  23
ATOM     23  C   UNL     1      34.357  -6.150   9.770  1.00  0.00     0.000 C 
BRANCH  23  24
ATOM     24  C   UNL     1      35.324  -7.294  10.113  1.00  0.00    -0.000 C 
BRANCH  24  25
ATOM     25  C   UNL     1      36.330  -6.919  11.217  1.00  0.00    -0.000 C 
BRANCH  25  26
ATOM     26  C   UNL     1      36.231  -7.764  12.500  1.00  0.00    -0.000 C 
BRANCH  26  27
ATOM     27  C   UNL     1      35.258  -8.948  12.362  1.00  0.00    -0.000 C 
BRANCH  27  28
ATOM     28  C   UNL     1      34.398  -9.150  13.620  1.00  0.00    -0.000 C 
BRANCH  28  29
ATOM     29  C   UNL     1      34.506 -10.576  14.187  1.00  0.00    -0.000 C 
BRANCH  29  30
ATOM     30  C   UNL     1      34.003 -11.643  13.200  1.00  0.00    -0.000 C 
BRANCH  30  31
ATOM     31  C   UNL     1      34.889 -12.898  13.186  1.00  0.00    -0.003 C 
ATOM     32  C   UNL     1      34.428 -13.909  14.231  1.00  0.00     0.004 C 
ENDBRANCH  30  31
ENDBRANCH  29  30
ENDBRANCH  28  29
ENDBRANCH  27  28
ENDBRANCH  26  27
ENDBRANCH  25  26
ENDBRANCH  24  25
ENDBRANCH  23  24
ENDBRANCH  22  23
ENDBRANCH  21  22
ENDBRANCH  20  21
ENDBRANCH  19  20
ENDBRANCH  18  19
ENDBRANCH   1  18
TORSDOF 28
ENDMDL
MODEL 6
REMARK VINA RESULT:    -4.563      1.661      2.115
REMARK INTER + INTRA:         -17.418
REMARK INTER:                 -12.041
REMARK INTRA:                  -5.377
REMARK UNBOUND:                -5.386
REMARK SMILES CCCCCCCCCCCCCCCCCCCCCCCCCCCCCC(=O)[O-]
REMARK SMILES IDX 16 1 17 2 18 3 19 4 20 5 21 6 22 7 23 8 24 9 25 10 26 11
REMARK SMILES IDX 27 12 28 13 29 14 30 15 31 16 32 17 15 18 14 19 13 20 12 21
REMARK SMILES IDX 11 22 10 23 9 24 8 25 7 26 6 27 5 28 4 29 3 30 2 31 1 32
REMARK H PARENT
REMARK Flexibility Score: inf
ROOT
ATOM      1  C   UNL     1      30.985  -7.845  12.704  1.00  0.00     0.000 C 
ENDROOT
BRANCH   1   2
ATOM      2  C   UNL     1      30.702  -6.709  11.710  1.00  0.00     0.000 C 
BRANCH   2   3
ATOM      3  C   UNL     1      31.161  -7.039  10.280  1.00  0.00     0.000 C 
BRANCH   3   4
ATOM      4  C   UNL     1      32.318  -6.142   9.804  1.00  0.00     0.000 C 
BRANCH   4   5
ATOM      5  C   UNL     1      32.876  -5.235  10.922  1.00  0.00     0.000 C 
BRANCH   5   6
ATOM      6  C   UNL     1      34.314  -5.587  11.355  1.00  0.00     0.000 C 
BRANCH   6   7
ATOM      7  C   UNL     1      34.468  -6.939  12.077  1.00  0.00     0.000 C 
BRANCH   7   8
ATOM      8  C   UNL     1      35.825  -7.639  11.863  1.00  0.00     0.000 C 
BRANCH   8   9
ATOM      9  C   UNL     1      35.859  -9.124  12.276  1.00  0.00     0.000 C 
BRANCH   9  10
ATOM     10  C   UNL     1      36.669  -9.430  13.553  1.00  0.00     0.000 C 
BRANCH  10  11
ATOM     11  C   UNL     1      35.951  -9.104  14.876  1.00  0.00     0.000 C 
BRANCH  11  12
ATOM     12  C   UNL     1      35.641 -10.360  15.709  1.00  0.00     0.000 C 
BRANCH  12  13
ATOM     13  C   UNL     1      35.908 -11.663  14.941  1.00  0.00     0.006 C 
BRANCH  13  14
ATOM     14  C   UNL     1      35.130 -12.861  15.504  1.00  0.00     0.053 C 
BRANCH  14  15
ATOM     15  C   UNL     1      34.992 -13.928  14.464  1.00  0.00     0.041 C 
ATOM     16  O   UNL     1      34.694 -13.623  13.277  1.00  0.00    -0.550 OA
ATOM     17  O   UNL     1      35.132 -15.264  14.816  1.00  0.00    -0.550 OA
ENDBRANCH  14  15
ENDBRANCH  13  14
ENDBRANCH  12  13
ENDBRANCH  11  12
ENDBRANCH  10  11
ENDBRANCH   9  10
ENDBRANCH   8   9
ENDBRANCH   7   8
ENDBRANCH   6   7
ENDBRANCH   5   6
ENDBRANCH   4   5
ENDBRANCH   3   4
ENDBRANCH   2   3
ENDBRANCH   1   2
BRANCH   1  18
ATOM     18  C   UNL     1      31.249  -9.170  11.972  1.00  0.00     0.000 C 
BRANCH  18  19
ATOM     19  C   UNL     1      32.334 -10.023  12.653  1.00  0.00     0.000 C 
BRANCH  19  20
ATOM     20  C   UNL     1      32.379  -9.829  14.177  1.00  0.00     0.000 C 
BRANCH  20  21
ATOM     21  C   UNL     1      32.021 -11.108  14.955  1.00  0.00     0.000 C 
BRANCH  21  22
ATOM     22  C   UNL     1      31.416 -10.846  16.351  1.00  0.00     0.000 C 
BRANCH  22  23
ATOM     23  C   UNL     1      31.569  -9.381  16.790  1.00  0.00     0.000 C 
BRANCH  23  24
ATOM     24  C   UNL     1      30.208  -8.772  17.162  1.00  0.00    -0.000 C 
BRANCH  24  25
ATOM     25  C   UNL     1      29.027  -9.714  16.864  1.00  0.00    -0.000 C 
BRANCH  25  26
ATOM     26  C   UNL     1      28.000  -9.169  15.856  1.00  0.00    -0.000 C 
BRANCH  26  27
ATOM     27  C   UNL     1      28.420  -9.396  14.392  1.00  0.00    -0.000 C 
BRANCH  27  28
ATOM     28  C   UNL     1      28.443 -10.885  14.014  1.00  0.00    -0.000 C 
BRANCH  28  29
ATOM     29  C   UNL     1      27.036 -11.508  13.979  1.00  0.00    -0.000 C 
BRANCH  29  30
ATOM     30  C   UNL     1      27.003 -12.925  14.575  1.00  0.00    -0.000 C 
BRANCH  30  31
ATOM     31  C   UNL     1      27.288 -12.936  16.084  1.00  0.00    -0.003 C 
ATOM     32  C   UNL     1      28.682 -13.484  16.377  1.00  0.00     0.004 C 
ENDBRANCH  30  31
ENDBRANCH  29  30
ENDBRANCH  28  29
ENDBRANCH  27  28
ENDBRANCH  26  27
ENDBRANCH  25  26
ENDBRANCH  24  25
ENDBRANCH  23  24
ENDBRANCH  22  23
ENDBRANCH  21  22
ENDBRANCH  20  21
ENDBRANCH  19  20
ENDBRANCH  18  19
ENDBRANCH   1  18
TORSDOF 28
ENDMDL
MODEL 7
REMARK VINA RESULT:    -4.545      1.433      6.548
REMARK INTER + INTRA:         -17.371
REMARK INTER:                 -11.808
REMARK INTRA:                  -5.563
REMARK UNBOUND:                -5.386
REMARK SMILES CCCCCCCCCCCCCCCCCCCCCCCCCCCCCC(=O)[O-]
REMARK SMILES IDX 16 1 17 2 18 3 19 4 20 5 21 6 22 7 23 8 24 9 25 10 26 11
REMARK SMILES IDX 27 12 28 13 29 14 30 15 31 16 32 17 15 18 14 19 13 20 12 21
REMARK SMILES IDX 11 22 10 23 9 24 8 25 7 26 6 27 5 28 4 29 3 30 2 31 1 32
REMARK H PARENT
REMARK Flexibility Score: inf
ROOT
ATOM      1  C   UNL     1      29.871 -10.636  12.867  1.00  0.00     0.000 C 
ENDROOT
BRANCH   1   2
ATOM      2  C   UNL     1      29.146 -11.504  13.907  1.00  0.00     0.000 C 
BRANCH   2   3
ATOM      3  C   UNL     1      27.744 -10.975  14.251  1.00  0.00     0.000 C 
BRANCH   3   4
ATOM      4  C   UNL     1      27.660 -10.394  15.674  1.00  0.00     0.000 C 
BRANCH   4   5
ATOM      5  C   UNL     1      28.396  -9.044  15.817  1.00  0.00     0.000 C 
BRANCH   5   6
ATOM      6  C   UNL     1      28.985  -8.797  17.221  1.00  0.00     0.000 C 
BRANCH   6   7
ATOM      7  C   UNL     1      30.519  -8.684  17.277  1.00  0.00     0.000 C 
BRANCH   7   8
ATOM      8  C   UNL     1      31.281  -9.971  16.904  1.00  0.00     0.000 C 
BRANCH   8   9
ATOM      9  C   UNL     1      32.756 -10.003  17.351  1.00  0.00     0.000 C 
BRANCH   9  10
ATOM     10  C   UNL     1      33.476 -11.351  17.137  1.00  0.00     0.000 C 
BRANCH  10  11
ATOM     11  C   UNL     1      33.708 -11.743  15.666  1.00  0.00     0.000 C 
BRANCH  11  12
ATOM     12  C   UNL     1      35.196 -11.735  15.276  1.00  0.00     0.000 C 
BRANCH  12  13
ATOM     13  C   UNL     1      35.412 -11.697  13.756  1.00  0.00     0.006 C 
BRANCH  13  14
ATOM     14  C   UNL     1      34.460 -12.627  12.991  1.00  0.00     0.053 C 
BRANCH  14  15
ATOM     15  C   UNL     1      34.945 -14.041  13.059  1.00  0.00     0.041 C 
ATOM     16  O   UNL     1      34.393 -14.865  13.838  1.00  0.00    -0.550 OA
ATOM     17  O   UNL     1      36.044 -14.435  12.308  1.00  0.00    -0.550 OA
ENDBRANCH  14  15
ENDBRANCH  13  14
ENDBRANCH  12  13
ENDBRANCH  11  12
ENDBRANCH  10  11
ENDBRANCH   9  10
ENDBRANCH   8   9
ENDBRANCH   7   8
ENDBRANCH   6   7
ENDBRANCH   5   6
ENDBRANCH   4   5
ENDBRANCH   3   4
ENDBRANCH   2   3
ENDBRANCH   1   2
BRANCH   1  18
ATOM     18  C   UNL     1      31.347 -10.434  13.245  1.00  0.00     0.000 C 
BRANCH  18  19
ATOM     19  C   UNL     1      31.736  -8.949  13.359  1.00  0.00     0.000 C 
BRANCH  19  20
ATOM     20  C   UNL     1      30.521  -8.008  13.335  1.00  0.00     0.000 C 
BRANCH  20  21
ATOM     21  C   UNL     1      30.552  -7.020  12.155  1.00  0.00     0.000 C 
BRANCH  21  22
ATOM     22  C   UNL     1      31.327  -7.539  10.924  1.00  0.00     0.000 C 
BRANCH  22  23
ATOM     23  C   UNL     1      31.233  -6.580   9.727  1.00  0.00     0.000 C 
BRANCH  23  24
ATOM     24  C   UNL     1      32.631  -6.136   9.266  1.00  0.00    -0.000 C 
BRANCH  24  25
ATOM     25  C   UNL     1      33.480  -5.545  10.406  1.00  0.00    -0.000 C 
BRANCH  25  26
ATOM     26  C   UNL     1      34.797  -6.289  10.687  1.00  0.00    -0.000 C 
BRANCH  26  27
ATOM     27  C   UNL     1      34.790  -7.030  12.036  1.00  0.00    -0.000 C 
BRANCH  27  28
ATOM     28  C   UNL     1      35.037  -8.539  11.876  1.00  0.00    -0.000 C 
BRANCH  28  29
ATOM     29  C   UNL     1      34.893  -9.011  10.419  1.00  0.00    -0.000 C 
BRANCH  29  30
ATOM     30  C   UNL     1      33.833 -10.113  10.258  1.00  0.00    -0.000 C 
BRANCH  30  31
ATOM     31  C   UNL     1      33.105 -10.037   8.908  1.00  0.00    -0.003 C 
ATOM     32  C   UNL     1      31.641 -10.442   9.048  1.00  0.00     0.004 C 
ENDBRANCH  30  31
ENDBRANCH  29  30
ENDBRANCH  28  29
ENDBRANCH  27  28
ENDBRANCH  26  27
ENDBRANCH  25  26
ENDBRANCH  24  25
ENDBRANCH  23  24
ENDBRANCH  22  23
ENDBRANCH  21  22
ENDBRANCH  20  21
ENDBRANCH  19  20
ENDBRANCH  18  19
ENDBRANCH   1  18
TORSDOF 28
ENDMDL
MODEL 8
REMARK VINA RESULT:    -4.457      2.297      7.380
REMARK INTER + INTRA:         -17.139
REMARK INTER:                 -11.344
REMARK INTRA:                  -5.795
REMARK UNBOUND:                -5.386
REMARK SMILES CCCCCCCCCCCCCCCCCCCCCCCCCCCCCC(=O)[O-]
REMARK SMILES IDX 16 1 17 2 18 3 19 4 20 5 21 6 22 7 23 8 24 9 25 10 26 11
REMARK SMILES IDX 27 12 28 13 29 14 30 15 31 16 32 17 15 18 14 19 13 20 12 21
REMARK SMILES IDX 11 22 10 23 9 24 8 25 7 26 6 27 5 28 4 29 3 30 2 31 1 32
REMARK H PARENT
REMARK Flexibility Score: inf
ROOT
ATOM      1  C   UNL     1      30.874 -10.454  12.949  1.00  0.00     0.000 C 
ENDROOT
BRANCH   1   2
ATOM      2  C   UNL     1      29.473 -10.937  13.351  1.00  0.00     0.000 C 
BRANCH   2   3
ATOM      3  C   UNL     1      28.745  -9.951  14.279  1.00  0.00     0.000 C 
BRANCH   3   4
ATOM      4  C   UNL     1      27.489 -10.560  14.928  1.00  0.00     0.000 C 
BRANCH   4   5
ATOM      5  C   UNL     1      27.259 -12.033  14.528  1.00  0.00     0.000 C 
BRANCH   5   6
ATOM      6  C   UNL     1      27.359 -13.025  15.704  1.00  0.00     0.000 C 
BRANCH   6   7
ATOM      7  C   UNL     1      28.558 -12.806  16.646  1.00  0.00     0.000 C 
BRANCH   7   8
ATOM      8  C   UNL     1      29.892 -13.395  16.148  1.00  0.00     0.000 C 
BRANCH   8   9
ATOM      9  C   UNL     1      31.136 -12.544  16.472  1.00  0.00     0.000 C 
BRANCH   9  10
ATOM     10  C   UNL     1      30.849 -11.065  16.808  1.00  0.00     0.000 C 
BRANCH  10  11
ATOM     11  C   UNL     1      32.002 -10.090  16.505  1.00  0.00     0.000 C 
BRANCH  11  12
ATOM     12  C   UNL     1      33.213 -10.785  15.856  1.00  0.00     0.000 C 
BRANCH  12  13
ATOM     13  C   UNL     1      34.021  -9.845  14.950  1.00  0.00     0.006 C 
BRANCH  13  14
ATOM     14  C   UNL     1      35.332  -9.371  15.594  1.00  0.00     0.053 C 
BRANCH  14  15
ATOM     15  C   UNL     1      36.506  -9.853  14.802  1.00  0.00     0.041 C 
ATOM     16  O   UNL     1      37.291  -9.025  14.262  1.00  0.00    -0.550 OA
ATOM     17  O   UNL     1      36.703 -11.213  14.609  1.00  0.00    -0.550 OA
ENDBRANCH  14  15
ENDBRANCH  13  14
ENDBRANCH  12  13
ENDBRANCH  11  12
ENDBRANCH  10  11
ENDBRANCH   9  10
ENDBRANCH   8   9
ENDBRANCH   7   8
ENDBRANCH   6   7
ENDBRANCH   5   6
ENDBRANCH   4   5
ENDBRANCH   3   4
ENDBRANCH   2   3
ENDBRANCH   1   2
BRANCH   1  18
ATOM     18  C   UNL     1      31.009  -8.933  13.125  1.00  0.00     0.000 C 
BRANCH  18  19
ATOM     19  C   UNL     1      31.070  -8.179  11.785  1.00  0.00     0.000 C 
BRANCH  19  20
ATOM     20  C   UNL     1      30.619  -6.714  11.901  1.00  0.00     0.000 C 
BRANCH  20  21
ATOM     21  C   UNL     1      31.576  -5.736  11.197  1.00  0.00     0.000 C 
BRANCH  21  22
ATOM     22  C   UNL     1      32.037  -6.204   9.800  1.00  0.00     0.000 C 
BRANCH  22  23
ATOM     23  C   UNL     1      33.544  -6.001   9.581  1.00  0.00     0.000 C 
BRANCH  23  24
ATOM     24  C   UNL     1      34.230  -5.526  10.872  1.00  0.00    -0.000 C 
BRANCH  24  25
ATOM     25  C   UNL     1      35.384  -6.445  11.313  1.00  0.00    -0.000 C 
BRANCH  25  26
ATOM     26  C   UNL     1      34.948  -7.750  12.002  1.00  0.00    -0.000 C 
BRANCH  26  27
ATOM     27  C   UNL     1      35.195  -8.996  11.133  1.00  0.00    -0.000 C 
BRANCH  27  28
ATOM     28  C   UNL     1      34.090 -10.052  11.296  1.00  0.00    -0.000 C 
BRANCH  28  29
ATOM     29  C   UNL     1      33.557 -10.563   9.946  1.00  0.00    -0.000 C 
BRANCH  29  30
ATOM     30  C   UNL     1      33.682  -9.514   8.828  1.00  0.00    -0.000 C 
BRANCH  30  31
ATOM     31  C   UNL     1      32.601  -9.673   7.748  1.00  0.00    -0.003 C 
ATOM     32  C   UNL     1      31.206  -9.469   8.331  1.00  0.00     0.004 C 
ENDBRANCH  30  31
ENDBRANCH  29  30
ENDBRANCH  28  29
ENDBRANCH  27  28
ENDBRANCH  26  27
ENDBRANCH  25  26
ENDBRANCH  24  25
ENDBRANCH  23  24
ENDBRANCH  22  23
ENDBRANCH  21  22
ENDBRANCH  20  21
ENDBRANCH  19  20
ENDBRANCH  18  19
ENDBRANCH   1  18
TORSDOF 28
ENDMDL
MODEL 9
REMARK VINA RESULT:    -4.441      2.805      3.744
REMARK INTER + INTRA:         -17.097
REMARK INTER:                 -11.966
REMARK INTRA:                  -5.131
REMARK UNBOUND:                -5.386
REMARK SMILES CCCCCCCCCCCCCCCCCCCCCCCCCCCCCC(=O)[O-]
REMARK SMILES IDX 16 1 17 2 18 3 19 4 20 5 21 6 22 7 23 8 24 9 25 10 26 11
REMARK SMILES IDX 27 12 28 13 29 14 30 15 31 16 32 17 15 18 14 19 13 20 12 21
REMARK SMILES IDX 11 22 10 23 9 24 8 25 7 26 6 27 5 28 4 29 3 30 2 31 1 32
REMARK H PARENT
REMARK Flexibility Score: inf
ROOT
ATOM      1  C   UNL     1      30.629  -7.496  12.878  1.00  0.00     0.000 C 
ENDROOT
BRANCH   1   2
ATOM      2  C   UNL     1      30.620  -6.880  11.471  1.00  0.00     0.000 C 
BRANCH   2   3
ATOM      3  C   UNL     1      31.386  -5.549  11.397  1.00  0.00     0.000 C 
BRANCH   3   4
ATOM      4  C   UNL     1      32.872  -5.695  11.771  1.00  0.00     0.000 C 
BRANCH   4   5
ATOM      5  C   UNL     1      33.820  -5.435  10.581  1.00  0.00     0.000 C 
BRANCH   5   6
ATOM      6  C   UNL     1      34.732  -6.629  10.234  1.00  0.00     0.000 C 
BRANCH   6   7
ATOM      7  C   UNL     1      35.504  -7.232  11.422  1.00  0.00     0.000 C 
BRANCH   7   8
ATOM      8  C   UNL     1      36.108  -8.626  11.164  1.00  0.00     0.000 C 
BRANCH   8   9
ATOM      9  C   UNL     1      35.416  -9.781  11.917  1.00  0.00     0.000 C 
BRANCH   9  10
ATOM     10  C   UNL     1      34.842 -10.897  11.019  1.00  0.00     0.000 C 
BRANCH  10  11
ATOM     11  C   UNL     1      34.388 -10.443   9.619  1.00  0.00     0.000 C 
BRANCH  11  12
ATOM     12  C   UNL     1      32.958  -9.873   9.614  1.00  0.00     0.000 C 
BRANCH  12  13
ATOM     13  C   UNL     1      32.646  -9.063   8.347  1.00  0.00     0.006 C 
BRANCH  13  14
ATOM     14  C   UNL     1      31.530  -8.030   8.555  1.00  0.00     0.053 C 
BRANCH  14  15
ATOM     15  C   UNL     1      31.716  -6.868   7.630  1.00  0.00     0.041 C 
ATOM     16  O   UNL     1      30.714  -6.245   7.185  1.00  0.00    -0.550 OA
ATOM     17  O   UNL     1      32.990  -6.510   7.211  1.00  0.00    -0.550 OA
ENDBRANCH  14  15
ENDBRANCH  13  14
ENDBRANCH  12  13
ENDBRANCH  11  12
ENDBRANCH  10  11
ENDBRANCH   9  10
ENDBRANCH   8   9
ENDBRANCH   7   8
ENDBRANCH   6   7
ENDBRANCH   5   6
ENDBRANCH   4   5
ENDBRANCH   3   4
ENDBRANCH   2   3
ENDBRANCH   1   2
BRANCH   1  18
ATOM     18  C   UNL     1      30.941  -9.000  12.824  1.00  0.00     0.000 C 
BRANCH  18  19
ATOM     19  C   UNL     1      32.242  -9.367  13.560  1.00  0.00     0.000 C 
BRANCH  19  20
ATOM     20  C   UNL     1      32.387 -10.879  13.799  1.00  0.00     0.000 C 
BRANCH  20  21
ATOM     21  C   UNL     1      32.309 -11.258  15.289  1.00  0.00     0.000 C 
BRANCH  21  22
ATOM     22  C   UNL     1      32.702 -10.115  16.249  1.00  0.00     0.000 C 
BRANCH  22  23
ATOM     23  C   UNL     1      31.654  -9.888  17.350  1.00  0.00     0.000 C 
BRANCH  23  24
ATOM     24  C   UNL     1      30.809  -8.638  17.057  1.00  0.00    -0.000 C 
BRANCH  24  25
ATOM     25  C   UNL     1      29.308  -8.948  16.914  1.00  0.00    -0.000 C 
BRANCH  25  26
ATOM     26  C   UNL     1      28.962 -10.011  15.857  1.00  0.00    -0.000 C 
BRANCH  26  27
ATOM     27  C   UNL     1      27.631  -9.729  15.138  1.00  0.00    -0.000 C 
BRANCH  27  28
ATOM     28  C   UNL     1      27.263 -10.832  14.132  1.00  0.00    -0.000 C 
BRANCH  28  29
ATOM     29  C   UNL     1      28.372 -11.887  13.980  1.00  0.00    -0.000 C 
BRANCH  29  30
ATOM     30  C   UNL     1      27.905 -13.296  14.380  1.00  0.00    -0.000 C 
BRANCH  30  31
ATOM     31  C   UNL     1      28.082 -13.572  15.881  1.00  0.00    -0.003 C 
ATOM     32  C   UNL     1      29.556 -13.548  16.274  1.00  0.00     0.004 C 
ENDBRANCH  30  31
ENDBRANCH  29  30
ENDBRANCH  28  29
ENDBRANCH  27  28
ENDBRANCH  26  27
ENDBRANCH  25  26
ENDBRANCH  24  25
ENDBRANCH  23  24
ENDBRANCH  22  23
ENDBRANCH  21  22
ENDBRANCH  20  21
ENDBRANCH  19  20
ENDBRANCH  18  19
ENDBRANCH   1  18
TORSDOF 28
ENDMDL
