MODEL 1
REMARK VINA RESULT:    17.218      0.000      0.000
REMARK INTER + INTRA:          29.078
REMARK INTER:                  26.277
REMARK INTRA:                   2.801
REMARK UNBOUND:                 2.801
REMARK SMILES CC1=CCC[C@H](C)C(=O)C[C@@H](C(C)C)C(=O)C1
REMARK SMILES IDX 8 1 9 2 6 3 7 4 5 5 4 6 3 7 2 8 1 9 10 11 11 12 15 13 16 14
REMARK SMILES IDX 17 15 12 17 13 18 14 19
REMARK H PARENT
REMARK Flexibility Score: 70.00
ROOT
ATOM      1  C   UNL     1      32.995  11.625  42.437  1.00  0.00     0.136 C 
ATOM      2  O   UNL     1      32.022  12.340  42.636  1.00  0.00    -0.299 OA
ENDROOT
BRANCH   1   3
ATOM      3  C   UNL     1      32.842  10.364  41.609  1.00  0.00     0.053 C 
ATOM      4  C   UNL     1      31.358  10.024  41.414  1.00  0.00     0.016 C 
BRANCH   3   5
ATOM      5  C   UNL     1      33.556  10.528  40.249  1.00  0.00     0.015 C 
BRANCH   5   6
ATOM      6  C   UNL     1      32.672  11.246  39.210  1.00  0.00     0.028 C 
BRANCH   6   7
ATOM      7  C   UNL     1      32.785  12.744  39.336  1.00  0.00    -0.028 C 
ATOM      8  C   UNL     1      33.923  13.419  39.619  1.00  0.00    -0.070 CG0
ATOM      9  C   UNL     1      33.838  14.918  39.766  1.00  0.00     0.039 C 
ATOM     10  G   UNL     1      35.273  12.742  39.805  1.00  0.00     0.000 G0
ENDBRANCH   6   7
ENDBRANCH   5   6
ENDBRANCH   3   5
ENDBRANCH   1   3
BRANCH   1  11
ATOM     11  C   UNL     1      34.330  12.019  43.026  1.00  0.00     0.087 C 
BRANCH  11  12
ATOM     12  C   UNL     1      34.898  13.316  42.395  1.00  0.00     0.066 C 
BRANCH  12  13
ATOM     13  C   UNL     1      35.822  12.993  41.225  1.00  0.00     0.140 C 
ATOM     14  O   UNL     1      37.013  12.831  41.447  1.00  0.00    -0.299 OA
BRANCH  13  15
ATOM     15  C   UNL     1      35.298  12.796  39.821  1.00  0.00     0.106 CG0
ATOM     16  G   UNL     1      33.924  13.419  39.627  1.00  0.00     0.000 G0
ENDBRANCH  13  15
ENDBRANCH  12  13
BRANCH  12  17
ATOM     17  C   UNL     1      35.597  14.247  43.437  1.00  0.00    -0.006 C 
ATOM     18  C   UNL     1      35.088  15.698  43.362  1.00  0.00     0.008 C 
ATOM     19  C   UNL     1      37.125  14.250  43.238  1.00  0.00     0.008 C 
ENDBRANCH  12  17
ENDBRANCH  11  12
ENDBRANCH   1  11
TORSDOF 1
ENDMDL
MODEL 2
REMARK VINA RESULT:    17.300      1.299      2.130
REMARK INTER + INTRA:          29.204
REMARK INTER:                  26.699
REMARK INTRA:                   2.505
REMARK UNBOUND:                 2.801
REMARK SMILES CC1=CCC[C@H](C)C(=O)C[C@@H](C(C)C)C(=O)C1
REMARK SMILES IDX 8 1 9 2 6 3 7 4 5 5 4 6 3 7 2 8 1 9 10 11 11 12 15 13 16 14
REMARK SMILES IDX 17 15 12 17 13 18 14 19
REMARK H PARENT
REMARK Flexibility Score: 70.00
ROOT
ATOM      1  C   UNL     1      32.762  11.593  41.998  1.00  0.00     0.136 C 
ATOM      2  O   UNL     1      31.780  12.305  42.162  1.00  0.00    -0.299 OA
ENDROOT
BRANCH   1   3
ATOM      3  C   UNL     1      32.600  10.229  41.355  1.00  0.00     0.053 C 
ATOM      4  C   UNL     1      31.150   9.742  41.482  1.00  0.00     0.016 C 
BRANCH   3   5
ATOM      5  C   UNL     1      33.038  10.281  39.875  1.00  0.00     0.015 C 
BRANCH   5   6
ATOM      6  C   UNL     1      34.302   9.437  39.611  1.00  0.00     0.028 C 
BRANCH   6   7
ATOM      7  C   UNL     1      35.547  10.155  40.066  1.00  0.00    -0.028 C 
ATOM      8  C   UNL     1      35.714  11.498  40.070  1.00  0.00    -0.070 CG0
ATOM      9  C   UNL     1      37.052  12.042  40.504  1.00  0.00     0.039 C 
ATOM     10  G   UNL     1      34.628  12.478  39.651  1.00  0.00     0.000 G0
ENDBRANCH   6   7
ENDBRANCH   5   6
ENDBRANCH   3   5
ENDBRANCH   1   3
BRANCH   1  11
ATOM     11  C   UNL     1      34.116  12.093  42.444  1.00  0.00     0.087 C 
BRANCH  11  12
ATOM     12  C   UNL     1      34.368  13.568  42.037  1.00  0.00     0.066 C 
BRANCH  12  13
ATOM     13  C   UNL     1      34.461  13.705  40.521  1.00  0.00     0.140 C 
ATOM     14  O   UNL     1      34.461  14.827  40.033  1.00  0.00    -0.299 OA
BRANCH  13  15
ATOM     15  C   UNL     1      34.624  12.506  39.616  1.00  0.00     0.106 CG0
ATOM     16  G   UNL     1      35.689  11.545  40.122  1.00  0.00     0.000 G0
ENDBRANCH  13  15
ENDBRANCH  12  13
BRANCH  12  17
ATOM     17  C   UNL     1      35.612  14.193  42.746  1.00  0.00    -0.006 C 
ATOM     18  C   UNL     1      36.317  13.196  43.683  1.00  0.00     0.008 C 
ATOM     19  C   UNL     1      35.214  15.439  43.562  1.00  0.00     0.008 C 
ENDBRANCH  12  17
ENDBRANCH  11  12
ENDBRANCH   1  11
TORSDOF 1
ENDMDL
MODEL 3
REMARK VINA RESULT:    18.274      1.148      1.618
REMARK INTER + INTRA:          30.690
REMARK INTER:                  28.211
REMARK INTRA:                   2.479
REMARK UNBOUND:                 2.801
REMARK SMILES CC1=CCC[C@H](C)C(=O)C[C@@H](C(C)C)C(=O)C1
REMARK SMILES IDX 8 1 9 2 6 3 7 4 5 5 4 6 3 7 2 8 1 9 10 11 11 12 15 13 16 14
REMARK SMILES IDX 17 15 12 17 13 18 14 19
REMARK H PARENT
REMARK Flexibility Score: 70.00
ROOT
ATOM      1  C   UNL     1      33.151  11.513  42.288  1.00  0.00     0.136 C 
ATOM      2  O   UNL     1      32.130  12.151  42.510  1.00  0.00    -0.299 OA
ENDROOT
BRANCH   1   3
ATOM      3  C   UNL     1      33.050  10.081  41.800  1.00  0.00     0.053 C 
ATOM      4  C   UNL     1      31.632   9.782  41.296  1.00  0.00     0.016 C 
BRANCH   3   5
ATOM      5  C   UNL     1      34.097   9.818  40.695  1.00  0.00     0.015 C 
BRANCH   5   6
ATOM      6  C   UNL     1      33.463   9.767  39.291  1.00  0.00     0.028 C 
BRANCH   6   7
ATOM      7  C   UNL     1      32.620  10.988  39.025  1.00  0.00    -0.028 C 
ATOM      8  C   UNL     1      33.017  12.267  39.222  1.00  0.00    -0.070 CG0
ATOM      9  C   UNL     1      32.018  13.366  38.958  1.00  0.00     0.039 C 
ATOM     10  G   UNL     1      34.410  12.646  39.703  1.00  0.00     0.000 G0
ENDBRANCH   6   7
ENDBRANCH   5   6
ENDBRANCH   3   5
ENDBRANCH   1   3
BRANCH   1  11
ATOM     11  C   UNL     1      34.493  12.173  42.509  1.00  0.00     0.087 C 
BRANCH  11  12
ATOM     12  C   UNL     1      34.488  13.673  42.116  1.00  0.00     0.066 C 
BRANCH  12  13
ATOM     13  C   UNL     1      34.452  13.838  40.600  1.00  0.00     0.140 C 
ATOM     14  O   UNL     1      34.500  14.967  40.133  1.00  0.00    -0.299 OA
BRANCH  13  15
ATOM     15  C   UNL     1      34.431  12.651  39.665  1.00  0.00     0.106 CG0
ATOM     16  G   UNL     1      33.018  12.268  39.252  1.00  0.00     0.000 G0
ENDBRANCH  13  15
ENDBRANCH  12  13
BRANCH  12  17
ATOM     17  C   UNL     1      35.669  14.474  42.752  1.00  0.00    -0.006 C 
ATOM     18  C   UNL     1      36.719  13.556  43.404  1.00  0.00     0.008 C 
ATOM     19  C   UNL     1      35.156  15.467  43.812  1.00  0.00     0.008 C 
ENDBRANCH  12  17
ENDBRANCH  11  12
ENDBRANCH   1  11
TORSDOF 1
ENDMDL
MODEL 4
REMARK VINA RESULT:    18.996      1.737      3.179
REMARK INTER + INTRA:          31.791
REMARK INTER:                  28.059
REMARK INTRA:                   3.733
REMARK UNBOUND:                 2.801
REMARK SMILES CC1=CCC[C@H](C)C(=O)C[C@@H](C(C)C)C(=O)C1
REMARK SMILES IDX 8 1 9 2 6 3 7 4 5 5 4 6 3 7 2 8 1 9 10 11 11 12 15 13 16 14
REMARK SMILES IDX 17 15 12 17 13 18 14 19
REMARK H PARENT
REMARK Flexibility Score: 70.00
ROOT
ATOM      1  C   UNL     1      34.440  13.440  40.197  1.00  0.00     0.136 C 
ATOM      2  O   UNL     1      34.238  14.573  39.782  1.00  0.00    -0.299 OA
ENDROOT
BRANCH   1   3
ATOM      3  C   UNL     1      33.444  12.339  39.887  1.00  0.00     0.053 C 
ATOM      4  C   UNL     1      32.445  12.802  38.817  1.00  0.00     0.016 C 
BRANCH   3   5
ATOM      5  C   UNL     1      34.184  11.060  39.437  1.00  0.00     0.015 C 
BRANCH   5   6
ATOM      6  C   UNL     1      33.420   9.778  39.822  1.00  0.00     0.028 C 
BRANCH   6   7
ATOM      7  C   UNL     1      32.234  10.088  40.700  1.00  0.00    -0.028 C 
ATOM      8  C   UNL     1      32.304  10.564  41.965  1.00  0.00    -0.070 CG0
ATOM      9  C   UNL     1      31.013  10.761  42.719  1.00  0.00     0.039 C 
ATOM     10  G   UNL     1      33.615  10.897  42.662  1.00  0.00     0.000 G0
ENDBRANCH   6   7
ENDBRANCH   5   6
ENDBRANCH   3   5
ENDBRANCH   1   3
BRANCH   1  11
ATOM     11  C   UNL     1      35.682  13.166  41.014  1.00  0.00     0.087 C 
BRANCH  11  12
ATOM     12  C   UNL     1      35.363  12.908  42.509  1.00  0.00     0.066 C 
BRANCH  12  13
ATOM     13  C   UNL     1      33.945  12.373  42.678  1.00  0.00     0.140 C 
ATOM     14  O   UNL     1      33.025  13.172  42.784  1.00  0.00    -0.299 OA
BRANCH  13  15
ATOM     15  C   UNL     1      33.637  10.893  42.645  1.00  0.00     0.106 CG0
ATOM     16  G   UNL     1      32.290  10.601  42.000  1.00  0.00     0.000 G0
ENDBRANCH  13  15
ENDBRANCH  12  13
BRANCH  12  17
ATOM     17  C   UNL     1      35.615  14.158  43.412  1.00  0.00    -0.006 C 
ATOM     18  C   UNL     1      34.897  15.415  42.888  1.00  0.00     0.008 C 
ATOM     19  C   UNL     1      37.121  14.462  43.526  1.00  0.00     0.008 C 
ENDBRANCH  12  17
ENDBRANCH  11  12
ENDBRANCH   1  11
TORSDOF 1
ENDMDL
MODEL 5
REMARK VINA RESULT:    19.496      2.164      3.255
REMARK INTER + INTRA:          32.555
REMARK INTER:                  27.424
REMARK INTRA:                   5.132
REMARK UNBOUND:                 2.801
REMARK SMILES CC1=CCC[C@H](C)C(=O)C[C@@H](C(C)C)C(=O)C1
REMARK SMILES IDX 8 1 9 2 6 3 7 4 5 5 4 6 3 7 2 8 1 9 10 11 11 12 15 13 16 14
REMARK SMILES IDX 17 15 12 17 13 18 14 19
REMARK H PARENT
REMARK Flexibility Score: 70.00
ROOT
ATOM      1  C   UNL     1      33.141  12.483  39.998  1.00  0.00     0.136 C 
ATOM      2  O   UNL     1      32.312  12.814  39.161  1.00  0.00    -0.299 OA
ENDROOT
BRANCH   1   3
ATOM      3  C   UNL     1      32.851  11.315  40.920  1.00  0.00     0.053 C 
ATOM      4  C   UNL     1      31.979  11.764  42.101  1.00  0.00     0.016 C 
BRANCH   3   5
ATOM      5  C   UNL     1      32.173  10.170  40.135  1.00  0.00     0.015 C 
BRANCH   5   6
ATOM      6  C   UNL     1      33.173   9.398  39.251  1.00  0.00     0.028 C 
BRANCH   6   7
ATOM      7  C   UNL     1      34.044   8.485  40.075  1.00  0.00    -0.028 C 
ATOM      8  C   UNL     1      35.231   8.829  40.625  1.00  0.00    -0.070 CG0
ATOM      9  C   UNL     1      35.999   7.766  41.371  1.00  0.00     0.039 C 
ATOM     10  G   UNL     1      35.830  10.223  40.519  1.00  0.00     0.000 G0
ENDBRANCH   6   7
ENDBRANCH   5   6
ENDBRANCH   3   5
ENDBRANCH   1   3
BRANCH   1  11
ATOM     11  C   UNL     1      34.438  13.252  40.093  1.00  0.00     0.087 C 
BRANCH  11  12
ATOM     12  C   UNL     1      35.344  12.748  41.245  1.00  0.00     0.066 C 
BRANCH  12  13
ATOM     13  C   UNL     1      35.188  11.244  41.442  1.00  0.00     0.140 C 
ATOM     14  O   UNL     1      34.495  10.842  42.366  1.00  0.00    -0.299 OA
BRANCH  13  15
ATOM     15  C   UNL     1      35.801  10.243  40.488  1.00  0.00     0.106 CG0
ATOM     16  G   UNL     1      35.207   8.852  40.655  1.00  0.00     0.000 G0
ENDBRANCH  13  15
ENDBRANCH  12  13
BRANCH  12  17
ATOM     17  C   UNL     1      35.122  13.526  42.582  1.00  0.00    -0.006 C 
ATOM     18  C   UNL     1      34.514  14.922  42.354  1.00  0.00     0.008 C 
ATOM     19  C   UNL     1      36.446  13.685  43.355  1.00  0.00     0.008 C 
ENDBRANCH  12  17
ENDBRANCH  11  12
ENDBRANCH   1  11
TORSDOF 1
ENDMDL
MODEL 6
REMARK VINA RESULT:    19.841      1.787      3.168
REMARK INTER + INTRA:          33.082
REMARK INTER:                  30.150
REMARK INTRA:                   2.932
REMARK UNBOUND:                 2.801
REMARK SMILES CC1=CCC[C@H](C)C(=O)C[C@@H](C(C)C)C(=O)C1
REMARK SMILES IDX 8 1 9 2 6 3 7 4 5 5 4 6 3 7 2 8 1 9 10 11 11 12 15 13 16 14
REMARK SMILES IDX 17 15 12 17 13 18 14 19
REMARK H PARENT
REMARK Flexibility Score: 70.00
ROOT
ATOM      1  C   UNL     1      36.613  11.637  39.985  1.00  0.00     0.136 C 
ATOM      2  O   UNL     1      36.883  12.389  39.058  1.00  0.00    -0.299 OA
ENDROOT
BRANCH   1   3
ATOM      3  C   UNL     1      36.259  10.190  39.697  1.00  0.00     0.053 C 
ATOM      4  C   UNL     1      36.321   9.355  40.983  1.00  0.00     0.016 C 
BRANCH   3   5
ATOM      5  C   UNL     1      34.862  10.102  39.046  1.00  0.00     0.015 C 
BRANCH   5   6
ATOM      6  C   UNL     1      33.923   9.144  39.806  1.00  0.00     0.028 C 
BRANCH   6   7
ATOM      7  C   UNL     1      33.124   9.875  40.855  1.00  0.00    -0.028 C 
ATOM      8  C   UNL     1      32.991  11.219  40.936  1.00  0.00    -0.070 CG0
ATOM      9  C   UNL     1      32.200  11.782  42.091  1.00  0.00     0.039 C 
ATOM     10  G   UNL     1      33.606  12.183  39.933  1.00  0.00     0.000 G0
ENDBRANCH   6   7
ENDBRANCH   5   6
ENDBRANCH   3   5
ENDBRANCH   1   3
BRANCH   1  11
ATOM     11  C   UNL     1      36.638  12.172  41.398  1.00  0.00     0.087 C 
BRANCH  11  12
ATOM     12  C   UNL     1      35.349  12.955  41.758  1.00  0.00     0.066 C 
BRANCH  12  13
ATOM     13  C   UNL     1      34.514  13.230  40.512  1.00  0.00     0.140 C 
ATOM     14  O   UNL     1      34.643  14.305  39.944  1.00  0.00    -0.299 OA
BRANCH  13  15
ATOM     15  C   UNL     1      33.590  12.189  39.920  1.00  0.00     0.106 CG0
ATOM     16  G   UNL     1      33.013  11.264  40.981  1.00  0.00     0.000 G0
ENDBRANCH  13  15
ENDBRANCH  12  13
BRANCH  12  17
ATOM     17  C   UNL     1      35.635  14.267  42.556  1.00  0.00    -0.006 C 
ATOM     18  C   UNL     1      36.753  14.088  43.600  1.00  0.00     0.008 C 
ATOM     19  C   UNL     1      34.366  14.765  43.274  1.00  0.00     0.008 C 
ENDBRANCH  12  17
ENDBRANCH  11  12
ENDBRANCH   1  11
TORSDOF 1
ENDMDL
