MODEL 1
REMARK VINA RESULT:    -4.308      0.000      0.000
REMARK INTER + INTRA:         -13.709
REMARK INTER:                  -9.850
REMARK INTRA:                  -3.860
REMARK UNBOUND:                -3.860
REMARK SMILES CCCCCCCCCCCCCCCCCCCCCCCC(=O)[O-]
REMARK SMILES IDX 13 1 14 2 15 3 16 4 17 5 18 6 19 7 20 8 21 9 22 10 23 11
REMARK SMILES IDX 24 12 25 13 26 14 12 15 11 16 10 17 9 18 8 19 7 20 6 21 5 22
REMARK SMILES IDX 4 23 3 24 2 25 1 26
REMARK H PARENT
REMARK Flexibility Score: inf
ROOT
ATOM      1  C   UNL     1       3.528  -7.951  27.131  1.00  0.00     0.000 C 
ENDROOT
BRANCH   1   2
ATOM      2  C   UNL     1       2.618  -8.416  28.277  1.00  0.00     0.000 C 
BRANCH   2   3
ATOM      3  C   UNL     1       3.329  -9.371  29.252  1.00  0.00     0.000 C 
BRANCH   3   4
ATOM      4  C   UNL     1       4.748  -9.791  28.826  1.00  0.00     0.000 C 
BRANCH   4   5
ATOM      5  C   UNL     1       5.870  -9.091  29.622  1.00  0.00     0.000 C 
BRANCH   5   6
ATOM      6  C   UNL     1       5.328  -8.298  30.824  1.00  0.00     0.000 C 
BRANCH   6   7
ATOM      7  C   UNL     1       5.607  -6.791  30.712  1.00  0.00     0.000 C 
BRANCH   7   8
ATOM      8  C   UNL     1       6.567  -6.284  31.799  1.00  0.00     0.000 C 
BRANCH   8   9
ATOM      9  C   UNL     1       7.990  -6.139  31.249  1.00  0.00     0.000 C 
BRANCH   9  10
ATOM     10  C   UNL     1       7.970  -5.712  29.773  1.00  0.00     0.006 C 
BRANCH  10  11
ATOM     11  C   UNL     1       9.016  -6.462  28.936  1.00  0.00     0.053 C 
BRANCH  11  12
ATOM     12  C   UNL     1       8.401  -7.123  27.740  1.00  0.00     0.041 C 
ATOM     13  O   UNL     1       8.858  -8.217  27.316  1.00  0.00    -0.550 OA
ATOM     14  O   UNL     1       7.299  -6.550  27.117  1.00  0.00    -0.550 OA
ENDBRANCH  11  12
ENDBRANCH  10  11
ENDBRANCH   9  10
ENDBRANCH   8   9
ENDBRANCH   7   8
ENDBRANCH   6   7
ENDBRANCH   5   6
ENDBRANCH   4   5
ENDBRANCH   3   4
ENDBRANCH   2   3
ENDBRANCH   1   2
BRANCH   1  15
ATOM     15  C   UNL     1       3.034  -8.496  25.783  1.00  0.00     0.000 C 
BRANCH  15  16
ATOM     16  C   UNL     1       4.085  -9.362  25.066  1.00  0.00     0.000 C 
BRANCH  16  17
ATOM     17  C   UNL     1       5.538  -8.857  25.176  1.00  0.00     0.000 C 
BRANCH  17  18
ATOM     18  C   UNL     1       6.531  -9.484  24.181  1.00  0.00    -0.000 C 
BRANCH  18  19
ATOM     19  C   UNL     1       6.964  -8.507  23.075  1.00  0.00    -0.000 C 
BRANCH  19  20
ATOM     20  C   UNL     1       6.610  -9.003  21.660  1.00  0.00    -0.000 C 
BRANCH  20  21
ATOM     21  C   UNL     1       5.471  -8.240  20.960  1.00  0.00    -0.000 C 
BRANCH  21  22
ATOM     22  C   UNL     1       4.079  -8.639  21.469  1.00  0.00    -0.000 C 
BRANCH  22  23
ATOM     23  C   UNL     1       3.285  -7.406  21.924  1.00  0.00    -0.000 C 
BRANCH  23  24
ATOM     24  C   UNL     1       4.197  -6.189  22.185  1.00  0.00    -0.000 C 
BRANCH  24  25
ATOM     25  C   UNL     1       4.036  -5.589  23.593  1.00  0.00    -0.003 C 
ATOM     26  C   UNL     1       5.370  -5.320  24.287  1.00  0.00     0.004 C 
ENDBRANCH  24  25
ENDBRANCH  23  24
ENDBRANCH  22  23
ENDBRANCH  21  22
ENDBRANCH  20  21
ENDBRANCH  19  20
ENDBRANCH  18  19
ENDBRANCH  17  18
ENDBRANCH  16  17
ENDBRANCH  15  16
ENDBRANCH   1  15
TORSDOF 22
ENDMDL
MODEL 2
REMARK VINA RESULT:    -4.293      1.987      4.732
REMARK INTER + INTRA:         -13.674
REMARK INTER:                 -10.600
REMARK INTRA:                  -3.074
REMARK UNBOUND:                -3.860
REMARK SMILES CCCCCCCCCCCCCCCCCCCCCCCC(=O)[O-]
REMARK SMILES IDX 13 1 14 2 15 3 16 4 17 5 18 6 19 7 20 8 21 9 22 10 23 11
REMARK SMILES IDX 24 12 25 13 26 14 12 15 11 16 10 17 9 18 8 19 7 20 6 21 5 22
REMARK SMILES IDX 4 23 3 24 2 25 1 26
REMARK H PARENT
REMARK Flexibility Score: inf
ROOT
ATOM      1  C   UNL     1       7.619  -5.198  32.000  1.00  0.00     0.000 C 
ENDROOT
BRANCH   1   2
ATOM      2  C   UNL     1       6.657  -5.628  33.117  1.00  0.00     0.000 C 
BRANCH   2   3
ATOM      3  C   UNL     1       5.195  -5.709  32.645  1.00  0.00     0.000 C 
BRANCH   3   4
ATOM      4  C   UNL     1       4.627  -7.137  32.543  1.00  0.00     0.000 C 
BRANCH   4   5
ATOM      5  C   UNL     1       5.201  -7.953  31.365  1.00  0.00     0.000 C 
BRANCH   5   6
ATOM      6  C   UNL     1       4.881  -7.316  30.001  1.00  0.00     0.000 C 
BRANCH   6   7
ATOM      7  C   UNL     1       4.837  -8.347  28.863  1.00  0.00     0.000 C 
BRANCH   7   8
ATOM      8  C   UNL     1       5.395  -9.716  29.281  1.00  0.00     0.000 C 
BRANCH   8   9
ATOM      9  C   UNL     1       6.753  -9.979  28.620  1.00  0.00     0.000 C 
BRANCH   9  10
ATOM     10  C   UNL     1       6.978  -9.035  27.429  1.00  0.00     0.006 C 
BRANCH  10  11
ATOM     11  C   UNL     1       8.468  -8.815  27.134  1.00  0.00     0.053 C 
BRANCH  11  12
ATOM     12  C   UNL     1       8.885  -9.469  25.852  1.00  0.00     0.041 C 
ATOM     13  O   UNL     1       8.067  -9.578  24.901  1.00  0.00    -0.550 OA
ATOM     14  O   UNL     1      10.188  -9.925  25.695  1.00  0.00    -0.550 OA
ENDBRANCH  11  12
ENDBRANCH  10  11
ENDBRANCH   9  10
ENDBRANCH   8   9
ENDBRANCH   7   8
ENDBRANCH   6   7
ENDBRANCH   5   6
ENDBRANCH   4   5
ENDBRANCH   3   4
ENDBRANCH   2   3
ENDBRANCH   1   2
BRANCH   1  15
ATOM     15  C   UNL     1       8.320  -6.417  31.381  1.00  0.00     0.000 C 
BRANCH  15  16
ATOM     16  C   UNL     1       8.365  -6.364  29.844  1.00  0.00     0.000 C 
BRANCH  16  17
ATOM     17  C   UNL     1       7.515  -5.249  29.199  1.00  0.00     0.000 C 
BRANCH  17  18
ATOM     18  C   UNL     1       7.669  -5.100  27.675  1.00  0.00    -0.000 C 
BRANCH  18  19
ATOM     19  C   UNL     1       6.334  -4.813  26.966  1.00  0.00    -0.000 C 
BRANCH  19  20
ATOM     20  C   UNL     1       5.969  -5.879  25.915  1.00  0.00    -0.000 C 
BRANCH  20  21
ATOM     21  C   UNL     1       5.312  -5.341  24.631  1.00  0.00    -0.000 C 
BRANCH  21  22
ATOM     22  C   UNL     1       5.576  -6.226  23.404  1.00  0.00    -0.000 C 
BRANCH  22  23
ATOM     23  C   UNL     1       4.497  -6.016  22.332  1.00  0.00    -0.000 C 
BRANCH  23  24
ATOM     24  C   UNL     1       4.662  -6.984  21.141  1.00  0.00    -0.000 C 
BRANCH  24  25
ATOM     25  C   UNL     1       5.890  -7.905  21.261  1.00  0.00    -0.003 C 
ATOM     26  C   UNL     1       5.523  -9.384  21.371  1.00  0.00     0.004 C 
ENDBRANCH  24  25
ENDBRANCH  23  24
ENDBRANCH  22  23
ENDBRANCH  21  22
ENDBRANCH  20  21
ENDBRANCH  19  20
ENDBRANCH  18  19
ENDBRANCH  17  18
ENDBRANCH  16  17
ENDBRANCH  15  16
ENDBRANCH   1  15
TORSDOF 22
ENDMDL
MODEL 3
REMARK VINA RESULT:    -4.275      3.026      6.145
REMARK INTER + INTRA:         -13.633
REMARK INTER:                 -10.536
REMARK INTRA:                  -3.096
REMARK UNBOUND:                -3.860
REMARK SMILES CCCCCCCCCCCCCCCCCCCCCCCC(=O)[O-]
REMARK SMILES IDX 13 1 14 2 15 3 16 4 17 5 18 6 19 7 20 8 21 9 22 10 23 11
REMARK SMILES IDX 24 12 25 13 26 14 12 15 11 16 10 17 9 18 8 19 7 20 6 21 5 22
REMARK SMILES IDX 4 23 3 24 2 25 1 26
REMARK H PARENT
REMARK Flexibility Score: inf
ROOT
ATOM      1  C   UNL     1       5.992  -5.503  31.887  1.00  0.00     0.000 C 
ENDROOT
BRANCH   1   2
ATOM      2  C   UNL     1       5.079  -6.559  32.527  1.00  0.00     0.000 C 
BRANCH   2   3
ATOM      3  C   UNL     1       5.141  -7.915  31.804  1.00  0.00     0.000 C 
BRANCH   3   4
ATOM      4  C   UNL     1       4.634  -7.896  30.349  1.00  0.00     0.000 C 
BRANCH   4   5
ATOM      5  C   UNL     1       5.281  -8.972  29.450  1.00  0.00     0.000 C 
BRANCH   5   6
ATOM      6  C   UNL     1       5.148  -8.640  27.953  1.00  0.00     0.000 C 
BRANCH   6   7
ATOM      7  C   UNL     1       6.499  -8.311  27.299  1.00  0.00     0.000 C 
BRANCH   7   8
ATOM      8  C   UNL     1       6.344  -7.635  25.928  1.00  0.00     0.000 C 
BRANCH   8   9
ATOM      9  C   UNL     1       5.371  -6.453  26.007  1.00  0.00     0.000 C 
BRANCH   9  10
ATOM     10  C   UNL     1       4.937  -6.001  24.604  1.00  0.00     0.006 C 
BRANCH  10  11
ATOM     11  C   UNL     1       6.119  -5.917  23.628  1.00  0.00     0.053 C 
BRANCH  11  12
ATOM     12  C   UNL     1       5.801  -6.557  22.311  1.00  0.00     0.041 C 
ATOM     13  O   UNL     1       6.491  -7.523  21.894  1.00  0.00    -0.550 OA
ATOM     14  O   UNL     1       4.719  -6.110  21.563  1.00  0.00    -0.550 OA
ENDBRANCH  11  12
ENDBRANCH  10  11
ENDBRANCH   9  10
ENDBRANCH   8   9
ENDBRANCH   7   8
ENDBRANCH   6   7
ENDBRANCH   5   6
ENDBRANCH   4   5
ENDBRANCH   3   4
ENDBRANCH   2   3
ENDBRANCH   1   2
BRANCH   1  15
ATOM     15  C   UNL     1       7.422  -5.607  32.439  1.00  0.00     0.000 C 
BRANCH  15  16
ATOM     16  C   UNL     1       8.379  -6.342  31.483  1.00  0.00     0.000 C 
BRANCH  16  17
ATOM     17  C   UNL     1       7.907  -6.426  30.016  1.00  0.00     0.000 C 
BRANCH  17  18
ATOM     18  C   UNL     1       9.021  -6.329  28.959  1.00  0.00    -0.000 C 
BRANCH  18  19
ATOM     19  C   UNL     1       8.817  -5.157  27.983  1.00  0.00    -0.000 C 
BRANCH  19  20
ATOM     20  C   UNL     1       7.496  -4.400  28.217  1.00  0.00    -0.000 C 
BRANCH  20  21
ATOM     21  C   UNL     1       7.101  -3.406  27.110  1.00  0.00    -0.000 C 
BRANCH  21  22
ATOM     22  C   UNL     1       7.808  -3.680  25.775  1.00  0.00    -0.000 C 
BRANCH  22  23
ATOM     23  C   UNL     1       8.179  -2.367  25.069  1.00  0.00    -0.000 C 
BRANCH  23  24
ATOM     24  C   UNL     1       8.967  -2.609  23.765  1.00  0.00    -0.000 C 
BRANCH  24  25
ATOM     25  C   UNL     1       9.355  -1.314  23.029  1.00  0.00    -0.003 C 
ATOM     26  C   UNL     1       9.017  -0.051  23.818  1.00  0.00     0.004 C 
ENDBRANCH  24  25
ENDBRANCH  23  24
ENDBRANCH  22  23
ENDBRANCH  21  22
ENDBRANCH  20  21
ENDBRANCH  19  20
ENDBRANCH  18  19
ENDBRANCH  17  18
ENDBRANCH  16  17
ENDBRANCH  15  16
ENDBRANCH   1  15
TORSDOF 22
ENDMDL
MODEL 4
REMARK VINA RESULT:    -4.266      1.530      3.307
REMARK INTER + INTRA:         -13.611
REMARK INTER:                  -9.822
REMARK INTRA:                  -3.789
REMARK UNBOUND:                -3.860
REMARK SMILES CCCCCCCCCCCCCCCCCCCCCCCC(=O)[O-]
REMARK SMILES IDX 13 1 14 2 15 3 16 4 17 5 18 6 19 7 20 8 21 9 22 10 23 11
REMARK SMILES IDX 24 12 25 13 26 14 12 15 11 16 10 17 9 18 8 19 7 20 6 21 5 22
REMARK SMILES IDX 4 23 3 24 2 25 1 26
REMARK H PARENT
REMARK Flexibility Score: inf
ROOT
ATOM      1  C   UNL     1       3.299  -8.252  26.861  1.00  0.00     0.000 C 
ENDROOT
BRANCH   1   2
ATOM      2  C   UNL     1       2.374  -9.049  27.792  1.00  0.00     0.000 C 
BRANCH   2   3
ATOM      3  C   UNL     1       3.105  -9.600  29.028  1.00  0.00     0.000 C 
BRANCH   3   4
ATOM      4  C   UNL     1       4.588  -9.952  28.799  1.00  0.00     0.000 C 
BRANCH   4   5
ATOM      5  C   UNL     1       5.565  -9.131  29.667  1.00  0.00     0.000 C 
BRANCH   5   6
ATOM      6  C   UNL     1       4.836  -8.129  30.580  1.00  0.00     0.000 C 
BRANCH   6   7
ATOM      7  C   UNL     1       5.722  -7.624  31.729  1.00  0.00     0.000 C 
BRANCH   7   8
ATOM      8  C   UNL     1       5.791  -6.091  31.794  1.00  0.00     0.000 C 
BRANCH   8   9
ATOM      9  C   UNL     1       7.214  -5.594  31.511  1.00  0.00     0.000 C 
BRANCH   9  10
ATOM     10  C   UNL     1       7.630  -5.906  30.066  1.00  0.00     0.006 C 
BRANCH  10  11
ATOM     11  C   UNL     1       6.762  -5.166  29.038  1.00  0.00     0.053 C 
BRANCH  11  12
ATOM     12  C   UNL     1       7.595  -4.445  28.023  1.00  0.00     0.041 C 
ATOM     13  O   UNL     1       8.754  -4.853  27.749  1.00  0.00    -0.550 OA
ATOM     14  O   UNL     1       7.077  -3.344  27.352  1.00  0.00    -0.550 OA
ENDBRANCH  11  12
ENDBRANCH  10  11
ENDBRANCH   9  10
ENDBRANCH   8   9
ENDBRANCH   7   8
ENDBRANCH   6   7
ENDBRANCH   5   6
ENDBRANCH   4   5
ENDBRANCH   3   4
ENDBRANCH   2   3
ENDBRANCH   1   2
BRANCH   1  15
ATOM     15  C   UNL     1       3.133  -8.706  25.403  1.00  0.00     0.000 C 
BRANCH  15  16
ATOM     16  C   UNL     1       1.977  -7.990  24.681  1.00  0.00     0.000 C 
BRANCH  16  17
ATOM     17  C   UNL     1       2.366  -6.688  23.950  1.00  0.00     0.000 C 
BRANCH  17  18
ATOM     18  C   UNL     1       3.244  -6.872  22.699  1.00  0.00    -0.000 C 
BRANCH  18  19
ATOM     19  C   UNL     1       4.534  -6.035  22.747  1.00  0.00    -0.000 C 
BRANCH  19  20
ATOM     20  C   UNL     1       4.858  -5.507  24.157  1.00  0.00    -0.000 C 
BRANCH  20  21
ATOM     21  C   UNL     1       6.039  -6.197  24.864  1.00  0.00    -0.000 C 
BRANCH  21  22
ATOM     22  C   UNL     1       6.436  -7.528  24.210  1.00  0.00    -0.000 C 
BRANCH  22  23
ATOM     23  C   UNL     1       6.804  -8.575  25.272  1.00  0.00    -0.000 C 
BRANCH  23  24
ATOM     24  C   UNL     1       7.073  -7.937  26.651  1.00  0.00    -0.000 C 
BRANCH  24  25
ATOM     25  C   UNL     1       8.414  -8.360  27.275  1.00  0.00    -0.003 C 
ATOM     26  C   UNL     1       9.179  -9.373  26.425  1.00  0.00     0.004 C 
ENDBRANCH  24  25
ENDBRANCH  23  24
ENDBRANCH  22  23
ENDBRANCH  21  22
ENDBRANCH  20  21
ENDBRANCH  19  20
ENDBRANCH  18  19
ENDBRANCH  17  18
ENDBRANCH  16  17
ENDBRANCH  15  16
ENDBRANCH   1  15
TORSDOF 22
ENDMDL
MODEL 5
REMARK VINA RESULT:    -4.257      1.794      3.976
REMARK INTER + INTRA:         -13.591
REMARK INTER:                  -9.597
REMARK INTRA:                  -3.994
REMARK UNBOUND:                -3.860
REMARK SMILES CCCCCCCCCCCCCCCCCCCCCCCC(=O)[O-]
REMARK SMILES IDX 13 1 14 2 15 3 16 4 17 5 18 6 19 7 20 8 21 9 22 10 23 11
REMARK SMILES IDX 24 12 25 13 26 14 12 15 11 16 10 17 9 18 8 19 7 20 6 21 5 22
REMARK SMILES IDX 4 23 3 24 2 25 1 26
REMARK H PARENT
REMARK Flexibility Score: inf
ROOT
ATOM      1  C   UNL     1       9.086  -9.801  24.996  1.00  0.00     0.000 C 
ENDROOT
BRANCH   1   2
ATOM      2  C   UNL     1       8.411  -9.658  26.368  1.00  0.00     0.000 C 
BRANCH   2   3
ATOM      3  C   UNL     1       8.639  -8.275  27.001  1.00  0.00     0.000 C 
BRANCH   3   4
ATOM      4  C   UNL     1       7.600  -7.871  28.065  1.00  0.00     0.000 C 
BRANCH   4   5
ATOM      5  C   UNL     1       7.211  -6.378  28.019  1.00  0.00     0.000 C 
BRANCH   5   6
ATOM      6  C   UNL     1       7.962  -5.545  29.073  1.00  0.00     0.000 C 
BRANCH   6   7
ATOM      7  C   UNL     1       8.149  -6.299  30.399  1.00  0.00     0.000 C 
BRANCH   7   8
ATOM      8  C   UNL     1       7.513  -5.569  31.592  1.00  0.00     0.000 C 
BRANCH   8   9
ATOM      9  C   UNL     1       6.122  -6.134  31.901  1.00  0.00     0.000 C 
BRANCH   9  10
ATOM     10  C   UNL     1       5.994  -7.584  31.410  1.00  0.00     0.006 C 
BRANCH  10  11
ATOM     11  C   UNL     1       4.543  -7.960  31.080  1.00  0.00     0.053 C 
BRANCH  11  12
ATOM     12  C   UNL     1       4.408  -8.489  29.684  1.00  0.00     0.041 C 
ATOM     13  O   UNL     1       4.644  -9.701  29.440  1.00  0.00    -0.550 OA
ATOM     14  O   UNL     1       3.986  -7.650  28.660  1.00  0.00    -0.550 OA
ENDBRANCH  11  12
ENDBRANCH  10  11
ENDBRANCH   9  10
ENDBRANCH   8   9
ENDBRANCH   7   8
ENDBRANCH   6   7
ENDBRANCH   5   6
ENDBRANCH   4   5
ENDBRANCH   3   4
ENDBRANCH   2   3
ENDBRANCH   1   2
BRANCH   1  15
ATOM     15  C   UNL     1       8.053 -10.125  23.907  1.00  0.00     0.000 C 
BRANCH  15  16
ATOM     16  C   UNL     1       8.306  -9.360  22.595  1.00  0.00     0.000 C 
BRANCH  16  17
ATOM     17  C   UNL     1       7.274  -9.614  21.477  1.00  0.00     0.000 C 
BRANCH  17  18
ATOM     18  C   UNL     1       5.845  -9.925  21.956  1.00  0.00    -0.000 C 
BRANCH  18  19
ATOM     19  C   UNL     1       4.786  -9.021  21.302  1.00  0.00    -0.000 C 
BRANCH  19  20
ATOM     20  C   UNL     1       5.332  -7.632  20.920  1.00  0.00    -0.000 C 
BRANCH  20  21
ATOM     21  C   UNL     1       4.428  -6.444  21.293  1.00  0.00    -0.000 C 
BRANCH  21  22
ATOM     22  C   UNL     1       4.567  -6.021  22.763  1.00  0.00    -0.000 C 
BRANCH  22  23
ATOM     23  C   UNL     1       6.008  -6.214  23.258  1.00  0.00    -0.000 C 
BRANCH  23  24
ATOM     24  C   UNL     1       6.076  -7.085  24.530  1.00  0.00    -0.000 C 
BRANCH  24  25
ATOM     25  C   UNL     1       4.761  -7.818  24.847  1.00  0.00    -0.003 C 
ATOM     26  C   UNL     1       4.965  -9.093  25.662  1.00  0.00     0.004 C 
ENDBRANCH  24  25
ENDBRANCH  23  24
ENDBRANCH  22  23
ENDBRANCH  21  22
ENDBRANCH  20  21
ENDBRANCH  19  20
ENDBRANCH  18  19
ENDBRANCH  17  18
ENDBRANCH  16  17
ENDBRANCH  15  16
ENDBRANCH   1  15
TORSDOF 22
ENDMDL
MODEL 6
REMARK VINA RESULT:    -4.179      1.632      2.739
REMARK INTER + INTRA:         -13.413
REMARK INTER:                  -9.509
REMARK INTRA:                  -3.904
REMARK UNBOUND:                -3.860
REMARK SMILES CCCCCCCCCCCCCCCCCCCCCCCC(=O)[O-]
REMARK SMILES IDX 13 1 14 2 15 3 16 4 17 5 18 6 19 7 20 8 21 9 22 10 23 11
REMARK SMILES IDX 24 12 25 13 26 14 12 15 11 16 10 17 9 18 8 19 7 20 6 21 5 22
REMARK SMILES IDX 4 23 3 24 2 25 1 26
REMARK H PARENT
REMARK Flexibility Score: inf
ROOT
ATOM      1  C   UNL     1       7.521  -8.726  27.458  1.00  0.00     0.000 C 
ENDROOT
BRANCH   1   2
ATOM      2  C   UNL     1       6.900 -10.105  27.727  1.00  0.00     0.000 C 
BRANCH   2   3
ATOM      3  C   UNL     1       5.466 -10.014  28.276  1.00  0.00     0.000 C 
BRANCH   3   4
ATOM      4  C   UNL     1       4.999  -8.590  28.634  1.00  0.00     0.000 C 
BRANCH   4   5
ATOM      5  C   UNL     1       3.941  -8.545  29.757  1.00  0.00     0.000 C 
BRANCH   5   6
ATOM      6  C   UNL     1       4.491  -7.930  31.056  1.00  0.00     0.000 C 
BRANCH   6   7
ATOM      7  C   UNL     1       6.009  -8.114  31.200  1.00  0.00     0.000 C 
BRANCH   7   8
ATOM      8  C   UNL     1       6.713  -6.851  31.721  1.00  0.00     0.000 C 
BRANCH   8   9
ATOM      9  C   UNL     1       6.396  -5.642  30.834  1.00  0.00     0.000 C 
BRANCH   9  10
ATOM     10  C   UNL     1       7.294  -5.621  29.588  1.00  0.00     0.006 C 
BRANCH  10  11
ATOM     11  C   UNL     1       6.536  -5.175  28.330  1.00  0.00     0.053 C 
BRANCH  11  12
ATOM     12  C   UNL     1       7.444  -4.523  27.334  1.00  0.00     0.041 C 
ATOM     13  O   UNL     1       6.969  -3.792  26.426  1.00  0.00    -0.550 OA
ATOM     14  O   UNL     1       8.820  -4.691  27.431  1.00  0.00    -0.550 OA
ENDBRANCH  11  12
ENDBRANCH  10  11
ENDBRANCH   9  10
ENDBRANCH   8   9
ENDBRANCH   7   8
ENDBRANCH   6   7
ENDBRANCH   5   6
ENDBRANCH   4   5
ENDBRANCH   3   4
ENDBRANCH   2   3
ENDBRANCH   1   2
BRANCH   1  15
ATOM     15  C   UNL     1       8.638  -8.824  26.408  1.00  0.00     0.000 C 
BRANCH  15  16
ATOM     16  C   UNL     1       8.366  -9.903  25.344  1.00  0.00     0.000 C 
BRANCH  16  17
ATOM     17  C   UNL     1       8.409  -9.410  23.882  1.00  0.00     0.000 C 
BRANCH  17  18
ATOM     18  C   UNL     1       7.173  -9.757  23.033  1.00  0.00    -0.000 C 
BRANCH  18  19
ATOM     19  C   UNL     1       7.330  -9.351  21.557  1.00  0.00    -0.000 C 
BRANCH  19  20
ATOM     20  C   UNL     1       6.022  -9.484  20.753  1.00  0.00    -0.000 C 
BRANCH  20  21
ATOM     21  C   UNL     1       4.887  -8.537  21.182  1.00  0.00    -0.000 C 
BRANCH  21  22
ATOM     22  C   UNL     1       5.295  -7.058  21.158  1.00  0.00    -0.000 C 
BRANCH  22  23
ATOM     23  C   UNL     1       4.853  -6.343  22.444  1.00  0.00    -0.000 C 
BRANCH  23  24
ATOM     24  C   UNL     1       6.047  -5.997  23.359  1.00  0.00    -0.000 C 
BRANCH  24  25
ATOM     25  C   UNL     1       6.025  -6.738  24.707  1.00  0.00    -0.003 C 
ATOM     26  C   UNL     1       4.753  -7.556  24.923  1.00  0.00     0.004 C 
ENDBRANCH  24  25
ENDBRANCH  23  24
ENDBRANCH  22  23
ENDBRANCH  21  22
ENDBRANCH  20  21
ENDBRANCH  19  20
ENDBRANCH  18  19
ENDBRANCH  17  18
ENDBRANCH  16  17
ENDBRANCH  15  16
ENDBRANCH   1  15
TORSDOF 22
ENDMDL
MODEL 7
REMARK VINA RESULT:    -4.156      2.138      7.608
REMARK INTER + INTRA:         -13.360
REMARK INTER:                 -10.306
REMARK INTRA:                  -3.053
REMARK UNBOUND:                -3.860
REMARK SMILES CCCCCCCCCCCCCCCCCCCCCCCC(=O)[O-]
REMARK SMILES IDX 13 1 14 2 15 3 16 4 17 5 18 6 19 7 20 8 21 9 22 10 23 11
REMARK SMILES IDX 24 12 25 13 26 14 12 15 11 16 10 17 9 18 8 19 7 20 6 21 5 22
REMARK SMILES IDX 4 23 3 24 2 25 1 26
REMARK H PARENT
REMARK Flexibility Score: inf
ROOT
ATOM      1  C   UNL     1       7.155  -8.988  27.967  1.00  0.00     0.000 C 
ENDROOT
BRANCH   1   2
ATOM      2  C   UNL     1       7.687  -9.887  26.842  1.00  0.00     0.000 C 
BRANCH   2   3
ATOM      3  C   UNL     1       6.718  -9.987  25.652  1.00  0.00     0.000 C 
BRANCH   3   4
ATOM      4  C   UNL     1       6.909  -8.906  24.571  1.00  0.00     0.000 C 
BRANCH   4   5
ATOM      5  C   UNL     1       8.198  -9.078  23.739  1.00  0.00     0.000 C 
BRANCH   5   6
ATOM      6  C   UNL     1       7.912  -9.171  22.229  1.00  0.00     0.000 C 
BRANCH   6   7
ATOM      7  C   UNL     1       6.705 -10.066  21.911  1.00  0.00     0.000 C 
BRANCH   7   8
ATOM      8  C   UNL     1       5.854  -9.523  20.752  1.00  0.00     0.000 C 
BRANCH   8   9
ATOM      9  C   UNL     1       5.578  -8.026  20.930  1.00  0.00     0.000 C 
BRANCH   9  10
ATOM     10  C   UNL     1       4.178  -7.788  21.515  1.00  0.00     0.006 C 
BRANCH  10  11
ATOM     11  C   UNL     1       3.926  -6.309  21.840  1.00  0.00     0.053 C 
BRANCH  11  12
ATOM     12  C   UNL     1       3.923  -6.057  23.317  1.00  0.00     0.041 C 
ATOM     13  O   UNL     1       4.132  -4.898  23.761  1.00  0.00    -0.550 OA
ATOM     14  O   UNL     1       3.651  -7.094  24.200  1.00  0.00    -0.550 OA
ENDBRANCH  11  12
ENDBRANCH  10  11
ENDBRANCH   9  10
ENDBRANCH   8   9
ENDBRANCH   7   8
ENDBRANCH   6   7
ENDBRANCH   5   6
ENDBRANCH   4   5
ENDBRANCH   3   4
ENDBRANCH   2   3
ENDBRANCH   1   2
BRANCH   1  15
ATOM     15  C   UNL     1       6.342  -9.804  28.983  1.00  0.00     0.000 C 
BRANCH  15  16
ATOM     16  C   UNL     1       4.872  -9.355  29.072  1.00  0.00     0.000 C 
BRANCH  16  17
ATOM     17  C   UNL     1       4.582  -8.261  30.120  1.00  0.00     0.000 C 
BRANCH  17  18
ATOM     18  C   UNL     1       5.625  -8.131  31.244  1.00  0.00    -0.000 C 
BRANCH  18  19
ATOM     19  C   UNL     1       5.411  -6.882  32.116  1.00  0.00    -0.000 C 
BRANCH  19  20
ATOM     20  C   UNL     1       6.347  -5.717  31.743  1.00  0.00    -0.000 C 
BRANCH  20  21
ATOM     21  C   UNL     1       7.827  -6.096  31.554  1.00  0.00    -0.000 C 
BRANCH  21  22
ATOM     22  C   UNL     1       8.242  -6.186  30.079  1.00  0.00    -0.000 C 
BRANCH  22  23
ATOM     23  C   UNL     1       7.341  -5.307  29.199  1.00  0.00    -0.000 C 
BRANCH  23  24
ATOM     24  C   UNL     1       7.757  -5.349  27.713  1.00  0.00    -0.000 C 
BRANCH  24  25
ATOM     25  C   UNL     1       6.572  -5.241  26.737  1.00  0.00    -0.003 C 
ATOM     26  C   UNL     1       5.363  -6.072  27.166  1.00  0.00     0.004 C 
ENDBRANCH  24  25
ENDBRANCH  23  24
ENDBRANCH  22  23
ENDBRANCH  21  22
ENDBRANCH  20  21
ENDBRANCH  19  20
ENDBRANCH  18  19
ENDBRANCH  17  18
ENDBRANCH  16  17
ENDBRANCH  15  16
ENDBRANCH   1  15
TORSDOF 22
ENDMDL
MODEL 8
REMARK VINA RESULT:    -4.129      1.471      7.233
REMARK INTER + INTRA:         -13.300
REMARK INTER:                  -9.725
REMARK INTRA:                  -3.575
REMARK UNBOUND:                -3.860
REMARK SMILES CCCCCCCCCCCCCCCCCCCCCCCC(=O)[O-]
REMARK SMILES IDX 13 1 14 2 15 3 16 4 17 5 18 6 19 7 20 8 21 9 22 10 23 11
REMARK SMILES IDX 24 12 25 13 26 14 12 15 11 16 10 17 9 18 8 19 7 20 6 21 5 22
REMARK SMILES IDX 4 23 3 24 2 25 1 26
REMARK H PARENT
REMARK Flexibility Score: inf
ROOT
ATOM      1  C   UNL     1       5.251  -6.781  26.917  1.00  0.00     0.000 C 
ENDROOT
BRANCH   1   2
ATOM      2  C   UNL     1       5.806  -5.712  25.964  1.00  0.00     0.000 C 
BRANCH   2   3
ATOM      3  C   UNL     1       5.645  -6.094  24.483  1.00  0.00     0.000 C 
BRANCH   3   4
ATOM      4  C   UNL     1       4.494  -5.377  23.751  1.00  0.00     0.000 C 
BRANCH   4   5
ATOM      5  C   UNL     1       3.330  -6.311  23.355  1.00  0.00     0.000 C 
BRANCH   5   6
ATOM      6  C   UNL     1       3.815  -7.722  22.977  1.00  0.00     0.000 C 
BRANCH   6   7
ATOM      7  C   UNL     1       4.272  -7.818  21.513  1.00  0.00     0.000 C 
BRANCH   7   8
ATOM      8  C   UNL     1       4.606  -9.256  21.090  1.00  0.00     0.000 C 
BRANCH   8   9
ATOM      9  C   UNL     1       6.115  -9.429  20.882  1.00  0.00     0.000 C 
BRANCH   9  10
ATOM     10  C   UNL     1       6.798  -9.909  22.171  1.00  0.00     0.006 C 
BRANCH  10  11
ATOM     11  C   UNL     1       7.635  -8.804  22.832  1.00  0.00     0.053 C 
BRANCH  11  12
ATOM     12  C   UNL     1       8.653  -9.367  23.776  1.00  0.00     0.041 C 
ATOM     13  O   UNL     1       8.334  -9.639  24.963  1.00  0.00    -0.550 OA
ATOM     14  O   UNL     1       9.944  -9.626  23.334  1.00  0.00    -0.550 OA
ENDBRANCH  11  12
ENDBRANCH  10  11
ENDBRANCH   9  10
ENDBRANCH   8   9
ENDBRANCH   7   8
ENDBRANCH   6   7
ENDBRANCH   5   6
ENDBRANCH   4   5
ENDBRANCH   3   4
ENDBRANCH   2   3
ENDBRANCH   1   2
BRANCH   1  15
ATOM     15  C   UNL     1       5.301  -8.172  26.268  1.00  0.00     0.000 C 
BRANCH  15  16
ATOM     16  C   UNL     1       4.074  -9.037  26.612  1.00  0.00     0.000 C 
BRANCH  16  17
ATOM     17  C   UNL     1       3.996  -9.512  28.077  1.00  0.00     0.000 C 
BRANCH  17  18
ATOM     18  C   UNL     1       5.290 -10.125  28.642  1.00  0.00    -0.000 C 
BRANCH  18  19
ATOM     19  C   UNL     1       6.003  -9.197  29.642  1.00  0.00    -0.000 C 
BRANCH  19  20
ATOM     20  C   UNL     1       5.033  -8.280  30.410  1.00  0.00    -0.000 C 
BRANCH  20  21
ATOM     21  C   UNL     1       5.668  -7.446  31.537  1.00  0.00    -0.000 C 
BRANCH  21  22
ATOM     22  C   UNL     1       7.011  -6.818  31.137  1.00  0.00    -0.000 C 
BRANCH  22  23
ATOM     23  C   UNL     1       6.798  -5.516  30.351  1.00  0.00    -0.000 C 
BRANCH  23  24
ATOM     24  C   UNL     1       7.759  -5.396  29.150  1.00  0.00    -0.000 C 
BRANCH  24  25
ATOM     25  C   UNL     1       8.809  -6.519  29.085  1.00  0.00    -0.003 C 
ATOM     26  C   UNL     1       8.667  -7.404  27.848  1.00  0.00     0.004 C 
ENDBRANCH  24  25
ENDBRANCH  23  24
ENDBRANCH  22  23
ENDBRANCH  21  22
ENDBRANCH  20  21
ENDBRANCH  19  20
ENDBRANCH  18  19
ENDBRANCH  17  18
ENDBRANCH  16  17
ENDBRANCH  15  16
ENDBRANCH   1  15
TORSDOF 22
ENDMDL
MODEL 9
REMARK VINA RESULT:    -4.056      1.638      6.246
REMARK INTER + INTRA:         -13.132
REMARK INTER:                  -8.981
REMARK INTRA:                  -4.151
REMARK UNBOUND:                -3.860
REMARK SMILES CCCCCCCCCCCCCCCCCCCCCCCC(=O)[O-]
REMARK SMILES IDX 13 1 14 2 15 3 16 4 17 5 18 6 19 7 20 8 21 9 22 10 23 11
REMARK SMILES IDX 24 12 25 13 26 14 12 15 11 16 10 17 9 18 8 19 7 20 6 21 5 22
REMARK SMILES IDX 4 23 3 24 2 25 1 26
REMARK H PARENT
REMARK Flexibility Score: inf
ROOT
ATOM      1  C   UNL     1       5.083  -5.754  23.654  1.00  0.00     0.000 C 
ENDROOT
BRANCH   1   2
ATOM      2  C   UNL     1       4.654  -6.363  22.311  1.00  0.00     0.000 C 
BRANCH   2   3
ATOM      3  C   UNL     1       5.813  -7.056  21.574  1.00  0.00     0.000 C 
BRANCH   3   4
ATOM      4  C   UNL     1       6.793  -7.821  22.484  1.00  0.00     0.000 C 
BRANCH   4   5
ATOM      5  C   UNL     1       6.285  -9.214  22.913  1.00  0.00     0.000 C 
BRANCH   5   6
ATOM      6  C   UNL     1       7.011  -9.741  24.164  1.00  0.00     0.000 C 
BRANCH   6   7
ATOM      7  C   UNL     1       7.474  -8.613  25.098  1.00  0.00     0.000 C 
BRANCH   7   8
ATOM      8  C   UNL     1       8.278  -9.131  26.301  1.00  0.00     0.000 C 
BRANCH   8   9
ATOM      9  C   UNL     1       8.375  -8.063  27.396  1.00  0.00     0.000 C 
BRANCH   9  10
ATOM     10  C   UNL     1       7.334  -6.954  27.179  1.00  0.00     0.006 C 
BRANCH  10  11
ATOM     11  C   UNL     1       7.847  -5.578  27.625  1.00  0.00     0.053 C 
BRANCH  11  12
ATOM     12  C   UNL     1       6.766  -4.542  27.590  1.00  0.00     0.041 C 
ATOM     13  O   UNL     1       7.034  -3.358  27.255  1.00  0.00    -0.550 OA
ATOM     14  O   UNL     1       5.455  -4.893  27.889  1.00  0.00    -0.550 OA
ENDBRANCH  11  12
ENDBRANCH  10  11
ENDBRANCH   9  10
ENDBRANCH   8   9
ENDBRANCH   7   8
ENDBRANCH   6   7
ENDBRANCH   5   6
ENDBRANCH   4   5
ENDBRANCH   3   4
ENDBRANCH   2   3
ENDBRANCH   1   2
BRANCH   1  15
ATOM     15  C   UNL     1       4.462  -6.524  24.828  1.00  0.00     0.000 C 
BRANCH  15  16
ATOM     16  C   UNL     1       3.236  -7.359  24.415  1.00  0.00     0.000 C 
BRANCH  16  17
ATOM     17  C   UNL     1       2.830  -8.467  25.408  1.00  0.00     0.000 C 
BRANCH  17  18
ATOM     18  C   UNL     1       3.999  -9.186  26.107  1.00  0.00    -0.000 C 
BRANCH  18  19
ATOM     19  C   UNL     1       4.124  -8.814  27.595  1.00  0.00    -0.000 C 
BRANCH  19  20
ATOM     20  C   UNL     1       5.050  -9.763  28.378  1.00  0.00    -0.000 C 
BRANCH  20  21
ATOM     21  C   UNL     1       5.665  -9.175  29.661  1.00  0.00    -0.000 C 
BRANCH  21  22
ATOM     22  C   UNL     1       4.994  -7.867  30.104  1.00  0.00    -0.000 C 
BRANCH  22  23
ATOM     23  C   UNL     1       5.017  -7.727  31.633  1.00  0.00    -0.000 C 
BRANCH  23  24
ATOM     24  C   UNL     1       5.670  -6.404  32.088  1.00  0.00    -0.000 C 
BRANCH  24  25
ATOM     25  C   UNL     1       6.769  -5.901  31.136  1.00  0.00    -0.003 C 
ATOM     26  C   UNL     1       8.181  -6.217  31.628  1.00  0.00     0.004 C 
ENDBRANCH  24  25
ENDBRANCH  23  24
ENDBRANCH  22  23
ENDBRANCH  21  22
ENDBRANCH  20  21
ENDBRANCH  19  20
ENDBRANCH  18  19
ENDBRANCH  17  18
ENDBRANCH  16  17
ENDBRANCH  15  16
ENDBRANCH   1  15
TORSDOF 22
ENDMDL
