MODEL 1
REMARK VINA RESULT:    -5.611      0.000      0.000
REMARK INTER + INTRA:         -12.010
REMARK INTER:                 -10.531
REMARK INTRA:                  -1.479
REMARK UNBOUND:                -1.479
REMARK SMILES O=C([O-])CCCCCCCCCCCCCCC(=O)[O-]
REMARK SMILES IDX 10 1 9 2 8 3 7 4 6 5 5 6 4 7 2 8 1 9 3 10 11 11 12 12 13 13
REMARK SMILES IDX 14 14 15 15 16 16 17 17 18 18 19 19 20 20
REMARK H PARENT
REMARK Flexibility Score: inf
ROOT
ATOM      1  C   UNL     1     -27.335  -1.134  21.094  1.00  0.00     0.000 C 
ENDROOT
BRANCH   1   2
ATOM      2  C   UNL     1     -28.493  -0.940  20.100  1.00  0.00     0.000 C 
BRANCH   2   3
ATOM      3  C   UNL     1     -29.276  -2.239  19.847  1.00  0.00     0.000 C 
BRANCH   3   4
ATOM      4  C   UNL     1     -29.018  -2.818  18.445  1.00  0.00     0.000 C 
BRANCH   4   5
ATOM      5  C   UNL     1     -28.209  -1.868  17.543  1.00  0.00     0.000 C 
BRANCH   5   6
ATOM      6  C   UNL     1     -28.036  -2.338  16.087  1.00  0.00     0.006 C 
BRANCH   6   7
ATOM      7  C   UNL     1     -29.290  -3.022  15.527  1.00  0.00     0.053 C 
BRANCH   7   8
ATOM      8  C   UNL     1     -28.922  -4.285  14.815  1.00  0.00     0.041 C 
ATOM      9  O   UNL     1     -29.744  -5.236  14.746  1.00  0.00    -0.550 OA
ATOM     10  O   UNL     1     -27.689  -4.395  14.186  1.00  0.00    -0.550 OA
ENDBRANCH   7   8
ENDBRANCH   6   7
ENDBRANCH   5   6
ENDBRANCH   4   5
ENDBRANCH   3   4
ENDBRANCH   2   3
ENDBRANCH   1   2
BRANCH   1  11
ATOM     11  C   UNL     1     -27.320  -0.071  22.207  1.00  0.00     0.000 C 
BRANCH  11  12
ATOM     12  C   UNL     1     -26.718  -0.533  23.550  1.00  0.00     0.000 C 
BRANCH  12  13
ATOM     13  C   UNL     1     -27.473  -0.063  24.807  1.00  0.00     0.000 C 
BRANCH  13  14
ATOM     14  C   UNL     1     -28.423  -1.134  25.368  1.00  0.00     0.000 C 
BRANCH  14  15
ATOM     15  C   UNL     1     -28.623  -2.309  24.399  1.00  0.00     0.000 C 
BRANCH  15  16
ATOM     16  C   UNL     1     -30.017  -2.310  23.747  1.00  0.00     0.006 C 
BRANCH  16  17
ATOM     17  C   UNL     1     -30.830  -1.062  24.119  1.00  0.00     0.053 C 
BRANCH  17  18
ATOM     18  C   UNL     1     -30.980  -0.131  22.955  1.00  0.00     0.041 C 
ATOM     19  O   UNL     1     -31.613  -0.495  21.929  1.00  0.00    -0.550 OA
ATOM     20  O   UNL     1     -30.450   1.151  23.018  1.00  0.00    -0.550 OA
ENDBRANCH  17  18
ENDBRANCH  16  17
ENDBRANCH  15  16
ENDBRANCH  14  15
ENDBRANCH  13  14
ENDBRANCH  12  13
ENDBRANCH  11  12
ENDBRANCH   1  11
TORSDOF 15
ENDMDL
MODEL 2
REMARK VINA RESULT:    -5.564      2.028      3.300
REMARK INTER + INTRA:         -11.923
REMARK INTER:                 -10.323
REMARK INTRA:                  -1.600
REMARK UNBOUND:                -1.479
REMARK SMILES O=C([O-])CCCCCCCCCCCCCCC(=O)[O-]
REMARK SMILES IDX 10 1 9 2 8 3 7 4 6 5 5 6 4 7 2 8 1 9 3 10 11 11 12 12 13 13
REMARK SMILES IDX 14 14 15 15 16 16 17 17 18 18 19 19 20 20
REMARK H PARENT
REMARK Flexibility Score: inf
ROOT
ATOM      1  C   UNL     1     -29.765  -2.152  21.785  1.00  0.00     0.000 C 
ENDROOT
BRANCH   1   2
ATOM      2  C   UNL     1     -28.358  -2.016  21.178  1.00  0.00     0.000 C 
BRANCH   2   3
ATOM      3  C   UNL     1     -28.282  -0.915  20.108  1.00  0.00     0.000 C 
BRANCH   3   4
ATOM      4  C   UNL     1     -28.033  -1.479  18.699  1.00  0.00     0.000 C 
BRANCH   4   5
ATOM      5  C   UNL     1     -29.033  -2.585  18.312  1.00  0.00     0.000 C 
BRANCH   5   6
ATOM      6  C   UNL     1     -28.837  -3.179  16.905  1.00  0.00     0.006 C 
BRANCH   6   7
ATOM      7  C   UNL     1     -27.909  -2.334  16.022  1.00  0.00     0.053 C 
BRANCH   7   8
ATOM      8  C   UNL     1     -27.186  -3.203  15.042  1.00  0.00     0.041 C 
ATOM      9  O   UNL     1     -27.831  -3.885  14.203  1.00  0.00    -0.550 OA
ATOM     10  O   UNL     1     -25.797  -3.222  15.023  1.00  0.00    -0.550 OA
ENDBRANCH   7   8
ENDBRANCH   6   7
ENDBRANCH   5   6
ENDBRANCH   4   5
ENDBRANCH   3   4
ENDBRANCH   2   3
ENDBRANCH   1   2
BRANCH   1  11
ATOM     11  C   UNL     1     -30.709  -1.010  21.367  1.00  0.00     0.000 C 
BRANCH  11  12
ATOM     12  C   UNL     1     -31.550  -0.401  22.508  1.00  0.00     0.000 C 
BRANCH  12  13
ATOM     13  C   UNL     1     -30.759   0.419  23.544  1.00  0.00     0.000 C 
BRANCH  13  14
ATOM     14  C   UNL     1     -29.661   1.287  22.905  1.00  0.00     0.000 C 
BRANCH  14  15
ATOM     15  C   UNL     1     -28.259   0.943  23.431  1.00  0.00     0.000 C 
BRANCH  15  16
ATOM     16  C   UNL     1     -28.281  -0.167  24.497  1.00  0.00     0.006 C 
BRANCH  16  17
ATOM     17  C   UNL     1     -27.615   0.275  25.807  1.00  0.00     0.053 C 
BRANCH  17  18
ATOM     18  C   UNL     1     -28.625   0.526  26.885  1.00  0.00     0.041 C 
ATOM     19  O   UNL     1     -29.671   1.181  26.633  1.00  0.00    -0.550 OA
ATOM     20  O   UNL     1     -28.427   0.006  28.157  1.00  0.00    -0.550 OA
ENDBRANCH  17  18
ENDBRANCH  16  17
ENDBRANCH  15  16
ENDBRANCH  14  15
ENDBRANCH  13  14
ENDBRANCH  12  13
ENDBRANCH  11  12
ENDBRANCH   1  11
TORSDOF 15
ENDMDL
MODEL 3
REMARK VINA RESULT:    -5.530      1.768      8.294
REMARK INTER + INTRA:         -11.859
REMARK INTER:                 -10.271
REMARK INTRA:                  -1.587
REMARK UNBOUND:                -1.479
REMARK SMILES O=C([O-])CCCCCCCCCCCCCCC(=O)[O-]
REMARK SMILES IDX 10 1 9 2 8 3 7 4 6 5 5 6 4 7 2 8 1 9 3 10 11 11 12 12 13 13
REMARK SMILES IDX 14 14 15 15 16 16 17 17 18 18 19 19 20 20
REMARK H PARENT
REMARK Flexibility Score: inf
ROOT
ATOM      1  C   UNL     1     -30.539   0.430  22.578  1.00  0.00     0.000 C 
ENDROOT
BRANCH   1   2
ATOM      2  C   UNL     1     -29.337   1.251  23.076  1.00  0.00     0.000 C 
BRANCH   2   3
ATOM      3  C   UNL     1     -27.991   0.634  22.666  1.00  0.00     0.000 C 
BRANCH   3   4
ATOM      4  C   UNL     1     -27.069   0.378  23.871  1.00  0.00     0.000 C 
BRANCH   4   5
ATOM      5  C   UNL     1     -27.178  -1.060  24.413  1.00  0.00     0.000 C 
BRANCH   5   6
ATOM      6  C   UNL     1     -28.224  -1.262  25.525  1.00  0.00     0.006 C 
BRANCH   6   7
ATOM      7  C   UNL     1     -28.354  -0.046  26.451  1.00  0.00     0.053 C 
BRANCH   7   8
ATOM      8  C   UNL     1     -29.794   0.300  26.660  1.00  0.00     0.041 C 
ATOM      9  O   UNL     1     -30.692  -0.322  26.035  1.00  0.00    -0.550 OA
ATOM     10  O   UNL     1     -30.148   1.277  27.582  1.00  0.00    -0.550 OA
ENDBRANCH   7   8
ENDBRANCH   6   7
ENDBRANCH   5   6
ENDBRANCH   4   5
ENDBRANCH   3   4
ENDBRANCH   2   3
ENDBRANCH   1   2
BRANCH   1  11
ATOM     11  C   UNL     1     -30.193  -1.051  22.340  1.00  0.00     0.000 C 
BRANCH  11  12
ATOM     12  C   UNL     1     -30.377  -1.545  20.890  1.00  0.00     0.000 C 
BRANCH  12  13
ATOM     13  C   UNL     1     -29.125  -2.161  20.241  1.00  0.00     0.000 C 
BRANCH  13  14
ATOM     14  C   UNL     1     -28.280  -1.128  19.476  1.00  0.00     0.000 C 
BRANCH  14  15
ATOM     15  C   UNL     1     -27.870  -1.620  18.080  1.00  0.00     0.000 C 
BRANCH  15  16
ATOM     16  C   UNL     1     -28.850  -2.658  17.506  1.00  0.00     0.006 C 
BRANCH  16  17
ATOM     17  C   UNL     1     -28.321  -3.304  16.217  1.00  0.00     0.053 C 
BRANCH  17  18
ATOM     18  C   UNL     1     -29.429  -3.880  15.390  1.00  0.00     0.041 C 
ATOM     19  O   UNL     1     -30.423  -3.172  15.080  1.00  0.00    -0.550 OA
ATOM     20  O   UNL     1     -29.346  -5.189  14.933  1.00  0.00    -0.550 OA
ENDBRANCH  17  18
ENDBRANCH  16  17
ENDBRANCH  15  16
ENDBRANCH  14  15
ENDBRANCH  13  14
ENDBRANCH  12  13
ENDBRANCH  11  12
ENDBRANCH   1  11
TORSDOF 15
ENDMDL
MODEL 4
REMARK VINA RESULT:    -5.511      1.820      2.199
REMARK INTER + INTRA:         -11.823
REMARK INTER:                 -10.343
REMARK INTRA:                  -1.480
REMARK UNBOUND:                -1.479
REMARK SMILES O=C([O-])CCCCCCCCCCCCCCC(=O)[O-]
REMARK SMILES IDX 10 1 9 2 8 3 7 4 6 5 5 6 4 7 2 8 1 9 3 10 11 11 12 12 13 13
REMARK SMILES IDX 14 14 15 15 16 16 17 17 18 18 19 19 20 20
REMARK H PARENT
REMARK Flexibility Score: inf
ROOT
ATOM      1  C   UNL     1     -27.112  -1.474  20.654  1.00  0.00     0.000 C 
ENDROOT
BRANCH   1   2
ATOM      2  C   UNL     1     -28.246  -1.131  19.672  1.00  0.00     0.000 C 
BRANCH   2   3
ATOM      3  C   UNL     1     -29.266  -2.272  19.527  1.00  0.00     0.000 C 
BRANCH   3   4
ATOM      4  C   UNL     1     -29.074  -3.072  18.226  1.00  0.00     0.000 C 
BRANCH   4   5
ATOM      5  C   UNL     1     -28.243  -2.313  17.175  1.00  0.00     0.000 C 
BRANCH   5   6
ATOM      6  C   UNL     1     -28.562  -2.667  15.710  1.00  0.00     0.006 C 
BRANCH   6   7
ATOM      7  C   UNL     1     -27.408  -3.390  15.004  1.00  0.00     0.053 C 
BRANCH   7   8
ATOM      8  C   UNL     1     -26.358  -2.411  14.583  1.00  0.00     0.041 C 
ATOM      9  O   UNL     1     -26.683  -1.251  14.218  1.00  0.00    -0.550 OA
ATOM     10  O   UNL     1     -25.016  -2.764  14.639  1.00  0.00    -0.550 OA
ENDBRANCH   7   8
ENDBRANCH   6   7
ENDBRANCH   5   6
ENDBRANCH   4   5
ENDBRANCH   3   4
ENDBRANCH   2   3
ENDBRANCH   1   2
BRANCH   1  11
ATOM     11  C   UNL     1     -27.177  -0.650  21.952  1.00  0.00     0.000 C 
BRANCH  11  12
ATOM     12  C   UNL     1     -27.339  -1.474  23.247  1.00  0.00     0.000 C 
BRANCH  12  13
ATOM     13  C   UNL     1     -28.485  -2.502  23.234  1.00  0.00     0.000 C 
BRANCH  13  14
ATOM     14  C   UNL     1     -29.557  -2.213  24.299  1.00  0.00     0.000 C 
BRANCH  14  15
ATOM     15  C   UNL     1     -30.955  -2.022  23.690  1.00  0.00     0.000 C 
BRANCH  15  16
ATOM     16  C   UNL     1     -30.964  -1.009  22.533  1.00  0.00     0.006 C 
BRANCH  16  17
ATOM     17  C   UNL     1     -31.252   0.419  23.016  1.00  0.00     0.053 C 
BRANCH  17  18
ATOM     18  C   UNL     1     -29.990   1.168  23.318  1.00  0.00     0.041 C 
ATOM     19  O   UNL     1     -29.428   1.851  22.421  1.00  0.00    -0.550 OA
ATOM     20  O   UNL     1     -29.455   1.139  24.599  1.00  0.00    -0.550 OA
ENDBRANCH  17  18
ENDBRANCH  16  17
ENDBRANCH  15  16
ENDBRANCH  14  15
ENDBRANCH  13  14
ENDBRANCH  12  13
ENDBRANCH  11  12
ENDBRANCH   1  11
TORSDOF 15
ENDMDL
MODEL 5
REMARK VINA RESULT:    -5.494      1.238      1.615
REMARK INTER + INTRA:         -11.792
REMARK INTER:                 -10.411
REMARK INTRA:                  -1.380
REMARK UNBOUND:                -1.479
REMARK SMILES O=C([O-])CCCCCCCCCCCCCCC(=O)[O-]
REMARK SMILES IDX 10 1 9 2 8 3 7 4 6 5 5 6 4 7 2 8 1 9 3 10 11 11 12 12 13 13
REMARK SMILES IDX 14 14 15 15 16 16 17 17 18 18 19 19 20 20
REMARK H PARENT
REMARK Flexibility Score: inf
ROOT
ATOM      1  C   UNL     1     -28.378  -0.019  21.518  1.00  0.00     0.000 C 
ENDROOT
BRANCH   1   2
ATOM      2  C   UNL     1     -27.901  -1.190  20.643  1.00  0.00     0.000 C 
BRANCH   2   3
ATOM      3  C   UNL     1     -29.006  -2.230  20.395  1.00  0.00     0.000 C 
BRANCH   3   4
ATOM      4  C   UNL     1     -28.997  -2.766  18.953  1.00  0.00     0.000 C 
BRANCH   4   5
ATOM      5  C   UNL     1     -28.237  -1.849  17.978  1.00  0.00     0.000 C 
BRANCH   5   6
ATOM      6  C   UNL     1     -28.217  -2.326  16.514  1.00  0.00     0.006 C 
BRANCH   6   7
ATOM      7  C   UNL     1     -28.609  -3.801  16.359  1.00  0.00     0.053 C 
BRANCH   7   8
ATOM      8  C   UNL     1     -29.555  -3.974  15.214  1.00  0.00     0.041 C 
ATOM      9  O   UNL     1     -29.718  -5.108  14.692  1.00  0.00    -0.550 OA
ATOM     10  O   UNL     1     -30.294  -2.891  14.753  1.00  0.00    -0.550 OA
ENDBRANCH   7   8
ENDBRANCH   6   7
ENDBRANCH   5   6
ENDBRANCH   4   5
ENDBRANCH   3   4
ENDBRANCH   2   3
ENDBRANCH   1   2
BRANCH   1  11
ATOM     11  C   UNL     1     -27.382   0.335  22.637  1.00  0.00     0.000 C 
BRANCH  11  12
ATOM     12  C   UNL     1     -26.699  -0.871  23.315  1.00  0.00     0.000 C 
BRANCH  12  13
ATOM     13  C   UNL     1     -27.152  -1.158  24.759  1.00  0.00     0.000 C 
BRANCH  13  14
ATOM     14  C   UNL     1     -27.847   0.046  25.416  1.00  0.00     0.000 C 
BRANCH  14  15
ATOM     15  C   UNL     1     -28.818  -0.372  26.531  1.00  0.00     0.000 C 
BRANCH  15  16
ATOM     16  C   UNL     1     -30.284  -0.398  26.062  1.00  0.00     0.006 C 
BRANCH  16  17
ATOM     17  C   UNL     1     -30.449   0.181  24.650  1.00  0.00     0.053 C 
BRANCH  17  18
ATOM     18  C   UNL     1     -30.950  -0.849  23.684  1.00  0.00     0.041 C 
ATOM     19  O   UNL     1     -31.827  -0.546  22.833  1.00  0.00    -0.550 OA
ATOM     20  O   UNL     1     -30.421  -2.133  23.702  1.00  0.00    -0.550 OA
ENDBRANCH  17  18
ENDBRANCH  16  17
ENDBRANCH  15  16
ENDBRANCH  14  15
ENDBRANCH  13  14
ENDBRANCH  12  13
ENDBRANCH  11  12
ENDBRANCH   1  11
TORSDOF 15
ENDMDL
MODEL 6
REMARK VINA RESULT:    -5.492      1.861      2.899
REMARK INTER + INTRA:         -11.787
REMARK INTER:                 -10.416
REMARK INTRA:                  -1.371
REMARK UNBOUND:                -1.479
REMARK SMILES O=C([O-])CCCCCCCCCCCCCCC(=O)[O-]
REMARK SMILES IDX 10 1 9 2 8 3 7 4 6 5 5 6 4 7 2 8 1 9 3 10 11 11 12 12 13 13
REMARK SMILES IDX 14 14 15 15 16 16 17 17 18 18 19 19 20 20
REMARK H PARENT
REMARK Flexibility Score: inf
ROOT
ATOM      1  C   UNL     1     -30.849  -0.694  22.961  1.00  0.00     0.000 C 
ENDROOT
BRANCH   1   2
ATOM      2  C   UNL     1     -30.380  -1.864  22.079  1.00  0.00     0.000 C 
BRANCH   2   3
ATOM      3  C   UNL     1     -29.937  -1.407  20.680  1.00  0.00     0.000 C 
BRANCH   3   4
ATOM      4  C   UNL     1     -28.622  -2.068  20.232  1.00  0.00     0.000 C 
BRANCH   4   5
ATOM      5  C   UNL     1     -28.197  -1.654  18.811  1.00  0.00     0.000 C 
BRANCH   5   6
ATOM      6  C   UNL     1     -28.590  -2.643  17.698  1.00  0.00     0.006 C 
BRANCH   6   7
ATOM      7  C   UNL     1     -28.120  -2.196  16.308  1.00  0.00     0.053 C 
BRANCH   7   8
ATOM      8  C   UNL     1     -28.754  -3.036  15.246  1.00  0.00     0.041 C 
ATOM      9  O   UNL     1     -29.944  -2.823  14.895  1.00  0.00    -0.550 OA
ATOM     10  O   UNL     1     -28.016  -4.025  14.608  1.00  0.00    -0.550 OA
ENDBRANCH   7   8
ENDBRANCH   6   7
ENDBRANCH   5   6
ENDBRANCH   4   5
ENDBRANCH   3   4
ENDBRANCH   2   3
ENDBRANCH   1   2
BRANCH   1  11
ATOM     11  C   UNL     1     -30.239   0.654  22.538  1.00  0.00     0.000 C 
BRANCH  11  12
ATOM     12  C   UNL     1     -29.017   1.111  23.363  1.00  0.00     0.000 C 
BRANCH  12  13
ATOM     13  C   UNL     1     -27.654   0.612  22.851  1.00  0.00     0.000 C 
BRANCH  13  14
ATOM     14  C   UNL     1     -27.233  -0.726  23.481  1.00  0.00     0.000 C 
BRANCH  14  15
ATOM     15  C   UNL     1     -27.125  -0.648  25.012  1.00  0.00     0.000 C 
BRANCH  15  16
ATOM     16  C   UNL     1     -28.393  -1.153  25.722  1.00  0.00     0.006 C 
BRANCH  16  17
ATOM     17  C   UNL     1     -28.660  -0.400  27.033  1.00  0.00     0.053 C 
BRANCH  17  18
ATOM     18  C   UNL     1     -30.005   0.260  27.029  1.00  0.00     0.041 C 
ATOM     19  O   UNL     1     -30.192   1.323  27.677  1.00  0.00    -0.550 OA
ATOM     20  O   UNL     1     -31.041  -0.281  26.279  1.00  0.00    -0.550 OA
ENDBRANCH  17  18
ENDBRANCH  16  17
ENDBRANCH  15  16
ENDBRANCH  14  15
ENDBRANCH  13  14
ENDBRANCH  12  13
ENDBRANCH  11  12
ENDBRANCH   1  11
TORSDOF 15
ENDMDL
MODEL 7
REMARK VINA RESULT:    -5.486      1.917      2.835
REMARK INTER + INTRA:         -11.776
REMARK INTER:                 -10.527
REMARK INTRA:                  -1.249
REMARK UNBOUND:                -1.479
REMARK SMILES O=C([O-])CCCCCCCCCCCCCCC(=O)[O-]
REMARK SMILES IDX 10 1 9 2 8 3 7 4 6 5 5 6 4 7 2 8 1 9 3 10 11 11 12 12 13 13
REMARK SMILES IDX 14 14 15 15 16 16 17 17 18 18 19 19 20 20
REMARK H PARENT
REMARK Flexibility Score: inf
ROOT
ATOM      1  C   UNL     1     -27.298  -1.423  20.347  1.00  0.00     0.000 C 
ENDROOT
BRANCH   1   2
ATOM      2  C   UNL     1     -28.202  -1.291  19.108  1.00  0.00     0.000 C 
BRANCH   2   3
ATOM      3  C   UNL     1     -29.086  -2.529  18.890  1.00  0.00     0.000 C 
BRANCH   3   4
ATOM      4  C   UNL     1     -28.861  -3.178  17.513  1.00  0.00     0.000 C 
BRANCH   4   5
ATOM      5  C   UNL     1     -28.071  -2.276  16.548  1.00  0.00     0.000 C 
BRANCH   5   6
ATOM      6  C   UNL     1     -27.987  -2.787  15.097  1.00  0.00     0.006 C 
BRANCH   6   7
ATOM      7  C   UNL     1     -29.364  -2.971  14.447  1.00  0.00     0.053 C 
BRANCH   7   8
ATOM      8  C   UNL     1     -29.629  -4.420  14.184  1.00  0.00     0.041 C 
ATOM      9  O   UNL     1     -28.677  -5.201  13.925  1.00  0.00    -0.550 OA
ATOM     10  O   UNL     1     -30.923  -4.917  14.273  1.00  0.00    -0.550 OA
ENDBRANCH   7   8
ENDBRANCH   6   7
ENDBRANCH   5   6
ENDBRANCH   4   5
ENDBRANCH   3   4
ENDBRANCH   2   3
ENDBRANCH   1   2
BRANCH   1  11
ATOM     11  C   UNL     1     -28.020  -1.050  21.654  1.00  0.00     0.000 C 
BRANCH  11  12
ATOM     12  C   UNL     1     -28.712  -2.223  22.380  1.00  0.00     0.000 C 
BRANCH  12  13
ATOM     13  C   UNL     1     -30.181  -1.978  22.774  1.00  0.00     0.000 C 
BRANCH  13  14
ATOM     14  C   UNL     1     -30.737  -0.659  22.212  1.00  0.00     0.000 C 
BRANCH  14  15
ATOM     15  C   UNL     1     -31.211   0.299  23.316  1.00  0.00     0.000 C 
BRANCH  15  16
ATOM     16  C   UNL     1     -30.573  -0.010  24.682  1.00  0.00     0.006 C 
BRANCH  16  17
ATOM     17  C   UNL     1     -29.296   0.808  24.922  1.00  0.00     0.053 C 
BRANCH  17  18
ATOM     18  C   UNL     1     -28.332   0.082  25.809  1.00  0.00     0.041 C 
ATOM     19  O   UNL     1     -28.195   0.427  27.013  1.00  0.00    -0.550 OA
ATOM     20  O   UNL     1     -27.612  -0.998  25.316  1.00  0.00    -0.550 OA
ENDBRANCH  17  18
ENDBRANCH  16  17
ENDBRANCH  15  16
ENDBRANCH  14  15
ENDBRANCH  13  14
ENDBRANCH  12  13
ENDBRANCH  11  12
ENDBRANCH   1  11
TORSDOF 15
ENDMDL
MODEL 8
REMARK VINA RESULT:    -5.437      2.076      8.313
REMARK INTER + INTRA:         -11.684
REMARK INTER:                 -10.296
REMARK INTRA:                  -1.389
REMARK UNBOUND:                -1.479
REMARK SMILES O=C([O-])CCCCCCCCCCCCCCC(=O)[O-]
REMARK SMILES IDX 10 1 9 2 8 3 7 4 6 5 5 6 4 7 2 8 1 9 3 10 11 11 12 12 13 13
REMARK SMILES IDX 14 14 15 15 16 16 17 17 18 18 19 19 20 20
REMARK H PARENT
REMARK Flexibility Score: inf
ROOT
ATOM      1  C   UNL     1     -28.853  -2.251  21.676  1.00  0.00     0.000 C 
ENDROOT
BRANCH   1   2
ATOM      2  C   UNL     1     -30.052  -1.949  22.590  1.00  0.00     0.000 C 
BRANCH   2   3
ATOM      3  C   UNL     1     -30.819  -0.689  22.160  1.00  0.00     0.000 C 
BRANCH   3   4
ATOM      4  C   UNL     1     -30.842   0.391  23.256  1.00  0.00     0.000 C 
BRANCH   4   5
ATOM      5  C   UNL     1     -30.517  -0.169  24.653  1.00  0.00     0.000 C 
BRANCH   5   6
ATOM      6  C   UNL     1     -29.296   0.467  25.344  1.00  0.00     0.006 C 
BRANCH   6   7
ATOM      7  C   UNL     1     -28.189  -0.549  25.656  1.00  0.00     0.053 C 
BRANCH   7   8
ATOM      8  C   UNL     1     -27.133  -0.513  24.597  1.00  0.00     0.041 C 
ATOM      9  O   UNL     1     -26.501  -1.559  24.297  1.00  0.00    -0.550 OA
ATOM     10  O   UNL     1     -26.881   0.666  23.907  1.00  0.00    -0.550 OA
ENDBRANCH   7   8
ENDBRANCH   6   7
ENDBRANCH   5   6
ENDBRANCH   4   5
ENDBRANCH   3   4
ENDBRANCH   2   3
ENDBRANCH   1   2
BRANCH   1  11
ATOM     11  C   UNL     1     -28.234  -0.981  21.064  1.00  0.00     0.000 C 
BRANCH  11  12
ATOM     12  C   UNL     1     -28.241  -0.924  19.522  1.00  0.00     0.000 C 
BRANCH  12  13
ATOM     13  C   UNL     1     -28.646  -2.231  18.816  1.00  0.00     0.000 C 
BRANCH  13  14
ATOM     14  C   UNL     1     -28.176  -2.289  17.353  1.00  0.00     0.000 C 
BRANCH  14  15
ATOM     15  C   UNL     1     -28.874  -3.401  16.555  1.00  0.00     0.000 C 
BRANCH  15  16
ATOM     16  C   UNL     1     -28.881  -3.129  15.040  1.00  0.00     0.006 C 
BRANCH  16  17
ATOM     17  C   UNL     1     -27.879  -4.016  14.289  1.00  0.00     0.053 C 
BRANCH  17  18
ATOM     18  C   UNL     1     -26.542  -3.353  14.157  1.00  0.00     0.041 C 
ATOM     19  O   UNL     1     -25.493  -4.047  14.092  1.00  0.00    -0.550 OA
ATOM     20  O   UNL     1     -26.459  -1.970  14.068  1.00  0.00    -0.550 OA
ENDBRANCH  17  18
ENDBRANCH  16  17
ENDBRANCH  15  16
ENDBRANCH  14  15
ENDBRANCH  13  14
ENDBRANCH  12  13
ENDBRANCH  11  12
ENDBRANCH   1  11
TORSDOF 15
ENDMDL
MODEL 9
REMARK VINA RESULT:    -5.432      2.255      3.153
REMARK INTER + INTRA:         -11.675
REMARK INTER:                 -10.378
REMARK INTRA:                  -1.296
REMARK UNBOUND:                -1.479
REMARK SMILES O=C([O-])CCCCCCCCCCCCCCC(=O)[O-]
REMARK SMILES IDX 10 1 9 2 8 3 7 4 6 5 5 6 4 7 2 8 1 9 3 10 11 11 12 12 13 13
REMARK SMILES IDX 14 14 15 15 16 16 17 17 18 18 19 19 20 20
REMARK H PARENT
REMARK Flexibility Score: inf
ROOT
ATOM      1  C   UNL     1     -29.412  -1.790  21.306  1.00  0.00     0.000 C 
ENDROOT
BRANCH   1   2
ATOM      2  C   UNL     1     -29.350  -2.091  19.799  1.00  0.00     0.000 C 
BRANCH   2   3
ATOM      3  C   UNL     1     -28.086  -1.520  19.136  1.00  0.00     0.000 C 
BRANCH   3   4
ATOM      4  C   UNL     1     -28.153  -1.569  17.599  1.00  0.00     0.000 C 
BRANCH   4   5
ATOM      5  C   UNL     1     -28.593  -2.944  17.063  1.00  0.00     0.000 C 
BRANCH   5   6
ATOM      6  C   UNL     1     -28.733  -3.034  15.532  1.00  0.00     0.006 C 
BRANCH   6   7
ATOM      7  C   UNL     1     -27.512  -3.669  14.856  1.00  0.00     0.053 C 
BRANCH   7   8
ATOM      8  C   UNL     1     -26.532  -2.614  14.449  1.00  0.00     0.041 C 
ATOM      9  O   UNL     1     -26.919  -1.433  14.249  1.00  0.00    -0.550 OA
ATOM     10  O   UNL     1     -25.183  -2.925  14.337  1.00  0.00    -0.550 OA
ENDBRANCH   7   8
ENDBRANCH   6   7
ENDBRANCH   5   6
ENDBRANCH   4   5
ENDBRANCH   3   4
ENDBRANCH   2   3
ENDBRANCH   1   2
BRANCH   1  11
ATOM     11  C   UNL     1     -29.019  -0.340  21.642  1.00  0.00     0.000 C 
BRANCH  11  12
ATOM     12  C   UNL     1     -30.032   0.432  22.512  1.00  0.00     0.000 C 
BRANCH  12  13
ATOM     13  C   UNL     1     -31.208  -0.404  23.051  1.00  0.00     0.000 C 
BRANCH  13  14
ATOM     14  C   UNL     1     -30.926  -1.005  24.439  1.00  0.00     0.000 C 
BRANCH  14  15
ATOM     15  C   UNL     1     -30.189  -0.025  25.365  1.00  0.00     0.000 C 
BRANCH  15  16
ATOM     16  C   UNL     1     -28.953  -0.656  26.031  1.00  0.00     0.006 C 
BRANCH  16  17
ATOM     17  C   UNL     1     -27.661  -0.352  25.259  1.00  0.00     0.053 C 
BRANCH  17  18
ATOM     18  C   UNL     1     -27.205  -1.533  24.457  1.00  0.00     0.041 C 
ATOM     19  O   UNL     1     -27.895  -2.585  24.429  1.00  0.00    -0.550 OA
ATOM     20  O   UNL     1     -26.035  -1.456  23.712  1.00  0.00    -0.550 OA
ENDBRANCH  17  18
ENDBRANCH  16  17
ENDBRANCH  15  16
ENDBRANCH  14  15
ENDBRANCH  13  14
ENDBRANCH  12  13
ENDBRANCH  11  12
ENDBRANCH   1  11
TORSDOF 15
ENDMDL
