MODEL 1
REMARK VINA RESULT:    -2.910      0.000      0.000
REMARK INTER + INTRA:          -3.752
REMARK INTER:                  -3.675
REMARK INTRA:                  -0.077
REMARK UNBOUND:                -0.077
REMARK SMILES CCCCCCO
REMARK SMILES IDX 4 1 3 2 2 3 1 4 5 5 6 6 7 7
REMARK H PARENT 7 8
REMARK Flexibility Score: inf
ROOT
ATOM      1  C   UNL     1     -24.925  12.666 -33.073  1.00  0.00     0.002 C 
ENDROOT
BRANCH   1   2
ATOM      2  C   UNL     1     -25.246  12.611 -34.576  1.00  0.00    -0.000 C 
BRANCH   2   3
ATOM      3  C   UNL     1     -26.569  11.889 -34.871  1.00  0.00    -0.003 C 
ATOM      4  C   UNL     1     -27.462  11.851 -33.634  1.00  0.00     0.004 C 
ENDBRANCH   2   3
ENDBRANCH   1   2
BRANCH   1   5
ATOM      5  C   UNL     1     -23.501  12.183 -32.754  1.00  0.00     0.028 C 
BRANCH   5   6
ATOM      6  C   UNL     1     -22.974  12.795 -31.452  1.00  0.00     0.156 C 
BRANCH   6   7
ATOM      7  O   UNL     1     -23.530  12.154 -30.336  1.00  0.00    -0.396 OA
ATOM      8  H   UNL     1     -22.996  12.439 -29.550  1.00  0.00     0.210 HD
ENDBRANCH   6   7
ENDBRANCH   5   6
ENDBRANCH   1   5
TORSDOF 5
ENDMDL
MODEL 2
REMARK VINA RESULT:    -2.804     17.067     17.570
REMARK INTER + INTRA:          -3.619
REMARK INTER:                  -3.526
REMARK INTRA:                  -0.093
REMARK UNBOUND:                -0.077
REMARK SMILES CCCCCCO
REMARK SMILES IDX 4 1 3 2 2 3 1 4 5 5 6 6 7 7
REMARK H PARENT 7 8
REMARK Flexibility Score: inf
ROOT
ATOM      1  C   UNL     1     -29.470  24.051 -20.299  1.00  0.00     0.002 C 
ENDROOT
BRANCH   1   2
ATOM      2  C   UNL     1     -30.383  23.976 -21.533  1.00  0.00    -0.000 C 
BRANCH   2   3
ATOM      3  C   UNL     1     -30.390  25.280 -22.342  1.00  0.00    -0.003 C 
ATOM      4  C   UNL     1     -29.471  26.323 -21.712  1.00  0.00     0.004 C 
ENDBRANCH   2   3
ENDBRANCH   1   2
BRANCH   1   5
ATOM      5  C   UNL     1     -28.473  22.883 -20.229  1.00  0.00     0.028 C 
BRANCH   5   6
ATOM      6  C   UNL     1     -28.443  22.246 -18.835  1.00  0.00     0.156 C 
BRANCH   6   7
ATOM      7  O   UNL     1     -29.065  20.990 -18.844  1.00  0.00    -0.396 OA
ATOM      8  H   UNL     1     -28.781  20.526 -18.014  1.00  0.00     0.210 HD
ENDBRANCH   6   7
ENDBRANCH   5   6
ENDBRANCH   1   5
TORSDOF 5
ENDMDL
MODEL 3
REMARK VINA RESULT:    -2.714     14.565     16.027
REMARK INTER + INTRA:          -3.505
REMARK INTER:                  -3.396
REMARK INTRA:                  -0.109
REMARK UNBOUND:                -0.077
REMARK SMILES CCCCCCO
REMARK SMILES IDX 4 1 3 2 2 3 1 4 5 5 6 6 7 7
REMARK H PARENT 7 8
REMARK Flexibility Score: inf
ROOT
ATOM      1  C   UNL     1     -16.769   8.253 -19.280  1.00  0.00     0.002 C 
ENDROOT
BRANCH   1   2
ATOM      2  C   UNL     1     -16.394   7.954 -20.740  1.00  0.00    -0.000 C 
BRANCH   2   3
ATOM      3  C   UNL     1     -15.609   9.099 -21.395  1.00  0.00    -0.003 C 
ATOM      4  C   UNL     1     -15.663   9.002 -22.917  1.00  0.00     0.004 C 
ENDBRANCH   2   3
ENDBRANCH   1   2
BRANCH   1   5
ATOM      5  C   UNL     1     -16.324   9.654 -18.830  1.00  0.00     0.028 C 
BRANCH   5   6
ATOM      6  C   UNL     1     -17.512  10.503 -18.363  1.00  0.00     0.156 C 
BRANCH   6   7
ATOM      7  O   UNL     1     -18.268   9.819 -17.400  1.00  0.00    -0.396 OA
ATOM      8  H   UNL     1     -18.337  10.422 -16.614  1.00  0.00     0.210 HD
ENDBRANCH   6   7
ENDBRANCH   5   6
ENDBRANCH   1   5
TORSDOF 5
ENDMDL
MODEL 4
REMARK VINA RESULT:    -2.639     14.862     15.635
REMARK INTER + INTRA:          -3.410
REMARK INTER:                  -3.298
REMARK INTRA:                  -0.113
REMARK UNBOUND:                -0.077
REMARK SMILES CCCCCCO
REMARK SMILES IDX 4 1 3 2 2 3 1 4 5 5 6 6 7 7
REMARK H PARENT 7 8
REMARK Flexibility Score: inf
ROOT
ATOM      1  C   UNL     1     -27.289  25.188 -26.403  1.00  0.00     0.002 C 
ENDROOT
BRANCH   1   2
ATOM      2  C   UNL     1     -28.621  25.735 -25.865  1.00  0.00    -0.000 C 
BRANCH   2   3
ATOM      3  C   UNL     1     -28.530  26.171 -24.395  1.00  0.00    -0.003 C 
ATOM      4  C   UNL     1     -27.355  27.121 -24.176  1.00  0.00     0.004 C 
ENDBRANCH   2   3
ENDBRANCH   1   2
BRANCH   1   5
ATOM      5  C   UNL     1     -26.948  25.733 -27.800  1.00  0.00     0.028 C 
BRANCH   5   6
ATOM      6  C   UNL     1     -25.469  26.120 -27.911  1.00  0.00     0.156 C 
BRANCH   6   7
ATOM      7  O   UNL     1     -24.694  25.407 -26.984  1.00  0.00    -0.396 OA
ATOM      8  H   UNL     1     -25.303  25.151 -26.243  1.00  0.00     0.210 HD
ENDBRANCH   6   7
ENDBRANCH   5   6
ENDBRANCH   1   5
TORSDOF 5
ENDMDL
MODEL 5
REMARK VINA RESULT:    -2.616     14.113     15.459
REMARK INTER + INTRA:          -3.381
REMARK INTER:                  -3.330
REMARK INTRA:                  -0.051
REMARK UNBOUND:                -0.077
REMARK SMILES CCCCCCO
REMARK SMILES IDX 4 1 3 2 2 3 1 4 5 5 6 6 7 7
REMARK H PARENT 7 8
REMARK Flexibility Score: inf
ROOT
ATOM      1  C   UNL     1     -16.308   8.188 -20.811  1.00  0.00     0.002 C 
ENDROOT
BRANCH   1   2
ATOM      2  C   UNL     1     -16.098   9.457 -19.969  1.00  0.00    -0.000 C 
BRANCH   2   3
ATOM      3  C   UNL     1     -17.052   9.535 -18.769  1.00  0.00    -0.003 C 
ATOM      4  C   UNL     1     -17.169  10.966 -18.252  1.00  0.00     0.004 C 
ENDBRANCH   2   3
ENDBRANCH   1   2
BRANCH   1   5
ATOM      5  C   UNL     1     -16.597   8.499 -22.289  1.00  0.00     0.028 C 
BRANCH   5   6
ATOM      6  C   UNL     1     -15.329   8.925 -23.036  1.00  0.00     0.156 C 
BRANCH   6   7
ATOM      7  O   UNL     1     -15.628   9.865 -24.034  1.00  0.00    -0.396 OA
ATOM      8  H   UNL     1     -14.801  10.393 -24.182  1.00  0.00     0.210 HD
ENDBRANCH   6   7
ENDBRANCH   5   6
ENDBRANCH   1   5
TORSDOF 5
ENDMDL
MODEL 6
REMARK VINA RESULT:    -2.533     17.727     18.498
REMARK INTER + INTRA:          -3.276
REMARK INTER:                  -3.159
REMARK INTRA:                  -0.118
REMARK UNBOUND:                -0.077
REMARK SMILES CCCCCCO
REMARK SMILES IDX 4 1 3 2 2 3 1 4 5 5 6 6 7 7
REMARK H PARENT 7 8
REMARK Flexibility Score: inf
ROOT
ATOM      1  C   UNL     1     -30.078  25.451 -22.194  1.00  0.00     0.002 C 
ENDROOT
BRANCH   1   2
ATOM      2  C   UNL     1     -29.250  26.459 -21.380  1.00  0.00    -0.000 C 
BRANCH   2   3
ATOM      3  C   UNL     1     -29.851  27.871 -21.401  1.00  0.00    -0.003 C 
ATOM      4  C   UNL     1     -30.899  28.006 -22.502  1.00  0.00     0.004 C 
ENDBRANCH   2   3
ENDBRANCH   1   2
BRANCH   1   5
ATOM      5  C   UNL     1     -30.323  24.137 -21.435  1.00  0.00     0.028 C 
BRANCH   5   6
ATOM      6  C   UNL     1     -29.400  24.006 -20.218  1.00  0.00     0.156 C 
BRANCH   6   7
ATOM      7  O   UNL     1     -29.133  22.658 -19.935  1.00  0.00    -0.396 OA
ATOM      8  H   UNL     1     -28.231  22.629 -19.523  1.00  0.00     0.210 HD
ENDBRANCH   6   7
ENDBRANCH   5   6
ENDBRANCH   1   5
TORSDOF 5
ENDMDL
MODEL 7
REMARK VINA RESULT:    -2.525      3.164      5.906
REMARK INTER + INTRA:          -3.266
REMARK INTER:                  -3.150
REMARK INTRA:                  -0.117
REMARK UNBOUND:                -0.077
REMARK SMILES CCCCCCO
REMARK SMILES IDX 4 1 3 2 2 3 1 4 5 5 6 6 7 7
REMARK H PARENT 7 8
REMARK Flexibility Score: inf
ROOT
ATOM      1  C   UNL     1     -20.890  13.692 -32.338  1.00  0.00     0.002 C 
ENDROOT
BRANCH   1   2
ATOM      2  C   UNL     1     -19.487  13.554 -31.726  1.00  0.00    -0.000 C 
BRANCH   2   3
ATOM      3  C   UNL     1     -19.477  13.804 -30.211  1.00  0.00    -0.003 C 
ATOM      4  C   UNL     1     -18.685  15.063 -29.867  1.00  0.00     0.004 C 
ENDBRANCH   2   3
ENDBRANCH   1   2
BRANCH   1   5
ATOM      5  C   UNL     1     -21.998  13.737 -31.274  1.00  0.00     0.028 C 
BRANCH   5   6
ATOM      6  C   UNL     1     -23.074  12.676 -31.532  1.00  0.00     0.156 C 
BRANCH   6   7
ATOM      7  O   UNL     1     -23.541  12.133 -30.326  1.00  0.00    -0.396 OA
ATOM      8  H   UNL     1     -22.790  11.613 -29.940  1.00  0.00     0.210 HD
ENDBRANCH   6   7
ENDBRANCH   5   6
ENDBRANCH   1   5
TORSDOF 5
ENDMDL
MODEL 8
REMARK VINA RESULT:    -2.524     17.525     18.089
REMARK INTER + INTRA:          -3.265
REMARK INTER:                  -3.129
REMARK INTRA:                  -0.135
REMARK UNBOUND:                -0.077
REMARK SMILES CCCCCCO
REMARK SMILES IDX 4 1 3 2 2 3 1 4 5 5 6 6 7 7
REMARK H PARENT 7 8
REMARK Flexibility Score: inf
ROOT
ATOM      1  C   UNL     1     -30.193  26.867 -22.401  1.00  0.00     0.002 C 
ENDROOT
BRANCH   1   2
ATOM      2  C   UNL     1     -30.652  25.550 -23.047  1.00  0.00    -0.000 C 
BRANCH   2   3
ATOM      3  C   UNL     1     -30.694  24.385 -22.048  1.00  0.00    -0.003 C 
ATOM      4  C   UNL     1     -29.517  24.452 -21.078  1.00  0.00     0.004 C 
ENDBRANCH   2   3
ENDBRANCH   1   2
BRANCH   1   5
ATOM      5  C   UNL     1     -29.158  27.616 -23.256  1.00  0.00     0.028 C 
BRANCH   5   6
ATOM      6  C   UNL     1     -27.725  27.212 -22.893  1.00  0.00     0.156 C 
BRANCH   6   7
ATOM      7  O   UNL     1     -26.810  27.717 -23.828  1.00  0.00    -0.396 OA
ATOM      8  H   UNL     1     -25.943  27.809 -23.354  1.00  0.00     0.210 HD
ENDBRANCH   6   7
ENDBRANCH   5   6
ENDBRANCH   1   5
TORSDOF 5
ENDMDL
MODEL 9
REMARK VINA RESULT:    -2.452     14.829     16.101
REMARK INTER + INTRA:          -3.173
REMARK INTER:                  -3.054
REMARK INTRA:                  -0.120
REMARK UNBOUND:                -0.077
REMARK SMILES CCCCCCO
REMARK SMILES IDX 4 1 3 2 2 3 1 4 5 5 6 6 7 7
REMARK H PARENT 7 8
REMARK Flexibility Score: inf
ROOT
ATOM      1  C   UNL     1     -27.288  22.730 -21.019  1.00  0.00     0.002 C 
ENDROOT
BRANCH   1   2
ATOM      2  C   UNL     1     -28.231  21.873 -20.159  1.00  0.00    -0.000 C 
BRANCH   2   3
ATOM      3  C   UNL     1     -28.337  22.381 -18.714  1.00  0.00    -0.003 C 
ATOM      4  C   UNL     1     -28.021  23.871 -18.631  1.00  0.00     0.004 C 
ENDBRANCH   2   3
ENDBRANCH   1   2
BRANCH   1   5
ATOM      5  C   UNL     1     -26.164  21.904 -21.665  1.00  0.00     0.028 C 
BRANCH   5   6
ATOM      6  C   UNL     1     -26.708  20.649 -22.356  1.00  0.00     0.156 C 
BRANCH   6   7
ATOM      7  O   UNL     1     -26.115  19.492 -21.832  1.00  0.00    -0.396 OA
ATOM      8  H   UNL     1     -26.747  18.747 -22.004  1.00  0.00     0.210 HD
ENDBRANCH   6   7
ENDBRANCH   5   6
ENDBRANCH   1   5
TORSDOF 5
ENDMDL
