MODEL 1
REMARK VINA RESULT:    -4.686      0.000      0.000
REMARK INTER + INTRA:          -5.197
REMARK INTER:                  -4.960
REMARK INTRA:                  -0.236
REMARK UNBOUND:                -0.236
REMARK SMILES C=C1CC[C@@]2(C(C)C)C[C@@H]12
REMARK SMILES IDX 5 1 4 2 3 3 2 4 1 5 10 6 9 7 6 8 7 9 8 10
REMARK H PARENT
REMARK Flexibility Score: inf
ROOT
ATOM      1  C   UNL     1     136.182 135.866 161.927  1.00  0.00    -0.020 C 
ATOM      2  C   UNL     1     137.600 135.468 161.481  1.00  0.00     0.012 C 
ATOM      3  C   UNL     1     138.585 136.294 162.310  1.00  0.00     0.031 C 
ATOM      4  C   UNL     1     137.736 137.069 163.261  1.00  0.00    -0.074 C 
ATOM      5  C   UNL     1     138.237 137.876 164.200  1.00  0.00     0.008 C 
ATOM      6  C   UNL     1     136.276 136.856 163.077  1.00  0.00     0.021 C 
ATOM      7  C   UNL     1     135.767 135.442 163.333  1.00  0.00     0.016 C 
ENDROOT
BRANCH   1   8
ATOM      8  C   UNL     1     135.044 136.103 160.903  1.00  0.00    -0.011 C 
ATOM      9  C   UNL     1     134.875 134.875 160.003  1.00  0.00     0.008 C 
ATOM     10  C   UNL     1     135.294 137.362 160.061  1.00  0.00     0.008 C 
ENDBRANCH   1   8
TORSDOF 1
ENDMDL
MODEL 2
REMARK VINA RESULT:    -4.018     15.272     16.847
REMARK INTER + INTRA:          -4.490
REMARK INTER:                  -5.046
REMARK INTRA:                   0.557
REMARK UNBOUND:                -0.236
REMARK SMILES C=C1CC[C@@]2(C(C)C)C[C@@H]12
REMARK SMILES IDX 5 1 4 2 3 3 2 4 1 5 10 6 9 7 6 8 7 9 8 10
REMARK H PARENT
REMARK Flexibility Score: inf
ROOT
ATOM      1  C   UNL     1     153.506 136.483 162.219  1.00  0.00    -0.020 C 
ATOM      2  C   UNL     1     154.881 137.115 161.937  1.00  0.00     0.012 C 
ATOM      3  C   UNL     1     155.080 138.241 162.953  1.00  0.00     0.031 C 
ATOM      4  C   UNL     1     153.883 138.177 163.840  1.00  0.00    -0.074 C 
ATOM      5  C   UNL     1     153.713 138.974 164.898  1.00  0.00     0.008 C 
ATOM      6  C   UNL     1     152.894 137.139 163.446  1.00  0.00     0.021 C 
ATOM      7  C   UNL     1     153.374 135.694 163.519  1.00  0.00     0.016 C 
ENDROOT
BRANCH   1   8
ATOM      8  C   UNL     1     152.530 136.114 161.074  1.00  0.00    -0.011 C 
ATOM      9  C   UNL     1     151.625 137.304 160.743  1.00  0.00     0.008 C 
ATOM     10  C   UNL     1     151.693 134.875 161.422  1.00  0.00     0.008 C 
ENDBRANCH   1   8
TORSDOF 1
ENDMDL
MODEL 3
REMARK VINA RESULT:    -3.813      1.442      3.031
REMARK INTER + INTRA:          -4.272
REMARK INTER:                  -3.966
REMARK INTRA:                  -0.307
REMARK UNBOUND:                -0.236
REMARK SMILES C=C1CC[C@@]2(C(C)C)C[C@@H]12
REMARK SMILES IDX 5 1 4 2 3 3 2 4 1 5 10 6 9 7 6 8 7 9 8 10
REMARK H PARENT
REMARK Flexibility Score: inf
ROOT
ATOM      1  C   UNL     1     136.865 136.411 162.116  1.00  0.00    -0.020 C 
ATOM      2  C   UNL     1     137.823 137.450 162.727  1.00  0.00     0.012 C 
ATOM      3  C   UNL     1     139.244 136.903 162.573  1.00  0.00     0.031 C 
ATOM      4  C   UNL     1     139.087 135.630 161.812  1.00  0.00    -0.074 C 
ATOM      5  C   UNL     1     140.120 134.875 161.427  1.00  0.00     0.008 C 
ATOM      6  C   UNL     1     137.675 135.277 161.510  1.00  0.00     0.021 C 
ATOM      7  C   UNL     1     136.922 136.241 160.601  1.00  0.00     0.016 C 
ENDROOT
BRANCH   1   8
ATOM      8  C   UNL     1     135.540 136.018 162.815  1.00  0.00    -0.011 C 
ATOM      9  C   UNL     1     134.889 137.250 163.451  1.00  0.00     0.008 C 
ATOM     10  C   UNL     1     135.759 134.918 163.864  1.00  0.00     0.008 C 
ENDBRANCH   1   8
TORSDOF 1
ENDMDL
MODEL 4
REMARK VINA RESULT:    -3.684     14.731     16.980
REMARK INTER + INTRA:          -4.136
REMARK INTER:                  -4.570
REMARK INTRA:                   0.434
REMARK UNBOUND:                -0.236
REMARK SMILES C=C1CC[C@@]2(C(C)C)C[C@@H]12
REMARK SMILES IDX 5 1 4 2 3 3 2 4 1 5 10 6 9 7 6 8 7 9 8 10
REMARK H PARENT
REMARK Flexibility Score: inf
ROOT
ATOM      1  C   UNL     1     153.678 136.529 162.483  1.00  0.00    -0.020 C 
ATOM      2  C   UNL     1     152.841 135.283 162.824  1.00  0.00     0.012 C 
ATOM      3  C   UNL     1     151.622 135.288 161.899  1.00  0.00     0.031 C 
ATOM      4  C   UNL     1     151.824 136.461 161.000  1.00  0.00    -0.074 C 
ATOM      5  C   UNL     1     150.989 136.773 160.005  1.00  0.00     0.008 C 
ATOM      6  C   UNL     1     153.045 137.252 161.306  1.00  0.00     0.021 C 
ATOM      7  C   UNL     1     154.375 136.530 161.125  1.00  0.00     0.016 C 
ENDROOT
BRANCH   1   8
ATOM      8  C   UNL     1     154.299 137.419 163.588  1.00  0.00    -0.011 C 
ATOM      9  C   UNL     1     153.203 137.962 164.510  1.00  0.00     0.008 C 
ATOM     10  C   UNL     1     155.125 138.567 162.992  1.00  0.00     0.008 C 
ENDBRANCH   1   8
TORSDOF 1
ENDMDL
MODEL 5
REMARK VINA RESULT:    -3.574     16.233     17.764
REMARK INTER + INTRA:          -4.019
REMARK INTER:                  -4.551
REMARK INTRA:                   0.533
REMARK UNBOUND:                -0.236
REMARK SMILES C=C1CC[C@@]2(C(C)C)C[C@@H]12
REMARK SMILES IDX 5 1 4 2 3 3 2 4 1 5 10 6 9 7 6 8 7 9 8 10
REMARK H PARENT
REMARK Flexibility Score: inf
ROOT
ATOM      1  C   UNL     1     137.049 154.181 162.445  1.00  0.00    -0.020 C 
ATOM      2  C   UNL     1     138.140 155.125 162.979  1.00  0.00     0.012 C 
ATOM      3  C   UNL     1     139.371 154.946 162.089  1.00  0.00     0.031 C 
ATOM      4  C   UNL     1     138.944 153.991 161.026  1.00  0.00    -0.074 C 
ATOM      5  C   UNL     1     139.732 153.622 160.013  1.00  0.00     0.008 C 
ATOM      6  C   UNL     1     137.553 153.490 161.189  1.00  0.00     0.021 C 
ATOM      7  C   UNL     1     136.448 154.535 161.088  1.00  0.00     0.016 C 
ENDROOT
BRANCH   1   8
ATOM      8  C   UNL     1     136.173 153.329 163.397  1.00  0.00    -0.011 C 
ATOM      9  C   UNL     1     136.966 152.124 163.913  1.00  0.00     0.008 C 
ATOM     10  C   UNL     1     134.875 152.873 162.716  1.00  0.00     0.008 C 
ENDBRANCH   1   8
TORSDOF 1
ENDMDL
MODEL 6
REMARK VINA RESULT:    -3.367      1.043      3.873
REMARK INTER + INTRA:          -3.800
REMARK INTER:                  -3.550
REMARK INTRA:                  -0.249
REMARK UNBOUND:                -0.236
REMARK SMILES C=C1CC[C@@]2(C(C)C)C[C@@H]12
REMARK SMILES IDX 5 1 4 2 3 3 2 4 1 5 10 6 9 7 6 8 7 9 8 10
REMARK H PARENT
REMARK Flexibility Score: inf
ROOT
ATOM      1  C   UNL     1     137.324 136.045 162.483  1.00  0.00    -0.020 C 
ATOM      2  C   UNL     1     136.005 136.066 163.276  1.00  0.00     0.012 C 
ATOM      3  C   UNL     1     134.881 136.356 162.280  1.00  0.00     0.031 C 
ATOM      4  C   UNL     1     135.548 136.405 160.947  1.00  0.00    -0.074 C 
ATOM      5  C   UNL     1     134.884 136.584 159.802  1.00  0.00     0.008 C 
ATOM      6  C   UNL     1     137.023 136.227 161.004  1.00  0.00     0.021 C 
ATOM      7  C   UNL     1     137.517 134.880 161.516  1.00  0.00     0.016 C 
ENDROOT
BRANCH   1   8
ATOM      8  C   UNL     1     138.606 136.731 163.017  1.00  0.00    -0.011 C 
ATOM      9  C   UNL     1     138.430 137.111 164.490  1.00  0.00     0.008 C 
ATOM     10  C   UNL     1     138.979 137.962 162.179  1.00  0.00     0.008 C 
ENDBRANCH   1   8
TORSDOF 1
ENDMDL
MODEL 7
REMARK VINA RESULT:    -3.222     15.888     17.458
REMARK INTER + INTRA:          -3.647
REMARK INTER:                  -4.156
REMARK INTRA:                   0.509
REMARK UNBOUND:                -0.236
REMARK SMILES C=C1CC[C@@]2(C(C)C)C[C@@H]12
REMARK SMILES IDX 5 1 4 2 3 3 2 4 1 5 10 6 9 7 6 8 7 9 8 10
REMARK H PARENT
REMARK Flexibility Score: inf
ROOT
ATOM      1  C   UNL     1     137.236 154.083 162.132  1.00  0.00    -0.020 C 
ATOM      2  C   UNL     1     135.796 153.583 161.925  1.00  0.00     0.012 C 
ATOM      3  C   UNL     1     135.523 152.529 162.999  1.00  0.00     0.031 C 
ATOM      4  C   UNL     1     136.753 152.508 163.842  1.00  0.00    -0.074 C 
ATOM      5  C   UNL     1     136.881 151.744 164.931  1.00  0.00     0.008 C 
ATOM      6  C   UNL     1     137.825 153.422 163.368  1.00  0.00     0.021 C 
ATOM      7  C   UNL     1     137.496 154.910 163.389  1.00  0.00     0.016 C 
ENDROOT
BRANCH   1   8
ATOM      8  C   UNL     1     138.201 154.302 160.940  1.00  0.00    -0.011 C 
ATOM      9  C   UNL     1     138.624 152.955 160.346  1.00  0.00     0.008 C 
ATOM     10  C   UNL     1     139.430 155.125 161.350  1.00  0.00     0.008 C 
ENDBRANCH   1   8
TORSDOF 1
ENDMDL
MODEL 8
REMARK VINA RESULT:    -2.402     15.914     17.430
REMARK INTER + INTRA:          -2.779
REMARK INTER:                  -3.414
REMARK INTRA:                   0.636
REMARK UNBOUND:                -0.236
REMARK SMILES C=C1CC[C@@]2(C(C)C)C[C@@H]12
REMARK SMILES IDX 5 1 4 2 3 3 2 4 1 5 10 6 9 7 6 8 7 9 8 10
REMARK H PARENT
REMARK Flexibility Score: inf
ROOT
ATOM      1  C   UNL     1     137.452 153.411 162.303  1.00  0.00    -0.020 C 
ATOM      2  C   UNL     1     137.873 151.966 161.981  1.00  0.00     0.012 C 
ATOM      3  C   UNL     1     138.842 152.028 160.799  1.00  0.00     0.031 C 
ATOM      4  C   UNL     1     139.026 153.483 160.526  1.00  0.00    -0.074 C 
ATOM      5  C   UNL     1     139.854 153.953 159.589  1.00  0.00     0.008 C 
ATOM      6  C   UNL     1     138.211 154.368 161.399  1.00  0.00     0.021 C 
ATOM      7  C   UNL     1     138.530 154.319 162.889  1.00  0.00     0.016 C 
ENDROOT
BRANCH   1   8
ATOM      8  C   UNL     1     135.981 153.778 162.618  1.00  0.00    -0.011 C 
ATOM      9  C   UNL     1     135.921 154.819 163.740  1.00  0.00     0.008 C 
ATOM     10  C   UNL     1     135.154 152.537 162.984  1.00  0.00     0.008 C 
ENDBRANCH   1   8
TORSDOF 1
ENDMDL
