MODEL 1
REMARK VINA RESULT:    -3.235      0.000      0.000
REMARK INTER + INTRA:          -7.511
REMARK INTER:                  -5.694
REMARK INTRA:                  -1.817
REMARK UNBOUND:                -1.817
REMARK SMILES CCCCCCCCCCCCCCC(=O)[O-]
REMARK SMILES IDX 9 1 10 2 11 3 12 4 13 5 14 6 15 7 16 8 17 9 8 10 7 11 6 12
REMARK SMILES IDX 5 13 4 14 3 15 2 16 1 17
REMARK H PARENT
REMARK Flexibility Score: inf
ROOT
ATOM      1  C   UNL     1      32.042   7.858  -6.747  1.00  0.00     0.000 C 
ENDROOT
BRANCH   1   2
ATOM      2  C   UNL     1      33.037   8.264  -7.840  1.00  0.00     0.000 C 
BRANCH   2   3
ATOM      3  C   UNL     1      34.411   8.596  -7.238  1.00  0.00     0.000 C 
BRANCH   3   4
ATOM      4  C   UNL     1      34.504   8.246  -5.744  1.00  0.00     0.000 C 
BRANCH   4   5
ATOM      5  C   UNL     1      35.794   7.485  -5.393  1.00  0.00     0.006 C 
BRANCH   5   6
ATOM      6  C   UNL     1      35.859   6.111  -6.074  1.00  0.00     0.053 C 
BRANCH   6   7
ATOM      7  C   UNL     1      34.755   5.208  -5.615  1.00  0.00     0.041 C 
ATOM      8  O   UNL     1      34.018   4.630  -6.456  1.00  0.00    -0.550 OA
ATOM      9  O   UNL     1      34.560   4.981  -4.258  1.00  0.00    -0.550 OA
ENDBRANCH   6   7
ENDBRANCH   5   6
ENDBRANCH   4   5
ENDBRANCH   3   4
ENDBRANCH   2   3
ENDBRANCH   1   2
BRANCH   1  10
ATOM     10  C   UNL     1      31.246   6.611  -7.161  1.00  0.00     0.000 C 
BRANCH  10  11
ATOM     11  C   UNL     1      29.730   6.791  -6.989  1.00  0.00    -0.000 C 
BRANCH  11  12
ATOM     12  C   UNL     1      29.182   7.995  -7.775  1.00  0.00    -0.000 C 
BRANCH  12  13
ATOM     13  C   UNL     1      28.592   7.578  -9.140  1.00  0.00    -0.000 C 
BRANCH  13  14
ATOM     14  C   UNL     1      29.488   7.943 -10.335  1.00  0.00    -0.000 C 
BRANCH  14  15
ATOM     15  C   UNL     1      30.208   6.728 -10.937  1.00  0.00    -0.000 C 
BRANCH  15  16
ATOM     16  C   UNL     1      31.727   6.935 -10.941  1.00  0.00    -0.003 C 
ATOM     17  C   UNL     1      32.457   5.666 -10.514  1.00  0.00     0.004 C 
ENDBRANCH  15  16
ENDBRANCH  14  15
ENDBRANCH  13  14
ENDBRANCH  12  13
ENDBRANCH  11  12
ENDBRANCH  10  11
ENDBRANCH   1  10
TORSDOF 13
ENDMDL
MODEL 2
REMARK VINA RESULT:    -3.216      4.833      7.360
REMARK INTER + INTRA:          -7.478
REMARK INTER:                  -5.413
REMARK INTRA:                  -2.065
REMARK UNBOUND:                -1.817
REMARK SMILES CCCCCCCCCCCCCCC(=O)[O-]
REMARK SMILES IDX 9 1 10 2 11 3 12 4 13 5 14 6 15 7 16 8 17 9 8 10 7 11 6 12
REMARK SMILES IDX 5 13 4 14 3 15 2 16 1 17
REMARK H PARENT
REMARK Flexibility Score: inf
ROOT
ATOM      1  C   UNL     1      35.825   2.383  -7.935  1.00  0.00     0.000 C 
ENDROOT
BRANCH   1   2
ATOM      2  C   UNL     1      36.165   0.960  -8.392  1.00  0.00     0.000 C 
BRANCH   2   3
ATOM      3  C   UNL     1      37.588   0.570  -7.966  1.00  0.00     0.000 C 
BRANCH   3   4
ATOM      4  C   UNL     1      38.657   1.044  -8.963  1.00  0.00     0.000 C 
BRANCH   4   5
ATOM      5  C   UNL     1      39.748   1.901  -8.299  1.00  0.00     0.006 C 
BRANCH   5   6
ATOM      6  C   UNL     1      39.531   2.046  -6.787  1.00  0.00     0.053 C 
BRANCH   6   7
ATOM      7  C   UNL     1      40.563   1.298  -6.001  1.00  0.00     0.041 C 
ATOM      8  O   UNL     1      40.212   0.442  -5.147  1.00  0.00    -0.550 OA
ATOM      9  O   UNL     1      41.914   1.525  -6.233  1.00  0.00    -0.550 OA
ENDBRANCH   6   7
ENDBRANCH   5   6
ENDBRANCH   4   5
ENDBRANCH   3   4
ENDBRANCH   2   3
ENDBRANCH   1   2
BRANCH   1  10
ATOM     10  C   UNL     1      35.851   3.364  -9.116  1.00  0.00     0.000 C 
BRANCH  10  11
ATOM     11  C   UNL     1      36.605   4.662  -8.794  1.00  0.00    -0.000 C 
BRANCH  11  12
ATOM     12  C   UNL     1      37.160   4.686  -7.358  1.00  0.00    -0.000 C 
BRANCH  12  13
ATOM     13  C   UNL     1      37.030   6.080  -6.708  1.00  0.00    -0.000 C 
BRANCH  13  14
ATOM     14  C   UNL     1      35.597   6.423  -6.268  1.00  0.00    -0.000 C 
BRANCH  14  15
ATOM     15  C   UNL     1      34.904   5.268  -5.531  1.00  0.00    -0.000 C 
BRANCH  15  16
ATOM     16  C   UNL     1      33.599   4.873  -6.232  1.00  0.00    -0.003 C 
ATOM     17  C   UNL     1      33.291   5.815  -7.392  1.00  0.00     0.004 C 
ENDBRANCH  15  16
ENDBRANCH  14  15
ENDBRANCH  13  14
ENDBRANCH  12  13
ENDBRANCH  11  12
ENDBRANCH  10  11
ENDBRANCH   1  10
TORSDOF 13
ENDMDL
MODEL 3
REMARK VINA RESULT:    -3.214      1.655      2.369
REMARK INTER + INTRA:          -7.473
REMARK INTER:                  -6.172
REMARK INTRA:                  -1.301
REMARK UNBOUND:                -1.817
REMARK SMILES CCCCCCCCCCCCCCC(=O)[O-]
REMARK SMILES IDX 9 1 10 2 11 3 12 4 13 5 14 6 15 7 16 8 17 9 8 10 7 11 6 12
REMARK SMILES IDX 5 13 4 14 3 15 2 16 1 17
REMARK H PARENT
REMARK Flexibility Score: inf
ROOT
ATOM      1  C   UNL     1      29.805   7.327  -6.735  1.00  0.00     0.000 C 
ENDROOT
BRANCH   1   2
ATOM      2  C   UNL     1      31.307   7.588  -6.902  1.00  0.00     0.000 C 
BRANCH   2   3
ATOM      3  C   UNL     1      31.800   7.104  -8.274  1.00  0.00     0.000 C 
BRANCH   3   4
ATOM      4  C   UNL     1      32.821   5.959  -8.166  1.00  0.00     0.000 C 
BRANCH   4   5
ATOM      5  C   UNL     1      32.949   5.413  -6.734  1.00  0.00     0.006 C 
BRANCH   5   6
ATOM      6  C   UNL     1      34.270   4.662  -6.517  1.00  0.00     0.053 C 
BRANCH   6   7
ATOM      7  C   UNL     1      35.143   5.349  -5.511  1.00  0.00     0.041 C 
ATOM      8  O   UNL     1      34.745   5.502  -4.327  1.00  0.00    -0.550 OA
ATOM      9  O   UNL     1      36.408   5.793  -5.875  1.00  0.00    -0.550 OA
ENDBRANCH   6   7
ENDBRANCH   5   6
ENDBRANCH   4   5
ENDBRANCH   3   4
ENDBRANCH   2   3
ENDBRANCH   1   2
BRANCH   1  10
ATOM     10  C   UNL     1      29.108   7.221  -8.099  1.00  0.00     0.000 C 
BRANCH  10  11
ATOM     11  C   UNL     1      28.449   8.538  -8.534  1.00  0.00    -0.000 C 
BRANCH  11  12
ATOM     12  C   UNL     1      27.936   8.495  -9.984  1.00  0.00    -0.000 C 
BRANCH  12  13
ATOM     13  C   UNL     1      28.209   7.132 -10.657  1.00  0.00    -0.000 C 
BRANCH  13  14
ATOM     14  C   UNL     1      29.345   7.174 -11.693  1.00  0.00    -0.000 C 
BRANCH  14  15
ATOM     15  C   UNL     1      30.142   5.864 -11.761  1.00  0.00    -0.000 C 
BRANCH  15  16
ATOM     16  C   UNL     1      31.644   6.141 -11.891  1.00  0.00    -0.003 C 
ATOM     17  C   UNL     1      32.450   4.847 -11.821  1.00  0.00     0.004 C 
ENDBRANCH  15  16
ENDBRANCH  14  15
ENDBRANCH  13  14
ENDBRANCH  12  13
ENDBRANCH  11  12
ENDBRANCH  10  11
ENDBRANCH   1  10
TORSDOF 13
ENDMDL
MODEL 4
REMARK VINA RESULT:    -3.137      1.447      3.005
REMARK INTER + INTRA:          -7.338
REMARK INTER:                  -5.556
REMARK INTRA:                  -1.782
REMARK UNBOUND:                -1.817
REMARK SMILES CCCCCCCCCCCCCCC(=O)[O-]
REMARK SMILES IDX 9 1 10 2 11 3 12 4 13 5 14 6 15 7 16 8 17 9 8 10 7 11 6 12
REMARK SMILES IDX 5 13 4 14 3 15 2 16 1 17
REMARK H PARENT
REMARK Flexibility Score: inf
ROOT
ATOM      1  C   UNL     1      28.956   7.621  -7.908  1.00  0.00     0.000 C 
ENDROOT
BRANCH   1   2
ATOM      2  C   UNL     1      29.882   6.891  -6.927  1.00  0.00     0.000 C 
BRANCH   2   3
ATOM      3  C   UNL     1      31.225   6.549  -7.590  1.00  0.00     0.000 C 
BRANCH   3   4
ATOM      4  C   UNL     1      32.408   7.296  -6.954  1.00  0.00     0.000 C 
BRANCH   4   5
ATOM      5  C   UNL     1      33.726   6.509  -7.050  1.00  0.00     0.006 C 
BRANCH   5   6
ATOM      6  C   UNL     1      33.632   5.136  -6.371  1.00  0.00     0.053 C 
BRANCH   6   7
ATOM      7  C   UNL     1      34.470   5.067  -5.131  1.00  0.00     0.041 C 
ATOM      8  O   UNL     1      34.143   4.301  -4.187  1.00  0.00    -0.550 OA
ATOM      9  O   UNL     1      35.629   5.827  -5.031  1.00  0.00    -0.550 OA
ENDBRANCH   6   7
ENDBRANCH   5   6
ENDBRANCH   4   5
ENDBRANCH   3   4
ENDBRANCH   2   3
ENDBRANCH   1   2
BRANCH   1  10
ATOM     10  C   UNL     1      29.610   7.753  -9.291  1.00  0.00     0.000 C 
BRANCH  10  11
ATOM     11  C   UNL     1      28.721   7.215 -10.422  1.00  0.00    -0.000 C 
BRANCH  11  12
ATOM     12  C   UNL     1      29.507   6.383 -11.450  1.00  0.00    -0.000 C 
BRANCH  12  13
ATOM     13  C   UNL     1      31.025   6.659 -11.383  1.00  0.00    -0.000 C 
BRANCH  13  14
ATOM     14  C   UNL     1      31.875   5.387 -11.226  1.00  0.00    -0.000 C 
BRANCH  14  15
ATOM     15  C   UNL     1      33.271   5.667 -10.650  1.00  0.00    -0.000 C 
BRANCH  15  16
ATOM     16  C   UNL     1      33.603   7.162 -10.718  1.00  0.00    -0.003 C 
ATOM     17  C   UNL     1      35.065   7.418 -10.364  1.00  0.00     0.004 C 
ENDBRANCH  15  16
ENDBRANCH  14  15
ENDBRANCH  13  14
ENDBRANCH  12  13
ENDBRANCH  11  12
ENDBRANCH  10  11
ENDBRANCH   1  10
TORSDOF 13
ENDMDL
MODEL 5
REMARK VINA RESULT:    -3.112      2.064      3.988
REMARK INTER + INTRA:          -7.294
REMARK INTER:                  -5.773
REMARK INTRA:                  -1.521
REMARK UNBOUND:                -1.817
REMARK SMILES CCCCCCCCCCCCCCC(=O)[O-]
REMARK SMILES IDX 9 1 10 2 11 3 12 4 13 5 14 6 15 7 16 8 17 9 8 10 7 11 6 12
REMARK SMILES IDX 5 13 4 14 3 15 2 16 1 17
REMARK H PARENT
REMARK Flexibility Score: inf
ROOT
ATOM      1  C   UNL     1      35.063   5.121  -9.906  1.00  0.00     0.000 C 
ENDROOT
BRANCH   1   2
ATOM      2  C   UNL     1      36.579   4.992 -10.097  1.00  0.00     0.000 C 
BRANCH   2   3
ATOM      3  C   UNL     1      37.252   4.470  -8.819  1.00  0.00     0.000 C 
BRANCH   3   4
ATOM      4  C   UNL     1      37.596   5.594  -7.828  1.00  0.00     0.000 C 
BRANCH   4   5
ATOM      5  C   UNL     1      36.794   5.497  -6.520  1.00  0.00     0.006 C 
BRANCH   5   6
ATOM      6  C   UNL     1      36.248   6.859  -6.073  1.00  0.00     0.053 C 
BRANCH   6   7
ATOM      7  C   UNL     1      35.138   6.716  -5.076  1.00  0.00     0.041 C 
ATOM      8  O   UNL     1      34.980   5.631  -4.456  1.00  0.00    -0.550 OA
ATOM      9  O   UNL     1      34.297   7.789  -4.810  1.00  0.00    -0.550 OA
ENDBRANCH   6   7
ENDBRANCH   5   6
ENDBRANCH   4   5
ENDBRANCH   3   4
ENDBRANCH   2   3
ENDBRANCH   1   2
BRANCH   1  10
ATOM     10  C   UNL     1      34.642   6.596  -9.819  1.00  0.00     0.000 C 
BRANCH  10  11
ATOM     11  C   UNL     1      33.534   6.837  -8.784  1.00  0.00    -0.000 C 
BRANCH  11  12
ATOM     12  C   UNL     1      33.269   5.605  -7.900  1.00  0.00    -0.000 C 
BRANCH  12  13
ATOM     13  C   UNL     1      31.939   5.721  -7.124  1.00  0.00    -0.000 C 
BRANCH  13  14
ATOM     14  C   UNL     1      31.196   7.045  -7.371  1.00  0.00    -0.000 C 
BRANCH  14  15
ATOM     15  C   UNL     1      29.703   6.966  -7.026  1.00  0.00    -0.000 C 
BRANCH  15  16
ATOM     16  C   UNL     1      28.894   7.971  -7.855  1.00  0.00    -0.003 C 
ATOM     17  C   UNL     1      28.700   7.476  -9.285  1.00  0.00     0.004 C 
ENDBRANCH  15  16
ENDBRANCH  14  15
ENDBRANCH  13  14
ENDBRANCH  12  13
ENDBRANCH  11  12
ENDBRANCH  10  11
ENDBRANCH   1  10
TORSDOF 13
ENDMDL
MODEL 6
REMARK VINA RESULT:    -3.104      3.367      5.223
REMARK INTER + INTRA:          -7.280
REMARK INTER:                  -5.699
REMARK INTRA:                  -1.581
REMARK UNBOUND:                -1.817
REMARK SMILES CCCCCCCCCCCCCCC(=O)[O-]
REMARK SMILES IDX 9 1 10 2 11 3 12 4 13 5 14 6 15 7 16 8 17 9 8 10 7 11 6 12
REMARK SMILES IDX 5 13 4 14 3 15 2 16 1 17
REMARK H PARENT
REMARK Flexibility Score: inf
ROOT
ATOM      1  C   UNL     1      34.511   4.490  -6.501  1.00  0.00     0.000 C 
ENDROOT
BRANCH   1   2
ATOM      2  C   UNL     1      35.527   4.644  -7.639  1.00  0.00     0.000 C 
BRANCH   2   3
ATOM      3  C   UNL     1      36.077   3.278  -8.075  1.00  0.00     0.000 C 
BRANCH   3   4
ATOM      4  C   UNL     1      37.612   3.208  -8.007  1.00  0.00     0.000 C 
BRANCH   4   5
ATOM      5  C   UNL     1      38.211   4.254  -7.052  1.00  0.00     0.006 C 
BRANCH   5   6
ATOM      6  C   UNL     1      39.744   4.281  -7.111  1.00  0.00     0.053 C 
BRANCH   6   7
ATOM      7  C   UNL     1      40.341   2.969  -6.699  1.00  0.00     0.041 C 
ATOM      8  O   UNL     1      41.101   2.345  -7.485  1.00  0.00    -0.550 OA
ATOM      9  O   UNL     1      40.083   2.453  -5.435  1.00  0.00    -0.550 OA
ENDBRANCH   6   7
ENDBRANCH   5   6
ENDBRANCH   4   5
ENDBRANCH   3   4
ENDBRANCH   2   3
ENDBRANCH   1   2
BRANCH   1  10
ATOM     10  C   UNL     1      34.826   5.451  -5.345  1.00  0.00     0.000 C 
BRANCH  10  11
ATOM     11  C   UNL     1      35.471   6.761  -5.822  1.00  0.00    -0.000 C 
BRANCH  11  12
ATOM     12  C   UNL     1      34.628   7.999  -5.472  1.00  0.00    -0.000 C 
BRANCH  12  13
ATOM     13  C   UNL     1      33.225   7.948  -6.115  1.00  0.00    -0.000 C 
BRANCH  13  14
ATOM     14  C   UNL     1      33.255   7.898  -7.652  1.00  0.00    -0.000 C 
BRANCH  14  15
ATOM     15  C   UNL     1      32.224   6.923  -8.239  1.00  0.00    -0.000 C 
BRANCH  15  16
ATOM     16  C   UNL     1      31.359   6.307  -7.133  1.00  0.00    -0.003 C 
ATOM     17  C   UNL     1      29.944   6.875  -7.160  1.00  0.00     0.004 C 
ENDBRANCH  15  16
ENDBRANCH  14  15
ENDBRANCH  13  14
ENDBRANCH  12  13
ENDBRANCH  11  12
ENDBRANCH  10  11
ENDBRANCH   1  10
TORSDOF 13
ENDMDL
MODEL 7
REMARK VINA RESULT:    -3.102      3.993      6.222
REMARK INTER + INTRA:          -7.276
REMARK INTER:                  -5.443
REMARK INTRA:                  -1.833
REMARK UNBOUND:                -1.817
REMARK SMILES CCCCCCCCCCCCCCC(=O)[O-]
REMARK SMILES IDX 9 1 10 2 11 3 12 4 13 5 14 6 15 7 16 8 17 9 8 10 7 11 6 12
REMARK SMILES IDX 5 13 4 14 3 15 2 16 1 17
REMARK H PARENT
REMARK Flexibility Score: inf
ROOT
ATOM      1  C   UNL     1      35.904   4.076  -8.900  1.00  0.00     0.000 C 
ENDROOT
BRANCH   1   2
ATOM      2  C   UNL     1      35.796   2.877  -7.950  1.00  0.00     0.000 C 
BRANCH   2   3
ATOM      3  C   UNL     1      36.035   1.558  -8.699  1.00  0.00     0.000 C 
BRANCH   3   4
ATOM      4  C   UNL     1      37.528   1.242  -8.881  1.00  0.00     0.000 C 
BRANCH   4   5
ATOM      5  C   UNL     1      38.320   1.345  -7.566  1.00  0.00     0.006 C 
BRANCH   5   6
ATOM      6  C   UNL     1      39.635   2.117  -7.741  1.00  0.00     0.053 C 
BRANCH   6   7
ATOM      7  C   UNL     1      39.993   2.894  -6.511  1.00  0.00     0.041 C 
ATOM      8  O   UNL     1      40.027   4.152  -6.544  1.00  0.00    -0.550 OA
ATOM      9  O   UNL     1      40.261   2.229  -5.321  1.00  0.00    -0.550 OA
ENDBRANCH   6   7
ENDBRANCH   5   6
ENDBRANCH   4   5
ENDBRANCH   3   4
ENDBRANCH   2   3
ENDBRANCH   1   2
BRANCH   1  10
ATOM     10  C   UNL     1      36.790   5.178  -8.301  1.00  0.00     0.000 C 
BRANCH  10  11
ATOM     11  C   UNL     1      36.831   5.137  -6.766  1.00  0.00    -0.000 C 
BRANCH  11  12
ATOM     12  C   UNL     1      35.958   6.227  -6.120  1.00  0.00    -0.000 C 
BRANCH  12  13
ATOM     13  C   UNL     1      34.770   5.630  -5.335  1.00  0.00    -0.000 C 
BRANCH  13  14
ATOM     14  C   UNL     1      33.600   5.187  -6.231  1.00  0.00    -0.000 C 
BRANCH  14  15
ATOM     15  C   UNL     1      32.828   6.369  -6.834  1.00  0.00    -0.000 C 
BRANCH  15  16
ATOM     16  C   UNL     1      32.369   6.054  -8.263  1.00  0.00    -0.003 C 
ATOM     17  C   UNL     1      33.322   6.655  -9.292  1.00  0.00     0.004 C 
ENDBRANCH  15  16
ENDBRANCH  14  15
ENDBRANCH  13  14
ENDBRANCH  12  13
ENDBRANCH  11  12
ENDBRANCH  10  11
ENDBRANCH   1  10
TORSDOF 13
ENDMDL
MODEL 8
REMARK VINA RESULT:    -3.085     12.512     15.110
REMARK INTER + INTRA:          -7.247
REMARK INTER:                  -4.971
REMARK INTRA:                  -2.276
REMARK UNBOUND:                -1.817
REMARK SMILES CCCCCCCCCCCCCCC(=O)[O-]
REMARK SMILES IDX 9 1 10 2 11 3 12 4 13 5 14 6 15 7 16 8 17 9 8 10 7 11 6 12
REMARK SMILES IDX 5 13 4 14 3 15 2 16 1 17
REMARK H PARENT
REMARK Flexibility Score: inf
ROOT
ATOM      1  C   UNL     1      39.986   2.713   2.660  1.00  0.00     0.000 C 
ENDROOT
BRANCH   1   2
ATOM      2  C   UNL     1      38.997   2.280   3.749  1.00  0.00     0.000 C 
BRANCH   2   3
ATOM      3  C   UNL     1      38.181   1.059   3.296  1.00  0.00     0.000 C 
BRANCH   3   4
ATOM      4  C   UNL     1      38.099   0.935   1.766  1.00  0.00     0.000 C 
BRANCH   4   5
ATOM      5  C   UNL     1      37.229  -0.250   1.314  1.00  0.00     0.006 C 
BRANCH   5   6
ATOM      6  C   UNL     1      38.067  -1.395   0.730  1.00  0.00     0.053 C 
BRANCH   6   7
ATOM      7  C   UNL     1      38.162  -1.311  -0.763  1.00  0.00     0.041 C 
ATOM      8  O   UNL     1      37.327  -1.915  -1.486  1.00  0.00    -0.550 OA
ATOM      9  O   UNL     1      39.155  -0.541  -1.356  1.00  0.00    -0.550 OA
ENDBRANCH   6   7
ENDBRANCH   5   6
ENDBRANCH   4   5
ENDBRANCH   3   4
ENDBRANCH   2   3
ENDBRANCH   1   2
BRANCH   1  10
ATOM     10  C   UNL     1      41.425   2.727   3.196  1.00  0.00     0.000 C 
BRANCH  10  11
ATOM     11  C   UNL     1      41.520   2.266   4.658  1.00  0.00    -0.000 C 
BRANCH  11  12
ATOM     12  C   UNL     1      42.846   1.550   4.970  1.00  0.00    -0.000 C 
BRANCH  12  13
ATOM     13  C   UNL     1      42.873   0.109   4.417  1.00  0.00    -0.000 C 
BRANCH  13  14
ATOM     14  C   UNL     1      41.523  -0.620   4.534  1.00  0.00    -0.000 C 
BRANCH  14  15
ATOM     15  C   UNL     1      41.023  -1.172   3.192  1.00  0.00    -0.000 C 
BRANCH  15  16
ATOM     16  C   UNL     1      42.090  -1.019   2.102  1.00  0.00    -0.003 C 
ATOM     17  C   UNL     1      41.550  -0.236   0.909  1.00  0.00     0.004 C 
ENDBRANCH  15  16
ENDBRANCH  14  15
ENDBRANCH  13  14
ENDBRANCH  12  13
ENDBRANCH  11  12
ENDBRANCH  10  11
ENDBRANCH   1  10
TORSDOF 13
ENDMDL
MODEL 9
REMARK VINA RESULT:    -3.071      4.585      7.692
REMARK INTER + INTRA:          -7.223
REMARK INTER:                  -5.244
REMARK INTRA:                  -1.979
REMARK UNBOUND:                -1.817
REMARK SMILES CCCCCCCCCCCCCCC(=O)[O-]
REMARK SMILES IDX 9 1 10 2 11 3 12 4 13 5 14 6 15 7 16 8 17 9 8 10 7 11 6 12
REMARK SMILES IDX 5 13 4 14 3 15 2 16 1 17
REMARK H PARENT
REMARK Flexibility Score: inf
ROOT
ATOM      1  C   UNL     1      40.479   2.691  -8.023  1.00  0.00     0.000 C 
ENDROOT
BRANCH   1   2
ATOM      2  C   UNL     1      39.801   3.462  -6.884  1.00  0.00     0.000 C 
BRANCH   2   3
ATOM      3  C   UNL     1      39.045   4.686  -7.422  1.00  0.00     0.000 C 
BRANCH   3   4
ATOM      4  C   UNL     1      37.641   4.831  -6.813  1.00  0.00     0.000 C 
BRANCH   4   5
ATOM      5  C   UNL     1      37.026   6.218  -7.062  1.00  0.00     0.006 C 
BRANCH   5   6
ATOM      6  C   UNL     1      35.493   6.174  -7.109  1.00  0.00     0.053 C 
BRANCH   6   7
ATOM      7  C   UNL     1      34.917   5.513  -5.893  1.00  0.00     0.041 C 
ATOM      8  O   UNL     1      34.198   4.487  -6.010  1.00  0.00    -0.550 OA
ATOM      9  O   UNL     1      35.201   6.014  -4.628  1.00  0.00    -0.550 OA
ENDBRANCH   6   7
ENDBRANCH   5   6
ENDBRANCH   4   5
ENDBRANCH   3   4
ENDBRANCH   2   3
ENDBRANCH   1   2
BRANCH   1  10
ATOM     10  C   UNL     1      40.296   1.177  -7.850  1.00  0.00     0.000 C 
BRANCH  10  11
ATOM     11  C   UNL     1      39.269   0.823  -6.764  1.00  0.00    -0.000 C 
BRANCH  11  12
ATOM     12  C   UNL     1      38.471  -0.450  -7.094  1.00  0.00    -0.000 C 
BRANCH  12  13
ATOM     13  C   UNL     1      36.959  -0.168  -7.235  1.00  0.00    -0.000 C 
BRANCH  13  14
ATOM     14  C   UNL     1      36.599   0.643  -8.491  1.00  0.00    -0.000 C 
BRANCH  14  15
ATOM     15  C   UNL     1      35.846   1.942  -8.169  1.00  0.00    -0.000 C 
BRANCH  15  16
ATOM     16  C   UNL     1      35.953   2.941  -9.327  1.00  0.00    -0.003 C 
ATOM     17  C   UNL     1      37.258   2.755 -10.095  1.00  0.00     0.004 C 
ENDBRANCH  15  16
ENDBRANCH  14  15
ENDBRANCH  13  14
ENDBRANCH  12  13
ENDBRANCH  11  12
ENDBRANCH  10  11
ENDBRANCH   1  10
TORSDOF 13
ENDMDL
