MODEL 1
REMARK VINA RESULT:    -3.627      0.000      0.000
REMARK INTER + INTRA:          -4.584
REMARK INTER:                  -4.369
REMARK INTRA:                  -0.215
REMARK UNBOUND:                -0.215
REMARK SMILES OCC(O)CO
REMARK SMILES IDX 3 1 5 2 6 3 2 5 1 6 4 8
REMARK H PARENT 6 4 1 7 4 9
REMARK Flexibility Score: inf
ROOT
ATOM      1  C   UNL     1      22.651   6.345  35.690  1.00  0.00     0.165 C 
ENDROOT
BRANCH   1   2
ATOM      2  C   UNL     1      21.471   5.364  35.713  1.00  0.00     0.190 C 
BRANCH   2   3
ATOM      3  O   UNL     1      20.954   5.200  34.420  1.00  0.00    -0.394 OA
ATOM      4  H   UNL     1      20.334   5.961  34.274  1.00  0.00     0.210 HD
ENDBRANCH   2   3
ENDBRANCH   1   2
BRANCH   1   5
ATOM      5  C   UNL     1      22.169   7.785  35.468  1.00  0.00     0.190 C 
BRANCH   5   6
ATOM      6  O   UNL     1      20.768   7.835  35.446  1.00  0.00    -0.394 OA
ATOM      7  H   UNL     1      20.462   7.027  34.957  1.00  0.00     0.210 HD
ENDBRANCH   5   6
ENDBRANCH   1   5
BRANCH   1   8
ATOM      8  O   UNL     1      23.344   6.276  36.909  1.00  0.00    -0.388 OA
ATOM      9  H   UNL     1      24.227   6.706  36.763  1.00  0.00     0.211 HD
ENDBRANCH   1   8
TORSDOF 5
ENDMDL
MODEL 2
REMARK VINA RESULT:    -3.623      1.171      2.932
REMARK INTER + INTRA:          -4.580
REMARK INTER:                  -4.449
REMARK INTRA:                  -0.130
REMARK UNBOUND:                -0.215
REMARK SMILES OCC(O)CO
REMARK SMILES IDX 3 1 5 2 6 3 2 5 1 6 4 8
REMARK H PARENT 6 4 1 7 4 9
REMARK Flexibility Score: inf
ROOT
ATOM      1  C   UNL     1      22.295   6.307  35.264  1.00  0.00     0.165 C 
ENDROOT
BRANCH   1   2
ATOM      2  C   UNL     1      21.972   7.788  35.505  1.00  0.00     0.190 C 
BRANCH   2   3
ATOM      3  O   UNL     1      22.875   8.599  34.804  1.00  0.00    -0.394 OA
ATOM      4  H   UNL     1      23.441   7.982  34.270  1.00  0.00     0.210 HD
ENDBRANCH   2   3
ENDBRANCH   1   2
BRANCH   1   5
ATOM      5  C   UNL     1      22.886   5.657  36.523  1.00  0.00     0.190 C 
BRANCH   5   6
ATOM      6  O   UNL     1      23.877   6.479  37.079  1.00  0.00    -0.394 OA
ATOM      7  H   UNL     1      24.260   7.009  36.331  1.00  0.00     0.210 HD
ENDBRANCH   5   6
ENDBRANCH   1   5
BRANCH   1   8
ATOM      8  O   UNL     1      21.123   5.622  34.903  1.00  0.00    -0.388 OA
ATOM      9  H   UNL     1      20.562   6.263  34.393  1.00  0.00     0.211 HD
ENDBRANCH   1   8
TORSDOF 5
ENDMDL
MODEL 3
REMARK VINA RESULT:    -3.594      1.299      2.559
REMARK INTER + INTRA:          -4.545
REMARK INTER:                  -4.322
REMARK INTRA:                  -0.223
REMARK UNBOUND:                -0.215
REMARK SMILES OCC(O)CO
REMARK SMILES IDX 3 1 5 2 6 3 2 5 1 6 4 8
REMARK H PARENT 6 4 1 7 4 9
REMARK Flexibility Score: inf
ROOT
ATOM      1  C   UNL     1      22.684   6.397  35.169  1.00  0.00     0.165 C 
ENDROOT
BRANCH   1   2
ATOM      2  C   UNL     1      22.166   7.804  35.496  1.00  0.00     0.190 C 
BRANCH   2   3
ATOM      3  O   UNL     1      20.765   7.829  35.435  1.00  0.00    -0.394 OA
ATOM      4  H   UNL     1      20.514   7.252  34.667  1.00  0.00     0.210 HD
ENDBRANCH   2   3
ENDBRANCH   1   2
BRANCH   1   5
ATOM      5  C   UNL     1      21.624   5.331  35.479  1.00  0.00     0.190 C 
BRANCH   5   6
ATOM      6  O   UNL     1      20.794   5.128  34.366  1.00  0.00    -0.394 OA
ATOM      7  H   UNL     1      19.995   4.638  34.694  1.00  0.00     0.210 HD
ENDBRANCH   5   6
ENDBRANCH   1   5
BRANCH   1   8
ATOM      8  O   UNL     1      23.022   6.325  33.808  1.00  0.00    -0.388 OA
ATOM      9  H   UNL     1      23.983   6.078  33.763  1.00  0.00     0.211 HD
ENDBRANCH   1   8
TORSDOF 5
ENDMDL
MODEL 4
REMARK VINA RESULT:    -3.552      1.345      2.354
REMARK INTER + INTRA:          -4.494
REMARK INTER:                  -4.331
REMARK INTRA:                  -0.163
REMARK UNBOUND:                -0.215
REMARK SMILES OCC(O)CO
REMARK SMILES IDX 3 1 5 2 6 3 2 5 1 6 4 8
REMARK H PARENT 6 4 1 7 4 9
REMARK Flexibility Score: inf
ROOT
ATOM      1  C   UNL     1      22.099   6.241  35.426  1.00  0.00     0.165 C 
ENDROOT
BRANCH   1   2
ATOM      2  C   UNL     1      22.931   5.622  36.558  1.00  0.00     0.190 C 
BRANCH   2   3
ATOM      3  O   UNL     1      23.852   6.559  37.048  1.00  0.00    -0.394 OA
ATOM      4  H   UNL     1      23.607   7.427  36.633  1.00  0.00     0.210 HD
ENDBRANCH   2   3
ENDBRANCH   1   2
BRANCH   1   5
ATOM      5  C   UNL     1      21.949   7.757  35.614  1.00  0.00     0.190 C 
BRANCH   5   6
ATOM      6  O   UNL     1      22.757   8.447  34.699  1.00  0.00    -0.394 OA
ATOM      7  H   UNL     1      23.677   8.441  35.072  1.00  0.00     0.210 HD
ENDBRANCH   5   6
ENDBRANCH   1   5
BRANCH   1   8
ATOM      8  O   UNL     1      22.723   5.992  34.193  1.00  0.00    -0.388 OA
ATOM      9  H   UNL     1      23.425   6.685  34.081  1.00  0.00     0.211 HD
ENDBRANCH   1   8
TORSDOF 5
ENDMDL
MODEL 5
REMARK VINA RESULT:    -3.373     19.933     20.514
REMARK INTER + INTRA:          -4.279
REMARK INTER:                  -4.264
REMARK INTRA:                  -0.015
REMARK UNBOUND:                -0.215
REMARK SMILES OCC(O)CO
REMARK SMILES IDX 3 1 5 2 6 3 2 5 1 6 4 8
REMARK H PARENT 6 4 1 7 4 9
REMARK Flexibility Score: inf
ROOT
ATOM      1  C   UNL     1      38.207   1.303  46.163  1.00  0.00     0.165 C 
ENDROOT
BRANCH   1   2
ATOM      2  C   UNL     1      38.953   0.951  44.869  1.00  0.00     0.190 C 
BRANCH   2   3
ATOM      3  O   UNL     1      39.799  -0.147  45.083  1.00  0.00    -0.394 OA
ATOM      4  H   UNL     1      39.673  -0.409  46.032  1.00  0.00     0.210 HD
ENDBRANCH   2   3
ENDBRANCH   1   2
BRANCH   1   5
ATOM      5  C   UNL     1      36.949   0.439  46.329  1.00  0.00     0.190 C 
BRANCH   5   6
ATOM      6  O   UNL     1      36.874  -0.071  47.633  1.00  0.00    -0.394 OA
ATOM      7  H   UNL     1      36.403   0.612  48.179  1.00  0.00     0.210 HD
ENDBRANCH   5   6
ENDBRANCH   1   5
BRANCH   1   8
ATOM      8  O   UNL     1      39.052   1.099  47.265  1.00  0.00    -0.388 OA
ATOM      9  H   UNL     1      39.735   1.819  47.241  1.00  0.00     0.211 HD
ENDBRANCH   1   8
TORSDOF 5
ENDMDL
MODEL 6
REMARK VINA RESULT:    -3.322      3.982      5.099
REMARK INTER + INTRA:          -4.218
REMARK INTER:                  -4.008
REMARK INTRA:                  -0.210
REMARK UNBOUND:                -0.215
REMARK SMILES OCC(O)CO
REMARK SMILES IDX 3 1 5 2 6 3 2 5 1 6 4 8
REMARK H PARENT 6 4 1 7 4 9
REMARK Flexibility Score: inf
ROOT
ATOM      1  C   UNL     1      24.078   4.808  38.753  1.00  0.00     0.165 C 
ENDROOT
BRANCH   1   2
ATOM      2  C   UNL     1      24.708   5.139  40.114  1.00  0.00     0.190 C 
BRANCH   2   3
ATOM      3  O   UNL     1      24.520   6.495  40.415  1.00  0.00    -0.394 OA
ATOM      4  H   UNL     1      23.911   6.521  41.199  1.00  0.00     0.210 HD
ENDBRANCH   2   3
ENDBRANCH   1   2
BRANCH   1   5
ATOM      5  C   UNL     1      22.625   4.341  38.915  1.00  0.00     0.190 C 
BRANCH   5   6
ATOM      6  O   UNL     1      22.208   4.487  40.246  1.00  0.00    -0.394 OA
ATOM      7  H   UNL     1      23.031   4.593  40.791  1.00  0.00     0.210 HD
ENDBRANCH   5   6
ENDBRANCH   1   5
BRANCH   1   8
ATOM      8  O   UNL     1      24.105   5.947  37.933  1.00  0.00    -0.388 OA
ATOM      9  H   UNL     1      25.041   6.278  37.930  1.00  0.00     0.211 HD
ENDBRANCH   1   8
TORSDOF 5
ENDMDL
MODEL 7
REMARK VINA RESULT:    -3.322      3.695      4.844
REMARK INTER + INTRA:          -4.217
REMARK INTER:                  -4.023
REMARK INTRA:                  -0.194
REMARK UNBOUND:                -0.215
REMARK SMILES OCC(O)CO
REMARK SMILES IDX 3 1 5 2 6 3 2 5 1 6 4 8
REMARK H PARENT 6 4 1 7 4 9
REMARK Flexibility Score: inf
ROOT
ATOM      1  C   UNL     1      23.296   4.254  39.294  1.00  0.00     0.165 C 
ENDROOT
BRANCH   1   2
ATOM      2  C   UNL     1      23.159   4.905  37.911  1.00  0.00     0.190 C 
BRANCH   2   3
ATOM      3  O   UNL     1      24.071   5.963  37.783  1.00  0.00    -0.394 OA
ATOM      4  H   UNL     1      24.971   5.567  37.918  1.00  0.00     0.210 HD
ENDBRANCH   2   3
ENDBRANCH   1   2
BRANCH   1   5
ATOM      5  C   UNL     1      24.455   4.875  40.086  1.00  0.00     0.190 C 
BRANCH   5   6
ATOM      6  O   UNL     1      23.987   5.910  40.908  1.00  0.00    -0.394 OA
ATOM      7  H   UNL     1      24.076   5.592  41.845  1.00  0.00     0.210 HD
ENDBRANCH   5   6
ENDBRANCH   1   5
BRANCH   1   8
ATOM      8  O   UNL     1      22.104   4.425  40.016  1.00  0.00    -0.388 OA
ATOM      9  H   UNL     1      22.134   3.788  40.776  1.00  0.00     0.211 HD
ENDBRANCH   1   8
TORSDOF 5
ENDMDL
MODEL 8
REMARK VINA RESULT:    -3.305     19.299     20.169
REMARK INTER + INTRA:          -4.196
REMARK INTER:                  -4.187
REMARK INTRA:                  -0.009
REMARK UNBOUND:                -0.215
REMARK SMILES OCC(O)CO
REMARK SMILES IDX 3 1 5 2 6 3 2 5 1 6 4 8
REMARK H PARENT 6 4 1 7 4 9
REMARK Flexibility Score: inf
ROOT
ATOM      1  C   UNL     1      36.964   0.688  46.478  1.00  0.00     0.165 C 
ENDROOT
BRANCH   1   2
ATOM      2  C   UNL     1      38.391   1.222  46.294  1.00  0.00     0.190 C 
BRANCH   2   3
ATOM      3  O   UNL     1      39.109   1.100  47.492  1.00  0.00    -0.394 OA
ATOM      4  H   UNL     1      39.122   2.006  47.898  1.00  0.00     0.210 HD
ENDBRANCH   2   3
ENDBRANCH   1   2
BRANCH   1   5
ATOM      5  C   UNL     1      36.563  -0.232  45.315  1.00  0.00     0.190 C 
BRANCH   5   6
ATOM      6  O   UNL     1      36.705  -1.577  45.684  1.00  0.00    -0.394 OA
ATOM      7  H   UNL     1      35.818  -2.003  45.553  1.00  0.00     0.210 HD
ENDBRANCH   5   6
ENDBRANCH   1   5
BRANCH   1   8
ATOM      8  O   UNL     1      36.881  -0.032  47.681  1.00  0.00    -0.388 OA
ATOM      9  H   UNL     1      37.025   0.619  48.416  1.00  0.00     0.211 HD
ENDBRANCH   1   8
TORSDOF 5
ENDMDL
MODEL 9
REMARK VINA RESULT:    -3.303      1.451      2.220
REMARK INTER + INTRA:          -4.194
REMARK INTER:                  -3.993
REMARK INTRA:                  -0.201
REMARK UNBOUND:                -0.215
REMARK SMILES OCC(O)CO
REMARK SMILES IDX 3 1 5 2 6 3 2 5 1 6 4 8
REMARK H PARENT 6 4 1 7 4 9
REMARK Flexibility Score: inf
ROOT
ATOM      1  C   UNL     1      22.804   6.355  35.845  1.00  0.00     0.165 C 
ENDROOT
BRANCH   1   2
ATOM      2  C   UNL     1      23.405   5.527  36.990  1.00  0.00     0.190 C 
BRANCH   2   3
ATOM      3  O   UNL     1      22.435   5.290  37.974  1.00  0.00    -0.394 OA
ATOM      4  H   UNL     1      21.569   5.219  37.494  1.00  0.00     0.210 HD
ENDBRANCH   2   3
ENDBRANCH   1   2
BRANCH   1   5
ATOM      5  C   UNL     1      21.423   5.821  35.442  1.00  0.00     0.190 C 
BRANCH   5   6
ATOM      6  O   UNL     1      20.409   6.596  36.025  1.00  0.00    -0.394 OA
ATOM      7  H   UNL     1      20.549   7.528  35.713  1.00  0.00     0.210 HD
ENDBRANCH   5   6
ENDBRANCH   1   5
BRANCH   1   8
ATOM      8  O   UNL     1      22.679   7.694  36.248  1.00  0.00    -0.388 OA
ATOM      9  H   UNL     1      22.091   8.140  35.583  1.00  0.00     0.211 HD
ENDBRANCH   1   8
TORSDOF 5
ENDMDL
