MODEL 1
REMARK VINA RESULT:    -4.786      0.000      0.000
REMARK INTER + INTRA:         -10.162
REMARK INTER:                  -8.702
REMARK INTRA:                  -1.460
REMARK UNBOUND:                -1.460
REMARK SMILES CCCCCCCCCCCCCC[C@H](C)C(=O)[O-]
REMARK SMILES IDX 9 1 10 2 11 3 12 4 13 5 14 6 15 7 16 8 17 9 18 10 19 11 8 12
REMARK SMILES IDX 7 13 6 14 5 15 4 16 3 17 2 18 1 19
REMARK H PARENT
REMARK Flexibility Score: inf
ROOT
ATOM      1  C   UNL     1      46.753   7.179  18.978  1.00  0.00     0.000 C 
ENDROOT
BRANCH   1   2
ATOM      2  C   UNL     1      46.405   7.535  20.431  1.00  0.00     0.000 C 
BRANCH   2   3
ATOM      3  C   UNL     1      47.364   6.882  21.442  1.00  0.00     0.000 C 
BRANCH   3   4
ATOM      4  C   UNL     1      47.812   7.855  22.548  1.00  0.00     0.000 C 
BRANCH   4   5
ATOM      5  C   UNL     1      46.792   8.960  22.890  1.00  0.00     0.001 C 
BRANCH   5   6
ATOM      6  C   UNL     1      45.725   8.525  23.921  1.00  0.00     0.009 C 
BRANCH   6   7
ATOM      7  C   UNL     1      44.284   8.905  23.508  1.00  0.00     0.032 C 
ATOM      8  C   UNL     1      44.267   9.871  22.314  1.00  0.00     0.014 C 
BRANCH   7   9
ATOM      9  C   UNL     1      43.553   9.522  24.668  1.00  0.00     0.044 C 
ATOM     10  O   UNL     1      42.294   9.515  24.708  1.00  0.00    -0.550 OA
ATOM     11  O   UNL     1      44.268  10.102  25.708  1.00  0.00    -0.550 OA
ENDBRANCH   7   9
ENDBRANCH   6   7
ENDBRANCH   5   6
ENDBRANCH   4   5
ENDBRANCH   3   4
ENDBRANCH   2   3
ENDBRANCH   1   2
BRANCH   1  12
ATOM     12  C   UNL     1      46.180   8.182  17.966  1.00  0.00     0.000 C 
BRANCH  12  13
ATOM     13  C   UNL     1      44.650   8.088  17.906  1.00  0.00    -0.000 C 
BRANCH  13  14
ATOM     14  C   UNL     1      44.101   8.829  16.681  1.00  0.00    -0.000 C 
BRANCH  14  15
ATOM     15  C   UNL     1      44.424   8.067  15.388  1.00  0.00    -0.000 C 
BRANCH  15  16
ATOM     16  C   UNL     1      44.208   6.547  15.515  1.00  0.00    -0.000 C 
BRANCH  16  17
ATOM     17  C   UNL     1      45.156   5.682  14.664  1.00  0.00    -0.000 C 
BRANCH  17  18
ATOM     18  C   UNL     1      46.610   6.178  14.697  1.00  0.00    -0.003 C 
ATOM     19  C   UNL     1      47.431   5.403  15.724  1.00  0.00     0.004 C 
ENDBRANCH  17  18
ENDBRANCH  16  17
ENDBRANCH  15  16
ENDBRANCH  14  15
ENDBRANCH  13  14
ENDBRANCH  12  13
ENDBRANCH   1  12
TORSDOF 14
ENDMDL
MODEL 2
REMARK VINA RESULT:    -4.613      3.898      7.770
REMARK INTER + INTRA:          -9.849
REMARK INTER:                  -8.142
REMARK INTRA:                  -1.707
REMARK UNBOUND:                -1.460
REMARK SMILES CCCCCCCCCCCCCC[C@H](C)C(=O)[O-]
REMARK SMILES IDX 9 1 10 2 11 3 12 4 13 5 14 6 15 7 16 8 17 9 18 10 19 11 8 12
REMARK SMILES IDX 7 13 6 14 5 15 4 16 3 17 2 18 1 19
REMARK H PARENT
REMARK Flexibility Score: inf
ROOT
ATOM      1  C   UNL     1      45.630   9.565  19.145  1.00  0.00     0.000 C 
ENDROOT
BRANCH   1   2
ATOM      2  C   UNL     1      44.352   9.262  18.349  1.00  0.00     0.000 C 
BRANCH   2   3
ATOM      3  C   UNL     1      44.514   8.048  17.417  1.00  0.00     0.000 C 
BRANCH   3   4
ATOM      4  C   UNL     1      45.779   7.227  17.727  1.00  0.00     0.000 C 
BRANCH   4   5
ATOM      5  C   UNL     1      46.879   7.304  16.650  1.00  0.00     0.001 C 
BRANCH   5   6
ATOM      6  C   UNL     1      46.829   6.148  15.624  1.00  0.00     0.009 C 
BRANCH   6   7
ATOM      7  C   UNL     1      46.208   6.558  14.268  1.00  0.00     0.032 C 
ATOM      8  C   UNL     1      46.186   8.083  14.088  1.00  0.00     0.014 C 
BRANCH   7   9
ATOM      9  C   UNL     1      44.811   6.014  14.147  1.00  0.00     0.044 C 
ATOM     10  O   UNL     1      43.819   6.791  14.163  1.00  0.00    -0.550 OA
ATOM     11  O   UNL     1      44.609   4.647  14.013  1.00  0.00    -0.550 OA
ENDBRANCH   7   9
ENDBRANCH   6   7
ENDBRANCH   5   6
ENDBRANCH   4   5
ENDBRANCH   3   4
ENDBRANCH   2   3
ENDBRANCH   1   2
BRANCH   1  12
ATOM     12  C   UNL     1      45.348  10.295  20.467  1.00  0.00     0.000 C 
BRANCH  12  13
ATOM     13  C   UNL     1      44.010   9.844  21.067  1.00  0.00    -0.000 C 
BRANCH  13  14
ATOM     14  C   UNL     1      44.190   8.594  21.937  1.00  0.00    -0.000 C 
BRANCH  14  15
ATOM     15  C   UNL     1      44.582   8.976  23.372  1.00  0.00    -0.000 C 
BRANCH  15  16
ATOM     16  C   UNL     1      45.906   8.332  23.826  1.00  0.00    -0.000 C 
BRANCH  16  17
ATOM     17  C   UNL     1      47.158   8.823  23.076  1.00  0.00    -0.000 C 
BRANCH  17  18
ATOM     18  C   UNL     1      48.010   7.673  22.518  1.00  0.00    -0.003 C 
ATOM     19  C   UNL     1      47.318   7.001  21.335  1.00  0.00     0.004 C 
ENDBRANCH  17  18
ENDBRANCH  16  17
ENDBRANCH  15  16
ENDBRANCH  14  15
ENDBRANCH  13  14
ENDBRANCH  12  13
ENDBRANCH   1  12
TORSDOF 14
ENDMDL
MODEL 3
REMARK VINA RESULT:    -4.584      0.952      2.552
REMARK INTER + INTRA:          -9.795
REMARK INTER:                  -8.226
REMARK INTRA:                  -1.569
REMARK UNBOUND:                -1.460
REMARK SMILES CCCCCCCCCCCCCC[C@H](C)C(=O)[O-]
REMARK SMILES IDX 9 1 10 2 11 3 12 4 13 5 14 6 15 7 16 8 17 9 18 10 19 11 8 12
REMARK SMILES IDX 7 13 6 14 5 15 4 16 3 17 2 18 1 19
REMARK H PARENT
REMARK Flexibility Score: inf
ROOT
ATOM      1  C   UNL     1      46.659   6.660  19.689  1.00  0.00     0.000 C 
ENDROOT
BRANCH   1   2
ATOM      2  C   UNL     1      46.678   7.699  20.821  1.00  0.00     0.000 C 
BRANCH   2   3
ATOM      3  C   UNL     1      47.578   7.274  21.994  1.00  0.00     0.000 C 
BRANCH   3   4
ATOM      4  C   UNL     1      48.027   8.467  22.859  1.00  0.00     0.000 C 
BRANCH   4   5
ATOM      5  C   UNL     1      46.968   9.573  23.035  1.00  0.00     0.001 C 
BRANCH   5   6
ATOM      6  C   UNL     1      46.025   9.347  24.239  1.00  0.00     0.009 C 
BRANCH   6   7
ATOM      7  C   UNL     1      44.562   9.058  23.826  1.00  0.00     0.032 C 
ATOM      8  C   UNL     1      44.149   9.865  22.586  1.00  0.00     0.014 C 
BRANCH   7   9
ATOM      9  C   UNL     1      43.628   9.365  24.964  1.00  0.00     0.044 C 
ATOM     10  O   UNL     1      44.036   9.322  26.155  1.00  0.00    -0.550 OA
ATOM     11  O   UNL     1      42.306   9.704  24.704  1.00  0.00    -0.550 OA
ENDBRANCH   7   9
ENDBRANCH   6   7
ENDBRANCH   5   6
ENDBRANCH   4   5
ENDBRANCH   3   4
ENDBRANCH   2   3
ENDBRANCH   1   2
BRANCH   1  12
ATOM     12  C   UNL     1      46.762   7.296  18.296  1.00  0.00     0.000 C 
BRANCH  12  13
ATOM     13  C   UNL     1      46.979   6.226  17.218  1.00  0.00    -0.000 C 
BRANCH  13  14
ATOM     14  C   UNL     1      46.288   6.617  15.907  1.00  0.00    -0.000 C 
BRANCH  14  15
ATOM     15  C   UNL     1      44.776   6.793  16.114  1.00  0.00    -0.000 C 
BRANCH  15  16
ATOM     16  C   UNL     1      44.236   8.107  15.520  1.00  0.00    -0.000 C 
BRANCH  16  17
ATOM     17  C   UNL     1      44.233   9.305  16.487  1.00  0.00    -0.000 C 
BRANCH  17  18
ATOM     18  C   UNL     1      43.776   8.929  17.905  1.00  0.00    -0.003 C 
ATOM     19  C   UNL     1      44.263   9.951  18.928  1.00  0.00     0.004 C 
ENDBRANCH  17  18
ENDBRANCH  16  17
ENDBRANCH  15  16
ENDBRANCH  14  15
ENDBRANCH  13  14
ENDBRANCH  12  13
ENDBRANCH   1  12
TORSDOF 14
ENDMDL
MODEL 4
REMARK VINA RESULT:    -4.525      3.744      8.048
REMARK INTER + INTRA:          -9.688
REMARK INTER:                  -8.006
REMARK INTRA:                  -1.682
REMARK UNBOUND:                -1.460
REMARK SMILES CCCCCCCCCCCCCC[C@H](C)C(=O)[O-]
REMARK SMILES IDX 9 1 10 2 11 3 12 4 13 5 14 6 15 7 16 8 17 9 18 10 19 11 8 12
REMARK SMILES IDX 7 13 6 14 5 15 4 16 3 17 2 18 1 19
REMARK H PARENT
REMARK Flexibility Score: inf
ROOT
ATOM      1  C   UNL     1      46.759   7.150  20.700  1.00  0.00     0.000 C 
ENDROOT
BRANCH   1   2
ATOM      2  C   UNL     1      46.379   7.458  19.244  1.00  0.00     0.000 C 
BRANCH   2   3
ATOM      3  C   UNL     1      46.007   8.937  19.033  1.00  0.00     0.000 C 
BRANCH   3   4
ATOM      4  C   UNL     1      44.685   9.112  18.263  1.00  0.00     0.000 C 
BRANCH   4   5
ATOM      5  C   UNL     1      44.168   7.837  17.569  1.00  0.00     0.001 C 
BRANCH   5   6
ATOM      6  C   UNL     1      44.364   7.840  16.035  1.00  0.00     0.009 C 
BRANCH   6   7
ATOM      7  C   UNL     1      45.848   7.761  15.607  1.00  0.00     0.032 C 
ATOM      8  C   UNL     1      46.112   8.547  14.314  1.00  0.00     0.014 C 
BRANCH   7   9
ATOM      9  C   UNL     1      46.263   6.328  15.421  1.00  0.00     0.044 C 
ATOM     10  O   UNL     1      45.608   5.566  14.660  1.00  0.00    -0.550 OA
ATOM     11  O   UNL     1      47.377   5.837  16.088  1.00  0.00    -0.550 OA
ENDBRANCH   7   9
ENDBRANCH   6   7
ENDBRANCH   5   6
ENDBRANCH   4   5
ENDBRANCH   3   4
ENDBRANCH   2   3
ENDBRANCH   1   2
BRANCH   1  12
ATOM     12  C   UNL     1      46.707   8.392  21.603  1.00  0.00     0.000 C 
BRANCH  12  13
ATOM     13  C   UNL     1      45.715   8.191  22.756  1.00  0.00    -0.000 C 
BRANCH  13  14
ATOM     14  C   UNL     1      44.291   8.567  22.328  1.00  0.00    -0.000 C 
BRANCH  14  15
ATOM     15  C   UNL     1      44.119  10.093  22.275  1.00  0.00    -0.000 C 
BRANCH  15  16
ATOM     16  C   UNL     1      43.659  10.693  23.617  1.00  0.00    -0.000 C 
BRANCH  16  17
ATOM     17  C   UNL     1      42.982   9.697  24.577  1.00  0.00    -0.000 C 
BRANCH  17  18
ATOM     18  C   UNL     1      43.843   9.370  25.806  1.00  0.00    -0.003 C 
ATOM     19  C   UNL     1      45.079  10.264  25.863  1.00  0.00     0.004 C 
ENDBRANCH  17  18
ENDBRANCH  16  17
ENDBRANCH  15  16
ENDBRANCH  14  15
ENDBRANCH  13  14
ENDBRANCH  12  13
ENDBRANCH   1  12
TORSDOF 14
ENDMDL
MODEL 5
REMARK VINA RESULT:    -4.523      2.051      2.790
REMARK INTER + INTRA:          -9.685
REMARK INTER:                  -8.004
REMARK INTRA:                  -1.681
REMARK UNBOUND:                -1.460
REMARK SMILES CCCCCCCCCCCCCC[C@H](C)C(=O)[O-]
REMARK SMILES IDX 9 1 10 2 11 3 12 4 13 5 14 6 15 7 16 8 17 9 18 10 19 11 8 12
REMARK SMILES IDX 7 13 6 14 5 15 4 16 3 17 2 18 1 19
REMARK H PARENT
REMARK Flexibility Score: inf
ROOT
ATOM      1  C   UNL     1      46.428   7.353  19.226  1.00  0.00     0.000 C 
ENDROOT
BRANCH   1   2
ATOM      2  C   UNL     1      45.951   8.797  19.440  1.00  0.00     0.000 C 
BRANCH   2   3
ATOM      3  C   UNL     1      44.518   8.867  19.997  1.00  0.00     0.000 C 
BRANCH   3   4
ATOM      4  C   UNL     1      44.260  10.148  20.812  1.00  0.00     0.000 C 
BRANCH   4   5
ATOM      5  C   UNL     1      43.993   9.917  22.312  1.00  0.00     0.001 C 
BRANCH   5   6
ATOM      6  C   UNL     1      44.536   8.569  22.841  1.00  0.00     0.009 C 
BRANCH   6   7
ATOM      7  C   UNL     1      45.688   8.731  23.861  1.00  0.00     0.032 C 
ATOM      8  C   UNL     1      45.592  10.060  24.625  1.00  0.00     0.014 C 
BRANCH   7   9
ATOM      9  C   UNL     1      47.018   8.641  23.166  1.00  0.00     0.044 C 
ATOM     10  O   UNL     1      47.843   9.591  23.240  1.00  0.00    -0.550 OA
ATOM     11  O   UNL     1      47.346   7.503  22.440  1.00  0.00    -0.550 OA
ENDBRANCH   7   9
ENDBRANCH   6   7
ENDBRANCH   5   6
ENDBRANCH   4   5
ENDBRANCH   3   4
ENDBRANCH   2   3
ENDBRANCH   1   2
BRANCH   1  12
ATOM     12  C   UNL     1      46.426   6.940  17.747  1.00  0.00     0.000 C 
BRANCH  12  13
ATOM     13  C   UNL     1      46.615   8.160  16.836  1.00  0.00    -0.000 C 
BRANCH  13  14
ATOM     14  C   UNL     1      45.454   8.290  15.843  1.00  0.00    -0.000 C 
BRANCH  14  15
ATOM     15  C   UNL     1      44.501   7.091  15.953  1.00  0.00    -0.000 C 
BRANCH  15  16
ATOM     16  C   UNL     1      44.235   6.407  14.599  1.00  0.00    -0.000 C 
BRANCH  16  17
ATOM     17  C   UNL     1      45.092   5.157  14.322  1.00  0.00    -0.000 C 
BRANCH  17  18
ATOM     18  C   UNL     1      46.521   5.499  13.876  1.00  0.00    -0.003 C 
ATOM     19  C   UNL     1      47.547   4.989  14.885  1.00  0.00     0.004 C 
ENDBRANCH  17  18
ENDBRANCH  16  17
ENDBRANCH  15  16
ENDBRANCH  14  15
ENDBRANCH  13  14
ENDBRANCH  12  13
ENDBRANCH   1  12
TORSDOF 14
ENDMDL
MODEL 6
REMARK VINA RESULT:    -4.504      4.008      7.650
REMARK INTER + INTRA:          -9.651
REMARK INTER:                  -7.774
REMARK INTRA:                  -1.876
REMARK UNBOUND:                -1.460
REMARK SMILES CCCCCCCCCCCCCC[C@H](C)C(=O)[O-]
REMARK SMILES IDX 9 1 10 2 11 3 12 4 13 5 14 6 15 7 16 8 17 9 18 10 19 11 8 12
REMARK SMILES IDX 7 13 6 14 5 15 4 16 3 17 2 18 1 19
REMARK H PARENT
REMARK Flexibility Score: inf
ROOT
ATOM      1  C   UNL     1      44.532   9.948  19.248  1.00  0.00     0.000 C 
ENDROOT
BRANCH   1   2
ATOM      2  C   UNL     1      45.958  10.390  18.885  1.00  0.00     0.000 C 
BRANCH   2   3
ATOM      3  C   UNL     1      46.131  10.637  17.376  1.00  0.00     0.000 C 
BRANCH   3   4
ATOM      4  C   UNL     1      44.969  10.065  16.544  1.00  0.00     0.000 C 
BRANCH   4   5
ATOM      5  C   UNL     1      45.395   9.128  15.397  1.00  0.00     0.001 C 
BRANCH   5   6
ATOM      6  C   UNL     1      46.652   8.285  15.715  1.00  0.00     0.009 C 
BRANCH   6   7
ATOM      7  C   UNL     1      46.324   6.913  16.349  1.00  0.00     0.032 C 
ATOM      8  C   UNL     1      46.558   6.915  17.867  1.00  0.00     0.014 C 
BRANCH   7   9
ATOM      9  C   UNL     1      47.152   5.831  15.711  1.00  0.00     0.044 C 
ATOM     10  O   UNL     1      47.867   5.072  16.418  1.00  0.00    -0.550 OA
ATOM     11  O   UNL     1      47.127   5.662  14.333  1.00  0.00    -0.550 OA
ENDBRANCH   7   9
ENDBRANCH   6   7
ENDBRANCH   5   6
ENDBRANCH   4   5
ENDBRANCH   3   4
ENDBRANCH   2   3
ENDBRANCH   1   2
BRANCH   1  12
ATOM     12  C   UNL     1      44.502   8.903  20.373  1.00  0.00     0.000 C 
BRANCH  12  13
ATOM     13  C   UNL     1      44.450   9.580  21.749  1.00  0.00    -0.000 C 
BRANCH  13  14
ATOM     14  C   UNL     1      44.246   8.546  22.863  1.00  0.00    -0.000 C 
BRANCH  14  15
ATOM     15  C   UNL     1      45.380   8.622  23.897  1.00  0.00    -0.000 C 
BRANCH  15  16
ATOM     16  C   UNL     1      46.510   9.582  23.481  1.00  0.00    -0.000 C 
BRANCH  16  17
ATOM     17  C   UNL     1      47.758   8.901  22.892  1.00  0.00    -0.000 C 
BRANCH  17  18
ATOM     18  C   UNL     1      47.636   7.371  22.839  1.00  0.00    -0.003 C 
ATOM     19  C   UNL     1      47.475   6.882  21.403  1.00  0.00     0.004 C 
ENDBRANCH  17  18
ENDBRANCH  16  17
ENDBRANCH  15  16
ENDBRANCH  14  15
ENDBRANCH  13  14
ENDBRANCH  12  13
ENDBRANCH   1  12
TORSDOF 14
ENDMDL
MODEL 7
REMARK VINA RESULT:    -4.484      1.868      3.308
REMARK INTER + INTRA:          -9.615
REMARK INTER:                  -7.738
REMARK INTRA:                  -1.877
REMARK UNBOUND:                -1.460
REMARK SMILES CCCCCCCCCCCCCC[C@H](C)C(=O)[O-]
REMARK SMILES IDX 9 1 10 2 11 3 12 4 13 5 14 6 15 7 16 8 17 9 18 10 19 11 8 12
REMARK SMILES IDX 7 13 6 14 5 15 4 16 3 17 2 18 1 19
REMARK H PARENT
REMARK Flexibility Score: inf
ROOT
ATOM      1  C   UNL     1      43.757   9.955  17.230  1.00  0.00     0.000 C 
ENDROOT
BRANCH   1   2
ATOM      2  C   UNL     1      44.137   9.548  18.662  1.00  0.00     0.000 C 
BRANCH   2   3
ATOM      3  C   UNL     1      44.857   8.188  18.716  1.00  0.00     0.000 C 
BRANCH   3   4
ATOM      4  C   UNL     1      46.286   8.296  19.277  1.00  0.00     0.000 C 
BRANCH   4   5
ATOM      5  C   UNL     1      46.780   7.046  20.032  1.00  0.00     0.001 C 
BRANCH   5   6
ATOM      6  C   UNL     1      46.973   7.270  21.549  1.00  0.00     0.009 C 
BRANCH   6   7
ATOM      7  C   UNL     1      46.457   8.644  22.036  1.00  0.00     0.032 C 
ATOM      8  C   UNL     1      47.492   9.364  22.914  1.00  0.00     0.014 C 
BRANCH   7   9
ATOM      9  C   UNL     1      45.173   8.479  22.801  1.00  0.00     0.044 C 
ATOM     10  O   UNL     1      45.171   8.504  24.061  1.00  0.00    -0.550 OA
ATOM     11  O   UNL     1      43.977   8.302  22.117  1.00  0.00    -0.550 OA
ENDBRANCH   7   9
ENDBRANCH   6   7
ENDBRANCH   5   6
ENDBRANCH   4   5
ENDBRANCH   3   4
ENDBRANCH   2   3
ENDBRANCH   1   2
BRANCH   1  12
ATOM     12  C   UNL     1      44.601  11.125  16.701  1.00  0.00     0.000 C 
BRANCH  12  13
ATOM     13  C   UNL     1      46.027  10.668  16.370  1.00  0.00    -0.000 C 
BRANCH  13  14
ATOM     14  C   UNL     1      46.254  10.628  14.854  1.00  0.00    -0.000 C 
BRANCH  14  15
ATOM     15  C   UNL     1      46.035   9.210  14.304  1.00  0.00    -0.000 C 
BRANCH  15  16
ATOM     16  C   UNL     1      46.352   8.109  15.334  1.00  0.00    -0.000 C 
BRANCH  16  17
ATOM     17  C   UNL     1      45.491   6.838  15.212  1.00  0.00    -0.000 C 
BRANCH  17  18
ATOM     18  C   UNL     1      44.715   6.765  13.889  1.00  0.00    -0.003 C 
ATOM     19  C   UNL     1      43.210   6.746  14.135  1.00  0.00     0.004 C 
ENDBRANCH  17  18
ENDBRANCH  16  17
ENDBRANCH  15  16
ENDBRANCH  14  15
ENDBRANCH  13  14
ENDBRANCH  12  13
ENDBRANCH   1  12
TORSDOF 14
ENDMDL
MODEL 8
REMARK VINA RESULT:    -4.464      1.597      3.406
REMARK INTER + INTRA:          -9.577
REMARK INTER:                  -7.932
REMARK INTRA:                  -1.645
REMARK UNBOUND:                -1.460
REMARK SMILES CCCCCCCCCCCCCC[C@H](C)C(=O)[O-]
REMARK SMILES IDX 9 1 10 2 11 3 12 4 13 5 14 6 15 7 16 8 17 9 18 10 19 11 8 12
REMARK SMILES IDX 7 13 6 14 5 15 4 16 3 17 2 18 1 19
REMARK H PARENT
REMARK Flexibility Score: inf
ROOT
ATOM      1  C   UNL     1      46.798   7.031  20.452  1.00  0.00     0.000 C 
ENDROOT
BRANCH   1   2
ATOM      2  C   UNL     1      46.324   7.957  21.583  1.00  0.00     0.000 C 
BRANCH   2   3
ATOM      3  C   UNL     1      45.618   9.218  21.054  1.00  0.00     0.000 C 
BRANCH   3   4
ATOM      4  C   UNL     1      44.158   9.324  21.533  1.00  0.00     0.000 C 
BRANCH   4   5
ATOM      5  C   UNL     1      43.732  10.730  21.999  1.00  0.00     0.001 C 
BRANCH   5   6
ATOM      6  C   UNL     1      43.703  10.895  23.536  1.00  0.00     0.009 C 
BRANCH   6   7
ATOM      7  C   UNL     1      43.284   9.607  24.283  1.00  0.00     0.032 C 
ATOM      8  C   UNL     1      41.928   9.770  24.985  1.00  0.00     0.014 C 
BRANCH   7   9
ATOM      9  C   UNL     1      44.332   9.222  25.290  1.00  0.00     0.044 C 
ATOM     10  O   UNL     1      45.545   9.154  24.955  1.00  0.00    -0.550 OA
ATOM     11  O   UNL     1      43.966   8.943  26.600  1.00  0.00    -0.550 OA
ENDBRANCH   7   9
ENDBRANCH   6   7
ENDBRANCH   5   6
ENDBRANCH   4   5
ENDBRANCH   3   4
ENDBRANCH   2   3
ENDBRANCH   1   2
BRANCH   1  12
ATOM     12  C   UNL     1      46.365   7.521  19.063  1.00  0.00     0.000 C 
BRANCH  12  13
ATOM     13  C   UNL     1      46.726   6.493  17.982  1.00  0.00    -0.000 C 
BRANCH  13  14
ATOM     14  C   UNL     1      46.126   6.886  16.627  1.00  0.00    -0.000 C 
BRANCH  14  15
ATOM     15  C   UNL     1      44.825   7.682  16.813  1.00  0.00    -0.000 C 
BRANCH  15  16
ATOM     16  C   UNL     1      44.725   8.899  15.874  1.00  0.00    -0.000 C 
BRANCH  16  17
ATOM     17  C   UNL     1      44.763  10.268  16.578  1.00  0.00    -0.000 C 
BRANCH  17  18
ATOM     18  C   UNL     1      44.036  10.265  17.932  1.00  0.00    -0.003 C 
ATOM     19  C   UNL     1      42.599  10.755  17.784  1.00  0.00     0.004 C 
ENDBRANCH  17  18
ENDBRANCH  16  17
ENDBRANCH  15  16
ENDBRANCH  14  15
ENDBRANCH  13  14
ENDBRANCH  12  13
ENDBRANCH   1  12
TORSDOF 14
ENDMDL
