MODEL 1
REMARK VINA RESULT:    -6.704      0.000      0.000
REMARK INTER + INTRA:          -8.410
REMARK INTER:                  -8.075
REMARK INTRA:                  -0.334
REMARK UNBOUND:                -0.334
REMARK SMILES O=c1c(O)c(-c2ccc(O)c(O)c2)oc2cc(O)cc(O)c12
REMARK SMILES IDX 5 1 3 2 2 3 1 4 22 5 20 6 19 7 17 8 16 9 15 10 14 11 6 12
REMARK SMILES IDX 7 13 8 14 9 15 13 16 11 17 10 18 12 20 4 22 21 24 18 26
REMARK H PARENT 10 19 12 21 4 23 21 25 18 27
REMARK Flexibility Score: inf
ROOT
ATOM      1  C   UNL     1      38.178  -3.399  -2.670  1.00  0.00     0.180 A 
ATOM      2  C   UNL     1      38.614  -4.734  -2.605  1.00  0.00     0.208 A 
ATOM      3  C   UNL     1      39.150  -5.217  -1.401  1.00  0.00     0.238 A 
ATOM      4  O   UNL     1      39.587  -6.397  -1.365  1.00  0.00    -0.285 OA
ATOM      5  C   UNL     1      39.229  -4.366  -0.273  1.00  0.00     0.111 A 
ATOM      6  C   UNL     1      39.717  -4.762   1.009  1.00  0.00     0.134 A 
ATOM      7  C   UNL     1      39.872  -3.801   2.017  1.00  0.00     0.093 A 
ATOM      8  C   UNL     1      39.496  -2.474   1.810  1.00  0.00     0.123 A 
ATOM      9  C   UNL     1      38.961  -2.089   0.580  1.00  0.00     0.094 A 
ATOM     10  C   UNL     1      38.829  -3.016  -0.456  1.00  0.00     0.146 A 
ATOM     11  O   UNL     1      38.326  -2.607  -1.614  1.00  0.00    -0.452 OA
ENDROOT
BRANCH   1  12
ATOM     12  C   UNL     1      37.578  -2.825  -3.895  1.00  0.00     0.025 A 
ATOM     13  C   UNL     1      38.394  -2.129  -4.803  1.00  0.00     0.016 A 
ATOM     14  C   UNL     1      37.846  -1.561  -5.956  1.00  0.00     0.051 A 
ATOM     15  C   UNL     1      36.473  -1.668  -6.211  1.00  0.00     0.157 A 
ATOM     16  C   UNL     1      36.197  -2.911  -4.145  1.00  0.00     0.062 A 
ATOM     17  C   UNL     1      35.646  -2.340  -5.303  1.00  0.00     0.158 A 
BRANCH  15  18
ATOM     18  O   UNL     1      35.923  -1.105  -7.361  1.00  0.00    -0.504 OA
ATOM     19  H   UNL     1      36.142  -1.461  -8.283  1.00  0.00     0.293 HD
ENDBRANCH  15  18
BRANCH  17  20
ATOM     20  O   UNL     1      34.278  -2.432  -5.551  1.00  0.00    -0.504 OA
ATOM     21  H   UNL     1      33.656  -1.648  -5.397  1.00  0.00     0.293 HD
ENDBRANCH  17  20
ENDBRANCH   1  12
BRANCH   2  22
ATOM     22  O   UNL     1      38.546  -5.551  -3.737  1.00  0.00    -0.502 OA
ATOM     23  H   UNL     1      37.732  -6.114  -3.954  1.00  0.00     0.293 HD
ENDBRANCH   2  22
BRANCH   6  24
ATOM     24  O   UNL     1      40.035  -6.080   1.350  1.00  0.00    -0.507 OA
ATOM     25  H   UNL     1      40.942  -6.390   1.661  1.00  0.00     0.293 HD
ENDBRANCH   6  24
BRANCH   8  26
ATOM     26  O   UNL     1      39.649  -1.548   2.839  1.00  0.00    -0.508 OA
ATOM     27  H   UNL     1      39.054  -1.563   3.659  1.00  0.00     0.293 HD
ENDBRANCH   8  26
TORSDOF 6
ENDMDL
MODEL 2
REMARK VINA RESULT:    -6.518      5.544      7.209
REMARK INTER + INTRA:          -8.186
REMARK INTER:                  -7.865
REMARK INTRA:                  -0.321
REMARK UNBOUND:                -0.334
REMARK SMILES O=c1c(O)c(-c2ccc(O)c(O)c2)oc2cc(O)cc(O)c12
REMARK SMILES IDX 5 1 3 2 2 3 1 4 22 5 20 6 19 7 17 8 16 9 15 10 14 11 6 12
REMARK SMILES IDX 7 13 8 14 9 15 13 16 11 17 10 18 12 20 4 22 21 24 18 26
REMARK H PARENT 10 19 12 21 4 23 21 25 18 27
REMARK Flexibility Score: inf
ROOT
ATOM      1  C   UNL     1      39.384   1.348  -2.017  1.00  0.00     0.180 A 
ATOM      2  C   UNL     1      40.669   1.919  -2.043  1.00  0.00     0.208 A 
ATOM      3  C   UNL     1      40.827   3.259  -1.651  1.00  0.00     0.238 A 
ATOM      4  O   UNL     1      41.970   3.779  -1.727  1.00  0.00    -0.285 OA
ATOM      5  C   UNL     1      39.703   4.004  -1.224  1.00  0.00     0.111 A 
ATOM      6  C   UNL     1      39.753   5.356  -0.767  1.00  0.00     0.134 A 
ATOM      7  C   UNL     1      38.560   6.037  -0.492  1.00  0.00     0.093 A 
ATOM      8  C   UNL     1      37.325   5.398  -0.595  1.00  0.00     0.123 A 
ATOM      9  C   UNL     1      37.269   4.058  -0.983  1.00  0.00     0.094 A 
ATOM     10  C   UNL     1      38.438   3.363  -1.299  1.00  0.00     0.146 A 
ATOM     11  O   UNL     1      38.340   2.094  -1.674  1.00  0.00    -0.452 OA
ENDROOT
BRANCH   1  12
ATOM     12  C   UNL     1      39.143  -0.063  -2.391  1.00  0.00     0.025 A 
ATOM     13  C   UNL     1      39.199  -1.059  -1.402  1.00  0.00     0.016 A 
ATOM     14  C   UNL     1      38.995  -2.401  -1.735  1.00  0.00     0.051 A 
ATOM     15  C   UNL     1      38.748  -2.767  -3.064  1.00  0.00     0.157 A 
ATOM     16  C   UNL     1      38.915  -0.439  -3.728  1.00  0.00     0.062 A 
ATOM     17  C   UNL     1      38.712  -1.787  -4.063  1.00  0.00     0.158 A 
BRANCH  15  18
ATOM     18  O   UNL     1      38.542  -4.105  -3.401  1.00  0.00    -0.504 OA
ATOM     19  H   UNL     1      38.981  -4.521  -4.213  1.00  0.00     0.293 HD
ENDBRANCH  15  18
BRANCH  17  20
ATOM     20  O   UNL     1      38.480  -2.156  -5.386  1.00  0.00    -0.504 OA
ATOM     21  H   UNL     1      38.104  -3.066  -5.626  1.00  0.00     0.293 HD
ENDBRANCH  17  20
ENDBRANCH   1  12
BRANCH   2  22
ATOM     22  O   UNL     1      41.762   1.171  -2.489  1.00  0.00    -0.502 OA
ATOM     23  H   UNL     1      42.398   1.509  -3.201  1.00  0.00     0.293 HD
ENDBRANCH   2  22
BRANCH   6  24
ATOM     24  O   UNL     1      40.940   6.060  -0.541  1.00  0.00    -0.507 OA
ATOM     25  H   UNL     1      41.865   5.691  -0.698  1.00  0.00     0.293 HD
ENDBRANCH   6  24
BRANCH   8  26
ATOM     26  O   UNL     1      36.160   6.101  -0.299  1.00  0.00    -0.508 OA
ATOM     27  H   UNL     1      35.244   5.694  -0.446  1.00  0.00     0.293 HD
ENDBRANCH   8  26
TORSDOF 6
ENDMDL
MODEL 3
REMARK VINA RESULT:    -6.516      3.437      6.418
REMARK INTER + INTRA:          -8.184
REMARK INTER:                  -8.130
REMARK INTRA:                  -0.054
REMARK UNBOUND:                -0.334
REMARK SMILES O=c1c(O)c(-c2ccc(O)c(O)c2)oc2cc(O)cc(O)c12
REMARK SMILES IDX 5 1 3 2 2 3 1 4 22 5 20 6 19 7 17 8 16 9 15 10 14 11 6 12
REMARK SMILES IDX 7 13 8 14 9 15 13 16 11 17 10 18 12 20 4 22 21 24 18 26
REMARK H PARENT 10 19 12 21 4 23 21 25 18 27
REMARK Flexibility Score: inf
ROOT
ATOM      1  C   UNL     1      38.987  -0.628  -2.590  1.00  0.00     0.180 A 
ATOM      2  C   UNL     1      38.813  -1.701  -1.698  1.00  0.00     0.208 A 
ATOM      3  C   UNL     1      38.140  -2.852  -2.142  1.00  0.00     0.238 A 
ATOM      4  O   UNL     1      37.941  -3.787  -1.324  1.00  0.00    -0.285 OA
ATOM      5  C   UNL     1      37.666  -2.921  -3.473  1.00  0.00     0.111 A 
ATOM      6  C   UNL     1      37.008  -4.054  -4.041  1.00  0.00     0.134 A 
ATOM      7  C   UNL     1      36.464  -3.964  -5.329  1.00  0.00     0.093 A 
ATOM      8  C   UNL     1      36.612  -2.807  -6.093  1.00  0.00     0.123 A 
ATOM      9  C   UNL     1      37.307  -1.715  -5.570  1.00  0.00     0.094 A 
ATOM     10  C   UNL     1      37.829  -1.762  -4.276  1.00  0.00     0.146 A 
ATOM     11  O   UNL     1      38.473  -0.698  -3.813  1.00  0.00    -0.452 OA
ENDROOT
BRANCH   1  12
ATOM     12  C   UNL     1      39.707   0.607  -2.204  1.00  0.00     0.025 A 
ATOM     13  C   UNL     1      40.839   1.003  -2.936  1.00  0.00     0.016 A 
ATOM     14  C   UNL     1      41.547   2.153  -2.576  1.00  0.00     0.051 A 
ATOM     15  C   UNL     1      41.141   2.915  -1.473  1.00  0.00     0.157 A 
ATOM     16  C   UNL     1      39.317   1.363  -1.084  1.00  0.00     0.062 A 
ATOM     17  C   UNL     1      40.028   2.517  -0.723  1.00  0.00     0.158 A 
BRANCH  15  18
ATOM     18  O   UNL     1      41.844   4.064  -1.112  1.00  0.00    -0.504 OA
ATOM     19  H   UNL     1      42.290   4.151  -0.208  1.00  0.00     0.293 HD
ENDBRANCH  15  18
BRANCH  17  20
ATOM     20  O   UNL     1      39.636   3.269   0.383  1.00  0.00    -0.504 OA
ATOM     21  H   UNL     1      39.825   4.262   0.445  1.00  0.00     0.293 HD
ENDBRANCH  17  20
ENDBRANCH   1  12
BRANCH   2  22
ATOM     22  O   UNL     1      39.270  -1.602  -0.382  1.00  0.00    -0.502 OA
ATOM     23  H   UNL     1      40.174  -1.208  -0.148  1.00  0.00     0.293 HD
ENDBRANCH   2  22
BRANCH   6  24
ATOM     24  O   UNL     1      36.885  -5.289  -3.397  1.00  0.00    -0.507 OA
ATOM     25  H   UNL     1      36.084  -5.897  -3.468  1.00  0.00     0.293 HD
ENDBRANCH   6  24
BRANCH   8  26
ATOM     26  O   UNL     1      36.073  -2.757  -7.377  1.00  0.00    -0.508 OA
ATOM     27  H   UNL     1      35.094  -2.953  -7.549  1.00  0.00     0.293 HD
ENDBRANCH   8  26
TORSDOF 6
ENDMDL
MODEL 4
REMARK VINA RESULT:    -6.301      3.712      5.380
REMARK INTER + INTRA:          -7.925
REMARK INTER:                  -7.647
REMARK INTRA:                  -0.278
REMARK UNBOUND:                -0.334
REMARK SMILES O=c1c(O)c(-c2ccc(O)c(O)c2)oc2cc(O)cc(O)c12
REMARK SMILES IDX 5 1 3 2 2 3 1 4 22 5 20 6 19 7 17 8 16 9 15 10 14 11 6 12
REMARK SMILES IDX 7 13 8 14 9 15 13 16 11 17 10 18 12 20 4 22 21 24 18 26
REMARK H PARENT 10 19 12 21 4 23 21 25 18 27
REMARK Flexibility Score: inf
ROOT
ATOM      1  C   UNL     1      36.000  -4.142  -4.695  1.00  0.00     0.180 A 
ATOM      2  C   UNL     1      37.201  -4.514  -4.064  1.00  0.00     0.208 A 
ATOM      3  C   UNL     1      37.296  -5.788  -3.480  1.00  0.00     0.238 A 
ATOM      4  O   UNL     1      38.354  -6.094  -2.871  1.00  0.00    -0.285 OA
ATOM      5  C   UNL     1      36.199  -6.678  -3.550  1.00  0.00     0.111 A 
ATOM      6  C   UNL     1      36.200  -8.007  -3.029  1.00  0.00     0.134 A 
ATOM      7  C   UNL     1      35.015  -8.754  -3.037  1.00  0.00     0.093 A 
ATOM      8  C   UNL     1      33.847  -8.245  -3.605  1.00  0.00     0.123 A 
ATOM      9  C   UNL     1      33.852  -6.969  -4.172  1.00  0.00     0.094 A 
ATOM     10  C   UNL     1      35.008  -6.187  -4.146  1.00  0.00     0.146 A 
ATOM     11  O   UNL     1      34.966  -4.976  -4.685  1.00  0.00    -0.452 OA
ENDROOT
BRANCH   1  12
ATOM     12  C   UNL     1      35.832  -2.827  -5.353  1.00  0.00     0.025 A 
ATOM     13  C   UNL     1      35.013  -1.855  -4.756  1.00  0.00     0.016 A 
ATOM     14  C   UNL     1      34.823  -0.614  -5.370  1.00  0.00     0.051 A 
ATOM     15  C   UNL     1      35.437  -0.334  -6.597  1.00  0.00     0.157 A 
ATOM     16  C   UNL     1      36.430  -2.548  -6.596  1.00  0.00     0.062 A 
ATOM     17  C   UNL     1      36.238  -1.302  -7.214  1.00  0.00     0.158 A 
BRANCH  15  18
ATOM     18  O   UNL     1      35.251   0.904  -7.213  1.00  0.00    -0.504 OA
ATOM     19  H   UNL     1      34.804   1.674  -6.731  1.00  0.00     0.293 HD
ENDBRANCH  15  18
BRANCH  17  20
ATOM     20  O   UNL     1      36.836  -1.026  -8.441  1.00  0.00    -0.504 OA
ATOM     21  H   UNL     1      37.227  -1.760  -9.019  1.00  0.00     0.293 HD
ENDBRANCH  17  20
ENDBRANCH   1  12
BRANCH   2  22
ATOM     22  O   UNL     1      38.264  -3.611  -3.988  1.00  0.00    -0.502 OA
ATOM     23  H   UNL     1      39.133  -3.832  -3.517  1.00  0.00     0.293 HD
ENDBRANCH   2  22
BRANCH   6  24
ATOM     24  O   UNL     1      37.336  -8.646  -2.521  1.00  0.00    -0.507 OA
ATOM     25  H   UNL     1      37.448  -8.945  -1.565  1.00  0.00     0.293 HD
ENDBRANCH   6  24
BRANCH   8  26
ATOM     26  O   UNL     1      32.690  -9.021  -3.611  1.00  0.00    -0.508 OA
ATOM     27  H   UNL     1      32.561  -9.785  -2.958  1.00  0.00     0.293 HD
ENDBRANCH   8  26
TORSDOF 6
ENDMDL
MODEL 5
REMARK VINA RESULT:    -6.295      1.714      6.916
REMARK INTER + INTRA:          -7.917
REMARK INTER:                  -7.658
REMARK INTRA:                  -0.258
REMARK UNBOUND:                -0.334
REMARK SMILES O=c1c(O)c(-c2ccc(O)c(O)c2)oc2cc(O)cc(O)c12
REMARK SMILES IDX 5 1 3 2 2 3 1 4 22 5 20 6 19 7 17 8 16 9 15 10 14 11 6 12
REMARK SMILES IDX 7 13 8 14 9 15 13 16 11 17 10 18 12 20 4 22 21 24 18 26
REMARK H PARENT 10 19 12 21 4 23 21 25 18 27
REMARK Flexibility Score: inf
ROOT
ATOM      1  C   UNL     1      37.806  -3.634  -1.144  1.00  0.00     0.180 A 
ATOM      2  C   UNL     1      36.563  -4.292  -1.142  1.00  0.00     0.208 A 
ATOM      3  C   UNL     1      35.788  -4.286  -2.313  1.00  0.00     0.238 A 
ATOM      4  O   UNL     1      34.654  -4.831  -2.288  1.00  0.00    -0.285 OA
ATOM      5  C   UNL     1      36.272  -3.639  -3.474  1.00  0.00     0.111 A 
ATOM      6  C   UNL     1      35.589  -3.605  -4.727  1.00  0.00     0.134 A 
ATOM      7  C   UNL     1      36.099  -2.824  -5.772  1.00  0.00     0.093 A 
ATOM      8  C   UNL     1      37.298  -2.128  -5.631  1.00  0.00     0.123 A 
ATOM      9  C   UNL     1      38.006  -2.203  -4.430  1.00  0.00     0.094 A 
ATOM     10  C   UNL     1      37.504  -2.944  -3.358  1.00  0.00     0.146 A 
ATOM     11  O   UNL     1      38.202  -2.979  -2.230  1.00  0.00    -0.452 OA
ENDROOT
BRANCH   1  12
ATOM     12  C   UNL     1      38.690  -3.618   0.043  1.00  0.00     0.025 A 
ATOM     13  C   UNL     1      39.392  -4.783   0.397  1.00  0.00     0.016 A 
ATOM     14  C   UNL     1      40.215  -4.797   1.526  1.00  0.00     0.051 A 
ATOM     15  C   UNL     1      40.338  -3.652   2.324  1.00  0.00     0.157 A 
ATOM     16  C   UNL     1      38.800  -2.478   0.860  1.00  0.00     0.062 A 
ATOM     17  C   UNL     1      39.627  -2.493   1.994  1.00  0.00     0.158 A 
BRANCH  15  18
ATOM     18  O   UNL     1      41.160  -3.662   3.450  1.00  0.00    -0.504 OA
ATOM     19  H   UNL     1      40.895  -4.151   4.296  1.00  0.00     0.293 HD
ENDBRANCH  15  18
BRANCH  17  20
ATOM     20  O   UNL     1      39.739  -1.360   2.798  1.00  0.00    -0.504 OA
ATOM     21  H   UNL     1      40.243  -0.538   2.489  1.00  0.00     0.293 HD
ENDBRANCH  17  20
ENDBRANCH   1  12
BRANCH   2  22
ATOM     22  O   UNL     1      36.096  -4.907   0.023  1.00  0.00    -0.502 OA
ATOM     23  H   UNL     1      36.160  -4.468   0.933  1.00  0.00     0.293 HD
ENDBRANCH   2  22
BRANCH   6  24
ATOM     24  O   UNL     1      34.430  -4.337  -5.004  1.00  0.00    -0.507 OA
ATOM     25  H   UNL     1      34.417  -5.263  -5.403  1.00  0.00     0.293 HD
ENDBRANCH   6  24
BRANCH   8  26
ATOM     26  O   UNL     1      37.785  -1.373  -6.696  1.00  0.00    -0.508 OA
ATOM     27  H   UNL     1      37.211  -0.680  -7.161  1.00  0.00     0.293 HD
ENDBRANCH   8  26
TORSDOF 6
ENDMDL
MODEL 6
REMARK VINA RESULT:    -6.176      3.613      5.173
REMARK INTER + INTRA:          -7.774
REMARK INTER:                  -7.462
REMARK INTRA:                  -0.312
REMARK UNBOUND:                -0.334
REMARK SMILES O=c1c(O)c(-c2ccc(O)c(O)c2)oc2cc(O)cc(O)c12
REMARK SMILES IDX 5 1 3 2 2 3 1 4 22 5 20 6 19 7 17 8 16 9 15 10 14 11 6 12
REMARK SMILES IDX 7 13 8 14 9 15 13 16 11 17 10 18 12 20 4 22 21 24 18 26
REMARK H PARENT 10 19 12 21 4 23 21 25 18 27
REMARK Flexibility Score: inf
ROOT
ATOM      1  C   UNL     1      35.879  -5.024  -3.496  1.00  0.00     0.180 A 
ATOM      2  C   UNL     1      36.165  -4.194  -4.595  1.00  0.00     0.208 A 
ATOM      3  C   UNL     1      37.069  -3.132  -4.429  1.00  0.00     0.238 A 
ATOM      4  O   UNL     1      37.279  -2.362  -5.402  1.00  0.00    -0.285 OA
ATOM      5  C   UNL     1      37.688  -2.924  -3.174  1.00  0.00     0.111 A 
ATOM      6  C   UNL     1      38.649  -1.904  -2.904  1.00  0.00     0.134 A 
ATOM      7  C   UNL     1      39.099  -1.707  -1.592  1.00  0.00     0.093 A 
ATOM      8  C   UNL     1      38.671  -2.532  -0.553  1.00  0.00     0.123 A 
ATOM      9  C   UNL     1      37.777  -3.571  -0.817  1.00  0.00     0.094 A 
ATOM     10  C   UNL     1      37.284  -3.770  -2.108  1.00  0.00     0.146 A 
ATOM     11  O   UNL     1      36.426  -4.762  -2.314  1.00  0.00    -0.452 OA
ENDROOT
BRANCH   1  12
ATOM     12  C   UNL     1      34.958  -6.177  -3.599  1.00  0.00     0.025 A 
ATOM     13  C   UNL     1      35.475  -7.451  -3.889  1.00  0.00     0.016 A 
ATOM     14  C   UNL     1      34.621  -8.550  -4.013  1.00  0.00     0.051 A 
ATOM     15  C   UNL     1      33.238  -8.389  -3.862  1.00  0.00     0.157 A 
ATOM     16  C   UNL     1      33.566  -6.018  -3.470  1.00  0.00     0.062 A 
ATOM     17  C   UNL     1      32.709  -7.121  -3.595  1.00  0.00     0.158 A 
BRANCH  15  18
ATOM     18  O   UNL     1      32.383  -9.485  -3.983  1.00  0.00    -0.504 OA
ATOM     19  H   UNL     1      32.721 -10.434  -3.887  1.00  0.00     0.293 HD
ENDBRANCH  15  18
BRANCH  17  20
ATOM     20  O   UNL     1      31.331  -6.962  -3.461  1.00  0.00    -0.504 OA
ATOM     21  H   UNL     1      30.754  -7.671  -3.025  1.00  0.00     0.293 HD
ENDBRANCH  17  20
ENDBRANCH   1  12
BRANCH   2  22
ATOM     22  O   UNL     1      35.526  -4.406  -5.820  1.00  0.00    -0.502 OA
ATOM     23  H   UNL     1      36.036  -4.600  -6.673  1.00  0.00     0.293 HD
ENDBRANCH   2  22
BRANCH   6  24
ATOM     24  O   UNL     1      39.212  -1.082  -3.886  1.00  0.00    -0.507 OA
ATOM     25  H   UNL     1      39.284  -1.321  -4.863  1.00  0.00     0.293 HD
ENDBRANCH   6  24
BRANCH   8  26
ATOM     26  O   UNL     1      39.151  -2.319   0.737  1.00  0.00    -0.508 OA
ATOM     27  H   UNL     1      38.523  -2.181   1.520  1.00  0.00     0.293 HD
ENDBRANCH   8  26
TORSDOF 6
ENDMDL
MODEL 7
REMARK VINA RESULT:    -6.132      2.148      3.796
REMARK INTER + INTRA:          -7.721
REMARK INTER:                  -7.418
REMARK INTRA:                  -0.303
REMARK UNBOUND:                -0.334
REMARK SMILES O=c1c(O)c(-c2ccc(O)c(O)c2)oc2cc(O)cc(O)c12
REMARK SMILES IDX 5 1 3 2 2 3 1 4 22 5 20 6 19 7 17 8 16 9 15 10 14 11 6 12
REMARK SMILES IDX 7 13 8 14 9 15 13 16 11 17 10 18 12 20 4 22 21 24 18 26
REMARK H PARENT 10 19 12 21 4 23 21 25 18 27
REMARK Flexibility Score: inf
ROOT
ATOM      1  C   UNL     1      39.378  -3.852   0.485  1.00  0.00     0.180 A 
ATOM      2  C   UNL     1      39.893  -5.086   0.918  1.00  0.00     0.208 A 
ATOM      3  C   UNL     1      40.310  -5.219   2.253  1.00  0.00     0.238 A 
ATOM      4  O   UNL     1      40.819  -6.309   2.620  1.00  0.00    -0.285 OA
ATOM      5  C   UNL     1      40.190  -4.123   3.141  1.00  0.00     0.111 A 
ATOM      6  C   UNL     1      40.543  -4.158   4.523  1.00  0.00     0.134 A 
ATOM      7  C   UNL     1      40.506  -2.978   5.277  1.00  0.00     0.093 A 
ATOM      8  C   UNL     1      40.068  -1.779   4.715  1.00  0.00     0.123 A 
ATOM      9  C   UNL     1      39.663  -1.747   3.379  1.00  0.00     0.094 A 
ATOM     10  C   UNL     1      39.723  -2.900   2.593  1.00  0.00     0.146 A 
ATOM     11  O   UNL     1      39.340  -2.823   1.325  1.00  0.00    -0.452 OA
ENDROOT
BRANCH   1  12
ATOM     12  C   UNL     1      38.895  -3.643  -0.898  1.00  0.00     0.025 A 
ATOM     13  C   UNL     1      37.527  -3.787  -1.182  1.00  0.00     0.016 A 
ATOM     14  C   UNL     1      37.052  -3.616  -2.485  1.00  0.00     0.051 A 
ATOM     15  C   UNL     1      37.940  -3.311  -3.525  1.00  0.00     0.157 A 
ATOM     16  C   UNL     1      39.785  -3.358  -1.950  1.00  0.00     0.062 A 
ATOM     17  C   UNL     1      39.309  -3.187  -3.258  1.00  0.00     0.158 A 
BRANCH  15  18
ATOM     18  O   UNL     1      37.469  -3.137  -4.826  1.00  0.00    -0.504 OA
ATOM     19  H   UNL     1      37.630  -3.832  -5.545  1.00  0.00     0.293 HD
ENDBRANCH  15  18
BRANCH  17  20
ATOM     20  O   UNL     1      40.191  -2.898  -4.297  1.00  0.00    -0.504 OA
ATOM     21  H   UNL     1      41.193  -3.007  -4.189  1.00  0.00     0.293 HD
ENDBRANCH  17  20
ENDBRANCH   1  12
BRANCH   2  22
ATOM     22  O   UNL     1      40.022  -6.149   0.020  1.00  0.00    -0.502 OA
ATOM     23  H   UNL     1      39.248  -6.483  -0.542  1.00  0.00     0.293 HD
ENDBRANCH   2  22
BRANCH   6  24
ATOM     24  O   UNL     1      40.907  -5.323   5.207  1.00  0.00    -0.507 OA
ATOM     25  H   UNL     1      40.471  -6.223   5.081  1.00  0.00     0.293 HD
ENDBRANCH   6  24
BRANCH   8  26
ATOM     26  O   UNL     1      40.029  -0.627   5.497  1.00  0.00    -0.508 OA
ATOM     27  H   UNL     1      40.807  -0.361   6.089  1.00  0.00     0.293 HD
ENDBRANCH   8  26
TORSDOF 6
ENDMDL
MODEL 8
REMARK VINA RESULT:    -6.093      1.916      6.961
REMARK INTER + INTRA:          -7.674
REMARK INTER:                  -7.355
REMARK INTRA:                  -0.319
REMARK UNBOUND:                -0.334
REMARK SMILES O=c1c(O)c(-c2ccc(O)c(O)c2)oc2cc(O)cc(O)c12
REMARK SMILES IDX 5 1 3 2 2 3 1 4 22 5 20 6 19 7 17 8 16 9 15 10 14 11 6 12
REMARK SMILES IDX 7 13 8 14 9 15 13 16 11 17 10 18 12 20 4 22 21 24 18 26
REMARK H PARENT 10 19 12 21 4 23 21 25 18 27
REMARK Flexibility Score: inf
ROOT
ATOM      1  C   UNL     1      38.296  -3.530  -1.106  1.00  0.00     0.180 A 
ATOM      2  C   UNL     1      38.825  -2.972  -2.284  1.00  0.00     0.208 A 
ATOM      3  C   UNL     1      38.054  -3.005  -3.458  1.00  0.00     0.238 A 
ATOM      4  O   UNL     1      38.554  -2.553  -4.520  1.00  0.00    -0.285 OA
ATOM      5  C   UNL     1      36.761  -3.580  -3.436  1.00  0.00     0.111 A 
ATOM      6  C   UNL     1      35.879  -3.632  -4.556  1.00  0.00     0.134 A 
ATOM      7  C   UNL     1      34.674  -4.341  -4.456  1.00  0.00     0.093 A 
ATOM      8  C   UNL     1      34.292  -4.944  -3.258  1.00  0.00     0.123 A 
ATOM      9  C   UNL     1      35.121  -4.847  -2.138  1.00  0.00     0.094 A 
ATOM     10  C   UNL     1      36.344  -4.178  -2.218  1.00  0.00     0.146 A 
ATOM     11  O   UNL     1      37.106  -4.120  -1.134  1.00  0.00    -0.452 OA
ENDROOT
BRANCH   1  12
ATOM     12  C   UNL     1      39.037  -3.509   0.175  1.00  0.00     0.025 A 
ATOM     13  C   UNL     1      39.710  -4.666   0.602  1.00  0.00     0.016 A 
ATOM     14  C   UNL     1      40.398  -4.676   1.819  1.00  0.00     0.051 A 
ATOM     15  C   UNL     1      40.410  -3.536   2.631  1.00  0.00     0.157 A 
ATOM     16  C   UNL     1      39.035  -2.374   1.006  1.00  0.00     0.062 A 
ATOM     17  C   UNL     1      39.724  -2.384   2.227  1.00  0.00     0.158 A 
BRANCH  15  18
ATOM     18  O   UNL     1      41.097  -3.542   3.845  1.00  0.00    -0.504 OA
ATOM     19  H   UNL     1      40.659  -3.233   4.704  1.00  0.00     0.293 HD
ENDBRANCH  15  18
BRANCH  17  20
ATOM     20  O   UNL     1      39.726  -1.256   3.045  1.00  0.00    -0.504 OA
ATOM     21  H   UNL     1      39.741  -0.320   2.658  1.00  0.00     0.293 HD
ENDBRANCH  17  20
ENDBRANCH   1  12
BRANCH   2  22
ATOM     22  O   UNL     1      40.112  -2.428  -2.288  1.00  0.00    -0.502 OA
ATOM     23  H   UNL     1      40.341  -1.569  -1.803  1.00  0.00     0.293 HD
ENDBRANCH   2  22
BRANCH   6  24
ATOM     24  O   UNL     1      36.122  -2.986  -5.772  1.00  0.00    -0.507 OA
ATOM     25  H   UNL     1      36.342  -2.006  -5.869  1.00  0.00     0.293 HD
ENDBRANCH   6  24
BRANCH   8  26
ATOM     26  O   UNL     1      33.080  -5.627  -3.188  1.00  0.00    -0.508 OA
ATOM     27  H   UNL     1      32.315  -5.292  -2.616  1.00  0.00     0.293 HD
ENDBRANCH   8  26
TORSDOF 6
ENDMDL
