MODEL 1
REMARK VINA RESULT:    -3.633      0.000      0.000
REMARK INTER + INTRA:          -5.861
REMARK INTER:                  -5.333
REMARK INTRA:                  -0.529
REMARK UNBOUND:                -0.529
REMARK SMILES O=C([O-])CCCCCCCC(=O)[O-]
REMARK SMILES IDX 7 1 6 2 5 3 4 4 2 5 1 6 3 7 8 8 9 9 10 10 11 11 12 12 13 13
REMARK H PARENT
REMARK Flexibility Score: inf
ROOT
ATOM      1  C   UNL     1      35.513  27.314  15.094  1.00  0.00     0.000 C 
ENDROOT
BRANCH   1   2
ATOM      2  C   UNL     1      36.716  28.139  15.566  1.00  0.00     0.000 C 
BRANCH   2   3
ATOM      3  C   UNL     1      36.350  29.003  16.779  1.00  0.00     0.006 C 
BRANCH   3   4
ATOM      4  C   UNL     1      34.857  28.893  17.102  1.00  0.00     0.053 C 
BRANCH   4   5
ATOM      5  C   UNL     1      34.659  28.390  18.497  1.00  0.00     0.041 C 
ATOM      6  O   UNL     1      34.473  29.201  19.442  1.00  0.00    -0.550 OA
ATOM      7  O   UNL     1      34.632  27.023  18.746  1.00  0.00    -0.550 OA
ENDBRANCH   4   5
ENDBRANCH   3   4
ENDBRANCH   2   3
ENDBRANCH   1   2
BRANCH   1   8
ATOM      8  C   UNL     1      35.623  26.984  13.601  1.00  0.00     0.000 C 
BRANCH   8   9
ATOM      9  C   UNL     1      34.279  27.187  12.892  1.00  0.00     0.006 C 
BRANCH   9  10
ATOM     10  C   UNL     1      34.117  28.637  12.426  1.00  0.00     0.053 C 
BRANCH  10  11
ATOM     11  C   UNL     1      32.960  29.284  13.119  1.00  0.00     0.041 C 
ATOM     12  O   UNL     1      32.295  28.642  13.975  1.00  0.00    -0.550 OA
ATOM     13  O   UNL     1      32.646  30.611  12.858  1.00  0.00    -0.550 OA
ENDBRANCH  10  11
ENDBRANCH   9  10
ENDBRANCH   8   9
ENDBRANCH   1   8
TORSDOF 8
ENDMDL
MODEL 2
REMARK VINA RESULT:    -3.617      0.627      5.187
REMARK INTER + INTRA:          -5.837
REMARK INTER:                  -5.457
REMARK INTRA:                  -0.379
REMARK UNBOUND:                -0.529
REMARK SMILES O=C([O-])CCCCCCCC(=O)[O-]
REMARK SMILES IDX 7 1 6 2 5 3 4 4 2 5 1 6 3 7 8 8 9 9 10 10 11 11 12 12 13 13
REMARK H PARENT
REMARK Flexibility Score: inf
ROOT
ATOM      1  C   UNL     1      36.062  27.818  14.229  1.00  0.00     0.000 C 
ENDROOT
BRANCH   1   2
ATOM      2  C   UNL     1      34.874  26.875  14.007  1.00  0.00     0.000 C 
BRANCH   2   3
ATOM      3  C   UNL     1      34.132  27.219  12.710  1.00  0.00     0.006 C 
BRANCH   3   4
ATOM      4  C   UNL     1      34.110  28.732  12.474  1.00  0.00     0.053 C 
BRANCH   4   5
ATOM      5  C   UNL     1      32.913  29.346  13.127  1.00  0.00     0.041 C 
ATOM      6  O   UNL     1      32.223  28.679  13.943  1.00  0.00    -0.550 OA
ATOM      7  O   UNL     1      32.584  30.673  12.871  1.00  0.00    -0.550 OA
ENDBRANCH   4   5
ENDBRANCH   3   4
ENDBRANCH   2   3
ENDBRANCH   1   2
BRANCH   1   8
ATOM      8  C   UNL     1      36.342  28.010  15.724  1.00  0.00     0.000 C 
BRANCH   8   9
ATOM      9  C   UNL     1      35.150  28.671  16.426  1.00  0.00     0.006 C 
BRANCH   9  10
ATOM     10  C   UNL     1      35.531  29.134  17.836  1.00  0.00     0.053 C 
BRANCH  10  11
ATOM     11  C   UNL     1      34.682  28.448  18.860  1.00  0.00     0.041 C 
ATOM     12  O   UNL     1      34.461  27.211  18.773  1.00  0.00    -0.550 OA
ATOM     13  O   UNL     1      34.177  29.164  19.937  1.00  0.00    -0.550 OA
ENDBRANCH  10  11
ENDBRANCH   9  10
ENDBRANCH   8   9
ENDBRANCH   1   8
TORSDOF 8
ENDMDL
MODEL 3
REMARK VINA RESULT:    -3.507     17.088     18.182
REMARK INTER + INTRA:          -5.676
REMARK INTER:                  -5.084
REMARK INTRA:                  -0.592
REMARK UNBOUND:                -0.529
REMARK SMILES O=C([O-])CCCCCCCC(=O)[O-]
REMARK SMILES IDX 7 1 6 2 5 3 4 4 2 5 1 6 3 7 8 8 9 9 10 10 11 11 12 12 13 13
REMARK H PARENT
REMARK Flexibility Score: inf
ROOT
ATOM      1  C   UNL     1      35.833  45.576  21.404  1.00  0.00     0.000 C 
ENDROOT
BRANCH   1   2
ATOM      2  C   UNL     1      35.811  46.433  22.675  1.00  0.00     0.000 C 
BRANCH   2   3
ATOM      3  C   UNL     1      37.120  46.289  23.460  1.00  0.00     0.006 C 
BRANCH   3   4
ATOM      4  C   UNL     1      36.871  45.665  24.837  1.00  0.00     0.053 C 
BRANCH   4   5
ATOM      5  C   UNL     1      36.355  44.268  24.692  1.00  0.00     0.041 C 
ATOM      6  O   UNL     1      35.207  43.970  25.113  1.00  0.00    -0.550 OA
ATOM      7  O   UNL     1      37.125  43.305  24.050  1.00  0.00    -0.550 OA
ENDBRANCH   4   5
ENDBRANCH   3   4
ENDBRANCH   2   3
ENDBRANCH   1   2
BRANCH   1   8
ATOM      8  C   UNL     1      34.520  44.803  21.238  1.00  0.00     0.000 C 
BRANCH   8   9
ATOM      9  C   UNL     1      33.401  45.432  22.076  1.00  0.00     0.006 C 
BRANCH   9  10
ATOM     10  C   UNL     1      32.043  44.811  21.734  1.00  0.00     0.053 C 
BRANCH  10  11
ATOM     11  C   UNL     1      31.740  43.672  22.655  1.00  0.00     0.041 C 
ATOM     12  O   UNL     1      32.159  43.689  23.843  1.00  0.00    -0.550 OA
ATOM     13  O   UNL     1      30.954  42.615  22.219  1.00  0.00    -0.550 OA
ENDBRANCH  10  11
ENDBRANCH   9  10
ENDBRANCH   8   9
ENDBRANCH   1   8
TORSDOF 8
ENDMDL
MODEL 4
REMARK VINA RESULT:    -3.502     17.416     18.747
REMARK INTER + INTRA:          -5.668
REMARK INTER:                  -5.141
REMARK INTRA:                  -0.528
REMARK UNBOUND:                -0.529
REMARK SMILES O=C([O-])CCCCCCCC(=O)[O-]
REMARK SMILES IDX 7 1 6 2 5 3 4 4 2 5 1 6 3 7 8 8 9 9 10 10 11 11 12 12 13 13
REMARK H PARENT
REMARK Flexibility Score: inf
ROOT
ATOM      1  C   UNL     1      36.359  45.704  21.341  1.00  0.00     0.000 C 
ENDROOT
BRANCH   1   2
ATOM      2  C   UNL     1      35.144  44.854  20.951  1.00  0.00     0.000 C 
BRANCH   2   3
ATOM      3  C   UNL     1      33.944  45.163  21.854  1.00  0.00     0.006 C 
BRANCH   3   4
ATOM      4  C   UNL     1      32.644  44.633  21.241  1.00  0.00     0.053 C 
BRANCH   4   5
ATOM      5  C   UNL     1      31.596  44.471  22.295  1.00  0.00     0.041 C 
ATOM      6  O   UNL     1      31.546  43.417  22.983  1.00  0.00    -0.550 OA
ATOM      7  O   UNL     1      30.701  45.503  22.552  1.00  0.00    -0.550 OA
ENDBRANCH   4   5
ENDBRANCH   3   4
ENDBRANCH   2   3
ENDBRANCH   1   2
BRANCH   1   8
ATOM      8  C   UNL     1      36.144  46.382  22.700  1.00  0.00     0.000 C 
BRANCH   8   9
ATOM      9  C   UNL     1      37.125  45.841  23.747  1.00  0.00     0.006 C 
BRANCH   9  10
ATOM     10  C   UNL     1      36.408  45.538  25.066  1.00  0.00     0.053 C 
BRANCH  10  11
ATOM     11  C   UNL     1      35.963  44.110  25.105  1.00  0.00     0.041 C 
ATOM     12  O   UNL     1      34.736  43.829  25.092  1.00  0.00    -0.550 OA
ATOM     13  O   UNL     1      36.904  43.089  25.105  1.00  0.00    -0.550 OA
ENDBRANCH  10  11
ENDBRANCH   9  10
ENDBRANCH   8   9
ENDBRANCH   1   8
TORSDOF 8
ENDMDL
MODEL 5
REMARK VINA RESULT:    -3.465      0.979      5.703
REMARK INTER + INTRA:          -5.614
REMARK INTER:                  -5.217
REMARK INTRA:                  -0.397
REMARK UNBOUND:                -0.529
REMARK SMILES O=C([O-])CCCCCCCC(=O)[O-]
REMARK SMILES IDX 7 1 6 2 5 3 4 4 2 5 1 6 3 7 8 8 9 9 10 10 11 11 12 12 13 13
REMARK H PARENT
REMARK Flexibility Score: inf
ROOT
ATOM      1  C   UNL     1      35.320  27.434  15.518  1.00  0.00     0.000 C 
ENDROOT
BRANCH   1   2
ATOM      2  C   UNL     1      35.668  27.621  14.037  1.00  0.00     0.000 C 
BRANCH   2   3
ATOM      3  C   UNL     1      34.476  27.264  13.142  1.00  0.00     0.006 C 
BRANCH   3   4
ATOM      4  C   UNL     1      34.008  28.481  12.338  1.00  0.00     0.053 C 
BRANCH   4   5
ATOM      5  C   UNL     1      32.942  29.221  13.083  1.00  0.00     0.041 C 
ATOM      6  O   UNL     1      32.252  28.631  13.955  1.00  0.00    -0.550 OA
ATOM      7  O   UNL     1      32.743  30.577  12.848  1.00  0.00    -0.550 OA
ENDBRANCH   4   5
ENDBRANCH   3   4
ENDBRANCH   2   3
ENDBRANCH   1   2
BRANCH   1   8
ATOM      8  C   UNL     1      35.021  28.781  16.188  1.00  0.00     0.000 C 
BRANCH   8   9
ATOM      9  C   UNL     1      35.642  28.849  17.588  1.00  0.00     0.006 C 
BRANCH   9  10
ATOM     10  C   UNL     1      34.562  28.786  18.672  1.00  0.00     0.053 C 
BRANCH  10  11
ATOM     11  C   UNL     1      35.173  28.486  20.004  1.00  0.00     0.041 C 
ATOM     12  O   UNL     1      35.928  27.487  20.144  1.00  0.00    -0.550 OA
ATOM     13  O   UNL     1      34.950  29.335  21.080  1.00  0.00    -0.550 OA
ENDBRANCH  10  11
ENDBRANCH   9  10
ENDBRANCH   8   9
ENDBRANCH   1   8
TORSDOF 8
ENDMDL
MODEL 6
REMARK VINA RESULT:    -3.280      1.580      6.039
REMARK INTER + INTRA:          -5.342
REMARK INTER:                  -4.980
REMARK INTRA:                  -0.362
REMARK UNBOUND:                -0.529
REMARK SMILES O=C([O-])CCCCCCCC(=O)[O-]
REMARK SMILES IDX 7 1 6 2 5 3 4 4 2 5 1 6 3 7 8 8 9 9 10 10 11 11 12 12 13 13
REMARK H PARENT
REMARK Flexibility Score: inf
ROOT
ATOM      1  C   UNL     1      35.223  28.653  16.537  1.00  0.00     0.000 C 
ENDROOT
BRANCH   1   2
ATOM      2  C   UNL     1      35.852  27.892  15.364  1.00  0.00     0.000 C 
BRANCH   2   3
ATOM      3  C   UNL     1      34.842  26.931  14.726  1.00  0.00     0.006 C 
BRANCH   3   4
ATOM      4  C   UNL     1      34.712  27.188  13.222  1.00  0.00     0.053 C 
BRANCH   4   5
ATOM      5  C   UNL     1      33.860  28.391  12.968  1.00  0.00     0.041 C 
ATOM      6  O   UNL     1      34.146  29.184  12.032  1.00  0.00    -0.550 OA
ATOM      7  O   UNL     1      32.722  28.612  13.735  1.00  0.00    -0.550 OA
ENDBRANCH   4   5
ENDBRANCH   3   4
ENDBRANCH   2   3
ENDBRANCH   1   2
BRANCH   1   8
ATOM      8  C   UNL     1      36.291  29.093  17.545  1.00  0.00     0.000 C 
BRANCH   8   9
ATOM      9  C   UNL     1      36.265  28.207  18.796  1.00  0.00     0.006 C 
BRANCH   9  10
ATOM     10  C   UNL     1      36.464  29.041  20.064  1.00  0.00     0.053 C 
BRANCH  10  11
ATOM     11  C   UNL     1      35.209  29.062  20.880  1.00  0.00     0.041 C 
ATOM     12  O   UNL     1      35.244  28.762  22.102  1.00  0.00    -0.550 OA
ATOM     13  O   UNL     1      34.011  29.460  20.303  1.00  0.00    -0.550 OA
ENDBRANCH  10  11
ENDBRANCH   9  10
ENDBRANCH   8   9
ENDBRANCH   1   8
TORSDOF 8
ENDMDL
MODEL 7
REMARK VINA RESULT:    -3.271      1.379      2.211
REMARK INTER + INTRA:          -5.329
REMARK INTER:                  -4.858
REMARK INTRA:                  -0.471
REMARK UNBOUND:                -0.529
REMARK SMILES O=C([O-])CCCCCCCC(=O)[O-]
REMARK SMILES IDX 7 1 6 2 5 3 4 4 2 5 1 6 3 7 8 8 9 9 10 10 11 11 12 12 13 13
REMARK H PARENT
REMARK Flexibility Score: inf
ROOT
ATOM      1  C   UNL     1      35.188  28.541  16.608  1.00  0.00     0.000 C 
ENDROOT
BRANCH   1   2
ATOM      2  C   UNL     1      36.268  29.146  17.512  1.00  0.00     0.000 C 
BRANCH   2   3
ATOM      3  C   UNL     1      36.697  28.153  18.598  1.00  0.00     0.006 C 
BRANCH   3   4
ATOM      4  C   UNL     1      35.518  27.785  19.505  1.00  0.00     0.053 C 
BRANCH   4   5
ATOM      5  C   UNL     1      35.121  28.955  20.348  1.00  0.00     0.041 C 
ATOM      6  O   UNL     1      33.961  29.436  20.258  1.00  0.00    -0.550 OA
ATOM      7  O   UNL     1      36.017  29.485  21.269  1.00  0.00    -0.550 OA
ENDBRANCH   4   5
ENDBRANCH   3   4
ENDBRANCH   2   3
ENDBRANCH   1   2
BRANCH   1   8
ATOM      8  C   UNL     1      35.794  28.016  15.301  1.00  0.00     0.000 C 
BRANCH   8   9
ATOM      9  C   UNL     1      34.873  26.982  14.643  1.00  0.00     0.006 C 
BRANCH   9  10
ATOM     10  C   UNL     1      34.704  27.269  13.148  1.00  0.00     0.053 C 
BRANCH  10  11
ATOM     11  C   UNL     1      33.825  28.462  12.939  1.00  0.00     0.041 C 
ATOM     12  O   UNL     1      34.106  29.308  12.051  1.00  0.00    -0.550 OA
ATOM     13  O   UNL     1      32.667  28.612  13.691  1.00  0.00    -0.550 OA
ENDBRANCH  10  11
ENDBRANCH   9  10
ENDBRANCH   8   9
ENDBRANCH   1   8
TORSDOF 8
ENDMDL
MODEL 8
REMARK VINA RESULT:    -3.016      0.941      1.428
REMARK INTER + INTRA:          -4.955
REMARK INTER:                  -4.549
REMARK INTRA:                  -0.406
REMARK UNBOUND:                -0.529
REMARK SMILES O=C([O-])CCCCCCCC(=O)[O-]
REMARK SMILES IDX 7 1 6 2 5 3 4 4 2 5 1 6 3 7 8 8 9 9 10 10 11 11 12 12 13 13
REMARK H PARENT
REMARK Flexibility Score: inf
ROOT
ATOM      1  C   UNL     1      35.433  26.875  14.259  1.00  0.00     0.000 C 
ENDROOT
BRANCH   1   2
ATOM      2  C   UNL     1      36.782  27.317  14.839  1.00  0.00     0.000 C 
BRANCH   2   3
ATOM      3  C   UNL     1      36.659  27.643  16.332  1.00  0.00     0.006 C 
BRANCH   3   4
ATOM      4  C   UNL     1      35.578  28.700  16.577  1.00  0.00     0.053 C 
BRANCH   4   5
ATOM      5  C   UNL     1      35.460  28.999  18.038  1.00  0.00     0.041 C 
ATOM      6  O   UNL     1      36.451  29.440  18.677  1.00  0.00    -0.550 OA
ATOM      7  O   UNL     1      34.241  28.835  18.685  1.00  0.00    -0.550 OA
ENDBRANCH   4   5
ENDBRANCH   3   4
ENDBRANCH   2   3
ENDBRANCH   1   2
BRANCH   1   8
ATOM      8  C   UNL     1      35.447  26.931  12.727  1.00  0.00     0.000 C 
BRANCH   8   9
ATOM      9  C   UNL     1      34.062  27.293  12.176  1.00  0.00     0.006 C 
BRANCH   9  10
ATOM     10  C   UNL     1      33.938  28.803  11.951  1.00  0.00     0.053 C 
BRANCH  10  11
ATOM     11  C   UNL     1      32.992  29.405  12.940  1.00  0.00     0.041 C 
ATOM     12  O   UNL     1      32.712  30.632  12.884  1.00  0.00    -0.550 OA
ATOM     13  O   UNL     1      32.379  28.603  13.894  1.00  0.00    -0.550 OA
ENDBRANCH  10  11
ENDBRANCH   9  10
ENDBRANCH   8   9
ENDBRANCH   1   8
TORSDOF 8
ENDMDL
MODEL 9
REMARK VINA RESULT:    -2.704      3.013      4.612
REMARK INTER + INTRA:          -4.497
REMARK INTER:                  -3.988
REMARK INTRA:                  -0.509
REMARK UNBOUND:                -0.529
REMARK SMILES O=C([O-])CCCCCCCC(=O)[O-]
REMARK SMILES IDX 7 1 6 2 5 3 4 4 2 5 1 6 3 7 8 8 9 9 10 10 11 11 12 12 13 13
REMARK H PARENT
REMARK Flexibility Score: inf
ROOT
ATOM      1  C   UNL     1      34.445  28.644  18.651  1.00  0.00     0.000 C 
ENDROOT
BRANCH   1   2
ATOM      2  C   UNL     1      34.577  29.141  20.095  1.00  0.00     0.000 C 
BRANCH   2   3
ATOM      3  C   UNL     1      35.517  28.240  20.905  1.00  0.00     0.006 C 
BRANCH   3   4
ATOM      4  C   UNL     1      36.622  29.060  21.577  1.00  0.00     0.053 C 
BRANCH   4   5
ATOM      5  C   UNL     1      36.076  29.811  22.750  1.00  0.00     0.041 C 
ATOM      6  O   UNL     1      36.390  31.017  22.932  1.00  0.00    -0.550 OA
ATOM      7  O   UNL     1      35.183  29.193  23.617  1.00  0.00    -0.550 OA
ENDBRANCH   4   5
ENDBRANCH   3   4
ENDBRANCH   2   3
ENDBRANCH   1   2
BRANCH   1   8
ATOM      8  C   UNL     1      34.984  27.215  18.509  1.00  0.00     0.000 C 
BRANCH   8   9
ATOM      9  C   UNL     1      36.147  27.161  17.512  1.00  0.00     0.006 C 
BRANCH   9  10
ATOM     10  C   UNL     1      36.118  28.367  16.568  1.00  0.00     0.053 C 
BRANCH  10  11
ATOM     11  C   UNL     1      35.888  27.923  15.158  1.00  0.00     0.041 C 
ATOM     12  O   UNL     1      36.861  27.794  14.368  1.00  0.00    -0.550 OA
ATOM     13  O   UNL     1      34.607  27.603  14.729  1.00  0.00    -0.550 OA
ENDBRANCH  10  11
ENDBRANCH   9  10
ENDBRANCH   8   9
ENDBRANCH   1   8
TORSDOF 8
ENDMDL
