MODEL 1
REMARK VINA RESULT:    -5.051      0.000      0.000
REMARK INTER + INTRA:         -13.528
REMARK INTER:                 -10.956
REMARK INTRA:                  -2.572
REMARK UNBOUND:                -2.572
REMARK SMILES CCCCCCCCCCCCCCCCCCCCCC(=O)[O-]
REMARK SMILES IDX 12 1 11 2 10 3 9 4 8 5 7 6 6 7 5 8 4 9 3 10 2 11 1 12 13 13
REMARK SMILES IDX 14 14 15 15 16 16 17 17 18 18 19 19 20 20 21 21 22 22 23 23
REMARK SMILES IDX 24 24
REMARK H PARENT
REMARK Flexibility Score: inf
ROOT
ATOM      1  C   UNL     1      40.987  40.458  15.909  1.00  0.00     0.000 C 
ENDROOT
BRANCH   1   2
ATOM      2  C   UNL     1      40.450  40.887  17.287  1.00  0.00     0.000 C 
BRANCH   2   3
ATOM      3  C   UNL     1      41.501  40.957  18.410  1.00  0.00     0.000 C 
BRANCH   3   4
ATOM      4  C   UNL     1      41.862  42.399  18.805  1.00  0.00    -0.000 C 
BRANCH   4   5
ATOM      5  C   UNL     1      43.212  42.860  18.227  1.00  0.00    -0.000 C 
BRANCH   5   6
ATOM      6  C   UNL     1      43.153  44.118  17.336  1.00  0.00    -0.000 C 
BRANCH   6   7
ATOM      7  C   UNL     1      41.741  44.539  16.890  1.00  0.00    -0.000 C 
BRANCH   7   8
ATOM      8  C   UNL     1      41.741  45.339  15.579  1.00  0.00    -0.000 C 
BRANCH   8   9
ATOM      9  C   UNL     1      41.887  46.843  15.853  1.00  0.00    -0.000 C 
BRANCH   9  10
ATOM     10  C   UNL     1      40.625  47.645  15.486  1.00  0.00    -0.000 C 
BRANCH  10  11
ATOM     11  C   UNL     1      40.259  47.627  13.991  1.00  0.00    -0.003 C 
ATOM     12  C   UNL     1      38.756  47.503  13.746  1.00  0.00     0.004 C 
ENDBRANCH  10  11
ENDBRANCH   9  10
ENDBRANCH   8   9
ENDBRANCH   7   8
ENDBRANCH   6   7
ENDBRANCH   5   6
ENDBRANCH   4   5
ENDBRANCH   3   4
ENDBRANCH   2   3
ENDBRANCH   1   2
BRANCH   1  13
ATOM     13  C   UNL     1      41.407  41.646  15.032  1.00  0.00     0.000 C 
BRANCH  13  14
ATOM     14  C   UNL     1      42.918  41.625  14.767  1.00  0.00     0.000 C 
BRANCH  14  15
ATOM     15  C   UNL     1      43.555  40.335  15.305  1.00  0.00     0.000 C 
BRANCH  15  16
ATOM     16  C   UNL     1      44.622  39.753  14.360  1.00  0.00     0.000 C 
BRANCH  16  17
ATOM     17  C   UNL     1      44.825  38.230  14.458  1.00  0.00     0.000 C 
BRANCH  17  18
ATOM     18  C   UNL     1      43.972  37.446  13.446  1.00  0.00     0.000 C 
BRANCH  18  19
ATOM     19  C   UNL     1      42.553  37.149  13.961  1.00  0.00     0.000 C 
BRANCH  19  20
ATOM     20  C   UNL     1      41.438  38.051  13.394  1.00  0.00     0.006 C 
BRANCH  20  21
ATOM     21  C   UNL     1      40.090  37.332  13.190  1.00  0.00     0.053 C 
BRANCH  21  22
ATOM     22  C   UNL     1      39.141  38.114  12.331  1.00  0.00     0.041 C 
ATOM     23  O   UNL     1      38.345  37.519  11.558  1.00  0.00    -0.550 OA
ATOM     24  O   UNL     1      39.173  39.502  12.346  1.00  0.00    -0.550 OA
ENDBRANCH  21  22
ENDBRANCH  20  21
ENDBRANCH  19  20
ENDBRANCH  18  19
ENDBRANCH  17  18
ENDBRANCH  16  17
ENDBRANCH  15  16
ENDBRANCH  14  15
ENDBRANCH  13  14
ENDBRANCH   1  13
TORSDOF 20
ENDMDL
MODEL 2
REMARK VINA RESULT:    -4.995      2.648      7.248
REMARK INTER + INTRA:         -13.408
REMARK INTER:                 -11.225
REMARK INTRA:                  -2.183
REMARK UNBOUND:                -2.572
REMARK SMILES CCCCCCCCCCCCCCCCCCCCCC(=O)[O-]
REMARK SMILES IDX 12 1 11 2 10 3 9 4 8 5 7 6 6 7 5 8 4 9 3 10 2 11 1 12 13 13
REMARK SMILES IDX 14 14 15 15 16 16 17 17 18 18 19 19 20 20 21 21 22 22 23 23
REMARK SMILES IDX 24 24
REMARK H PARENT
REMARK Flexibility Score: inf
ROOT
ATOM      1  C   UNL     1      40.273  40.651  16.865  1.00  0.00     0.000 C 
ENDROOT
BRANCH   1   2
ATOM      2  C   UNL     1      40.958  40.682  15.486  1.00  0.00     0.000 C 
BRANCH   2   3
ATOM      3  C   UNL     1      42.229  41.548  15.403  1.00  0.00     0.000 C 
BRANCH   3   4
ATOM      4  C   UNL     1      43.522  40.715  15.397  1.00  0.00    -0.000 C 
BRANCH   4   5
ATOM      5  C   UNL     1      43.279  39.231  15.067  1.00  0.00    -0.000 C 
BRANCH   5   6
ATOM      6  C   UNL     1      43.851  38.753  13.717  1.00  0.00    -0.000 C 
BRANCH   6   7
ATOM      7  C   UNL     1      43.260  37.434  13.186  1.00  0.00    -0.000 C 
BRANCH   7   8
ATOM      8  C   UNL     1      42.084  36.924  14.031  1.00  0.00    -0.000 C 
BRANCH   8   9
ATOM      9  C   UNL     1      40.767  37.005  13.245  1.00  0.00    -0.000 C 
BRANCH   9  10
ATOM     10  C   UNL     1      40.126  38.404  13.289  1.00  0.00    -0.000 C 
BRANCH  10  11
ATOM     11  C   UNL     1      39.335  38.793  12.026  1.00  0.00    -0.003 C 
ATOM     12  C   UNL     1      38.294  37.749  11.627  1.00  0.00     0.004 C 
ENDBRANCH  10  11
ENDBRANCH   9  10
ENDBRANCH   8   9
ENDBRANCH   7   8
ENDBRANCH   6   7
ENDBRANCH   5   6
ENDBRANCH   4   5
ENDBRANCH   3   4
ENDBRANCH   2   3
ENDBRANCH   1   2
BRANCH   1  13
ATOM     13  C   UNL     1      41.109  41.318  17.966  1.00  0.00     0.000 C 
BRANCH  13  14
ATOM     14  C   UNL     1      41.728  40.267  18.896  1.00  0.00     0.000 C 
BRANCH  14  15
ATOM     15  C   UNL     1      41.791  40.779  20.344  1.00  0.00     0.000 C 
BRANCH  15  16
ATOM     16  C   UNL     1      42.035  42.297  20.434  1.00  0.00     0.000 C 
BRANCH  16  17
ATOM     17  C   UNL     1      43.501  42.714  20.651  1.00  0.00     0.000 C 
BRANCH  17  18
ATOM     18  C   UNL     1      43.967  43.800  19.666  1.00  0.00     0.000 C 
BRANCH  18  19
ATOM     19  C   UNL     1      43.244  43.728  18.310  1.00  0.00     0.000 C 
BRANCH  19  20
ATOM     20  C   UNL     1      43.622  44.828  17.296  1.00  0.00     0.006 C 
BRANCH  20  21
ATOM     21  C   UNL     1      42.425  45.659  16.795  1.00  0.00     0.053 C 
BRANCH  21  22
ATOM     22  C   UNL     1      41.742  45.037  15.613  1.00  0.00     0.041 C 
ATOM     23  O   UNL     1      40.564  44.605  15.714  1.00  0.00    -0.550 OA
ATOM     24  O   UNL     1      42.427  44.887  14.414  1.00  0.00    -0.550 OA
ENDBRANCH  21  22
ENDBRANCH  20  21
ENDBRANCH  19  20
ENDBRANCH  18  19
ENDBRANCH  17  18
ENDBRANCH  16  17
ENDBRANCH  15  16
ENDBRANCH  14  15
ENDBRANCH  13  14
ENDBRANCH   1  13
TORSDOF 20
ENDMDL
MODEL 3
REMARK VINA RESULT:    -4.883      2.925      7.462
REMARK INTER + INTRA:         -13.163
REMARK INTER:                 -10.729
REMARK INTRA:                  -2.434
REMARK UNBOUND:                -2.572
REMARK SMILES CCCCCCCCCCCCCCCCCCCCCC(=O)[O-]
REMARK SMILES IDX 12 1 11 2 10 3 9 4 8 5 7 6 6 7 5 8 4 9 3 10 2 11 1 12 13 13
REMARK SMILES IDX 14 14 15 15 16 16 17 17 18 18 19 19 20 20 21 21 22 22 23 23
REMARK SMILES IDX 24 24
REMARK H PARENT
REMARK Flexibility Score: inf
ROOT
ATOM      1  C   UNL     1      40.581  40.623  17.295  1.00  0.00     0.000 C 
ENDROOT
BRANCH   1   2
ATOM      2  C   UNL     1      40.757  40.588  15.765  1.00  0.00     0.000 C 
BRANCH   2   3
ATOM      3  C   UNL     1      41.432  41.829  15.152  1.00  0.00     0.000 C 
BRANCH   3   4
ATOM      4  C   UNL     1      42.951  41.662  14.979  1.00  0.00    -0.000 C 
BRANCH   4   5
ATOM      5  C   UNL     1      43.435  40.232  15.280  1.00  0.00    -0.000 C 
BRANCH   5   6
ATOM      6  C   UNL     1      44.440  39.649  14.266  1.00  0.00    -0.000 C 
BRANCH   6   7
ATOM      7  C   UNL     1      44.402  38.117  14.114  1.00  0.00    -0.000 C 
BRANCH   7   8
ATOM      8  C   UNL     1      43.029  37.517  14.450  1.00  0.00    -0.000 C 
BRANCH   8   9
ATOM      9  C   UNL     1      42.135  37.456  13.202  1.00  0.00    -0.000 C 
BRANCH   9  10
ATOM     10  C   UNL     1      40.636  37.568  13.531  1.00  0.00    -0.000 C 
BRANCH  10  11
ATOM     11  C   UNL     1      39.899  38.713  12.813  1.00  0.00    -0.003 C 
ATOM     12  C   UNL     1      38.772  38.223  11.907  1.00  0.00     0.004 C 
ENDBRANCH  10  11
ENDBRANCH   9  10
ENDBRANCH   8   9
ENDBRANCH   7   8
ENDBRANCH   6   7
ENDBRANCH   5   6
ENDBRANCH   4   5
ENDBRANCH   3   4
ENDBRANCH   2   3
ENDBRANCH   1   2
BRANCH   1  13
ATOM     13  C   UNL     1      40.526  42.050  17.860  1.00  0.00     0.000 C 
BRANCH  13  14
ATOM     14  C   UNL     1      41.463  42.199  19.065  1.00  0.00     0.000 C 
BRANCH  14  15
ATOM     15  C   UNL     1      42.934  42.067  18.640  1.00  0.00     0.000 C 
BRANCH  15  16
ATOM     16  C   UNL     1      43.625  43.428  18.438  1.00  0.00     0.000 C 
BRANCH  16  17
ATOM     17  C   UNL     1      43.029  44.309  17.325  1.00  0.00     0.000 C 
BRANCH  17  18
ATOM     18  C   UNL     1      44.017  45.367  16.805  1.00  0.00     0.000 C 
BRANCH  18  19
ATOM     19  C   UNL     1      43.791  45.723  15.325  1.00  0.00     0.000 C 
BRANCH  19  20
ATOM     20  C   UNL     1      43.506  47.211  15.035  1.00  0.00     0.006 C 
BRANCH  20  21
ATOM     21  C   UNL     1      42.542  47.448  13.856  1.00  0.00     0.053 C 
BRANCH  21  22
ATOM     22  C   UNL     1      41.122  47.635  14.298  1.00  0.00     0.041 C 
ATOM     23  O   UNL     1      40.195  47.707  13.449  1.00  0.00    -0.550 OA
ATOM     24  O   UNL     1      40.828  47.784  15.647  1.00  0.00    -0.550 OA
ENDBRANCH  21  22
ENDBRANCH  20  21
ENDBRANCH  19  20
ENDBRANCH  18  19
ENDBRANCH  17  18
ENDBRANCH  16  17
ENDBRANCH  15  16
ENDBRANCH  14  15
ENDBRANCH  13  14
ENDBRANCH   1  13
TORSDOF 20
ENDMDL
MODEL 4
REMARK VINA RESULT:    -4.714      1.680      4.006
REMARK INTER + INTRA:         -12.797
REMARK INTER:                 -10.466
REMARK INTRA:                  -2.331
REMARK UNBOUND:                -2.572
REMARK SMILES CCCCCCCCCCCCCCCCCCCCCC(=O)[O-]
REMARK SMILES IDX 12 1 11 2 10 3 9 4 8 5 7 6 6 7 5 8 4 9 3 10 2 11 1 12 13 13
REMARK SMILES IDX 14 14 15 15 16 16 17 17 18 18 19 19 20 20 21 21 22 22 23 23
REMARK SMILES IDX 24 24
REMARK H PARENT
REMARK Flexibility Score: inf
ROOT
ATOM      1  C   UNL     1      40.646  41.800  15.406  1.00  0.00     0.000 C 
ENDROOT
BRANCH   1   2
ATOM      2  C   UNL     1      40.563  43.035  16.322  1.00  0.00     0.000 C 
BRANCH   2   3
ATOM      3  C   UNL     1      41.175  44.324  15.745  1.00  0.00     0.000 C 
BRANCH   3   4
ATOM      4  C   UNL     1      42.617  44.132  15.244  1.00  0.00    -0.000 C 
BRANCH   4   5
ATOM      5  C   UNL     1      43.639  44.984  16.018  1.00  0.00    -0.000 C 
BRANCH   5   6
ATOM      6  C   UNL     1      43.510  44.936  17.555  1.00  0.00    -0.000 C 
BRANCH   6   7
ATOM      7  C   UNL     1      43.268  43.537  18.148  1.00  0.00    -0.000 C 
BRANCH   7   8
ATOM      8  C   UNL     1      43.834  43.383  19.567  1.00  0.00    -0.000 C 
BRANCH   8   9
ATOM      9  C   UNL     1      42.964  42.435  20.407  1.00  0.00    -0.000 C 
BRANCH   9  10
ATOM     10  C   UNL     1      41.648  42.051  19.707  1.00  0.00    -0.000 C 
BRANCH  10  11
ATOM     11  C   UNL     1      41.426  40.537  19.533  1.00  0.00    -0.003 C 
ATOM     12  C   UNL     1      42.227  39.698  20.527  1.00  0.00     0.004 C 
ENDBRANCH  10  11
ENDBRANCH   9  10
ENDBRANCH   8   9
ENDBRANCH   7   8
ENDBRANCH   6   7
ENDBRANCH   5   6
ENDBRANCH   4   5
ENDBRANCH   3   4
ENDBRANCH   2   3
ENDBRANCH   1   2
BRANCH   1  13
ATOM     13  C   UNL     1      41.081  40.529  16.149  1.00  0.00     0.000 C 
BRANCH  13  14
ATOM     14  C   UNL     1      42.610  40.408  16.181  1.00  0.00     0.000 C 
BRANCH  14  15
ATOM     15  C   UNL     1      43.202  40.533  14.769  1.00  0.00     0.000 C 
BRANCH  15  16
ATOM     16  C   UNL     1      44.432  39.632  14.552  1.00  0.00     0.000 C 
BRANCH  16  17
ATOM     17  C   UNL     1      44.229  38.470  13.562  1.00  0.00     0.000 C 
BRANCH  17  18
ATOM     18  C   UNL     1      43.413  37.311  14.160  1.00  0.00     0.000 C 
BRANCH  18  19
ATOM     19  C   UNL     1      42.195  36.929  13.301  1.00  0.00     0.000 C 
BRANCH  19  20
ATOM     20  C   UNL     1      40.912  37.743  13.567  1.00  0.00     0.006 C 
BRANCH  20  21
ATOM     21  C   UNL     1      39.630  37.095  13.009  1.00  0.00     0.053 C 
BRANCH  21  22
ATOM     22  C   UNL     1      38.863  38.014  12.105  1.00  0.00     0.041 C 
ATOM     23  O   UNL     1      38.027  37.549  11.287  1.00  0.00    -0.550 OA
ATOM     24  O   UNL     1      39.112  39.380  12.130  1.00  0.00    -0.550 OA
ENDBRANCH  21  22
ENDBRANCH  20  21
ENDBRANCH  19  20
ENDBRANCH  18  19
ENDBRANCH  17  18
ENDBRANCH  16  17
ENDBRANCH  15  16
ENDBRANCH  14  15
ENDBRANCH  13  14
ENDBRANCH   1  13
TORSDOF 20
ENDMDL
MODEL 5
REMARK VINA RESULT:    -4.632      1.571      4.609
REMARK INTER + INTRA:         -12.620
REMARK INTER:                 -10.149
REMARK INTRA:                  -2.470
REMARK UNBOUND:                -2.572
REMARK SMILES CCCCCCCCCCCCCCCCCCCCCC(=O)[O-]
REMARK SMILES IDX 12 1 11 2 10 3 9 4 8 5 7 6 6 7 5 8 4 9 3 10 2 11 1 12 13 13
REMARK SMILES IDX 14 14 15 15 16 16 17 17 18 18 19 19 20 20 21 21 22 22 23 23
REMARK SMILES IDX 24 24
REMARK H PARENT
REMARK Flexibility Score: inf
ROOT
ATOM      1  C   UNL     1      44.700  44.977  14.791  1.00  0.00     0.000 C 
ENDROOT
BRANCH   1   2
ATOM      2  C   UNL     1      44.396  46.480  14.655  1.00  0.00     0.000 C 
BRANCH   2   3
ATOM      3  C   UNL     1      43.016  46.821  14.061  1.00  0.00     0.000 C 
BRANCH   3   4
ATOM      4  C   UNL     1      42.011  47.306  15.120  1.00  0.00    -0.000 C 
BRANCH   4   5
ATOM      5  C   UNL     1      40.914  46.270  15.425  1.00  0.00    -0.000 C 
BRANCH   5   6
ATOM      6  C   UNL     1      41.349  45.094  16.325  1.00  0.00    -0.000 C 
BRANCH   6   7
ATOM      7  C   UNL     1      40.493  43.821  16.198  1.00  0.00    -0.000 C 
BRANCH   7   8
ATOM      8  C   UNL     1      40.934  42.706  17.156  1.00  0.00    -0.000 C 
BRANCH   8   9
ATOM      9  C   UNL     1      42.325  42.998  17.737  1.00  0.00    -0.000 C 
BRANCH   9  10
ATOM     10  C   UNL     1      42.735  42.008  18.843  1.00  0.00    -0.000 C 
BRANCH  10  11
ATOM     11  C   UNL     1      41.915  40.705  18.881  1.00  0.00    -0.003 C 
ATOM     12  C   UNL     1      42.029  39.967  20.213  1.00  0.00     0.004 C 
ENDBRANCH  10  11
ENDBRANCH   9  10
ENDBRANCH   8   9
ENDBRANCH   7   8
ENDBRANCH   6   7
ENDBRANCH   5   6
ENDBRANCH   4   5
ENDBRANCH   3   4
ENDBRANCH   2   3
ENDBRANCH   1   2
BRANCH   1  13
ATOM     13  C   UNL     1      44.074  44.134  13.671  1.00  0.00     0.000 C 
BRANCH  13  14
ATOM     14  C   UNL     1      43.166  43.041  14.250  1.00  0.00     0.000 C 
BRANCH  14  15
ATOM     15  C   UNL     1      43.933  41.722  14.426  1.00  0.00     0.000 C 
BRANCH  15  16
ATOM     16  C   UNL     1      43.049  40.578  14.957  1.00  0.00     0.000 C 
BRANCH  16  17
ATOM     17  C   UNL     1      43.713  39.190  14.976  1.00  0.00     0.000 C 
BRANCH  17  18
ATOM     18  C   UNL     1      43.748  38.524  13.590  1.00  0.00     0.000 C 
BRANCH  18  19
ATOM     19  C   UNL     1      42.973  37.195  13.544  1.00  0.00     0.000 C 
BRANCH  19  20
ATOM     20  C   UNL     1      41.532  37.245  14.091  1.00  0.00     0.006 C 
BRANCH  20  21
ATOM     21  C   UNL     1      40.444  37.222  13.000  1.00  0.00     0.053 C 
BRANCH  21  22
ATOM     22  C   UNL     1      39.761  38.547  12.836  1.00  0.00     0.041 C 
ATOM     23  O   UNL     1      39.022  38.763  11.841  1.00  0.00    -0.550 OA
ATOM     24  O   UNL     1      39.984  39.563  13.757  1.00  0.00    -0.550 OA
ENDBRANCH  21  22
ENDBRANCH  20  21
ENDBRANCH  19  20
ENDBRANCH  18  19
ENDBRANCH  17  18
ENDBRANCH  16  17
ENDBRANCH  15  16
ENDBRANCH  14  15
ENDBRANCH  13  14
ENDBRANCH   1  13
TORSDOF 20
ENDMDL
MODEL 6
REMARK VINA RESULT:    -4.576      1.949      4.438
REMARK INTER + INTRA:         -12.499
REMARK INTER:                 -10.570
REMARK INTRA:                  -1.929
REMARK UNBOUND:                -2.572
REMARK SMILES CCCCCCCCCCCCCCCCCCCCCC(=O)[O-]
REMARK SMILES IDX 12 1 11 2 10 3 9 4 8 5 7 6 6 7 5 8 4 9 3 10 2 11 1 12 13 13
REMARK SMILES IDX 14 14 15 15 16 16 17 17 18 18 19 19 20 20 21 21 22 22 23 23
REMARK SMILES IDX 24 24
REMARK H PARENT
REMARK Flexibility Score: inf
ROOT
ATOM      1  C   UNL     1      40.753  44.034  16.379  1.00  0.00     0.000 C 
ENDROOT
BRANCH   1   2
ATOM      2  C   UNL     1      41.659  45.249  16.106  1.00  0.00     0.000 C 
BRANCH   2   3
ATOM      3  C   UNL     1      43.127  45.085  16.540  1.00  0.00     0.000 C 
BRANCH   3   4
ATOM      4  C   UNL     1      43.651  46.284  17.350  1.00  0.00    -0.000 C 
BRANCH   4   5
ATOM      5  C   UNL     1      44.733  45.891  18.371  1.00  0.00    -0.000 C 
BRANCH   5   6
ATOM      6  C   UNL     1      44.700  46.671  19.702  1.00  0.00    -0.000 C 
BRANCH   6   7
ATOM      7  C   UNL     1      44.706  45.800  20.971  1.00  0.00    -0.000 C 
BRANCH   7   8
ATOM      8  C   UNL     1      45.007  44.323  20.681  1.00  0.00    -0.000 C 
BRANCH   8   9
ATOM      9  C   UNL     1      43.800  43.438  21.026  1.00  0.00    -0.000 C 
BRANCH   9  10
ATOM     10  C   UNL     1      43.206  42.726  19.797  1.00  0.00    -0.000 C 
BRANCH  10  11
ATOM     11  C   UNL     1      41.827  42.081  20.027  1.00  0.00    -0.003 C 
ATOM     12  C   UNL     1      41.905  40.574  20.267  1.00  0.00     0.004 C 
ENDBRANCH  10  11
ENDBRANCH   9  10
ENDBRANCH   8   9
ENDBRANCH   7   8
ENDBRANCH   6   7
ENDBRANCH   5   6
ENDBRANCH   4   5
ENDBRANCH   3   4
ENDBRANCH   2   3
ENDBRANCH   1   2
BRANCH   1  13
ATOM     13  C   UNL     1      41.280  42.739  15.746  1.00  0.00     0.000 C 
BRANCH  13  14
ATOM     14  C   UNL     1      40.794  41.510  16.526  1.00  0.00     0.000 C 
BRANCH  14  15
ATOM     15  C   UNL     1      41.934  40.502  16.734  1.00  0.00     0.000 C 
BRANCH  15  16
ATOM     16  C   UNL     1      43.266  40.964  16.116  1.00  0.00     0.000 C 
BRANCH  16  17
ATOM     17  C   UNL     1      43.534  40.465  14.684  1.00  0.00     0.000 C 
BRANCH  17  18
ATOM     18  C   UNL     1      43.758  38.946  14.611  1.00  0.00     0.000 C 
BRANCH  18  19
ATOM     19  C   UNL     1      42.927  38.269  13.507  1.00  0.00     0.000 C 
BRANCH  19  20
ATOM     20  C   UNL     1      41.962  37.164  13.983  1.00  0.00     0.006 C 
BRANCH  20  21
ATOM     21  C   UNL     1      40.634  37.109  13.203  1.00  0.00     0.053 C 
BRANCH  21  22
ATOM     22  C   UNL     1      40.009  38.460  13.027  1.00  0.00     0.041 C 
ATOM     23  O   UNL     1      39.321  38.715  12.005  1.00  0.00    -0.550 OA
ATOM     24  O   UNL     1      40.232  39.456  13.970  1.00  0.00    -0.550 OA
ENDBRANCH  21  22
ENDBRANCH  20  21
ENDBRANCH  19  20
ENDBRANCH  18  19
ENDBRANCH  17  18
ENDBRANCH  16  17
ENDBRANCH  15  16
ENDBRANCH  14  15
ENDBRANCH  13  14
ENDBRANCH   1  13
TORSDOF 20
ENDMDL
MODEL 7
REMARK VINA RESULT:    -4.565      3.254      7.821
REMARK INTER + INTRA:         -12.474
REMARK INTER:                 -10.852
REMARK INTRA:                  -1.622
REMARK UNBOUND:                -2.572
REMARK SMILES CCCCCCCCCCCCCCCCCCCCCC(=O)[O-]
REMARK SMILES IDX 12 1 11 2 10 3 9 4 8 5 7 6 6 7 5 8 4 9 3 10 2 11 1 12 13 13
REMARK SMILES IDX 14 14 15 15 16 16 17 17 18 18 19 19 20 20 21 21 22 22 23 23
REMARK SMILES IDX 24 24
REMARK H PARENT
REMARK Flexibility Score: inf
ROOT
ATOM      1  C   UNL     1      41.546  40.808  18.786  1.00  0.00     0.000 C 
ENDROOT
BRANCH   1   2
ATOM      2  C   UNL     1      40.946  41.602  17.611  1.00  0.00     0.000 C 
BRANCH   2   3
ATOM      3  C   UNL     1      40.398  40.749  16.452  1.00  0.00     0.000 C 
BRANCH   3   4
ATOM      4  C   UNL     1      41.051  41.083  15.100  1.00  0.00    -0.000 C 
BRANCH   4   5
ATOM      5  C   UNL     1      42.511  41.552  15.239  1.00  0.00    -0.000 C 
BRANCH   5   6
ATOM      6  C   UNL     1      43.574  40.564  14.716  1.00  0.00    -0.000 C 
BRANCH   6   7
ATOM      7  C   UNL     1      43.259  39.077  14.956  1.00  0.00    -0.000 C 
BRANCH   7   8
ATOM      8  C   UNL     1      43.270  38.247  13.664  1.00  0.00    -0.000 C 
BRANCH   8   9
ATOM      9  C   UNL     1      42.504  36.929  13.850  1.00  0.00    -0.000 C 
BRANCH   9  10
ATOM     10  C   UNL     1      41.039  37.015  13.384  1.00  0.00    -0.000 C 
BRANCH  10  11
ATOM     11  C   UNL     1      40.506  38.446  13.185  1.00  0.00    -0.003 C 
ATOM     12  C   UNL     1      39.266  38.502  12.295  1.00  0.00     0.004 C 
ENDBRANCH  10  11
ENDBRANCH   9  10
ENDBRANCH   8   9
ENDBRANCH   7   8
ENDBRANCH   6   7
ENDBRANCH   5   6
ENDBRANCH   4   5
ENDBRANCH   3   4
ENDBRANCH   2   3
ENDBRANCH   1   2
BRANCH   1  13
ATOM     13  C   UNL     1      41.729  41.656  20.053  1.00  0.00     0.000 C 
BRANCH  13  14
ATOM     14  C   UNL     1      43.215  41.920  20.326  1.00  0.00     0.000 C 
BRANCH  14  15
ATOM     15  C   UNL     1      43.616  43.335  19.881  1.00  0.00     0.000 C 
BRANCH  15  16
ATOM     16  C   UNL     1      44.576  44.025  20.867  1.00  0.00     0.000 C 
BRANCH  16  17
ATOM     17  C   UNL     1      44.570  45.564  20.821  1.00  0.00     0.000 C 
BRANCH  17  18
ATOM     18  C   UNL     1      45.125  46.125  19.501  1.00  0.00     0.000 C 
BRANCH  18  19
ATOM     19  C   UNL     1      44.161  47.110  18.816  1.00  0.00     0.000 C 
BRANCH  19  20
ATOM     20  C   UNL     1      44.076  46.999  17.280  1.00  0.00     0.006 C 
BRANCH  20  21
ATOM     21  C   UNL     1      43.809  45.570  16.767  1.00  0.00     0.053 C 
BRANCH  21  22
ATOM     22  C   UNL     1      43.714  45.500  15.272  1.00  0.00     0.041 C 
ATOM     23  O   UNL     1      44.685  45.079  14.592  1.00  0.00    -0.550 OA
ATOM     24  O   UNL     1      42.569  45.951  14.627  1.00  0.00    -0.550 OA
ENDBRANCH  21  22
ENDBRANCH  20  21
ENDBRANCH  19  20
ENDBRANCH  18  19
ENDBRANCH  17  18
ENDBRANCH  16  17
ENDBRANCH  15  16
ENDBRANCH  14  15
ENDBRANCH  13  14
ENDBRANCH   1  13
TORSDOF 20
ENDMDL
MODEL 8
REMARK VINA RESULT:    -4.298      3.026      5.399
REMARK INTER + INTRA:         -11.894
REMARK INTER:                  -9.420
REMARK INTRA:                  -2.474
REMARK UNBOUND:                -2.572
REMARK SMILES CCCCCCCCCCCCCCCCCCCCCC(=O)[O-]
REMARK SMILES IDX 12 1 11 2 10 3 9 4 8 5 7 6 6 7 5 8 4 9 3 10 2 11 1 12 13 13
REMARK SMILES IDX 14 14 15 15 16 16 17 17 18 18 19 19 20 20 21 21 22 22 23 23
REMARK SMILES IDX 24 24
REMARK H PARENT
REMARK Flexibility Score: inf
ROOT
ATOM      1  C   UNL     1      43.500  38.206  13.407  1.00  0.00     0.000 C 
ENDROOT
BRANCH   1   2
ATOM      2  C   UNL     1      44.763  38.436  14.257  1.00  0.00     0.000 C 
BRANCH   2   3
ATOM      3  C   UNL     1      45.001  39.892  14.700  1.00  0.00     0.000 C 
BRANCH   3   4
ATOM      4  C   UNL     1      43.733  40.758  14.622  1.00  0.00    -0.000 C 
BRANCH   4   5
ATOM      5  C   UNL     1      44.028  42.223  14.252  1.00  0.00    -0.000 C 
BRANCH   5   6
ATOM      6  C   UNL     1      42.873  43.213  14.505  1.00  0.00    -0.000 C 
BRANCH   6   7
ATOM      7  C   UNL     1      42.918  43.939  15.862  1.00  0.00    -0.000 C 
BRANCH   7   8
ATOM      8  C   UNL     1      41.545  44.463  16.306  1.00  0.00    -0.000 C 
BRANCH   8   9
ATOM      9  C   UNL     1      41.295  45.878  15.763  1.00  0.00    -0.000 C 
BRANCH   9  10
ATOM     10  C   UNL     1      42.292  46.916  16.309  1.00  0.00    -0.000 C 
BRANCH  10  11
ATOM     11  C   UNL     1      42.916  47.836  15.244  1.00  0.00    -0.003 C 
ATOM     12  C   UNL     1      42.204  47.756  13.895  1.00  0.00     0.004 C 
ENDBRANCH  10  11
ENDBRANCH   9  10
ENDBRANCH   8   9
ENDBRANCH   7   8
ENDBRANCH   6   7
ENDBRANCH   5   6
ENDBRANCH   4   5
ENDBRANCH   3   4
ENDBRANCH   2   3
ENDBRANCH   1   2
BRANCH   1  13
ATOM     13  C   UNL     1      42.776  36.896  13.750  1.00  0.00     0.000 C 
BRANCH  13  14
ATOM     14  C   UNL     1      41.257  37.058  13.617  1.00  0.00     0.000 C 
BRANCH  14  15
ATOM     15  C   UNL     1      40.902  38.378  12.915  1.00  0.00     0.000 C 
BRANCH  15  16
ATOM     16  C   UNL     1      40.132  39.354  13.824  1.00  0.00     0.000 C 
BRANCH  16  17
ATOM     17  C   UNL     1      40.730  39.553  15.229  1.00  0.00     0.000 C 
BRANCH  17  18
ATOM     18  C   UNL     1      40.536  40.981  15.765  1.00  0.00     0.000 C 
BRANCH  18  19
ATOM     19  C   UNL     1      40.635  41.064  17.298  1.00  0.00     0.000 C 
BRANCH  19  20
ATOM     20  C   UNL     1      42.002  40.677  17.899  1.00  0.00     0.006 C 
BRANCH  20  21
ATOM     21  C   UNL     1      42.702  41.821  18.657  1.00  0.00     0.053 C 
BRANCH  21  22
ATOM     22  C   UNL     1      42.467  41.764  20.137  1.00  0.00     0.041 C 
ATOM     23  O   UNL     1      41.734  40.868  20.631  1.00  0.00    -0.550 OA
ATOM     24  O   UNL     1      43.017  42.734  20.966  1.00  0.00    -0.550 OA
ENDBRANCH  21  22
ENDBRANCH  20  21
ENDBRANCH  19  20
ENDBRANCH  18  19
ENDBRANCH  17  18
ENDBRANCH  16  17
ENDBRANCH  15  16
ENDBRANCH  14  15
ENDBRANCH  13  14
ENDBRANCH   1  13
TORSDOF 20
ENDMDL
MODEL 9
REMARK VINA RESULT:    -4.246     11.267     14.227
REMARK INTER + INTRA:         -11.783
REMARK INTER:                  -9.796
REMARK INTRA:                  -1.986
REMARK UNBOUND:                -2.572
REMARK SMILES CCCCCCCCCCCCCCCCCCCCCC(=O)[O-]
REMARK SMILES IDX 12 1 11 2 10 3 9 4 8 5 7 6 6 7 5 8 4 9 3 10 2 11 1 12 13 13
REMARK SMILES IDX 14 14 15 15 16 16 17 17 18 18 19 19 20 20 21 21 22 22 23 23
REMARK SMILES IDX 24 24
REMARK H PARENT
REMARK Flexibility Score: inf
ROOT
ATOM      1  C   UNL     1      37.236  31.982  14.373  1.00  0.00     0.000 C 
ENDROOT
BRANCH   1   2
ATOM      2  C   UNL     1      37.989  30.811  13.713  1.00  0.00     0.000 C 
BRANCH   2   3
ATOM      3  C   UNL     1      39.033  30.115  14.606  1.00  0.00     0.000 C 
BRANCH   3   4
ATOM      4  C   UNL     1      39.495  28.760  14.044  1.00  0.00    -0.000 C 
BRANCH   4   5
ATOM      5  C   UNL     1      39.859  28.823  12.549  1.00  0.00    -0.000 C 
BRANCH   5   6
ATOM      6  C   UNL     1      41.368  28.899  12.239  1.00  0.00    -0.000 C 
BRANCH   6   7
ATOM      7  C   UNL     1      42.295  28.715  13.454  1.00  0.00    -0.000 C 
BRANCH   7   8
ATOM      8  C   UNL     1      43.147  29.959  13.749  1.00  0.00    -0.000 C 
BRANCH   8   9
ATOM      9  C   UNL     1      43.626  29.963  15.208  1.00  0.00    -0.000 C 
BRANCH   9  10
ATOM     10  C   UNL     1      42.906  28.918  16.080  1.00  0.00    -0.000 C 
BRANCH  10  11
ATOM     11  C   UNL     1      41.991  29.505  17.170  1.00  0.00    -0.003 C 
ATOM     12  C   UNL     1      41.701  30.992  16.969  1.00  0.00     0.004 C 
ENDBRANCH  10  11
ENDBRANCH   9  10
ENDBRANCH   8   9
ENDBRANCH   7   8
ENDBRANCH   6   7
ENDBRANCH   5   6
ENDBRANCH   4   5
ENDBRANCH   3   4
ENDBRANCH   2   3
ENDBRANCH   1   2
BRANCH   1  13
ATOM     13  C   UNL     1      35.710  31.842  14.278  1.00  0.00     0.000 C 
BRANCH  13  14
ATOM     14  C   UNL     1      35.292  30.367  14.312  1.00  0.00     0.000 C 
BRANCH  14  15
ATOM     15  C   UNL     1      34.235  30.068  13.237  1.00  0.00     0.000 C 
BRANCH  15  16
ATOM     16  C   UNL     1      33.816  31.318  12.442  1.00  0.00     0.000 C 
BRANCH  16  17
ATOM     17  C   UNL     1      32.731  31.084  11.375  1.00  0.00     0.000 C 
BRANCH  17  18
ATOM     18  C   UNL     1      31.851  29.859  11.675  1.00  0.00     0.000 C 
BRANCH  18  19
ATOM     19  C   UNL     1      30.704  29.683  10.664  1.00  0.00     0.000 C 
BRANCH  19  20
ATOM     20  C   UNL     1      30.858  30.460   9.341  1.00  0.00     0.006 C 
BRANCH  20  21
ATOM     21  C   UNL     1      29.697  31.428   9.041  1.00  0.00     0.053 C 
BRANCH  21  22
ATOM     22  C   UNL     1      30.170  32.795   8.646  1.00  0.00     0.041 C 
ATOM     23  O   UNL     1      29.350  33.742   8.525  1.00  0.00    -0.550 OA
ATOM     24  O   UNL     1      31.513  33.010   8.361  1.00  0.00    -0.550 OA
ENDBRANCH  21  22
ENDBRANCH  20  21
ENDBRANCH  19  20
ENDBRANCH  18  19
ENDBRANCH  17  18
ENDBRANCH  16  17
ENDBRANCH  15  16
ENDBRANCH  14  15
ENDBRANCH  13  14
ENDBRANCH   1  13
TORSDOF 20
ENDMDL
