MODEL 1
REMARK VINA RESULT:    -2.742      0.000      0.000
REMARK INTER + INTRA:          -2.742
REMARK INTER:                  -2.742
REMARK INTRA:                   0.000
REMARK UNBOUND:                 0.000
REMARK SMILES CC(=O)[O-]
REMARK SMILES IDX 1 1 2 2 3 3 4 4
REMARK H PARENT
REMARK Flexibility Score: inf
ROOT
ATOM      1  C   UNL     1      -0.744   8.535  -8.637  1.00  0.00     0.063 C 
ATOM      2  C   UNL     1      -0.043   7.709  -7.613  1.00  0.00     0.038 C 
ATOM      3  O   UNL     1      -0.538   6.613  -7.238  1.00  0.00    -0.550 OA
ATOM      4  O   UNL     1       1.130   8.171  -7.030  1.00  0.00    -0.550 OA
ENDROOT
TORSDOF 0
ENDMDL
MODEL 2
REMARK VINA RESULT:    -2.633     11.637     11.876
REMARK INTER + INTRA:          -2.633
REMARK INTER:                  -2.633
REMARK INTRA:                   0.000
REMARK UNBOUND:                 0.000
REMARK SMILES CC(=O)[O-]
REMARK SMILES IDX 1 1 2 2 3 3 4 4
REMARK H PARENT
REMARK Flexibility Score: inf
ROOT
ATOM      1  C   UNL     1       6.047  -1.169  -9.343  1.00  0.00     0.063 C 
ATOM      2  C   UNL     1       7.103  -1.739  -8.458  1.00  0.00     0.038 C 
ATOM      3  O   UNL     1       7.177  -2.984  -8.283  1.00  0.00    -0.550 OA
ATOM      4  O   UNL     1       7.973  -0.895  -7.780  1.00  0.00    -0.550 OA
ENDROOT
TORSDOF 0
ENDMDL
MODEL 3
REMARK VINA RESULT:    -2.302     19.647     19.877
REMARK INTER + INTRA:          -2.302
REMARK INTER:                  -2.302
REMARK INTRA:                   0.000
REMARK UNBOUND:                 0.000
REMARK SMILES CC(=O)[O-]
REMARK SMILES IDX 1 1 2 2 3 3 4 4
REMARK H PARENT
REMARK Flexibility Score: inf
ROOT
ATOM      1  C   UNL     1      -6.472  -7.529   3.067  1.00  0.00     0.063 C 
ATOM      2  C   UNL     1      -5.338  -8.397   2.638  1.00  0.00     0.038 C 
ATOM      3  O   UNL     1      -5.555  -9.422   1.939  1.00  0.00    -0.550 OA
ATOM      4  O   UNL     1      -4.045  -8.108   3.055  1.00  0.00    -0.550 OA
ENDROOT
TORSDOF 0
ENDMDL
MODEL 4
REMARK VINA RESULT:    -2.284     19.553     19.946
REMARK INTER + INTRA:          -2.284
REMARK INTER:                  -2.284
REMARK INTRA:                   0.000
REMARK UNBOUND:                 0.000
REMARK SMILES CC(=O)[O-]
REMARK SMILES IDX 1 1 2 2 3 3 4 4
REMARK H PARENT
REMARK Flexibility Score: inf
ROOT
ATOM      1  C   UNL     1      -9.872  -1.848   7.857  1.00  0.00     0.063 C 
ATOM      2  C   UNL     1      -8.464  -1.358   7.894  1.00  0.00     0.038 C 
ATOM      3  O   UNL     1      -8.162  -0.360   8.600  1.00  0.00    -0.550 OA
ATOM      4  O   UNL     1      -7.495  -1.967   7.108  1.00  0.00    -0.550 OA
ENDROOT
TORSDOF 0
ENDMDL
MODEL 5
REMARK VINA RESULT:    -2.283     19.736     19.992
REMARK INTER + INTRA:          -2.283
REMARK INTER:                  -2.283
REMARK INTRA:                   0.000
REMARK UNBOUND:                 0.000
REMARK SMILES CC(=O)[O-]
REMARK SMILES IDX 1 1 2 2 3 3 4 4
REMARK H PARENT
REMARK Flexibility Score: inf
ROOT
ATOM      1  C   UNL     1      -6.330  -7.579   3.379  1.00  0.00     0.063 C 
ATOM      2  C   UNL     1      -5.237  -8.399   2.781  1.00  0.00     0.038 C 
ATOM      3  O   UNL     1      -4.034  -8.128   3.034  1.00  0.00    -0.550 OA
ATOM      4  O   UNL     1      -5.542  -9.428   1.900  1.00  0.00    -0.550 OA
ENDROOT
TORSDOF 0
ENDMDL
MODEL 6
REMARK VINA RESULT:    -2.269     19.560     19.984
REMARK INTER + INTRA:          -2.269
REMARK INTER:                  -2.269
REMARK INTRA:                   0.000
REMARK UNBOUND:                 0.000
REMARK SMILES CC(=O)[O-]
REMARK SMILES IDX 1 1 2 2 3 3 4 4
REMARK H PARENT
REMARK Flexibility Score: inf
ROOT
ATOM      1  C   UNL     1      -9.714  -2.216   7.970  1.00  0.00     0.063 C 
ATOM      2  C   UNL     1      -8.413  -1.496   7.855  1.00  0.00     0.038 C 
ATOM      3  O   UNL     1      -7.501  -1.953   7.115  1.00  0.00    -0.550 OA
ATOM      4  O   UNL     1      -8.184  -0.349   8.604  1.00  0.00    -0.550 OA
ENDROOT
TORSDOF 0
ENDMDL
MODEL 7
REMARK VINA RESULT:    -2.249     19.589     20.191
REMARK INTER + INTRA:          -2.249
REMARK INTER:                  -2.249
REMARK INTRA:                   0.000
REMARK UNBOUND:                 0.000
REMARK SMILES CC(=O)[O-]
REMARK SMILES IDX 1 1 2 2 3 3 4 4
REMARK H PARENT
REMARK Flexibility Score: inf
ROOT
ATOM      1  C   UNL     1      -7.036  -7.966  -0.052  1.00  0.00     0.063 C 
ATOM      2  C   UNL     1      -7.051  -9.086   0.933  1.00  0.00     0.038 C 
ATOM      3  O   UNL     1      -5.983  -9.449   1.494  1.00  0.00    -0.550 OA
ATOM      4  O   UNL     1      -8.233  -9.766   1.194  1.00  0.00    -0.550 OA
ENDROOT
TORSDOF 0
ENDMDL
MODEL 8
REMARK VINA RESULT:    -2.103     19.498     19.977
REMARK INTER + INTRA:          -2.103
REMARK INTER:                  -2.103
REMARK INTRA:                   0.000
REMARK UNBOUND:                 0.000
REMARK SMILES CC(=O)[O-]
REMARK SMILES IDX 1 1 2 2 3 3 4 4
REMARK H PARENT
REMARK Flexibility Score: inf
ROOT
ATOM      1  C   UNL     1      -4.968  -8.399   3.561  1.00  0.00     0.063 C 
ATOM      2  C   UNL     1      -6.147  -7.971   2.754  1.00  0.00     0.038 C 
ATOM      3  O   UNL     1      -6.580  -6.792   2.844  1.00  0.00    -0.550 OA
ATOM      4  O   UNL     1      -6.804  -8.887   1.943  1.00  0.00    -0.550 OA
ENDROOT
TORSDOF 0
ENDMDL
MODEL 9
REMARK VINA RESULT:    -2.021     19.826     20.448
REMARK INTER + INTRA:          -2.021
REMARK INTER:                  -2.021
REMARK INTRA:                   0.000
REMARK UNBOUND:                 0.000
REMARK SMILES CC(=O)[O-]
REMARK SMILES IDX 1 1 2 2 3 3 4 4
REMARK H PARENT
REMARK Flexibility Score: inf
ROOT
ATOM      1  C   UNL     1      -7.292  -7.970   0.675  1.00  0.00     0.063 C 
ATOM      2  C   UNL     1      -8.281  -9.063   0.445  1.00  0.00     0.038 C 
ATOM      3  O   UNL     1      -8.763  -9.248  -0.703  1.00  0.00    -0.550 OA
ATOM      4  O   UNL     1      -8.714  -9.844   1.509  1.00  0.00    -0.550 OA
ENDROOT
TORSDOF 0
ENDMDL
