MODEL 1
REMARK VINA RESULT:    -2.898      0.000      0.000
REMARK INTER + INTRA:          -4.397
REMARK INTER:                  -3.914
REMARK INTRA:                  -0.482
REMARK UNBOUND:                -0.482
REMARK SMILES CCCCCCCC(=O)[O-]
REMARK SMILES IDX 5 1 6 2 7 3 8 4 9 5 10 6 4 7 3 8 2 9 1 10
REMARK H PARENT
REMARK Flexibility Score: inf
ROOT
ATOM      1  C   UNL     1      22.871  23.815  19.216  1.00  0.00     0.000 C 
ENDROOT
BRANCH   1   2
ATOM      2  C   UNL     1      21.839  24.757  18.576  1.00  0.00     0.006 C 
BRANCH   2   3
ATOM      3  C   UNL     1      20.660  23.967  18.001  1.00  0.00     0.053 C 
BRANCH   3   4
ATOM      4  C   UNL     1      19.364  24.503  18.522  1.00  0.00     0.041 C 
ATOM      5  O   UNL     1      19.126  24.492  19.759  1.00  0.00    -0.550 OA
ATOM      6  O   UNL     1      18.398  24.969  17.640  1.00  0.00    -0.550 OA
ENDBRANCH   3   4
ENDBRANCH   2   3
ENDBRANCH   1   2
BRANCH   1   7
ATOM      7  C   UNL     1      22.383  23.216  20.544  1.00  0.00     0.000 C 
BRANCH   7   8
ATOM      8  C   UNL     1      22.473  21.682  20.571  1.00  0.00    -0.000 C 
BRANCH   8   9
ATOM      9  C   UNL     1      22.926  21.136  19.214  1.00  0.00    -0.003 C 
ATOM     10  C   UNL     1      22.089  19.930  18.796  1.00  0.00     0.004 C 
ENDBRANCH   8   9
ENDBRANCH   7   8
ENDBRANCH   1   7
TORSDOF 6
ENDMDL
MODEL 2
REMARK VINA RESULT:    -2.888      2.398      4.168
REMARK INTER + INTRA:          -4.384
REMARK INTER:                  -3.889
REMARK INTRA:                  -0.495
REMARK UNBOUND:                -0.482
REMARK SMILES CCCCCCCC(=O)[O-]
REMARK SMILES IDX 5 1 6 2 7 3 8 4 9 5 10 6 4 7 3 8 2 9 1 10
REMARK H PARENT
REMARK Flexibility Score: inf
ROOT
ATOM      1  C   UNL     1      22.835  23.794  19.231  1.00  0.00     0.000 C 
ENDROOT
BRANCH   1   2
ATOM      2  C   UNL     1      22.236  22.825  20.262  1.00  0.00     0.006 C 
BRANCH   2   3
ATOM      3  C   UNL     1      22.803  21.414  20.081  1.00  0.00     0.053 C 
BRANCH   3   4
ATOM      4  C   UNL     1      21.933  20.612  19.165  1.00  0.00     0.041 C 
ATOM      5  O   UNL     1      20.709  20.464  19.423  1.00  0.00    -0.550 OA
ATOM      6  O   UNL     1      22.483  19.986  18.054  1.00  0.00    -0.550 OA
ENDBRANCH   3   4
ENDBRANCH   2   3
ENDBRANCH   1   2
BRANCH   1   7
ATOM      7  C   UNL     1      21.772  24.682  18.566  1.00  0.00     0.000 C 
BRANCH   7   8
ATOM      8  C   UNL     1      20.654  23.869  17.896  1.00  0.00    -0.000 C 
BRANCH   8   9
ATOM      9  C   UNL     1      19.277  24.312  18.400  1.00  0.00    -0.003 C 
ATOM     10  C   UNL     1      18.519  23.148  19.033  1.00  0.00     0.004 C 
ENDBRANCH   8   9
ENDBRANCH   7   8
ENDBRANCH   1   7
TORSDOF 6
ENDMDL
MODEL 3
REMARK VINA RESULT:    -2.755      2.438      4.244
REMARK INTER + INTRA:          -4.204
REMARK INTER:                  -3.759
REMARK INTRA:                  -0.445
REMARK UNBOUND:                -0.482
REMARK SMILES CCCCCCCC(=O)[O-]
REMARK SMILES IDX 5 1 6 2 7 3 8 4 9 5 10 6 4 7 3 8 2 9 1 10
REMARK H PARENT
REMARK Flexibility Score: inf
ROOT
ATOM      1  C   UNL     1      22.754  23.200  20.661  1.00  0.00     0.000 C 
ENDROOT
BRANCH   1   2
ATOM      2  C   UNL     1      22.390  21.740  20.970  1.00  0.00     0.006 C 
BRANCH   2   3
ATOM      3  C   UNL     1      22.298  20.914  19.683  1.00  0.00     0.053 C 
BRANCH   3   4
ATOM      4  C   UNL     1      21.091  20.031  19.712  1.00  0.00     0.041 C 
ATOM      5  O   UNL     1      19.938  20.532  19.635  1.00  0.00    -0.550 OA
ATOM      6  O   UNL     1      21.236  18.660  19.876  1.00  0.00    -0.550 OA
ENDBRANCH   3   4
ENDBRANCH   2   3
ENDBRANCH   1   2
BRANCH   1   7
ATOM      7  C   UNL     1      22.824  23.487  19.153  1.00  0.00     0.000 C 
BRANCH   7   8
ATOM      8  C   UNL     1      22.381  24.915  18.800  1.00  0.00    -0.000 C 
BRANCH   8   9
ATOM      9  C   UNL     1      21.216  24.897  17.804  1.00  0.00    -0.003 C 
ATOM     10  C   UNL     1      20.191  23.828  18.173  1.00  0.00     0.004 C 
ENDBRANCH   8   9
ENDBRANCH   7   8
ENDBRANCH   1   7
TORSDOF 6
ENDMDL
MODEL 4
REMARK VINA RESULT:    -2.541      2.773      4.631
REMARK INTER + INTRA:          -3.915
REMARK INTER:                  -3.503
REMARK INTRA:                  -0.412
REMARK UNBOUND:                -0.482
REMARK SMILES CCCCCCCC(=O)[O-]
REMARK SMILES IDX 5 1 6 2 7 3 8 4 9 5 10 6 4 7 3 8 2 9 1 10
REMARK H PARENT
REMARK Flexibility Score: inf
ROOT
ATOM      1  C   UNL     1      19.229  22.093  19.436  1.00  0.00     0.000 C 
ENDROOT
BRANCH   1   2
ATOM      2  C   UNL     1      20.195  21.389  20.402  1.00  0.00     0.006 C 
BRANCH   2   3
ATOM      3  C   UNL     1      20.822  20.155  19.746  1.00  0.00     0.053 C 
BRANCH   3   4
ATOM      4  C   UNL     1      22.125  20.509  19.102  1.00  0.00     0.041 C 
ATOM      5  O   UNL     1      22.484  19.934  18.040  1.00  0.00    -0.550 OA
ATOM      6  O   UNL     1      22.968  21.436  19.701  1.00  0.00    -0.550 OA
ENDBRANCH   3   4
ENDBRANCH   2   3
ENDBRANCH   1   2
BRANCH   1   7
ATOM      7  C   UNL     1      19.607  23.561  19.187  1.00  0.00     0.000 C 
BRANCH   7   8
ATOM      8  C   UNL     1      20.688  23.721  18.107  1.00  0.00    -0.000 C 
BRANCH   8   9
ATOM      9  C   UNL     1      21.425  25.055  18.262  1.00  0.00    -0.003 C 
ATOM     10  C   UNL     1      22.699  24.890  19.087  1.00  0.00     0.004 C 
ENDBRANCH   8   9
ENDBRANCH   7   8
ENDBRANCH   1   7
TORSDOF 6
ENDMDL
MODEL 5
REMARK VINA RESULT:    -2.453      1.729      2.341
REMARK INTER + INTRA:          -3.795
REMARK INTER:                  -3.270
REMARK INTRA:                  -0.526
REMARK UNBOUND:                -0.482
REMARK SMILES CCCCCCCC(=O)[O-]
REMARK SMILES IDX 5 1 6 2 7 3 8 4 9 5 10 6 4 7 3 8 2 9 1 10
REMARK H PARENT
REMARK Flexibility Score: inf
ROOT
ATOM      1  C   UNL     1      19.719  22.218  19.610  1.00  0.00     0.000 C 
ENDROOT
BRANCH   1   2
ATOM      2  C   UNL     1      19.032  23.591  19.679  1.00  0.00     0.006 C 
BRANCH   2   3
ATOM      3  C   UNL     1      20.066  24.721  19.685  1.00  0.00     0.053 C 
BRANCH   3   4
ATOM      4  C   UNL     1      20.644  24.910  18.318  1.00  0.00     0.041 C 
ATOM      5  O   UNL     1      19.885  25.104  17.332  1.00  0.00    -0.550 OA
ATOM      6  O   UNL     1      22.016  24.823  18.124  1.00  0.00    -0.550 OA
ENDBRANCH   3   4
ENDBRANCH   2   3
ENDBRANCH   1   2
BRANCH   1   7
ATOM      7  C   UNL     1      20.666  21.969  20.794  1.00  0.00     0.000 C 
BRANCH   7   8
ATOM      8  C   UNL     1      22.082  21.574  20.347  1.00  0.00    -0.000 C 
BRANCH   8   9
ATOM      9  C   UNL     1      22.152  21.412  18.826  1.00  0.00    -0.003 C 
ATOM     10  C   UNL     1      22.526  19.984  18.439  1.00  0.00     0.004 C 
ENDBRANCH   8   9
ENDBRANCH   7   8
ENDBRANCH   1   7
TORSDOF 6
ENDMDL
MODEL 6
REMARK VINA RESULT:    -2.426     16.278     17.387
REMARK INTER + INTRA:          -3.759
REMARK INTER:                  -3.444
REMARK INTRA:                  -0.315
REMARK UNBOUND:                -0.482
REMARK SMILES CCCCCCCC(=O)[O-]
REMARK SMILES IDX 5 1 6 2 7 3 8 4 9 5 10 6 4 7 3 8 2 9 1 10
REMARK H PARENT
REMARK Flexibility Score: inf
ROOT
ATOM      1  C   UNL     1      25.084   8.018  16.849  1.00  0.00     0.000 C 
ENDROOT
BRANCH   1   2
ATOM      2  C   UNL     1      25.190   6.542  16.433  1.00  0.00     0.006 C 
BRANCH   2   3
ATOM      3  C   UNL     1      24.937   6.377  14.931  1.00  0.00     0.053 C 
BRANCH   3   4
ATOM      4  C   UNL     1      23.665   5.628  14.693  1.00  0.00     0.041 C 
ATOM      5  O   UNL     1      23.496   4.992  13.619  1.00  0.00    -0.550 OA
ATOM      6  O   UNL     1      22.644   5.673  15.634  1.00  0.00    -0.550 OA
ENDBRANCH   3   4
ENDBRANCH   2   3
ENDBRANCH   1   2
BRANCH   1   7
ATOM      7  C   UNL     1      26.177   8.432  17.846  1.00  0.00     0.000 C 
BRANCH   7   8
ATOM      8  C   UNL     1      25.787   8.149  19.304  1.00  0.00    -0.000 C 
BRANCH   8   9
ATOM      9  C   UNL     1      26.945   7.492  20.064  1.00  0.00    -0.003 C 
ATOM     10  C   UNL     1      27.237   6.095  19.524  1.00  0.00     0.004 C 
ENDBRANCH   8   9
ENDBRANCH   7   8
ENDBRANCH   1   7
TORSDOF 6
ENDMDL
MODEL 7
REMARK VINA RESULT:    -2.398     11.208     13.588
REMARK INTER + INTRA:          -3.721
REMARK INTER:                  -3.226
REMARK INTRA:                  -0.495
REMARK UNBOUND:                -0.482
REMARK SMILES CCCCCCCC(=O)[O-]
REMARK SMILES IDX 5 1 6 2 7 3 8 4 9 5 10 6 4 7 3 8 2 9 1 10
REMARK H PARENT
REMARK Flexibility Score: inf
ROOT
ATOM      1  C   UNL     1      18.785  10.711  16.993  1.00  0.00     0.000 C 
ENDROOT
BRANCH   1   2
ATOM      2  C   UNL     1      20.079  10.435  17.776  1.00  0.00     0.006 C 
BRANCH   2   3
ATOM      3  C   UNL     1      21.298  10.985  17.030  1.00  0.00     0.053 C 
BRANCH   3   4
ATOM      4  C   UNL     1      21.334  12.478  17.112  1.00  0.00     0.041 C 
ATOM      5  O   UNL     1      21.553  13.164  16.079  1.00  0.00    -0.550 OA
ATOM      6  O   UNL     1      21.177  13.111  18.338  1.00  0.00    -0.550 OA
ENDBRANCH   3   4
ENDBRANCH   2   3
ENDBRANCH   1   2
BRANCH   1   7
ATOM      7  C   UNL     1      18.300   9.486  16.202  1.00  0.00     0.000 C 
BRANCH   7   8
ATOM      8  C   UNL     1      18.505   8.168  16.965  1.00  0.00    -0.000 C 
BRANCH   8   9
ATOM      9  C   UNL     1      19.046   7.077  16.036  1.00  0.00    -0.003 C 
ATOM     10  C   UNL     1      20.352   7.511  15.374  1.00  0.00     0.004 C 
ENDBRANCH   8   9
ENDBRANCH   7   8
ENDBRANCH   1   7
TORSDOF 6
ENDMDL
MODEL 8
REMARK VINA RESULT:    -2.376     16.094     17.285
REMARK INTER + INTRA:          -3.691
REMARK INTER:                  -3.413
REMARK INTRA:                  -0.279
REMARK UNBOUND:                -0.482
REMARK SMILES CCCCCCCC(=O)[O-]
REMARK SMILES IDX 5 1 6 2 7 3 8 4 9 5 10 6 4 7 3 8 2 9 1 10
REMARK H PARENT
REMARK Flexibility Score: inf
ROOT
ATOM      1  C   UNL     1      24.031   8.139  18.180  1.00  0.00     0.000 C 
ENDROOT
BRANCH   1   2
ATOM      2  C   UNL     1      24.904   8.246  19.439  1.00  0.00     0.006 C 
BRANCH   2   3
ATOM      3  C   UNL     1      26.392   8.257  19.075  1.00  0.00     0.053 C 
BRANCH   3   4
ATOM      4  C   UNL     1      27.103   7.121  19.739  1.00  0.00     0.041 C 
ATOM      5  O   UNL     1      27.624   7.278  20.875  1.00  0.00    -0.550 OA
ATOM      6  O   UNL     1      27.237   5.905  19.083  1.00  0.00    -0.550 OA
ENDBRANCH   3   4
ENDBRANCH   2   3
ENDBRANCH   1   2
BRANCH   1   7
ATOM      7  C   UNL     1      24.848   7.821  16.918  1.00  0.00     0.000 C 
BRANCH   7   8
ATOM      8  C   UNL     1      24.603   6.398  16.395  1.00  0.00    -0.000 C 
BRANCH   8   9
ATOM      9  C   UNL     1      24.976   6.286  14.914  1.00  0.00    -0.003 C 
ATOM     10  C   UNL     1      24.222   5.143  14.239  1.00  0.00     0.004 C 
ENDBRANCH   8   9
ENDBRANCH   7   8
ENDBRANCH   1   7
TORSDOF 6
ENDMDL
MODEL 9
REMARK VINA RESULT:    -2.374      1.975      2.615
REMARK INTER + INTRA:          -3.689
REMARK INTER:                  -3.250
REMARK INTRA:                  -0.439
REMARK UNBOUND:                -0.482
REMARK SMILES CCCCCCCC(=O)[O-]
REMARK SMILES IDX 5 1 6 2 7 3 8 4 9 5 10 6 4 7 3 8 2 9 1 10
REMARK H PARENT
REMARK Flexibility Score: inf
ROOT
ATOM      1  C   UNL     1      22.792  21.370  19.416  1.00  0.00     0.000 C 
ENDROOT
BRANCH   1   2
ATOM      2  C   UNL     1      22.808  22.902  19.307  1.00  0.00     0.006 C 
BRANCH   2   3
ATOM      3  C   UNL     1      21.433  23.490  19.639  1.00  0.00     0.053 C 
BRANCH   3   4
ATOM      4  C   UNL     1      20.805  24.078  18.415  1.00  0.00     0.041 C 
ATOM      5  O   UNL     1      21.461  24.865  17.683  1.00  0.00    -0.550 OA
ATOM      6  O   UNL     1      19.479  23.798  18.111  1.00  0.00    -0.550 OA
ENDBRANCH   3   4
ENDBRANCH   2   3
ENDBRANCH   1   2
BRANCH   1   7
ATOM      7  C   UNL     1      21.761  20.860  20.436  1.00  0.00     0.000 C 
BRANCH   7   8
ATOM      8  C   UNL     1      21.136  19.517  20.026  1.00  0.00    -0.000 C 
BRANCH   8   9
ATOM      9  C   UNL     1      19.635  19.496  20.331  1.00  0.00    -0.003 C 
ATOM     10  C   UNL     1      18.940  20.736  19.773  1.00  0.00     0.004 C 
ENDBRANCH   8   9
ENDBRANCH   7   8
ENDBRANCH   1   7
TORSDOF 6
ENDMDL
