MODEL 1
REMARK VINA RESULT:    -5.136      0.000      0.000
REMARK INTER + INTRA:          -5.534
REMARK INTER:                  -5.437
REMARK INTRA:                  -0.097
REMARK UNBOUND:                -0.097
REMARK SMILES C=C(C)[C@H]1CC=C(C)C(=O)C1
REMARK SMILES IDX 8 1 7 2 6 3 5 4 4 5 11 6 9 7 10 8 2 9 1 10 3 11
REMARK H PARENT
REMARK Flexibility Score: inf
ROOT
ATOM      1  C   UNL     1      16.916   8.098  55.098  1.00  0.00     0.048 C 
ATOM      2  C   UNL     1      17.682   9.130  54.318  1.00  0.00    -0.012 C 
ATOM      3  C   UNL     1      17.024   9.997  53.530  1.00  0.00    -0.019 C 
ATOM      4  C   UNL     1      17.743  11.038  52.712  1.00  0.00     0.036 C 
ATOM      5  C   UNL     1      19.020  11.518  53.428  1.00  0.00     0.025 C 
ATOM      6  C   UNL     1      19.923  10.321  53.772  1.00  0.00     0.089 C 
ATOM      7  C   UNL     1      19.147   9.269  54.515  1.00  0.00     0.158 C 
ATOM      8  O   UNL     1      19.761   8.479  55.281  1.00  0.00    -0.295 OA
ENDROOT
BRANCH   5   9
ATOM      9  C   UNL     1      19.764  12.557  52.600  1.00  0.00    -0.077 C 
ATOM     10  C   UNL     1      21.011  12.922  52.941  1.00  0.00     0.008 C 
ATOM     11  C   UNL     1      19.132  13.198  51.389  1.00  0.00     0.039 C 
ENDBRANCH   5   9
TORSDOF 1
ENDMDL
MODEL 2
REMARK VINA RESULT:    -4.965      1.528      2.532
REMARK INTER + INTRA:          -5.352
REMARK INTER:                  -5.254
REMARK INTRA:                  -0.098
REMARK UNBOUND:                -0.097
REMARK SMILES C=C(C)[C@H]1CC=C(C)C(=O)C1
REMARK SMILES IDX 8 1 7 2 6 3 5 4 4 5 11 6 9 7 10 8 2 9 1 10 3 11
REMARK H PARENT
REMARK Flexibility Score: inf
ROOT
ATOM      1  C   UNL     1      18.044   7.368  54.976  1.00  0.00     0.048 C 
ATOM      2  C   UNL     1      18.839   8.604  54.660  1.00  0.00    -0.012 C 
ATOM      3  C   UNL     1      20.175   8.595  54.804  1.00  0.00    -0.019 C 
ATOM      4  C   UNL     1      21.018   9.810  54.521  1.00  0.00     0.036 C 
ATOM      5  C   UNL     1      20.407  10.653  53.385  1.00  0.00     0.025 C 
ATOM      6  C   UNL     1      18.949  11.019  53.715  1.00  0.00     0.089 C 
ATOM      7  C   UNL     1      18.163   9.788  54.073  1.00  0.00     0.158 C 
ATOM      8  O   UNL     1      16.914   9.786  53.903  1.00  0.00    -0.295 OA
ENDROOT
BRANCH   5   9
ATOM      9  C   UNL     1      21.242  11.895  53.104  1.00  0.00    -0.077 C 
ATOM     10  C   UNL     1      20.642  13.083  52.919  1.00  0.00     0.008 C 
ATOM     11  C   UNL     1      22.748  11.831  53.026  1.00  0.00     0.039 C 
ENDBRANCH   5   9
TORSDOF 1
ENDMDL
MODEL 3
REMARK VINA RESULT:    -4.912     12.243     12.749
REMARK INTER + INTRA:          -5.296
REMARK INTER:                  -5.206
REMARK INTRA:                  -0.091
REMARK UNBOUND:                -0.097
REMARK SMILES C=C(C)[C@H]1CC=C(C)C(=O)C1
REMARK SMILES IDX 8 1 7 2 6 3 5 4 4 5 11 6 9 7 10 8 2 9 1 10 3 11
REMARK H PARENT
REMARK Flexibility Score: inf
ROOT
ATOM      1  C   UNL     1       7.428  17.447  60.329  1.00  0.00     0.048 C 
ATOM      2  C   UNL     1       8.875  17.795  60.119  1.00  0.00    -0.012 C 
ATOM      3  C   UNL     1       9.660  18.060  61.177  1.00  0.00    -0.019 C 
ATOM      4  C   UNL     1      11.111  18.432  61.023  1.00  0.00     0.036 C 
ATOM      5  C   UNL     1      11.736  17.730  59.803  1.00  0.00     0.025 C 
ATOM      6  C   UNL     1      10.918  18.033  58.535  1.00  0.00     0.089 C 
ATOM      7  C   UNL     1       9.463  17.725  58.758  1.00  0.00     0.158 C 
ATOM      8  O   UNL     1       8.736  17.442  57.767  1.00  0.00    -0.295 OA
ENDROOT
BRANCH   5   9
ATOM      9  C   UNL     1      13.198  18.115  59.627  1.00  0.00    -0.077 C 
ATOM     10  C   UNL     1      14.125  17.648  60.479  1.00  0.00     0.008 C 
ATOM     11  C   UNL     1      13.644  19.020  58.504  1.00  0.00     0.039 C 
ENDBRANCH   5   9
TORSDOF 1
ENDMDL
MODEL 4
REMARK VINA RESULT:    -4.906     11.149     11.530
REMARK INTER + INTRA:          -5.290
REMARK INTER:                  -5.193
REMARK INTRA:                  -0.096
REMARK UNBOUND:                -0.097
REMARK SMILES C=C(C)[C@H]1CC=C(C)C(=O)C1
REMARK SMILES IDX 8 1 7 2 6 3 5 4 4 5 11 6 9 7 10 8 2 9 1 10 3 11
REMARK H PARENT
REMARK Flexibility Score: inf
ROOT
ATOM      1  C   UNL     1      10.188  17.885  60.428  1.00  0.00     0.048 C 
ATOM      2  C   UNL     1      11.536  18.260  59.878  1.00  0.00    -0.012 C 
ATOM      3  C   UNL     1      12.615  17.522  60.191  1.00  0.00    -0.019 C 
ATOM      4  C   UNL     1      13.991  17.863  59.685  1.00  0.00     0.036 C 
ATOM      5  C   UNL     1      13.922  18.506  58.286  1.00  0.00     0.025 C 
ATOM      6  C   UNL     1      12.988  19.729  58.306  1.00  0.00     0.089 C 
ATOM      7  C   UNL     1      11.653  19.365  58.895  1.00  0.00     0.158 C 
ATOM      8  O   UNL     1      10.636  20.036  58.572  1.00  0.00    -0.295 OA
ENDROOT
BRANCH   5   9
ATOM      9  C   UNL     1      15.308  18.872  57.772  1.00  0.00    -0.077 C 
ATOM     10  C   UNL     1      16.064  19.755  58.446  1.00  0.00     0.008 C 
ATOM     11  C   UNL     1      15.866  18.262  56.510  1.00  0.00     0.039 C 
ENDBRANCH   5   9
TORSDOF 1
ENDMDL
MODEL 5
REMARK VINA RESULT:    -4.888     10.873     11.818
REMARK INTER + INTRA:          -5.271
REMARK INTER:                  -5.173
REMARK INTRA:                  -0.098
REMARK UNBOUND:                -0.097
REMARK SMILES C=C(C)[C@H]1CC=C(C)C(=O)C1
REMARK SMILES IDX 8 1 7 2 6 3 5 4 4 5 11 6 9 7 10 8 2 9 1 10 3 11
REMARK H PARENT
REMARK Flexibility Score: inf
ROOT
ATOM      1  C   UNL     1      15.750  18.621  57.679  1.00  0.00     0.048 C 
ATOM      2  C   UNL     1      14.372  18.246  58.146  1.00  0.00    -0.012 C 
ATOM      3  C   UNL     1      14.106  18.182  59.462  1.00  0.00    -0.019 C 
ATOM      4  C   UNL     1      12.748  17.793  59.985  1.00  0.00     0.036 C 
ATOM      5  C   UNL     1      11.633  18.265  59.033  1.00  0.00     0.025 C 
ATOM      6  C   UNL     1      11.884  17.733  57.610  1.00  0.00     0.089 C 
ATOM      7  C   UNL     1      13.278  18.070  57.158  1.00  0.00     0.158 C 
ATOM      8  O   UNL     1      13.517  18.166  55.924  1.00  0.00    -0.295 OA
ENDROOT
BRANCH   5   9
ATOM      9  C   UNL     1      10.257  17.860  59.543  1.00  0.00    -0.077 C 
ATOM     10  C   UNL     1       9.249  17.663  58.678  1.00  0.00     0.008 C 
ATOM     11  C   UNL     1       9.989  17.668  61.016  1.00  0.00     0.039 C 
ENDBRANCH   5   9
TORSDOF 1
ENDMDL
MODEL 6
REMARK VINA RESULT:    -4.884      1.552      4.399
REMARK INTER + INTRA:          -5.267
REMARK INTER:                  -5.168
REMARK INTRA:                  -0.098
REMARK UNBOUND:                -0.097
REMARK SMILES C=C(C)[C@H]1CC=C(C)C(=O)C1
REMARK SMILES IDX 8 1 7 2 6 3 5 4 4 5 11 6 9 7 10 8 2 9 1 10 3 11
REMARK H PARENT
REMARK Flexibility Score: inf
ROOT
ATOM      1  C   UNL     1      21.626  12.207  52.937  1.00  0.00     0.048 C 
ATOM      2  C   UNL     1      20.617  11.274  53.547  1.00  0.00    -0.012 C 
ATOM      3  C   UNL     1      19.304  11.526  53.410  1.00  0.00    -0.019 C 
ATOM      4  C   UNL     1      18.252  10.635  54.015  1.00  0.00     0.036 C 
ATOM      5  C   UNL     1      18.719   9.167  54.043  1.00  0.00     0.025 C 
ATOM      6  C   UNL     1      20.071   9.050  54.769  1.00  0.00     0.089 C 
ATOM      7  C   UNL     1      21.068  10.014  54.189  1.00  0.00     0.158 C 
ATOM      8  O   UNL     1      22.299   9.758  54.287  1.00  0.00    -0.295 OA
ENDROOT
BRANCH   5   9
ATOM      9  C   UNL     1      17.669   8.261  54.672  1.00  0.00    -0.077 C 
ATOM     10  C   UNL     1      16.527   8.783  55.147  1.00  0.00     0.008 C 
ATOM     11  C   UNL     1      17.878   6.770  54.777  1.00  0.00     0.039 C 
ENDBRANCH   5   9
TORSDOF 1
ENDMDL
MODEL 7
REMARK VINA RESULT:    -4.790      9.830     10.753
REMARK INTER + INTRA:          -5.167
REMARK INTER:                  -5.073
REMARK INTRA:                  -0.094
REMARK UNBOUND:                -0.097
REMARK SMILES C=C(C)[C@H]1CC=C(C)C(=O)C1
REMARK SMILES IDX 8 1 7 2 6 3 5 4 4 5 11 6 9 7 10 8 2 9 1 10 3 11
REMARK H PARENT
REMARK Flexibility Score: inf
ROOT
ATOM      1  C   UNL     1      17.547  18.671  56.639  1.00  0.00     0.048 C 
ATOM      2  C   UNL     1      16.095  18.565  57.015  1.00  0.00    -0.012 C 
ATOM      3  C   UNL     1      15.302  17.687  56.378  1.00  0.00    -0.019 C 
ATOM      4  C   UNL     1      13.837  17.553  56.701  1.00  0.00     0.036 C 
ATOM      5  C   UNL     1      13.572  17.835  58.192  1.00  0.00     0.025 C 
ATOM      6  C   UNL     1      14.131  19.214  58.583  1.00  0.00     0.089 C 
ATOM      7  C   UNL     1      15.571  19.338  58.169  1.00  0.00     0.158 C 
ATOM      8  O   UNL     1      16.323  20.135  58.792  1.00  0.00    -0.295 OA
ENDROOT
BRANCH   5   9
ATOM      9  C   UNL     1      12.090  17.720  58.525  1.00  0.00    -0.077 C 
ATOM     10  C   UNL     1      11.685  17.724  59.805  1.00  0.00     0.008 C 
ATOM     11  C   UNL     1      11.047  17.602  57.440  1.00  0.00     0.039 C 
ENDBRANCH   5   9
TORSDOF 1
ENDMDL
MODEL 8
REMARK VINA RESULT:    -4.760     10.770     11.513
REMARK INTER + INTRA:          -5.136
REMARK INTER:                  -5.048
REMARK INTRA:                  -0.088
REMARK UNBOUND:                -0.097
REMARK SMILES C=C(C)[C@H]1CC=C(C)C(=O)C1
REMARK SMILES IDX 8 1 7 2 6 3 5 4 4 5 11 6 9 7 10 8 2 9 1 10 3 11
REMARK H PARENT
REMARK Flexibility Score: inf
ROOT
ATOM      1  C   UNL     1      14.523  16.883  55.808  1.00  0.00     0.048 C 
ATOM      2  C   UNL     1      13.521  17.439  56.781  1.00  0.00    -0.012 C 
ATOM      3  C   UNL     1      12.216  17.152  56.634  1.00  0.00    -0.019 C 
ATOM      4  C   UNL     1      11.168  17.697  57.568  1.00  0.00     0.036 C 
ATOM      5  C   UNL     1      11.729  17.859  58.994  1.00  0.00     0.025 C 
ATOM      6  C   UNL     1      13.000  18.727  58.973  1.00  0.00     0.089 C 
ATOM      7  C   UNL     1      13.986  18.198  57.969  1.00  0.00     0.158 C 
ATOM      8  O   UNL     1      15.213  18.437  58.128  1.00  0.00    -0.295 OA
ENDROOT
BRANCH   5   9
ATOM      9  C   UNL     1      10.682  18.428  59.942  1.00  0.00    -0.077 C 
ATOM     10  C   UNL     1       9.985  17.609  60.746  1.00  0.00     0.008 C 
ATOM     11  C   UNL     1      10.401  19.910  60.007  1.00  0.00     0.039 C 
ENDBRANCH   5   9
TORSDOF 1
ENDMDL
MODEL 9
REMARK VINA RESULT:    -4.730     17.007     18.071
REMARK INTER + INTRA:          -5.103
REMARK INTER:                  -5.013
REMARK INTRA:                  -0.090
REMARK UNBOUND:                -0.097
REMARK SMILES C=C(C)[C@H]1CC=C(C)C(=O)C1
REMARK SMILES IDX 8 1 7 2 6 3 5 4 4 5 11 6 9 7 10 8 2 9 1 10 3 11
REMARK H PARENT
REMARK Flexibility Score: inf
ROOT
ATOM      1  C   UNL     1       4.692  26.125  55.498  1.00  0.00     0.048 C 
ATOM      2  C   UNL     1       5.933  25.279  55.563  1.00  0.00    -0.012 C 
ATOM      3  C   UNL     1       6.854  25.514  56.513  1.00  0.00    -0.019 C 
ATOM      4  C   UNL     1       8.123  24.710  56.612  1.00  0.00     0.036 C 
ATOM      5  C   UNL     1       7.894  23.257  56.156  1.00  0.00     0.025 C 
ATOM      6  C   UNL     1       7.296  23.229  54.738  1.00  0.00     0.089 C 
ATOM      7  C   UNL     1       6.079  24.110  54.661  1.00  0.00     0.158 C 
ATOM      8  O   UNL     1       5.198  23.865  53.792  1.00  0.00    -0.295 OA
ENDROOT
BRANCH   5   9
ATOM      9  C   UNL     1       9.177  22.440  56.234  1.00  0.00    -0.077 C 
ATOM     10  C   UNL     1       9.607  21.974  57.417  1.00  0.00     0.008 C 
ATOM     11  C   UNL     1       9.991  22.133  55.000  1.00  0.00     0.039 C 
ENDBRANCH   5   9
TORSDOF 1
ENDMDL
