MODEL 1
REMARK VINA RESULT:    28.057      0.000      0.000
REMARK INTER + INTRA:          28.057
REMARK INTER:                  28.057
REMARK INTRA:                   0.000
REMARK UNBOUND:                 0.000
REMARK SMILES Cc1cc2cc3c(C)cc(=O)oc3c(C)c2o1
REMARK SMILES IDX 8 1 7 2 9 3 10 4 11 5 12 6 13 7 6 8 5 9 4 10 3 11 2 12 17 13
REMARK SMILES IDX 16 14 14 15 15 16 1 17
REMARK H PARENT
REMARK Flexibility Score: inf
ROOT
ATOM      1  C   UNL     1     -18.890  28.297   8.114  1.00  0.00     0.045 C 
ATOM      2  C   UNL     1     -19.831  29.425   7.777  1.00  0.00    -0.033 A 
ATOM      3  C   UNL     1     -19.481  30.736   8.125  1.00  0.00     0.098 A 
ATOM      4  C   UNL     1     -20.347  31.786   7.815  1.00  0.00     0.336 A 
ATOM      5  O   UNL     1     -20.038  32.966   8.125  1.00  0.00    -0.246 OA
ATOM      6  O   UNL     1     -21.497  31.552   7.196  1.00  0.00    -0.422 OA
ATOM      7  C   UNL     1     -21.892  30.333   6.838  1.00  0.00     0.145 A 
ATOM      8  C   UNL     1     -21.060  29.202   7.116  1.00  0.00     0.022 A 
ATOM      9  C   UNL     1     -21.484  27.909   6.723  1.00  0.00     0.024 A 
ATOM     10  C   UNL     1     -22.706  27.792   6.069  1.00  0.00     0.022 A 
ATOM     11  C   UNL     1     -23.349  26.681   5.574  1.00  0.00     0.054 A 
ATOM     12  C   UNL     1     -24.523  27.185   5.024  1.00  0.00     0.102 A 
ATOM     13  O   UNL     1     -24.588  28.494   5.177  1.00  0.00    -0.461 OA
ATOM     14  C   UNL     1     -23.500  28.874   5.805  1.00  0.00     0.140 A 
ATOM     15  C   UNL     1     -23.135  30.168   6.182  1.00  0.00     0.036 A 
ATOM     16  C   UNL     1     -24.008  31.347   5.857  1.00  0.00     0.052 C 
ATOM     17  C   UNL     1     -25.583  26.370   4.363  1.00  0.00     0.087 C 
ENDROOT
TORSDOF 0
ENDMDL
MODEL 2
REMARK VINA RESULT:    28.070     11.743     16.203
REMARK INTER + INTRA:          28.070
REMARK INTER:                  28.070
REMARK INTRA:                   0.000
REMARK UNBOUND:                 0.000
REMARK SMILES Cc1cc2cc3c(C)cc(=O)oc3c(C)c2o1
REMARK SMILES IDX 8 1 7 2 9 3 10 4 11 5 12 6 13 7 6 8 5 9 4 10 3 11 2 12 17 13
REMARK SMILES IDX 16 14 14 15 15 16 1 17
REMARK H PARENT
REMARK Flexibility Score: inf
ROOT
ATOM      1  C   UNL     1     -38.995  22.705   8.049  1.00  0.00     0.045 C 
ATOM      2  C   UNL     1     -38.368  22.530   6.689  1.00  0.00    -0.033 A 
ATOM      3  C   UNL     1     -39.071  21.838   5.695  1.00  0.00     0.098 A 
ATOM      4  C   UNL     1     -38.497  21.674   4.433  1.00  0.00     0.336 A 
ATOM      5  O   UNL     1     -39.125  21.053   3.535  1.00  0.00    -0.246 OA
ATOM      6  O   UNL     1     -37.294  22.166   4.169  1.00  0.00    -0.422 OA
ATOM      7  C   UNL     1     -36.572  22.833   5.065  1.00  0.00     0.145 A 
ATOM      8  C   UNL     1     -37.089  23.047   6.383  1.00  0.00     0.022 A 
ATOM      9  C   UNL     1     -36.318  23.767   7.328  1.00  0.00     0.024 A 
ATOM     10  C   UNL     1     -35.074  24.245   6.929  1.00  0.00     0.022 A 
ATOM     11  C   UNL     1     -34.133  24.971   7.623  1.00  0.00     0.054 A 
ATOM     12  C   UNL     1     -33.106  25.161   6.705  1.00  0.00     0.102 A 
ATOM     13  O   UNL     1     -33.398  24.593   5.550  1.00  0.00    -0.461 OA
ATOM     14  C   UNL     1     -34.580  24.038   5.670  1.00  0.00     0.140 A 
ATOM     15  C   UNL     1     -35.295  23.325   4.704  1.00  0.00     0.036 A 
ATOM     16  C   UNL     1     -34.749  23.133   3.318  1.00  0.00     0.052 C 
ATOM     17  C   UNL     1     -31.833  25.890   6.977  1.00  0.00     0.087 C 
ENDROOT
TORSDOF 0
ENDMDL
