MODEL 1
REMARK VINA RESULT:    -2.865      0.000      0.000
REMARK INTER + INTRA:          -2.865
REMARK INTER:                  -2.865
REMARK INTRA:                   0.000
REMARK UNBOUND:                 0.000
REMARK SMILES CC(=O)[O-]
REMARK SMILES IDX 1 1 2 2 3 3 4 4
REMARK H PARENT
REMARK Flexibility Score: inf
ROOT
ATOM      1  C   UNL     1       7.862 -16.059  -1.786  1.00  0.00     0.063 C 
ATOM      2  C   UNL     1       9.164 -15.343  -1.896  1.00  0.00     0.038 C 
ATOM      3  O   UNL     1       9.835 -15.410  -2.959  1.00  0.00    -0.550 OA
ATOM      4  O   UNL     1       9.668 -14.643  -0.806  1.00  0.00    -0.550 OA
ENDROOT
TORSDOF 0
ENDMDL
MODEL 2
REMARK VINA RESULT:    -2.744      1.421      1.778
REMARK INTER + INTRA:          -2.744
REMARK INTER:                  -2.744
REMARK INTRA:                   0.000
REMARK UNBOUND:                 0.000
REMARK SMILES CC(=O)[O-]
REMARK SMILES IDX 1 1 2 2 3 3 4 4
REMARK H PARENT
REMARK Flexibility Score: inf
ROOT
ATOM      1  C   UNL     1       9.994 -14.916  -1.002  1.00  0.00     0.063 C 
ATOM      2  C   UNL     1       8.949 -15.241  -2.014  1.00  0.00     0.038 C 
ATOM      3  O   UNL     1       9.202 -15.133  -3.242  1.00  0.00    -0.550 OA
ATOM      4  O   UNL     1       7.674 -15.611  -1.603  1.00  0.00    -0.550 OA
ENDROOT
TORSDOF 0
ENDMDL
MODEL 3
REMARK VINA RESULT:    -2.342     16.653     16.938
REMARK INTER + INTRA:          -2.342
REMARK INTER:                  -2.342
REMARK INTRA:                   0.000
REMARK UNBOUND:                 0.000
REMARK SMILES CC(=O)[O-]
REMARK SMILES IDX 1 1 2 2 3 3 4 4
REMARK H PARENT
REMARK Flexibility Score: inf
ROOT
ATOM      1  C   UNL     1      16.463  -4.462 -13.380  1.00  0.00     0.063 C 
ATOM      2  C   UNL     1      15.444  -5.441 -13.852  1.00  0.00     0.038 C 
ATOM      3  O   UNL     1      14.237  -5.097 -13.955  1.00  0.00    -0.550 OA
ATOM      4  O   UNL     1      15.813  -6.751 -14.130  1.00  0.00    -0.550 OA
ENDROOT
TORSDOF 0
ENDMDL
MODEL 4
REMARK VINA RESULT:    -2.342     15.771     16.058
REMARK INTER + INTRA:          -2.342
REMARK INTER:                  -2.342
REMARK INTRA:                   0.000
REMARK UNBOUND:                 0.000
REMARK SMILES CC(=O)[O-]
REMARK SMILES IDX 1 1 2 2 3 3 4 4
REMARK H PARENT
REMARK Flexibility Score: inf
ROOT
ATOM      1  C   UNL     1      16.217  -6.632 -14.131  1.00  0.00     0.063 C 
ATOM      2  C   UNL     1      16.872  -6.589 -12.794  1.00  0.00     0.038 C 
ATOM      3  O   UNL     1      17.953  -7.204 -12.599  1.00  0.00    -0.550 OA
ATOM      4  O   UNL     1      16.265  -5.913 -11.743  1.00  0.00    -0.550 OA
ENDROOT
TORSDOF 0
ENDMDL
MODEL 5
REMARK VINA RESULT:    -2.333     15.738     16.276
REMARK INTER + INTRA:          -2.333
REMARK INTER:                  -2.333
REMARK INTRA:                   0.000
REMARK UNBOUND:                 0.000
REMARK SMILES CC(=O)[O-]
REMARK SMILES IDX 1 1 2 2 3 3 4 4
REMARK H PARENT
REMARK Flexibility Score: inf
ROOT
ATOM      1  C   UNL     1      16.566  -4.454 -13.424  1.00  0.00     0.063 C 
ATOM      2  C   UNL     1      15.688  -5.175 -12.460  1.00  0.00     0.038 C 
ATOM      3  O   UNL     1      16.193  -5.910 -11.571  1.00  0.00    -0.550 OA
ATOM      4  O   UNL     1      14.306  -5.081 -12.572  1.00  0.00    -0.550 OA
ENDROOT
TORSDOF 0
ENDMDL
MODEL 6
REMARK VINA RESULT:    -2.320     15.830     16.357
REMARK INTER + INTRA:          -2.320
REMARK INTER:                  -2.320
REMARK INTRA:                   0.000
REMARK UNBOUND:                 0.000
REMARK SMILES CC(=O)[O-]
REMARK SMILES IDX 1 1 2 2 3 3 4 4
REMARK H PARENT
REMARK Flexibility Score: inf
ROOT
ATOM      1  C   UNL     1      15.421  -6.295 -13.804  1.00  0.00     0.063 C 
ATOM      2  C   UNL     1      16.080  -5.478 -12.746  1.00  0.00     0.038 C 
ATOM      3  O   UNL     1      16.167  -5.918 -11.570  1.00  0.00    -0.550 OA
ATOM      4  O   UNL     1      16.554  -4.206 -13.043  1.00  0.00    -0.550 OA
ENDROOT
TORSDOF 0
ENDMDL
MODEL 7
REMARK VINA RESULT:    -2.303     17.390     17.935
REMARK INTER + INTRA:          -2.303
REMARK INTER:                  -2.303
REMARK INTRA:                   0.000
REMARK UNBOUND:                 0.000
REMARK SMILES CC(=O)[O-]
REMARK SMILES IDX 1 1 2 2 3 3 4 4
REMARK H PARENT
REMARK Flexibility Score: inf
ROOT
ATOM      1  C   UNL     1      14.630  -5.231 -13.805  1.00  0.00     0.063 C 
ATOM      2  C   UNL     1      15.722  -4.379 -14.355  1.00  0.00     0.038 C 
ATOM      3  O   UNL     1      16.790  -4.223 -13.706  1.00  0.00    -0.550 OA
ATOM      4  O   UNL     1      15.544  -3.709 -15.559  1.00  0.00    -0.550 OA
ENDROOT
TORSDOF 0
ENDMDL
MODEL 8
REMARK VINA RESULT:    -2.241     16.287     16.601
REMARK INTER + INTRA:          -2.241
REMARK INTER:                  -2.241
REMARK INTRA:                   0.000
REMARK UNBOUND:                 0.000
REMARK SMILES CC(=O)[O-]
REMARK SMILES IDX 1 1 2 2 3 3 4 4
REMARK H PARENT
REMARK Flexibility Score: inf
ROOT
ATOM      1  C   UNL     1      16.515  -4.598 -13.289  1.00  0.00     0.063 C 
ATOM      2  C   UNL     1      16.510  -6.087 -13.351  1.00  0.00     0.038 C 
ATOM      3  O   UNL     1      15.675  -6.687 -14.078  1.00  0.00    -0.550 OA
ATOM      4  O   UNL     1      17.391  -6.819 -12.565  1.00  0.00    -0.550 OA
ENDROOT
TORSDOF 0
ENDMDL
MODEL 9
REMARK VINA RESULT:    -2.124     16.740     17.136
REMARK INTER + INTRA:          -2.124
REMARK INTER:                  -2.124
REMARK INTRA:                   0.000
REMARK UNBOUND:                 0.000
REMARK SMILES CC(=O)[O-]
REMARK SMILES IDX 1 1 2 2 3 3 4 4
REMARK H PARENT
REMARK Flexibility Score: inf
ROOT
ATOM      1  C   UNL     1      21.013  -2.041  -1.067  1.00  0.00     0.063 C 
ATOM      2  C   UNL     1      21.348  -3.491  -1.131  1.00  0.00     0.038 C 
ATOM      3  O   UNL     1      20.999  -4.178  -2.127  1.00  0.00    -0.550 OA
ATOM      4  O   UNL     1      21.999  -4.103  -0.067  1.00  0.00    -0.550 OA
ENDROOT
TORSDOF 0
ENDMDL
