MODEL 1
REMARK VINA RESULT:    -3.352      0.000      0.000
REMARK INTER + INTRA:          -5.502
REMARK INTER:                  -5.115
REMARK INTRA:                  -0.387
REMARK UNBOUND:                -0.387
REMARK SMILES CC1=CCC[C@@H](C)C(=O)C[C@H](C(C)C)C(=O)C1
REMARK SMILES IDX 8 1 9 2 6 3 7 4 5 5 4 6 3 7 2 8 1 9 10 11 11 12 15 13 16 14
REMARK SMILES IDX 17 15 12 17 13 18 14 19
REMARK H PARENT
REMARK Flexibility Score: 70.00
ROOT
ATOM      1  C   UNL     1     -13.990  28.618  15.618  1.00  0.00     0.136 C 
ATOM      2  O   UNL     1     -14.705  29.494  15.154  1.00  0.00    -0.299 OA
ENDROOT
BRANCH   1   3
ATOM      3  C   UNL     1     -13.434  27.569  14.661  1.00  0.00     0.053 C 
ATOM      4  C   UNL     1     -14.136  27.619  13.299  1.00  0.00     0.016 C 
BRANCH   3   5
ATOM      5  C   UNL     1     -13.446  26.135  15.244  1.00  0.00     0.015 C 
BRANCH   5   6
ATOM      6  C   UNL     1     -14.866  25.640  15.581  1.00  0.00     0.028 C 
BRANCH   6   7
ATOM      7  C   UNL     1     -14.900  24.578  16.649  1.00  0.00    -0.028 C 
ATOM      8  C   UNL     1     -15.165  24.765  17.969  1.00  0.00    -0.070 CG0
ATOM      9  C   UNL     1     -14.974  23.571  18.875  1.00  0.00     0.039 C 
ATOM     10  G   UNL     1     -15.797  26.014  18.582  1.00  0.00     0.000 G0
ENDBRANCH   6   7
ENDBRANCH   5   6
ENDBRANCH   3   5
ENDBRANCH   1   3
BRANCH   1  11
ATOM     11  C   UNL     1     -13.738  28.630  17.114  1.00  0.00     0.087 C 
BRANCH  11  12
ATOM     12  C   UNL     1     -15.000  28.430  17.993  1.00  0.00     0.066 C 
BRANCH  12  13
ATOM     13  C   UNL     1     -14.927  27.196  18.885  1.00  0.00     0.140 C 
ATOM     14  O   UNL     1     -14.235  27.201  19.892  1.00  0.00    -0.299 OA
BRANCH  13  15
ATOM     15  C   UNL     1     -15.829  26.017  18.605  1.00  0.00     0.106 CG0
ATOM     16  G   UNL     1     -15.180  24.785  17.974  1.00  0.00     0.000 G0
ENDBRANCH  13  15
ENDBRANCH  12  13
BRANCH  12  17
ATOM     17  C   UNL     1     -15.378  29.688  18.837  1.00  0.00    -0.006 C 
ATOM     18  C   UNL     1     -16.643  30.380  18.307  1.00  0.00     0.008 C 
ATOM     19  C   UNL     1     -14.239  30.712  18.984  1.00  0.00     0.008 C 
ENDBRANCH  12  17
ENDBRANCH  11  12
ENDBRANCH   1  11
TORSDOF 1
ENDMDL
MODEL 2
REMARK VINA RESULT:    -3.255      3.083      5.956
REMARK INTER + INTRA:          -5.354
REMARK INTER:                  -4.927
REMARK INTRA:                  -0.427
REMARK UNBOUND:                -0.387
REMARK SMILES CC1=CCC[C@@H](C)C(=O)C[C@H](C(C)C)C(=O)C1
REMARK SMILES IDX 8 1 9 2 6 3 7 4 5 5 4 6 3 7 2 8 1 9 10 11 11 12 15 13 16 14
REMARK SMILES IDX 17 15 12 17 13 18 14 19
REMARK H PARENT
REMARK Flexibility Score: 70.00
ROOT
ATOM      1  C   UNL     1     -14.073  28.660  17.749  1.00  0.00     0.136 C 
ATOM      2  O   UNL     1     -14.617  27.566  17.797  1.00  0.00    -0.299 OA
ENDROOT
BRANCH   1   3
ATOM      3  C   UNL     1     -13.376  29.166  19.007  1.00  0.00     0.053 C 
ATOM      4  C   UNL     1     -13.646  28.252  20.208  1.00  0.00     0.016 C 
BRANCH   3   5
ATOM      5  C   UNL     1     -13.704  30.641  19.343  1.00  0.00     0.015 C 
BRANCH   5   6
ATOM      6  C   UNL     1     -15.218  30.900  19.474  1.00  0.00     0.028 C 
BRANCH   6   7
ATOM      7  C   UNL     1     -15.676  32.168  18.801  1.00  0.00    -0.028 C 
ATOM      8  C   UNL     1     -16.306  32.267  17.601  1.00  0.00    -0.070 CG0
ATOM      9  C   UNL     1     -16.514  33.661  17.057  1.00  0.00     0.039 C 
ATOM     10  G   UNL     1     -16.968  31.115  16.845  1.00  0.00     0.000 G0
ENDBRANCH   6   7
ENDBRANCH   5   6
ENDBRANCH   3   5
ENDBRANCH   1   3
BRANCH   1  11
ATOM     11  C   UNL     1     -14.162  29.437  16.449  1.00  0.00     0.087 C 
BRANCH  11  12
ATOM     12  C   UNL     1     -15.506  29.293  15.689  1.00  0.00     0.066 C 
BRANCH  12  13
ATOM     13  C   UNL     1     -16.293  30.596  15.600  1.00  0.00     0.140 C 
ATOM     14  O   UNL     1     -16.458  31.145  14.521  1.00  0.00    -0.299 OA
BRANCH  13  15
ATOM     15  C   UNL     1     -16.998  31.129  16.826  1.00  0.00     0.106 CG0
ATOM     16  G   UNL     1     -16.294  32.247  17.594  1.00  0.00     0.000 G0
ENDBRANCH  13  15
ENDBRANCH  12  13
BRANCH  12  17
ATOM     17  C   UNL     1     -15.358  28.651  14.275  1.00  0.00    -0.006 C 
ATOM     18  C   UNL     1     -15.766  27.169  14.268  1.00  0.00     0.008 C 
ATOM     19  C   UNL     1     -13.961  28.815  13.653  1.00  0.00     0.008 C 
ENDBRANCH  12  17
ENDBRANCH  11  12
ENDBRANCH   1  11
TORSDOF 1
ENDMDL
MODEL 3
REMARK VINA RESULT:    -3.223      2.179      4.097
REMARK INTER + INTRA:          -5.306
REMARK INTER:                  -4.952
REMARK INTRA:                  -0.354
REMARK UNBOUND:                -0.387
REMARK SMILES CC1=CCC[C@@H](C)C(=O)C[C@H](C(C)C)C(=O)C1
REMARK SMILES IDX 8 1 9 2 6 3 7 4 5 5 4 6 3 7 2 8 1 9 10 11 11 12 15 13 16 14
REMARK SMILES IDX 17 15 12 17 13 18 14 19
REMARK H PARENT
REMARK Flexibility Score: 70.00
ROOT
ATOM      1  C   UNL     1     -15.465  25.898  17.649  1.00  0.00     0.136 C 
ATOM      2  O   UNL     1     -15.247  24.964  18.408  1.00  0.00    -0.299 OA
ENDROOT
BRANCH   1   3
ATOM      3  C   UNL     1     -15.417  25.624  16.149  1.00  0.00     0.053 C 
ATOM      4  C   UNL     1     -16.529  24.661  15.716  1.00  0.00     0.016 C 
BRANCH   3   5
ATOM      5  C   UNL     1     -14.033  25.139  15.655  1.00  0.00     0.015 C 
BRANCH   5   6
ATOM      6  C   UNL     1     -13.064  26.301  15.360  1.00  0.00     0.028 C 
BRANCH   6   7
ATOM      7  C   UNL     1     -13.539  27.225  14.269  1.00  0.00    -0.028 C 
ATOM      8  C   UNL     1     -14.033  28.481  14.429  1.00  0.00    -0.070 CG0
ATOM      9  C   UNL     1     -14.603  29.148  13.199  1.00  0.00     0.039 C 
ATOM     10  G   UNL     1     -13.906  29.334  15.692  1.00  0.00     0.000 G0
ENDBRANCH   6   7
ENDBRANCH   5   6
ENDBRANCH   3   5
ENDBRANCH   1   3
BRANCH   1  11
ATOM     11  C   UNL     1     -15.736  27.259  18.262  1.00  0.00     0.087 C 
BRANCH  11  12
ATOM     12  C   UNL     1     -14.649  28.330  17.986  1.00  0.00     0.066 C 
BRANCH  12  13
ATOM     13  C   UNL     1     -14.943  29.189  16.760  1.00  0.00     0.140 C 
ATOM     14  O   UNL     1     -15.973  29.842  16.697  1.00  0.00    -0.299 OA
BRANCH  13  15
ATOM     15  C   UNL     1     -13.889  29.349  15.690  1.00  0.00     0.106 CG0
ATOM     16  G   UNL     1     -14.040  28.486  14.438  1.00  0.00     0.000 G0
ENDBRANCH  13  15
ENDBRANCH  12  13
BRANCH  12  17
ATOM     17  C   UNL     1     -14.336  29.234  19.219  1.00  0.00    -0.006 C 
ATOM     18  C   UNL     1     -13.003  29.982  19.064  1.00  0.00     0.008 C 
ATOM     19  C   UNL     1     -14.370  28.492  20.567  1.00  0.00     0.008 C 
ENDBRANCH  12  17
ENDBRANCH  11  12
ENDBRANCH   1  11
TORSDOF 1
ENDMDL
MODEL 4
REMARK VINA RESULT:    -3.201      2.155      4.831
REMARK INTER + INTRA:          -5.272
REMARK INTER:                  -4.966
REMARK INTRA:                  -0.306
REMARK UNBOUND:                -0.387
REMARK SMILES CC1=CCC[C@@H](C)C(=O)C[C@H](C(C)C)C(=O)C1
REMARK SMILES IDX 8 1 9 2 6 3 7 4 5 5 4 6 3 7 2 8 1 9 10 11 11 12 15 13 16 14
REMARK SMILES IDX 17 15 12 17 13 18 14 19
REMARK H PARENT
REMARK Flexibility Score: 70.00
ROOT
ATOM      1  C   UNL     1     -13.925  28.735  17.158  1.00  0.00     0.136 C 
ATOM      2  O   UNL     1     -13.994  29.386  16.126  1.00  0.00    -0.299 OA
ENDROOT
BRANCH   1   3
ATOM      3  C   UNL     1     -13.431  29.442  18.416  1.00  0.00     0.053 C 
ATOM      4  C   UNL     1     -13.106  28.443  19.533  1.00  0.00     0.016 C 
BRANCH   3   5
ATOM      5  C   UNL     1     -14.389  30.549  18.918  1.00  0.00     0.015 C 
BRANCH   5   6
ATOM      6  C   UNL     1     -15.473  30.012  19.874  1.00  0.00     0.028 C 
BRANCH   6   7
ATOM      7  C   UNL     1     -16.875  30.378  19.466  1.00  0.00    -0.028 C 
ATOM      8  C   UNL     1     -17.776  29.569  18.848  1.00  0.00    -0.070 CG0
ATOM      9  C   UNL     1     -19.062  30.215  18.386  1.00  0.00     0.039 C 
ATOM     10  G   UNL     1     -17.677  28.049  18.734  1.00  0.00     0.000 G0
ENDBRANCH   6   7
ENDBRANCH   5   6
ENDBRANCH   3   5
ENDBRANCH   1   3
BRANCH   1  11
ATOM     11  C   UNL     1     -14.309  27.269  17.097  1.00  0.00     0.087 C 
BRANCH  11  12
ATOM     12  C   UNL     1     -15.467  26.854  18.042  1.00  0.00     0.066 C 
BRANCH  12  13
ATOM     13  C   UNL     1     -16.809  27.469  17.660  1.00  0.00     0.140 C 
ATOM     14  O   UNL     1     -17.219  27.393  16.511  1.00  0.00    -0.299 OA
BRANCH  13  15
ATOM     15  C   UNL     1     -17.703  28.041  18.736  1.00  0.00     0.106 CG0
ATOM     16  G   UNL     1     -17.759  29.564  18.847  1.00  0.00     0.000 G0
ENDBRANCH  13  15
ENDBRANCH  12  13
BRANCH  12  17
ATOM     17  C   UNL     1     -15.608  25.310  18.216  1.00  0.00    -0.006 C 
ATOM     18  C   UNL     1     -15.223  24.851  19.631  1.00  0.00     0.008 C 
ATOM     19  C   UNL     1     -14.839  24.486  17.168  1.00  0.00     0.008 C 
ENDBRANCH  12  17
ENDBRANCH  11  12
ENDBRANCH   1  11
TORSDOF 1
ENDMDL
MODEL 5
REMARK VINA RESULT:    -3.080      1.730      3.900
REMARK INTER + INTRA:          -5.088
REMARK INTER:                  -4.769
REMARK INTRA:                  -0.319
REMARK UNBOUND:                -0.387
REMARK SMILES CC1=CCC[C@@H](C)C(=O)C[C@H](C(C)C)C(=O)C1
REMARK SMILES IDX 8 1 9 2 6 3 7 4 5 5 4 6 3 7 2 8 1 9 10 11 11 12 15 13 16 14
REMARK SMILES IDX 17 15 12 17 13 18 14 19
REMARK H PARENT
REMARK Flexibility Score: 70.00
ROOT
ATOM      1  C   UNL     1     -16.142  29.570  18.557  1.00  0.00     0.136 C 
ATOM      2  O   UNL     1     -17.290  29.378  18.930  1.00  0.00    -0.299 OA
ENDROOT
BRANCH   1   3
ATOM      3  C   UNL     1     -15.082  29.840  19.620  1.00  0.00     0.053 C 
ATOM      4  C   UNL     1     -13.779  30.356  18.998  1.00  0.00     0.016 C 
BRANCH   3   5
ATOM      5  C   UNL     1     -14.817  28.631  20.549  1.00  0.00     0.015 C 
BRANCH   5   6
ATOM      6  C   UNL     1     -14.132  27.458  19.821  1.00  0.00     0.028 C 
BRANCH   6   7
ATOM      7  C   UNL     1     -14.913  26.171  19.879  1.00  0.00    -0.028 C 
ATOM      8  C   UNL     1     -15.502  25.533  18.833  1.00  0.00    -0.070 CG0
ATOM      9  C   UNL     1     -16.373  24.345  19.167  1.00  0.00     0.039 C 
ATOM     10  G   UNL     1     -15.225  25.803  17.354  1.00  0.00     0.000 G0
ENDBRANCH   6   7
ENDBRANCH   5   6
ENDBRANCH   3   5
ENDBRANCH   1   3
BRANCH   1  11
ATOM     11  C   UNL     1     -15.870  29.551  17.065  1.00  0.00     0.087 C 
BRANCH  11  12
ATOM     12  C   UNL     1     -15.122  28.294  16.550  1.00  0.00     0.066 C 
BRANCH  12  13
ATOM     13  C   UNL     1     -15.907  27.001  16.743  1.00  0.00     0.140 C 
ATOM     14  O   UNL     1     -17.037  26.892  16.290  1.00  0.00    -0.299 OA
BRANCH  13  15
ATOM     15  C   UNL     1     -15.231  25.801  17.364  1.00  0.00     0.106 CG0
ATOM     16  G   UNL     1     -15.533  25.525  18.837  1.00  0.00     0.000 G0
ENDBRANCH  13  15
ENDBRANCH  12  13
BRANCH  12  17
ATOM     17  C   UNL     1     -14.636  28.419  15.072  1.00  0.00    -0.006 C 
ATOM     18  C   UNL     1     -13.605  27.338  14.710  1.00  0.00     0.008 C 
ATOM     19  C   UNL     1     -14.093  29.810  14.704  1.00  0.00     0.008 C 
ENDBRANCH  12  17
ENDBRANCH  11  12
ENDBRANCH   1  11
TORSDOF 1
ENDMDL
MODEL 6
REMARK VINA RESULT:    -3.053      1.621      4.026
REMARK INTER + INTRA:          -5.047
REMARK INTER:                  -4.677
REMARK INTRA:                  -0.370
REMARK UNBOUND:                -0.387
REMARK SMILES CC1=CCC[C@@H](C)C(=O)C[C@H](C(C)C)C(=O)C1
REMARK SMILES IDX 8 1 9 2 6 3 7 4 5 5 4 6 3 7 2 8 1 9 10 11 11 12 15 13 16 14
REMARK SMILES IDX 17 15 12 17 13 18 14 19
REMARK H PARENT
REMARK Flexibility Score: 70.00
ROOT
ATOM      1  C   UNL     1     -15.470  26.508  18.995  1.00  0.00     0.136 C 
ATOM      2  O   UNL     1     -15.038  26.899  20.070  1.00  0.00    -0.299 OA
ENDROOT
BRANCH   1   3
ATOM      3  C   UNL     1     -15.622  25.004  18.791  1.00  0.00     0.053 C 
ATOM      4  C   UNL     1     -15.331  24.228  20.081  1.00  0.00     0.016 C 
BRANCH   3   5
ATOM      5  C   UNL     1     -14.789  24.455  17.608  1.00  0.00     0.015 C 
BRANCH   5   6
ATOM      6  C   UNL     1     -15.615  24.309  16.314  1.00  0.00     0.028 C 
BRANCH   6   7
ATOM      7  C   UNL     1     -14.876  24.734  15.073  1.00  0.00    -0.028 C 
ATOM      8  C   UNL     1     -14.948  25.946  14.462  1.00  0.00    -0.070 CG0
ATOM      9  C   UNL     1     -14.243  26.079  13.132  1.00  0.00     0.039 C 
ATOM     10  G   UNL     1     -15.526  27.220  15.077  1.00  0.00     0.000 G0
ENDBRANCH   6   7
ENDBRANCH   5   6
ENDBRANCH   3   5
ENDBRANCH   1   3
BRANCH   1  11
ATOM     11  C   UNL     1     -15.792  27.550  17.941  1.00  0.00     0.087 C 
BRANCH  11  12
ATOM     12  C   UNL     1     -14.557  28.229  17.292  1.00  0.00     0.066 C 
BRANCH  12  13
ATOM     13  C   UNL     1     -14.564  28.167  15.769  1.00  0.00     0.140 C 
ATOM     14  O   UNL     1     -13.719  28.768  15.122  1.00  0.00    -0.299 OA
BRANCH  13  15
ATOM     15  C   UNL     1     -15.526  27.240  15.062  1.00  0.00     0.106 CG0
ATOM     16  G   UNL     1     -14.940  25.959  14.471  1.00  0.00     0.000 G0
ENDBRANCH  13  15
ENDBRANCH  12  13
BRANCH  12  17
ATOM     17  C   UNL     1     -14.325  29.695  17.775  1.00  0.00    -0.006 C 
ATOM     18  C   UNL     1     -13.019  29.840  18.571  1.00  0.00     0.008 C 
ATOM     19  C   UNL     1     -15.499  30.286  18.575  1.00  0.00     0.008 C 
ENDBRANCH  12  17
ENDBRANCH  11  12
ENDBRANCH   1  11
TORSDOF 1
ENDMDL
MODEL 7
REMARK VINA RESULT:    -3.026      1.731      4.289
REMARK INTER + INTRA:          -5.006
REMARK INTER:                  -4.721
REMARK INTRA:                  -0.285
REMARK UNBOUND:                -0.387
REMARK SMILES CC1=CCC[C@@H](C)C(=O)C[C@H](C(C)C)C(=O)C1
REMARK SMILES IDX 8 1 9 2 6 3 7 4 5 5 4 6 3 7 2 8 1 9 10 11 11 12 15 13 16 14
REMARK SMILES IDX 17 15 12 17 13 18 14 19
REMARK H PARENT
REMARK Flexibility Score: 70.00
ROOT
ATOM      1  C   UNL     1     -14.597  25.967  15.332  1.00  0.00     0.136 C 
ATOM      2  O   UNL     1     -13.579  25.303  15.204  1.00  0.00    -0.299 OA
ENDROOT
BRANCH   1   3
ATOM      3  C   UNL     1     -14.668  27.310  14.612  1.00  0.00     0.053 C 
ATOM      4  C   UNL     1     -13.349  27.640  13.903  1.00  0.00     0.016 C 
BRANCH   3   5
ATOM      5  C   UNL     1     -15.119  28.476  15.525  1.00  0.00     0.015 C 
BRANCH   5   6
ATOM      6  C   UNL     1     -14.013  28.937  16.495  1.00  0.00     0.028 C 
BRANCH   6   7
ATOM      7  C   UNL     1     -14.538  29.611  17.736  1.00  0.00    -0.028 C 
ATOM      8  C   UNL     1     -15.061  28.999  18.831  1.00  0.00    -0.070 CG0
ATOM      9  C   UNL     1     -15.677  29.896  19.879  1.00  0.00     0.039 C 
ATOM     10  G   UNL     1     -14.928  27.515  19.171  1.00  0.00     0.000 G0
ENDBRANCH   6   7
ENDBRANCH   5   6
ENDBRANCH   3   5
ENDBRANCH   1   3
BRANCH   1  11
ATOM     11  C   UNL     1     -15.696  25.415  16.221  1.00  0.00     0.087 C 
BRANCH  11  12
ATOM     12  C   UNL     1     -15.355  25.371  17.733  1.00  0.00     0.066 C 
BRANCH  12  13
ATOM     13  C   UNL     1     -15.902  26.563  18.511  1.00  0.00     0.140 C 
ATOM     14  O   UNL     1     -17.104  26.682  18.695  1.00  0.00    -0.299 OA
BRANCH  13  15
ATOM     15  C   UNL     1     -14.945  27.519  19.184  1.00  0.00     0.106 CG0
ATOM     16  G   UNL     1     -15.073  28.997  18.816  1.00  0.00     0.000 G0
ENDBRANCH  13  15
ENDBRANCH  12  13
BRANCH  12  17
ATOM     17  C   UNL     1     -15.768  24.035  18.427  1.00  0.00    -0.006 C 
ATOM     18  C   UNL     1     -14.629  23.451  19.278  1.00  0.00     0.008 C 
ATOM     19  C   UNL     1     -16.306  22.965  17.461  1.00  0.00     0.008 C 
ENDBRANCH  12  17
ENDBRANCH  11  12
ENDBRANCH   1  11
TORSDOF 1
ENDMDL
MODEL 8
REMARK VINA RESULT:    -2.993      2.814      4.402
REMARK INTER + INTRA:          -4.954
REMARK INTER:                  -4.625
REMARK INTRA:                  -0.329
REMARK UNBOUND:                -0.387
REMARK SMILES CC1=CCC[C@@H](C)C(=O)C[C@H](C(C)C)C(=O)C1
REMARK SMILES IDX 8 1 9 2 6 3 7 4 5 5 4 6 3 7 2 8 1 9 10 11 11 12 15 13 16 14
REMARK SMILES IDX 17 15 12 17 13 18 14 19
REMARK H PARENT
REMARK Flexibility Score: 70.00
ROOT
ATOM      1  C   UNL     1     -14.602  30.538  19.363  1.00  0.00     0.136 C 
ATOM      2  O   UNL     1     -13.570  31.174  19.518  1.00  0.00    -0.299 OA
ENDROOT
BRANCH   1   3
ATOM      3  C   UNL     1     -14.489  29.030  19.163  1.00  0.00     0.053 C 
ATOM      4  C   UNL     1     -14.160  28.311  20.477  1.00  0.00     0.016 C 
BRANCH   3   5
ATOM      5  C   UNL     1     -13.500  28.629  18.043  1.00  0.00     0.015 C 
BRANCH   5   6
ATOM      6  C   UNL     1     -14.189  28.444  16.677  1.00  0.00     0.028 C 
BRANCH   6   7
ATOM      7  C   UNL     1     -15.441  27.610  16.738  1.00  0.00    -0.028 C 
ATOM      8  C   UNL     1     -16.721  28.069  16.755  1.00  0.00    -0.070 CG0
ATOM      9  C   UNL     1     -17.806  27.044  16.991  1.00  0.00     0.039 C 
ATOM     10  G   UNL     1     -17.164  29.485  16.390  1.00  0.00     0.000 G0
ENDBRANCH   6   7
ENDBRANCH   5   6
ENDBRANCH   3   5
ENDBRANCH   1   3
BRANCH   1  11
ATOM     11  C   UNL     1     -15.911  31.306  19.352  1.00  0.00     0.087 C 
BRANCH  11  12
ATOM     12  C   UNL     1     -16.534  31.521  17.948  1.00  0.00     0.066 C 
BRANCH  12  13
ATOM     13  C   UNL     1     -17.515  30.425  17.548  1.00  0.00     0.140 C 
ATOM     14  O   UNL     1     -18.618  30.363  18.069  1.00  0.00    -0.299 OA
BRANCH  13  15
ATOM     15  C   UNL     1     -17.180  29.504  16.397  1.00  0.00     0.106 CG0
ATOM     16  G   UNL     1     -16.734  28.087  16.755  1.00  0.00     0.000 G0
ENDBRANCH  13  15
ENDBRANCH  12  13
BRANCH  12  17
ATOM     17  C   UNL     1     -17.185  32.927  17.763  1.00  0.00    -0.006 C 
ATOM     18  C   UNL     1     -16.528  33.722  16.623  1.00  0.00     0.008 C 
ATOM     19  C   UNL     1     -17.222  33.776  19.044  1.00  0.00     0.008 C 
ENDBRANCH  12  17
ENDBRANCH  11  12
ENDBRANCH   1  11
TORSDOF 1
ENDMDL
MODEL 9
REMARK VINA RESULT:    -2.976      2.529      3.885
REMARK INTER + INTRA:          -4.929
REMARK INTER:                  -4.579
REMARK INTRA:                  -0.350
REMARK UNBOUND:                -0.387
REMARK SMILES CC1=CCC[C@@H](C)C(=O)C[C@H](C(C)C)C(=O)C1
REMARK SMILES IDX 8 1 9 2 6 3 7 4 5 5 4 6 3 7 2 8 1 9 10 11 11 12 15 13 16 14
REMARK SMILES IDX 17 15 12 17 13 18 14 19
REMARK H PARENT
REMARK Flexibility Score: 70.00
ROOT
ATOM      1  C   UNL     1     -14.625  30.279  19.489  1.00  0.00     0.136 C 
ATOM      2  O   UNL     1     -13.688  31.049  19.644  1.00  0.00    -0.299 OA
ENDROOT
BRANCH   1   3
ATOM      3  C   UNL     1     -14.319  28.877  18.971  1.00  0.00     0.053 C 
ATOM      4  C   UNL     1     -13.312  28.151  19.870  1.00  0.00     0.016 C 
BRANCH   3   5
ATOM      5  C   UNL     1     -13.866  28.852  17.491  1.00  0.00     0.015 C 
BRANCH   5   6
ATOM      6  C   UNL     1     -14.949  28.296  16.545  1.00  0.00     0.028 C 
BRANCH   6   7
ATOM      7  C   UNL     1     -15.727  27.144  17.125  1.00  0.00    -0.028 C 
ATOM      8  C   UNL     1     -16.949  27.207  17.717  1.00  0.00    -0.070 CG0
ATOM      9  C   UNL     1     -17.450  25.942  18.375  1.00  0.00     0.039 C 
ATOM     10  G   UNL     1     -17.922  28.382  17.628  1.00  0.00     0.000 G0
ENDBRANCH   6   7
ENDBRANCH   5   6
ENDBRANCH   3   5
ENDBRANCH   1   3
BRANCH   1  11
ATOM     11  C   UNL     1     -16.020  30.791  19.795  1.00  0.00     0.087 C 
BRANCH  11  12
ATOM     12  C   UNL     1     -17.043  30.640  18.639  1.00  0.00     0.066 C 
BRANCH  12  13
ATOM     13  C   UNL     1     -17.913  29.393  18.760  1.00  0.00     0.140 C 
ATOM     14  O   UNL     1     -18.678  29.264  19.705  1.00  0.00    -0.299 OA
BRANCH  13  15
ATOM     15  C   UNL     1     -17.939  28.388  17.633  1.00  0.00     0.106 CG0
ATOM     16  G   UNL     1     -16.950  27.227  17.721  1.00  0.00     0.000 G0
ENDBRANCH  13  15
ENDBRANCH  12  13
BRANCH  12  17
ATOM     17  C   UNL     1     -17.933  31.904  18.424  1.00  0.00    -0.006 C 
ATOM     18  C   UNL     1     -18.328  32.087  16.951  1.00  0.00     0.008 C 
ATOM     19  C   UNL     1     -17.320  33.204  18.971  1.00  0.00     0.008 C 
ENDBRANCH  12  17
ENDBRANCH  11  12
ENDBRANCH   1  11
TORSDOF 1
ENDMDL
