MODEL 1
REMARK VINA RESULT:    -5.827      0.000      0.000
REMARK INTER + INTRA:         -16.616
REMARK INTER:                 -13.322
REMARK INTRA:                  -3.293
REMARK UNBOUND:                -3.293
REMARK SMILES CCCCCCCCCCCCCCCCCCCCCCCC(=O)[O-]
REMARK SMILES IDX 13 1 14 2 15 3 16 4 17 5 18 6 19 7 20 8 21 9 22 10 23 11
REMARK SMILES IDX 24 12 25 13 26 14 12 15 11 16 10 17 9 18 8 19 7 20 6 21 5 22
REMARK SMILES IDX 4 23 3 24 2 25 1 26
REMARK H PARENT
REMARK Flexibility Score: inf
ROOT
ATOM      1  C   UNL     1     115.430 -83.254  20.294  1.00  0.00     0.000 C 
ENDROOT
BRANCH   1   2
ATOM      2  C   UNL     1     116.044 -82.901  21.659  1.00  0.00     0.000 C 
BRANCH   2   3
ATOM      3  C   UNL     1     117.557 -83.163  21.712  1.00  0.00     0.000 C 
BRANCH   3   4
ATOM      4  C   UNL     1     118.354 -81.952  22.228  1.00  0.00     0.000 C 
BRANCH   4   5
ATOM      5  C   UNL     1     118.451 -80.794  21.213  1.00  0.00     0.000 C 
BRANCH   5   6
ATOM      6  C   UNL     1     118.177 -79.426  21.861  1.00  0.00     0.000 C 
BRANCH   6   7
ATOM      7  C   UNL     1     116.772 -78.885  21.517  1.00  0.00     0.000 C 
BRANCH   7   8
ATOM      8  C   UNL     1     115.686 -79.283  22.535  1.00  0.00     0.000 C 
BRANCH   8   9
ATOM      9  C   UNL     1     114.307 -79.585  21.925  1.00  0.00     0.000 C 
BRANCH   9  10
ATOM     10  C   UNL     1     114.264 -79.352  20.405  1.00  0.00     0.006 C 
BRANCH  10  11
ATOM     11  C   UNL     1     112.919 -78.768  19.948  1.00  0.00     0.053 C 
BRANCH  11  12
ATOM     12  C   UNL     1     112.373 -77.787  20.940  1.00  0.00     0.041 C 
ATOM     13  O   UNL     1     112.970 -76.698  21.149  1.00  0.00    -0.550 OA
ATOM     14  O   UNL     1     111.185 -78.060  21.606  1.00  0.00    -0.550 OA
ENDBRANCH  11  12
ENDBRANCH  10  11
ENDBRANCH   9  10
ENDBRANCH   8   9
ENDBRANCH   7   8
ENDBRANCH   6   7
ENDBRANCH   5   6
ENDBRANCH   4   5
ENDBRANCH   3   4
ENDBRANCH   2   3
ENDBRANCH   1   2
BRANCH   1  15
ATOM     15  C   UNL     1     113.974 -83.738  20.409  1.00  0.00     0.000 C 
BRANCH  15  16
ATOM     16  C   UNL     1     113.191 -82.996  21.506  1.00  0.00     0.000 C 
BRANCH  16  17
ATOM     17  C   UNL     1     111.947 -82.277  20.956  1.00  0.00     0.000 C 
BRANCH  17  18
ATOM     18  C   UNL     1     111.119 -81.598  22.060  1.00  0.00    -0.000 C 
BRANCH  18  19
ATOM     19  C   UNL     1     110.568 -82.600  23.090  1.00  0.00    -0.000 C 
BRANCH  19  20
ATOM     20  C   UNL     1     109.868 -81.914  24.278  1.00  0.00    -0.000 C 
BRANCH  20  21
ATOM     21  C   UNL     1     108.383 -82.280  24.464  1.00  0.00    -0.000 C 
BRANCH  21  22
ATOM     22  C   UNL     1     107.912 -83.383  23.501  1.00  0.00    -0.000 C 
BRANCH  22  23
ATOM     23  C   UNL     1     106.684 -82.962  22.678  1.00  0.00    -0.000 C 
BRANCH  23  24
ATOM     24  C   UNL     1     106.302 -81.487  22.904  1.00  0.00    -0.000 C 
BRANCH  24  25
ATOM     25  C   UNL     1     106.557 -80.617  21.664  1.00  0.00    -0.003 C 
ATOM     26  C   UNL     1     107.765 -79.694  21.825  1.00  0.00     0.004 C 
ENDBRANCH  24  25
ENDBRANCH  23  24
ENDBRANCH  22  23
ENDBRANCH  21  22
ENDBRANCH  20  21
ENDBRANCH  19  20
ENDBRANCH  18  19
ENDBRANCH  17  18
ENDBRANCH  16  17
ENDBRANCH  15  16
ENDBRANCH   1  15
TORSDOF 22
ENDMDL
MODEL 2
REMARK VINA RESULT:    -5.790      2.895      7.020
REMARK INTER + INTRA:         -16.530
REMARK INTER:                 -12.783
REMARK INTRA:                  -3.747
REMARK UNBOUND:                -3.293
REMARK SMILES CCCCCCCCCCCCCCCCCCCCCCCC(=O)[O-]
REMARK SMILES IDX 13 1 14 2 15 3 16 4 17 5 18 6 19 7 20 8 21 9 22 10 23 11
REMARK SMILES IDX 24 12 25 13 26 14 12 15 11 16 10 17 9 18 8 19 7 20 6 21 5 22
REMARK SMILES IDX 4 23 3 24 2 25 1 26
REMARK H PARENT
REMARK Flexibility Score: inf
ROOT
ATOM      1  C   UNL     1     109.744 -79.934  22.626  1.00  0.00     0.000 C 
ENDROOT
BRANCH   1   2
ATOM      2  C   UNL     1     110.228 -81.261  22.016  1.00  0.00     0.000 C 
BRANCH   2   3
ATOM      3  C   UNL     1     110.598 -82.301  23.084  1.00  0.00     0.000 C 
BRANCH   3   4
ATOM      4  C   UNL     1     111.649 -83.311  22.593  1.00  0.00     0.000 C 
BRANCH   4   5
ATOM      5  C   UNL     1     112.511 -82.792  21.423  1.00  0.00     0.000 C 
BRANCH   5   6
ATOM      6  C   UNL     1     113.669 -83.747  21.085  1.00  0.00     0.000 C 
BRANCH   6   7
ATOM      7  C   UNL     1     114.661 -83.128  20.074  1.00  0.00     0.000 C 
BRANCH   7   8
ATOM      8  C   UNL     1     116.139 -83.431  20.390  1.00  0.00     0.000 C 
BRANCH   8   9
ATOM      9  C   UNL     1     116.590 -83.043  21.809  1.00  0.00     0.000 C 
BRANCH   9  10
ATOM     10  C   UNL     1     118.120 -82.971  21.949  1.00  0.00     0.006 C 
BRANCH  10  11
ATOM     11  C   UNL     1     118.569 -81.747  22.760  1.00  0.00     0.053 C 
BRANCH  11  12
ATOM     12  C   UNL     1     119.516 -80.883  21.984  1.00  0.00     0.041 C 
ATOM     13  O   UNL     1     120.351 -80.157  22.587  1.00  0.00    -0.550 OA
ATOM     14  O   UNL     1     119.503 -80.907  20.596  1.00  0.00    -0.550 OA
ENDBRANCH  11  12
ENDBRANCH  10  11
ENDBRANCH   9  10
ENDBRANCH   8   9
ENDBRANCH   7   8
ENDBRANCH   6   7
ENDBRANCH   5   6
ENDBRANCH   4   5
ENDBRANCH   3   4
ENDBRANCH   2   3
ENDBRANCH   1   2
BRANCH   1  15
ATOM     15  C   UNL     1     110.646 -78.746  22.246  1.00  0.00     0.000 C 
BRANCH  15  16
ATOM     16  C   UNL     1     112.096 -79.176  21.962  1.00  0.00     0.000 C 
BRANCH  16  17
ATOM     17  C   UNL     1     112.554 -78.799  20.542  1.00  0.00     0.000 C 
BRANCH  17  18
ATOM     18  C   UNL     1     113.898 -79.445  20.163  1.00  0.00    -0.000 C 
BRANCH  18  19
ATOM     19  C   UNL     1     114.765 -79.774  21.390  1.00  0.00    -0.000 C 
BRANCH  19  20
ATOM     20  C   UNL     1     116.201 -79.229  21.272  1.00  0.00    -0.000 C 
BRANCH  20  21
ATOM     21  C   UNL     1     116.610 -78.216  22.358  1.00  0.00    -0.000 C 
BRANCH  21  22
ATOM     22  C   UNL     1     115.796 -78.366  23.655  1.00  0.00    -0.000 C 
BRANCH  22  23
ATOM     23  C   UNL     1     114.729 -77.270  23.811  1.00  0.00    -0.000 C 
BRANCH  23  24
ATOM     24  C   UNL     1     114.822 -76.198  22.710  1.00  0.00    -0.000 C 
BRANCH  24  25
ATOM     25  C   UNL     1     113.744 -75.113  22.852  1.00  0.00    -0.003 C 
ATOM     26  C   UNL     1     112.480 -75.424  22.049  1.00  0.00     0.004 C 
ENDBRANCH  24  25
ENDBRANCH  23  24
ENDBRANCH  22  23
ENDBRANCH  21  22
ENDBRANCH  20  21
ENDBRANCH  19  20
ENDBRANCH  18  19
ENDBRANCH  17  18
ENDBRANCH  16  17
ENDBRANCH  15  16
ENDBRANCH   1  15
TORSDOF 22
ENDMDL
MODEL 3
REMARK VINA RESULT:    -5.772      1.354      7.944
REMARK INTER + INTRA:         -16.490
REMARK INTER:                 -13.254
REMARK INTRA:                  -3.236
REMARK UNBOUND:                -3.293
REMARK SMILES CCCCCCCCCCCCCCCCCCCCCCCC(=O)[O-]
REMARK SMILES IDX 13 1 14 2 15 3 16 4 17 5 18 6 19 7 20 8 21 9 22 10 23 11
REMARK SMILES IDX 24 12 25 13 26 14 12 15 11 16 10 17 9 18 8 19 7 20 6 21 5 22
REMARK SMILES IDX 4 23 3 24 2 25 1 26
REMARK H PARENT
REMARK Flexibility Score: inf
ROOT
ATOM      1  C   UNL     1     109.738 -81.875  24.196  1.00  0.00     0.000 C 
ENDROOT
BRANCH   1   2
ATOM      2  C   UNL     1     108.324 -82.204  24.704  1.00  0.00     0.000 C 
BRANCH   2   3
ATOM      3  C   UNL     1     107.659 -83.337  23.907  1.00  0.00     0.000 C 
BRANCH   3   4
ATOM      4  C   UNL     1     106.126 -83.330  24.026  1.00  0.00     0.000 C 
BRANCH   4   5
ATOM      5  C   UNL     1     105.491 -81.942  23.800  1.00  0.00     0.000 C 
BRANCH   5   6
ATOM      6  C   UNL     1     104.615 -81.901  22.535  1.00  0.00     0.000 C 
BRANCH   6   7
ATOM      7  C   UNL     1     105.415 -82.239  21.257  1.00  0.00     0.000 C 
BRANCH   7   8
ATOM      8  C   UNL     1     106.184 -81.039  20.670  1.00  0.00     0.000 C 
BRANCH   8   9
ATOM      9  C   UNL     1     107.638 -80.904  21.153  1.00  0.00     0.000 C 
BRANCH   9  10
ATOM     10  C   UNL     1     107.895 -79.591  21.911  1.00  0.00     0.006 C 
BRANCH  10  11
ATOM     11  C   UNL     1     109.331 -79.083  21.717  1.00  0.00     0.053 C 
BRANCH  11  12
ATOM     12  C   UNL     1     109.367 -77.800  20.944  1.00  0.00     0.041 C 
ATOM     13  O   UNL     1     110.466 -77.231  20.711  1.00  0.00    -0.550 OA
ATOM     14  O   UNL     1     108.191 -77.251  20.451  1.00  0.00    -0.550 OA
ENDBRANCH  11  12
ENDBRANCH  10  11
ENDBRANCH   9  10
ENDBRANCH   8   9
ENDBRANCH   7   8
ENDBRANCH   6   7
ENDBRANCH   5   6
ENDBRANCH   4   5
ENDBRANCH   3   4
ENDBRANCH   2   3
ENDBRANCH   1   2
BRANCH   1  15
ATOM     15  C   UNL     1     110.166 -82.772  23.021  1.00  0.00     0.000 C 
BRANCH  15  16
ATOM     16  C   UNL     1     111.383 -82.211  22.265  1.00  0.00     0.000 C 
BRANCH  16  17
ATOM     17  C   UNL     1     112.447 -83.286  21.981  1.00  0.00     0.000 C 
BRANCH  17  18
ATOM     18  C   UNL     1     113.218 -83.027  20.676  1.00  0.00    -0.000 C 
BRANCH  18  19
ATOM     19  C   UNL     1     114.381 -84.013  20.468  1.00  0.00    -0.000 C 
BRANCH  19  20
ATOM     20  C   UNL     1     115.753 -83.399  20.800  1.00  0.00    -0.000 C 
BRANCH  20  21
ATOM     21  C   UNL     1     115.723 -82.226  21.798  1.00  0.00    -0.000 C 
BRANCH  21  22
ATOM     22  C   UNL     1     116.747 -81.128  21.464  1.00  0.00    -0.000 C 
BRANCH  22  23
ATOM     23  C   UNL     1     116.093 -79.748  21.281  1.00  0.00    -0.000 C 
BRANCH  23  24
ATOM     24  C   UNL     1     114.880 -79.793  20.334  1.00  0.00    -0.000 C 
BRANCH  24  25
ATOM     25  C   UNL     1     113.802 -78.766  20.710  1.00  0.00    -0.003 C 
ATOM     26  C   UNL     1     113.164 -79.045  22.072  1.00  0.00     0.004 C 
ENDBRANCH  24  25
ENDBRANCH  23  24
ENDBRANCH  22  23
ENDBRANCH  21  22
ENDBRANCH  20  21
ENDBRANCH  19  20
ENDBRANCH  18  19
ENDBRANCH  17  18
ENDBRANCH  16  17
ENDBRANCH  15  16
ENDBRANCH   1  15
TORSDOF 22
ENDMDL
MODEL 4
REMARK VINA RESULT:    -5.754      2.540      7.077
REMARK INTER + INTRA:         -16.447
REMARK INTER:                 -12.257
REMARK INTRA:                  -4.190
REMARK UNBOUND:                -3.293
REMARK SMILES CCCCCCCCCCCCCCCCCCCCCCCC(=O)[O-]
REMARK SMILES IDX 13 1 14 2 15 3 16 4 17 5 18 6 19 7 20 8 21 9 22 10 23 11
REMARK SMILES IDX 24 12 25 13 26 14 12 15 11 16 10 17 9 18 8 19 7 20 6 21 5 22
REMARK SMILES IDX 4 23 3 24 2 25 1 26
REMARK H PARENT
REMARK Flexibility Score: inf
ROOT
ATOM      1  C   UNL     1     104.649 -83.611  22.953  1.00  0.00     0.000 C 
ENDROOT
BRANCH   1   2
ATOM      2  C   UNL     1     106.088 -83.532  23.492  1.00  0.00     0.000 C 
BRANCH   2   3
ATOM      3  C   UNL     1     106.305 -82.329  24.422  1.00  0.00     0.000 C 
BRANCH   3   4
ATOM      4  C   UNL     1     107.793 -82.004  24.640  1.00  0.00     0.000 C 
BRANCH   4   5
ATOM      5  C   UNL     1     108.746 -82.836  23.756  1.00  0.00     0.000 C 
BRANCH   5   6
ATOM      6  C   UNL     1     110.050 -82.083  23.436  1.00  0.00     0.000 C 
BRANCH   6   7
ATOM      7  C   UNL     1     111.073 -82.974  22.696  1.00  0.00     0.000 C 
BRANCH   7   8
ATOM      8  C   UNL     1     111.881 -82.227  21.617  1.00  0.00     0.000 C 
BRANCH   8   9
ATOM      9  C   UNL     1     111.114 -81.105  20.896  1.00  0.00     0.000 C 
BRANCH   9  10
ATOM     10  C   UNL     1     112.024 -79.942  20.465  1.00  0.00     0.006 C 
BRANCH  10  11
ATOM     11  C   UNL     1     113.086 -79.616  21.525  1.00  0.00     0.053 C 
BRANCH  11  12
ATOM     12  C   UNL     1     114.474 -79.704  20.968  1.00  0.00     0.041 C 
ATOM     13  O   UNL     1     115.224 -78.692  20.970  1.00  0.00    -0.550 OA
ATOM     14  O   UNL     1     114.952 -80.912  20.478  1.00  0.00    -0.550 OA
ENDBRANCH  11  12
ENDBRANCH  10  11
ENDBRANCH   9  10
ENDBRANCH   8   9
ENDBRANCH   7   8
ENDBRANCH   6   7
ENDBRANCH   5   6
ENDBRANCH   4   5
ENDBRANCH   3   4
ENDBRANCH   2   3
ENDBRANCH   1   2
BRANCH   1  15
ATOM     15  C   UNL     1     103.937 -82.246  22.971  1.00  0.00     0.000 C 
BRANCH  15  16
ATOM     16  C   UNL     1     103.314 -81.889  21.611  1.00  0.00     0.000 C 
BRANCH  16  17
ATOM     17  C   UNL     1     103.420 -83.039  20.595  1.00  0.00     0.000 C 
BRANCH  17  18
ATOM     18  C   UNL     1     104.049 -82.597  19.263  1.00  0.00    -0.000 C 
BRANCH  18  19
ATOM     19  C   UNL     1     105.169 -81.559  19.452  1.00  0.00    -0.000 C 
BRANCH  19  20
ATOM     20  C   UNL     1     106.497 -82.188  19.911  1.00  0.00    -0.000 C 
BRANCH  20  21
ATOM     21  C   UNL     1     107.391 -81.278  20.774  1.00  0.00    -0.000 C 
BRANCH  21  22
ATOM     22  C   UNL     1     106.600 -80.184  21.510  1.00  0.00    -0.000 C 
BRANCH  22  23
ATOM     23  C   UNL     1     107.294 -78.813  21.452  1.00  0.00    -0.000 C 
BRANCH  23  24
ATOM     24  C   UNL     1     108.525 -78.738  22.374  1.00  0.00    -0.000 C 
BRANCH  24  25
ATOM     25  C   UNL     1     109.534 -77.672  21.921  1.00  0.00    -0.003 C 
ATOM     26  C   UNL     1     109.385 -77.302  20.445  1.00  0.00     0.004 C 
ENDBRANCH  24  25
ENDBRANCH  23  24
ENDBRANCH  22  23
ENDBRANCH  21  22
ENDBRANCH  20  21
ENDBRANCH  19  20
ENDBRANCH  18  19
ENDBRANCH  17  18
ENDBRANCH  16  17
ENDBRANCH  15  16
ENDBRANCH   1  15
TORSDOF 22
ENDMDL
MODEL 5
REMARK VINA RESULT:    -5.738      4.430      8.605
REMARK INTER + INTRA:         -16.412
REMARK INTER:                 -12.655
REMARK INTRA:                  -3.757
REMARK UNBOUND:                -3.293
REMARK SMILES CCCCCCCCCCCCCCCCCCCCCCCC(=O)[O-]
REMARK SMILES IDX 13 1 14 2 15 3 16 4 17 5 18 6 19 7 20 8 21 9 22 10 23 11
REMARK SMILES IDX 24 12 25 13 26 14 12 15 11 16 10 17 9 18 8 19 7 20 6 21 5 22
REMARK SMILES IDX 4 23 3 24 2 25 1 26
REMARK H PARENT
REMARK Flexibility Score: inf
ROOT
ATOM      1  C   UNL     1     103.366 -82.071  22.014  1.00  0.00     0.000 C 
ENDROOT
BRANCH   1   2
ATOM      2  C   UNL     1     103.141 -83.266  21.072  1.00  0.00     0.000 C 
BRANCH   2   3
ATOM      3  C   UNL     1     103.500 -82.944  19.614  1.00  0.00     0.000 C 
BRANCH   3   4
ATOM      4  C   UNL     1     104.937 -83.355  19.248  1.00  0.00     0.000 C 
BRANCH   4   5
ATOM      5  C   UNL     1     105.889 -82.160  19.034  1.00  0.00     0.000 C 
BRANCH   5   6
ATOM      6  C   UNL     1     106.731 -81.854  20.285  1.00  0.00     0.000 C 
BRANCH   6   7
ATOM      7  C   UNL     1     106.578 -80.389  20.751  1.00  0.00     0.000 C 
BRANCH   7   8
ATOM      8  C   UNL     1     105.263 -79.727  20.294  1.00  0.00     0.000 C 
BRANCH   8   9
ATOM      9  C   UNL     1     105.418 -78.303  19.732  1.00  0.00     0.000 C 
BRANCH   9  10
ATOM     10  C   UNL     1     106.600 -77.541  20.356  1.00  0.00     0.006 C 
BRANCH  10  11
ATOM     11  C   UNL     1     106.938 -76.262  19.577  1.00  0.00     0.053 C 
BRANCH  11  12
ATOM     12  C   UNL     1     106.332 -75.048  20.211  1.00  0.00     0.041 C 
ATOM     13  O   UNL     1     105.222 -74.609  19.808  1.00  0.00    -0.550 OA
ATOM     14  O   UNL     1     106.974 -74.422  21.271  1.00  0.00    -0.550 OA
ENDBRANCH  11  12
ENDBRANCH  10  11
ENDBRANCH   9  10
ENDBRANCH   8   9
ENDBRANCH   7   8
ENDBRANCH   6   7
ENDBRANCH   5   6
ENDBRANCH   4   5
ENDBRANCH   3   4
ENDBRANCH   2   3
ENDBRANCH   1   2
BRANCH   1  15
ATOM     15  C   UNL     1     104.428 -82.360  23.090  1.00  0.00     0.000 C 
BRANCH  15  16
ATOM     16  C   UNL     1     104.911 -83.820  23.064  1.00  0.00     0.000 C 
BRANCH  16  17
ATOM     17  C   UNL     1     106.428 -83.943  23.293  1.00  0.00     0.000 C 
BRANCH  17  18
ATOM     18  C   UNL     1     106.868 -83.383  24.656  1.00  0.00    -0.000 C 
BRANCH  18  19
ATOM     19  C   UNL     1     107.843 -82.200  24.525  1.00  0.00    -0.000 C 
BRANCH  19  20
ATOM     20  C   UNL     1     108.976 -82.467  23.517  1.00  0.00    -0.000 C 
BRANCH  20  21
ATOM     21  C   UNL     1     109.790 -81.226  23.102  1.00  0.00    -0.000 C 
BRANCH  21  22
ATOM     22  C   UNL     1     110.427 -81.366  21.708  1.00  0.00    -0.000 C 
BRANCH  22  23
ATOM     23  C   UNL     1     110.902 -80.019  21.139  1.00  0.00    -0.000 C 
BRANCH  23  24
ATOM     24  C   UNL     1     109.861 -78.900  21.329  1.00  0.00    -0.000 C 
BRANCH  24  25
ATOM     25  C   UNL     1     110.440 -77.505  21.052  1.00  0.00    -0.003 C 
ATOM     26  C   UNL     1     109.840 -76.423  21.951  1.00  0.00     0.004 C 
ENDBRANCH  24  25
ENDBRANCH  23  24
ENDBRANCH  22  23
ENDBRANCH  21  22
ENDBRANCH  20  21
ENDBRANCH  19  20
ENDBRANCH  18  19
ENDBRANCH  17  18
ENDBRANCH  16  17
ENDBRANCH  15  16
ENDBRANCH   1  15
TORSDOF 22
ENDMDL
MODEL 6
REMARK VINA RESULT:    -5.731      2.593      8.529
REMARK INTER + INTRA:         -16.395
REMARK INTER:                 -13.698
REMARK INTRA:                  -2.697
REMARK UNBOUND:                -3.293
REMARK SMILES CCCCCCCCCCCCCCCCCCCCCCCC(=O)[O-]
REMARK SMILES IDX 13 1 14 2 15 3 16 4 17 5 18 6 19 7 20 8 21 9 22 10 23 11
REMARK SMILES IDX 24 12 25 13 26 14 12 15 11 16 10 17 9 18 8 19 7 20 6 21 5 22
REMARK SMILES IDX 4 23 3 24 2 25 1 26
REMARK H PARENT
REMARK Flexibility Score: inf
ROOT
ATOM      1  C   UNL     1     111.858 -82.055  20.829  1.00  0.00     0.000 C 
ENDROOT
BRANCH   1   2
ATOM      2  C   UNL     1     111.356 -80.926  21.744  1.00  0.00     0.000 C 
BRANCH   2   3
ATOM      3  C   UNL     1     109.822 -80.853  21.806  1.00  0.00     0.000 C 
BRANCH   3   4
ATOM      4  C   UNL     1     109.271 -81.071  23.225  1.00  0.00     0.000 C 
BRANCH   4   5
ATOM      5  C   UNL     1     109.016 -82.553  23.572  1.00  0.00     0.000 C 
BRANCH   5   6
ATOM      6  C   UNL     1     107.758 -82.741  24.437  1.00  0.00     0.000 C 
BRANCH   6   7
ATOM      7  C   UNL     1     106.505 -83.052  23.589  1.00  0.00     0.000 C 
BRANCH   7   8
ATOM      8  C   UNL     1     105.527 -81.867  23.468  1.00  0.00     0.000 C 
BRANCH   8   9
ATOM      9  C   UNL     1     105.006 -81.601  22.045  1.00  0.00     0.000 C 
BRANCH   9  10
ATOM     10  C   UNL     1     106.047 -80.910  21.148  1.00  0.00     0.006 C 
BRANCH  10  11
ATOM     11  C   UNL     1     106.606 -81.857  20.077  1.00  0.00     0.053 C 
BRANCH  11  12
ATOM     12  C   UNL     1     105.589 -82.163  19.020  1.00  0.00     0.041 C 
ATOM     13  O   UNL     1     105.139 -81.243  18.287  1.00  0.00    -0.550 OA
ATOM     14  O   UNL     1     105.164 -83.470  18.821  1.00  0.00    -0.550 OA
ENDBRANCH  11  12
ENDBRANCH  10  11
ENDBRANCH   9  10
ENDBRANCH   8   9
ENDBRANCH   7   8
ENDBRANCH   6   7
ENDBRANCH   5   6
ENDBRANCH   4   5
ENDBRANCH   3   4
ENDBRANCH   2   3
ENDBRANCH   1   2
BRANCH   1  15
ATOM     15  C   UNL     1     112.895 -82.958  21.520  1.00  0.00     0.000 C 
BRANCH  15  16
ATOM     16  C   UNL     1     113.732 -83.770  20.516  1.00  0.00     0.000 C 
BRANCH  16  17
ATOM     17  C   UNL     1     115.118 -83.149  20.268  1.00  0.00     0.000 C 
BRANCH  17  18
ATOM     18  C   UNL     1     115.998 -83.142  21.529  1.00  0.00    -0.000 C 
BRANCH  18  19
ATOM     19  C   UNL     1     117.499 -83.255  21.205  1.00  0.00    -0.000 C 
BRANCH  19  20
ATOM     20  C   UNL     1     118.387 -82.503  22.214  1.00  0.00    -0.000 C 
BRANCH  20  21
ATOM     21  C   UNL     1     119.223 -81.352  21.623  1.00  0.00    -0.000 C 
BRANCH  21  22
ATOM     22  C   UNL     1     118.368 -80.309  20.882  1.00  0.00    -0.000 C 
BRANCH  22  23
ATOM     23  C   UNL     1     117.827 -79.218  21.820  1.00  0.00    -0.000 C 
BRANCH  23  24
ATOM     24  C   UNL     1     116.289 -79.214  21.892  1.00  0.00    -0.000 C 
BRANCH  24  25
ATOM     25  C   UNL     1     115.637 -79.638  20.567  1.00  0.00    -0.003 C 
ATOM     26  C   UNL     1     114.204 -79.126  20.419  1.00  0.00     0.004 C 
ENDBRANCH  24  25
ENDBRANCH  23  24
ENDBRANCH  22  23
ENDBRANCH  21  22
ENDBRANCH  20  21
ENDBRANCH  19  20
ENDBRANCH  18  19
ENDBRANCH  17  18
ENDBRANCH  16  17
ENDBRANCH  15  16
ENDBRANCH   1  15
TORSDOF 22
ENDMDL
MODEL 7
REMARK VINA RESULT:    -5.725      4.277      8.803
REMARK INTER + INTRA:         -16.381
REMARK INTER:                 -12.851
REMARK INTRA:                  -3.530
REMARK UNBOUND:                -3.293
REMARK SMILES CCCCCCCCCCCCCCCCCCCCCCCC(=O)[O-]
REMARK SMILES IDX 13 1 14 2 15 3 16 4 17 5 18 6 19 7 20 8 21 9 22 10 23 11
REMARK SMILES IDX 24 12 25 13 26 14 12 15 11 16 10 17 9 18 8 19 7 20 6 21 5 22
REMARK SMILES IDX 4 23 3 24 2 25 1 26
REMARK H PARENT
REMARK Flexibility Score: inf
ROOT
ATOM      1  C   UNL     1     104.196 -82.434  23.072  1.00  0.00     0.000 C 
ENDROOT
BRANCH   1   2
ATOM      2  C   UNL     1     103.096 -82.273  22.010  1.00  0.00     0.000 C 
BRANCH   2   3
ATOM      3  C   UNL     1     103.122 -83.392  20.958  1.00  0.00     0.000 C 
BRANCH   3   4
ATOM      4  C   UNL     1     103.652 -82.916  19.594  1.00  0.00     0.000 C 
BRANCH   4   5
ATOM      5  C   UNL     1     105.096 -83.371  19.296  1.00  0.00     0.000 C 
BRANCH   5   6
ATOM      6  C   UNL     1     106.060 -82.182  19.132  1.00  0.00     0.000 C 
BRANCH   6   7
ATOM      7  C   UNL     1     106.788 -81.833  20.450  1.00  0.00     0.000 C 
BRANCH   7   8
ATOM      8  C   UNL     1     106.251 -80.563  21.138  1.00  0.00     0.000 C 
BRANCH   8   9
ATOM      9  C   UNL     1     107.259 -79.404  21.232  1.00  0.00     0.000 C 
BRANCH   9  10
ATOM     10  C   UNL     1     106.796 -78.149  20.471  1.00  0.00     0.006 C 
BRANCH  10  11
ATOM     11  C   UNL     1     105.319 -78.235  20.059  1.00  0.00     0.053 C 
BRANCH  11  12
ATOM     12  C   UNL     1     104.744 -76.884  19.766  1.00  0.00     0.041 C 
ATOM     13  O   UNL     1     103.533 -76.642  20.014  1.00  0.00    -0.550 OA
ATOM     14  O   UNL     1     105.554 -75.879  19.252  1.00  0.00    -0.550 OA
ENDBRANCH  11  12
ENDBRANCH  10  11
ENDBRANCH   9  10
ENDBRANCH   8   9
ENDBRANCH   7   8
ENDBRANCH   6   7
ENDBRANCH   5   6
ENDBRANCH   4   5
ENDBRANCH   3   4
ENDBRANCH   2   3
ENDBRANCH   1   2
BRANCH   1  15
ATOM     15  C   UNL     1     104.689 -83.887  23.195  1.00  0.00     0.000 C 
BRANCH  15  16
ATOM     16  C   UNL     1     106.149 -83.976  23.672  1.00  0.00     0.000 C 
BRANCH  16  17
ATOM     17  C   UNL     1     106.513 -82.856  24.663  1.00  0.00     0.000 C 
BRANCH  17  18
ATOM     18  C   UNL     1     107.834 -82.154  24.305  1.00  0.00    -0.000 C 
BRANCH  18  19
ATOM     19  C   UNL     1     108.757 -83.033  23.442  1.00  0.00    -0.000 C 
BRANCH  19  20
ATOM     20  C   UNL     1     110.107 -82.360  23.134  1.00  0.00    -0.000 C 
BRANCH  20  21
ATOM     21  C   UNL     1     110.098 -80.820  23.175  1.00  0.00    -0.000 C 
BRANCH  21  22
ATOM     22  C   UNL     1     111.288 -80.193  22.428  1.00  0.00    -0.000 C 
BRANCH  22  23
ATOM     23  C   UNL     1     110.963 -79.881  20.958  1.00  0.00    -0.000 C 
BRANCH  23  24
ATOM     24  C   UNL     1     111.816 -78.728  20.399  1.00  0.00    -0.000 C 
BRANCH  24  25
ATOM     25  C   UNL     1     111.635 -77.424  21.192  1.00  0.00    -0.003 C 
ATOM     26  C   UNL     1     110.176 -76.972  21.266  1.00  0.00     0.004 C 
ENDBRANCH  24  25
ENDBRANCH  23  24
ENDBRANCH  22  23
ENDBRANCH  21  22
ENDBRANCH  20  21
ENDBRANCH  19  20
ENDBRANCH  18  19
ENDBRANCH  17  18
ENDBRANCH  16  17
ENDBRANCH  15  16
ENDBRANCH   1  15
TORSDOF 22
ENDMDL
MODEL 8
REMARK VINA RESULT:    -5.717      4.932      7.790
REMARK INTER + INTRA:         -16.364
REMARK INTER:                 -12.761
REMARK INTRA:                  -3.602
REMARK UNBOUND:                -3.293
REMARK SMILES CCCCCCCCCCCCCCCCCCCCCCCC(=O)[O-]
REMARK SMILES IDX 13 1 14 2 15 3 16 4 17 5 18 6 19 7 20 8 21 9 22 10 23 11
REMARK SMILES IDX 24 12 25 13 26 14 12 15 11 16 10 17 9 18 8 19 7 20 6 21 5 22
REMARK SMILES IDX 4 23 3 24 2 25 1 26
REMARK H PARENT
REMARK Flexibility Score: inf
ROOT
ATOM      1  C   UNL     1     118.292 -78.522  22.260  1.00  0.00     0.000 C 
ENDROOT
BRANCH   1   2
ATOM      2  C   UNL     1     116.928 -77.844  22.478  1.00  0.00     0.000 C 
BRANCH   2   3
ATOM      3  C   UNL     1     116.258 -78.276  23.791  1.00  0.00     0.000 C 
BRANCH   3   4
ATOM      4  C   UNL     1     114.876 -77.631  23.995  1.00  0.00     0.000 C 
BRANCH   4   5
ATOM      5  C   UNL     1     114.407 -76.775  22.800  1.00  0.00     0.000 C 
BRANCH   5   6
ATOM      6  C   UNL     1     114.189 -75.302  23.187  1.00  0.00     0.000 C 
BRANCH   6   7
ATOM      7  C   UNL     1     114.758 -74.974  24.586  1.00  0.00     0.000 C 
BRANCH   7   8
ATOM      8  C   UNL     1     115.494 -73.622  24.656  1.00  0.00     0.000 C 
BRANCH   8   9
ATOM      9  C   UNL     1     117.007 -73.722  24.911  1.00  0.00     0.000 C 
BRANCH   9  10
ATOM     10  C   UNL     1     117.490 -75.174  25.071  1.00  0.00     0.006 C 
BRANCH  10  11
ATOM     11  C   UNL     1     118.857 -75.405  24.410  1.00  0.00     0.053 C 
BRANCH  11  12
ATOM     12  C   UNL     1     119.924 -75.685  25.424  1.00  0.00     0.041 C 
ATOM     13  O   UNL     1     121.071 -75.180  25.294  1.00  0.00    -0.550 OA
ATOM     14  O   UNL     1     119.642 -76.473  26.532  1.00  0.00    -0.550 OA
ENDBRANCH  11  12
ENDBRANCH  10  11
ENDBRANCH   9  10
ENDBRANCH   8   9
ENDBRANCH   7   8
ENDBRANCH   6   7
ENDBRANCH   5   6
ENDBRANCH   4   5
ENDBRANCH   3   4
ENDBRANCH   2   3
ENDBRANCH   1   2
BRANCH   1  15
ATOM     15  C   UNL     1     118.788 -79.266  23.513  1.00  0.00     0.000 C 
BRANCH  15  16
ATOM     16  C   UNL     1     120.315 -79.452  23.521  1.00  0.00     0.000 C 
BRANCH  16  17
ATOM     17  C   UNL     1     120.727 -80.931  23.618  1.00  0.00     0.000 C 
BRANCH  17  18
ATOM     18  C   UNL     1     119.587 -81.832  24.123  1.00  0.00    -0.000 C 
BRANCH  18  19
ATOM     19  C   UNL     1     119.470 -83.143  23.326  1.00  0.00    -0.000 C 
BRANCH  19  20
ATOM     20  C   UNL     1     118.927 -82.931  21.901  1.00  0.00    -0.000 C 
BRANCH  20  21
ATOM     21  C   UNL     1     117.552 -82.243  21.818  1.00  0.00    -0.000 C 
BRANCH  21  22
ATOM     22  C   UNL     1     116.432 -83.193  21.362  1.00  0.00    -0.000 C 
BRANCH  22  23
ATOM     23  C   UNL     1     115.063 -82.498  21.287  1.00  0.00    -0.000 C 
BRANCH  23  24
ATOM     24  C   UNL     1     115.151 -80.991  21.591  1.00  0.00    -0.000 C 
BRANCH  24  25
ATOM     25  C   UNL     1     115.093 -80.130  20.320  1.00  0.00    -0.003 C 
ATOM     26  C   UNL     1     113.812 -79.300  20.224  1.00  0.00     0.004 C 
ENDBRANCH  24  25
ENDBRANCH  23  24
ENDBRANCH  22  23
ENDBRANCH  21  22
ENDBRANCH  20  21
ENDBRANCH  19  20
ENDBRANCH  18  19
ENDBRANCH  17  18
ENDBRANCH  16  17
ENDBRANCH  15  16
ENDBRANCH   1  15
TORSDOF 22
ENDMDL
MODEL 9
REMARK VINA RESULT:    -5.711      1.782      6.314
REMARK INTER + INTRA:         -16.350
REMARK INTER:                 -12.896
REMARK INTRA:                  -3.455
REMARK UNBOUND:                -3.293
REMARK SMILES CCCCCCCCCCCCCCCCCCCCCCCC(=O)[O-]
REMARK SMILES IDX 13 1 14 2 15 3 16 4 17 5 18 6 19 7 20 8 21 9 22 10 23 11
REMARK SMILES IDX 24 12 25 13 26 14 12 15 11 16 10 17 9 18 8 19 7 20 6 21 5 22
REMARK SMILES IDX 4 23 3 24 2 25 1 26
REMARK H PARENT
REMARK Flexibility Score: inf
ROOT
ATOM      1  C   UNL     1     107.368 -82.546  24.680  1.00  0.00     0.000 C 
ENDROOT
BRANCH   1   2
ATOM      2  C   UNL     1     108.510 -81.884  25.468  1.00  0.00     0.000 C 
BRANCH   2   3
ATOM      3  C   UNL     1     109.772 -81.675  24.616  1.00  0.00     0.000 C 
BRANCH   3   4
ATOM      4  C   UNL     1     109.803 -82.572  23.367  1.00  0.00     0.000 C 
BRANCH   4   5
ATOM      5  C   UNL     1     110.786 -82.089  22.280  1.00  0.00     0.000 C 
BRANCH   5   6
ATOM      6  C   UNL     1     111.989 -83.036  22.121  1.00  0.00     0.000 C 
BRANCH   6   7
ATOM      7  C   UNL     1     112.826 -82.713  20.862  1.00  0.00     0.000 C 
BRANCH   7   8
ATOM      8  C   UNL     1     113.852 -83.804  20.502  1.00  0.00     0.000 C 
BRANCH   8   9
ATOM      9  C   UNL     1     115.312 -83.325  20.445  1.00  0.00     0.000 C 
BRANCH   9  10
ATOM     10  C   UNL     1     115.834 -82.838  21.808  1.00  0.00     0.006 C 
BRANCH  10  11
ATOM     11  C   UNL     1     116.740 -81.607  21.674  1.00  0.00     0.053 C 
BRANCH  11  12
ATOM     12  C   UNL     1     115.946 -80.346  21.519  1.00  0.00     0.041 C 
ATOM     13  O   UNL     1     115.613 -79.677  22.533  1.00  0.00    -0.550 OA
ATOM     14  O   UNL     1     115.605 -79.890  20.252  1.00  0.00    -0.550 OA
ENDBRANCH  11  12
ENDBRANCH  10  11
ENDBRANCH   9  10
ENDBRANCH   8   9
ENDBRANCH   7   8
ENDBRANCH   6   7
ENDBRANCH   5   6
ENDBRANCH   4   5
ENDBRANCH   3   4
ENDBRANCH   2   3
ENDBRANCH   1   2
BRANCH   1  15
ATOM     15  C   UNL     1     106.157 -81.612  24.501  1.00  0.00     0.000 C 
BRANCH  15  16
ATOM     16  C   UNL     1     105.347 -81.933  23.233  1.00  0.00     0.000 C 
BRANCH  16  17
ATOM     17  C   UNL     1     106.170 -82.712  22.191  1.00  0.00     0.000 C 
BRANCH  17  18
ATOM     18  C   UNL     1     106.114 -82.072  20.794  1.00  0.00    -0.000 C 
BRANCH  18  19
ATOM     19  C   UNL     1     106.354 -80.552  20.827  1.00  0.00    -0.000 C 
BRANCH  19  20
ATOM     20  C   UNL     1     107.806 -80.183  21.181  1.00  0.00    -0.000 C 
BRANCH  20  21
ATOM     21  C   UNL     1     107.963 -79.127  22.291  1.00  0.00    -0.000 C 
BRANCH  21  22
ATOM     22  C   UNL     1     109.416 -78.656  22.471  1.00  0.00    -0.000 C 
BRANCH  22  23
ATOM     23  C   UNL     1     109.979 -77.986  21.207  1.00  0.00    -0.000 C 
BRANCH  23  24
ATOM     24  C   UNL     1     111.112 -78.806  20.562  1.00  0.00    -0.000 C 
BRANCH  24  25
ATOM     25  C   UNL     1     112.423 -78.726  21.360  1.00  0.00    -0.003 C 
ATOM     26  C   UNL     1     113.099 -77.358  21.257  1.00  0.00     0.004 C 
ENDBRANCH  24  25
ENDBRANCH  23  24
ENDBRANCH  22  23
ENDBRANCH  21  22
ENDBRANCH  20  21
ENDBRANCH  19  20
ENDBRANCH  18  19
ENDBRANCH  17  18
ENDBRANCH  16  17
ENDBRANCH  15  16
ENDBRANCH   1  15
TORSDOF 22
ENDMDL
