MODEL 1
REMARK VINA RESULT:    -3.929      0.000      0.000
REMARK INTER + INTRA:          -5.050
REMARK INTER:                  -4.847
REMARK INTRA:                  -0.202
REMARK UNBOUND:                -0.202
REMARK SMILES CCCCCC(=O)[O-]
REMARK SMILES IDX 4 1 5 2 6 3 7 4 8 5 3 6 2 7 1 8
REMARK H PARENT
REMARK Flexibility Score: inf
ROOT
ATOM      1  C   UNL     1       4.286 -34.438  22.248  1.00  0.00     0.006 C 
ENDROOT
BRANCH   1   2
ATOM      2  C   UNL     1       4.230 -34.118  20.748  1.00  0.00     0.053 C 
BRANCH   2   3
ATOM      3  C   UNL     1       5.164 -34.984  19.961  1.00  0.00     0.041 C 
ATOM      4  O   UNL     1       5.798 -34.508  18.982  1.00  0.00    -0.550 OA
ATOM      5  O   UNL     1       5.312 -36.326  20.289  1.00  0.00    -0.550 OA
ENDBRANCH   2   3
ENDBRANCH   1   2
BRANCH   1   6
ATOM      6  C   UNL     1       5.394 -33.654  22.968  1.00  0.00     0.000 C 
BRANCH   6   7
ATOM      7  C   UNL     1       6.125 -34.543  23.981  1.00  0.00    -0.003 C 
ATOM      8  C   UNL     1       5.490 -35.929  24.058  1.00  0.00     0.004 C 
ENDBRANCH   6   7
ENDBRANCH   1   6
TORSDOF 4
ENDMDL
MODEL 2
REMARK VINA RESULT:    -3.872      0.123      1.149
REMARK INTER + INTRA:          -4.980
REMARK INTER:                  -4.774
REMARK INTRA:                  -0.206
REMARK UNBOUND:                -0.202
REMARK SMILES CCCCCC(=O)[O-]
REMARK SMILES IDX 4 1 5 2 6 3 7 4 8 5 3 6 2 7 1 8
REMARK H PARENT
REMARK Flexibility Score: inf
ROOT
ATOM      1  C   UNL     1       4.304 -34.473  22.194  1.00  0.00     0.006 C 
ENDROOT
BRANCH   1   2
ATOM      2  C   UNL     1       4.251 -34.137  20.697  1.00  0.00     0.053 C 
BRANCH   2   3
ATOM      3  C   UNL     1       5.172 -35.009  19.901  1.00  0.00     0.041 C 
ATOM      4  O   UNL     1       5.400 -36.192  20.267  1.00  0.00    -0.550 OA
ATOM      5  O   UNL     1       5.802 -34.505  18.770  1.00  0.00    -0.550 OA
ENDBRANCH   2   3
ENDBRANCH   1   2
BRANCH   1   6
ATOM      6  C   UNL     1       5.445 -33.739  22.914  1.00  0.00     0.000 C 
BRANCH   6   7
ATOM      7  C   UNL     1       6.125 -34.653  23.939  1.00  0.00    -0.003 C 
ATOM      8  C   UNL     1       5.411 -35.999  24.037  1.00  0.00     0.004 C 
ENDBRANCH   6   7
ENDBRANCH   1   6
TORSDOF 4
ENDMDL
MODEL 3
REMARK VINA RESULT:    -3.801      1.098      1.628
REMARK INTER + INTRA:          -4.892
REMARK INTER:                  -4.752
REMARK INTRA:                  -0.139
REMARK UNBOUND:                -0.202
REMARK SMILES CCCCCC(=O)[O-]
REMARK SMILES IDX 4 1 5 2 6 3 7 4 8 5 3 6 2 7 1 8
REMARK H PARENT
REMARK Flexibility Score: inf
ROOT
ATOM      1  C   UNL     1       4.823 -34.329  21.744  1.00  0.00     0.006 C 
ENDROOT
BRANCH   1   2
ATOM      2  C   UNL     1       5.769 -35.152  20.860  1.00  0.00     0.053 C 
BRANCH   2   3
ATOM      3  C   UNL     1       5.016 -36.081  19.958  1.00  0.00     0.041 C 
ATOM      4  O   UNL     1       4.946 -37.309  20.229  1.00  0.00    -0.550 OA
ATOM      5  O   UNL     1       4.417 -35.596  18.803  1.00  0.00    -0.550 OA
ENDBRANCH   2   3
ENDBRANCH   1   2
BRANCH   1   6
ATOM      6  C   UNL     1       5.299 -34.267  23.203  1.00  0.00     0.000 C 
BRANCH   6   7
ATOM      7  C   UNL     1       6.040 -35.551  23.594  1.00  0.00    -0.003 C 
ATOM      8  C   UNL     1       5.447 -36.167  24.858  1.00  0.00     0.004 C 
ENDBRANCH   6   7
ENDBRANCH   1   6
TORSDOF 4
ENDMDL
MODEL 4
REMARK VINA RESULT:    -3.645      2.263      3.933
REMARK INTER + INTRA:          -4.700
REMARK INTER:                  -4.466
REMARK INTRA:                  -0.234
REMARK UNBOUND:                -0.202
REMARK SMILES CCCCCC(=O)[O-]
REMARK SMILES IDX 4 1 5 2 6 3 7 4 8 5 3 6 2 7 1 8
REMARK H PARENT
REMARK Flexibility Score: inf
ROOT
ATOM      1  C   UNL     1       5.699 -35.985  21.264  1.00  0.00     0.006 C 
ENDROOT
BRANCH   1   2
ATOM      2  C   UNL     1       4.761 -35.529  22.390  1.00  0.00     0.053 C 
BRANCH   2   3
ATOM      3  C   UNL     1       4.629 -34.038  22.432  1.00  0.00     0.041 C 
ATOM      4  O   UNL     1       5.397 -33.354  23.158  1.00  0.00    -0.550 OA
ATOM      5  O   UNL     1       3.637 -33.406  21.693  1.00  0.00    -0.550 OA
ENDBRANCH   2   3
ENDBRANCH   1   2
BRANCH   1   6
ATOM      6  C   UNL     1       4.938 -36.634  20.099  1.00  0.00     0.000 C 
BRANCH   6   7
ATOM      7  C   UNL     1       4.539 -35.587  19.054  1.00  0.00    -0.003 C 
ATOM      8  C   UNL     1       5.626 -34.528  18.890  1.00  0.00     0.004 C 
ENDBRANCH   6   7
ENDBRANCH   1   6
TORSDOF 4
ENDMDL
MODEL 5
REMARK VINA RESULT:    -3.567      2.455      4.023
REMARK INTER + INTRA:          -4.603
REMARK INTER:                  -4.479
REMARK INTRA:                  -0.125
REMARK UNBOUND:                -0.202
REMARK SMILES CCCCCC(=O)[O-]
REMARK SMILES IDX 4 1 5 2 6 3 7 4 8 5 3 6 2 7 1 8
REMARK H PARENT
REMARK Flexibility Score: inf
ROOT
ATOM      1  C   UNL     1       4.204 -35.422  21.963  1.00  0.00     0.006 C 
ENDROOT
BRANCH   1   2
ATOM      2  C   UNL     1       5.592 -35.798  22.501  1.00  0.00     0.053 C 
BRANCH   2   3
ATOM      3  C   UNL     1       5.939 -35.018  23.731  1.00  0.00     0.041 C 
ATOM      4  O   UNL     1       6.091 -33.769  23.669  1.00  0.00    -0.550 OA
ATOM      5  O   UNL     1       6.125 -35.674  24.941  1.00  0.00    -0.550 OA
ENDBRANCH   2   3
ENDBRANCH   1   2
BRANCH   1   6
ATOM      6  C   UNL     1       4.285 -34.471  20.760  1.00  0.00     0.000 C 
BRANCH   6   7
ATOM      7  C   UNL     1       5.333 -34.950  19.750  1.00  0.00    -0.003 C 
ATOM      8  C   UNL     1       4.983 -34.499  18.335  1.00  0.00     0.004 C 
ENDBRANCH   6   7
ENDBRANCH   1   6
TORSDOF 4
ENDMDL
MODEL 6
REMARK VINA RESULT:    -3.551      1.321      1.970
REMARK INTER + INTRA:          -4.584
REMARK INTER:                  -4.332
REMARK INTRA:                  -0.252
REMARK UNBOUND:                -0.202
REMARK SMILES CCCCCC(=O)[O-]
REMARK SMILES IDX 4 1 5 2 6 3 7 4 8 5 3 6 2 7 1 8
REMARK H PARENT
REMARK Flexibility Score: inf
ROOT
ATOM      1  C   UNL     1       4.484 -36.053  21.633  1.00  0.00     0.006 C 
ENDROOT
BRANCH   1   2
ATOM      2  C   UNL     1       4.995 -36.543  20.272  1.00  0.00     0.053 C 
BRANCH   2   3
ATOM      3  C   UNL     1       5.172 -35.412  19.306  1.00  0.00     0.041 C 
ATOM      4  O   UNL     1       6.123 -34.599  19.449  1.00  0.00    -0.550 OA
ATOM      5  O   UNL     1       4.268 -35.238  18.267  1.00  0.00    -0.550 OA
ENDBRANCH   2   3
ENDBRANCH   1   2
BRANCH   1   6
ATOM      6  C   UNL     1       5.567 -36.122  22.721  1.00  0.00     0.000 C 
BRANCH   6   7
ATOM      7  C   UNL     1       5.997 -34.718  23.158  1.00  0.00    -0.003 C 
ATOM      8  C   UNL     1       4.970 -33.670  22.736  1.00  0.00     0.004 C 
ENDBRANCH   6   7
ENDBRANCH   1   6
TORSDOF 4
ENDMDL
MODEL 7
REMARK VINA RESULT:    -3.431      1.564      2.724
REMARK INTER + INTRA:          -4.435
REMARK INTER:                  -4.215
REMARK INTRA:                  -0.221
REMARK UNBOUND:                -0.202
REMARK SMILES CCCCCC(=O)[O-]
REMARK SMILES IDX 4 1 5 2 6 3 7 4 8 5 3 6 2 7 1 8
REMARK H PARENT
REMARK Flexibility Score: inf
ROOT
ATOM      1  C   UNL     1       5.969 -35.171  21.582  1.00  0.00     0.006 C 
ENDROOT
BRANCH   1   2
ATOM      2  C   UNL     1       5.253 -36.526  21.501  1.00  0.00     0.053 C 
BRANCH   2   3
ATOM      3  C   UNL     1       4.916 -36.891  20.088  1.00  0.00     0.041 C 
ATOM      4  O   UNL     1       4.980 -38.090  19.710  1.00  0.00    -0.550 OA
ATOM      5  O   UNL     1       4.561 -35.901  19.181  1.00  0.00    -0.550 OA
ENDBRANCH   2   3
ENDBRANCH   1   2
BRANCH   1   6
ATOM      6  C   UNL     1       5.317 -34.231  22.608  1.00  0.00     0.000 C 
BRANCH   6   7
ATOM      7  C   UNL     1       3.813 -34.095  22.349  1.00  0.00    -0.003 C 
ATOM      8  C   UNL     1       3.539 -33.214  21.133  1.00  0.00     0.004 C 
ENDBRANCH   6   7
ENDBRANCH   1   6
TORSDOF 4
ENDMDL
MODEL 8
REMARK VINA RESULT:    -3.190      2.769      3.571
REMARK INTER + INTRA:          -4.138
REMARK INTER:                  -4.041
REMARK INTRA:                  -0.097
REMARK UNBOUND:                -0.202
REMARK SMILES CCCCCC(=O)[O-]
REMARK SMILES IDX 4 1 5 2 6 3 7 4 8 5 3 6 2 7 1 8
REMARK H PARENT
REMARK Flexibility Score: inf
ROOT
ATOM      1  C   UNL     1       4.761 -35.818  19.893  1.00  0.00     0.006 C 
ENDROOT
BRANCH   1   2
ATOM      2  C   UNL     1       5.070 -34.408  20.413  1.00  0.00     0.053 C 
BRANCH   2   3
ATOM      3  C   UNL     1       4.310 -34.100  21.666  1.00  0.00     0.041 C 
ATOM      4  O   UNL     1       3.058 -33.968  21.632  1.00  0.00    -0.550 OA
ATOM      5  O   UNL     1       4.987 -33.928  22.866  1.00  0.00    -0.550 OA
ENDBRANCH   2   3
ENDBRANCH   1   2
BRANCH   1   6
ATOM      6  C   UNL     1       4.934 -36.889  20.981  1.00  0.00     0.000 C 
BRANCH   6   7
ATOM      7  C   UNL     1       4.983 -38.292  20.366  1.00  0.00    -0.003 C 
ATOM      8  C   UNL     1       5.393 -39.335  21.402  1.00  0.00     0.004 C 
ENDBRANCH   6   7
ENDBRANCH   1   6
TORSDOF 4
ENDMDL
MODEL 9
REMARK VINA RESULT:    -3.169      2.346      3.798
REMARK INTER + INTRA:          -4.113
REMARK INTER:                  -3.914
REMARK INTRA:                  -0.199
REMARK UNBOUND:                -0.202
REMARK SMILES CCCCCC(=O)[O-]
REMARK SMILES IDX 4 1 5 2 6 3 7 4 8 5 3 6 2 7 1 8
REMARK H PARENT
REMARK Flexibility Score: inf
ROOT
ATOM      1  C   UNL     1       5.640 -35.540  21.214  1.00  0.00     0.006 C 
ENDROOT
BRANCH   1   2
ATOM      2  C   UNL     1       4.670 -36.669  21.586  1.00  0.00     0.053 C 
BRANCH   2   3
ATOM      3  C   UNL     1       4.937 -37.912  20.794  1.00  0.00     0.041 C 
ATOM      4  O   UNL     1       4.857 -37.893  19.538  1.00  0.00    -0.550 OA
ATOM      5  O   UNL     1       5.244 -39.099  21.446  1.00  0.00    -0.550 OA
ENDBRANCH   2   3
ENDBRANCH   1   2
BRANCH   1   6
ATOM      6  C   UNL     1       4.964 -34.443  20.378  1.00  0.00     0.000 C 
BRANCH   6   7
ATOM      7  C   UNL     1       5.471 -34.465  18.932  1.00  0.00    -0.003 C 
ATOM      8  C   UNL     1       4.368 -34.888  17.966  1.00  0.00     0.004 C 
ENDBRANCH   6   7
ENDBRANCH   1   6
TORSDOF 4
ENDMDL
