MODEL 1
REMARK VINA RESULT:    -3.745      0.000      0.000
REMARK INTER + INTRA:          -4.731
REMARK INTER:                  -4.620
REMARK INTRA:                  -0.111
REMARK UNBOUND:                -0.111
REMARK SMILES CCCCCC(=O)[O-]
REMARK SMILES IDX 4 1 5 2 6 3 7 4 8 5 3 6 2 7 1 8
REMARK H PARENT
REMARK Flexibility Score: inf
ROOT
ATOM      1  C   UNL     1      -3.820   3.930  31.386  1.00  0.00     0.006 C 
ENDROOT
BRANCH   1   2
ATOM      2  C   UNL     1      -2.405   4.255  30.883  1.00  0.00     0.053 C 
BRANCH   2   3
ATOM      3  C   UNL     1      -1.404   3.232  31.323  1.00  0.00     0.041 C 
ATOM      4  O   UNL     1      -0.679   2.648  30.475  1.00  0.00    -0.550 OA
ATOM      5  O   UNL     1      -1.295   2.899  32.667  1.00  0.00    -0.550 OA
ENDBRANCH   2   3
ENDBRANCH   1   2
BRANCH   1   6
ATOM      6  C   UNL     1      -4.809   5.106  31.297  1.00  0.00     0.000 C 
BRANCH   6   7
ATOM      7  C   UNL     1      -4.158   6.457  31.628  1.00  0.00    -0.003 C 
ATOM      8  C   UNL     1      -4.234   6.752  33.124  1.00  0.00     0.004 C 
ENDBRANCH   6   7
ENDBRANCH   1   6
TORSDOF 4
ENDMDL
MODEL 2
REMARK VINA RESULT:    -3.704      2.926      4.249
REMARK INTER + INTRA:          -4.680
REMARK INTER:                  -4.541
REMARK INTRA:                  -0.139
REMARK UNBOUND:                -0.111
REMARK SMILES CCCCCC(=O)[O-]
REMARK SMILES IDX 4 1 5 2 6 3 7 4 8 5 3 6 2 7 1 8
REMARK H PARENT
REMARK Flexibility Score: inf
ROOT
ATOM      1  C   UNL     1      -3.541   3.912  31.401  1.00  0.00     0.006 C 
ENDROOT
BRANCH   1   2
ATOM      2  C   UNL     1      -4.010   5.368  31.261  1.00  0.00     0.053 C 
BRANCH   2   3
ATOM      3  C   UNL     1      -4.688   5.860  32.503  1.00  0.00     0.041 C 
ATOM      4  O   UNL     1      -5.681   5.242  32.970  1.00  0.00    -0.550 OA
ATOM      5  O   UNL     1      -4.244   7.020  33.124  1.00  0.00    -0.550 OA
ENDBRANCH   2   3
ENDBRANCH   1   2
BRANCH   1   6
ATOM      6  C   UNL     1      -2.644   3.651  32.625  1.00  0.00     0.000 C 
BRANCH   6   7
ATOM      7  C   UNL     1      -1.256   3.116  32.241  1.00  0.00    -0.003 C 
ATOM      8  C   UNL     1      -1.061   3.129  30.728  1.00  0.00     0.004 C 
ENDBRANCH   6   7
ENDBRANCH   1   6
TORSDOF 4
ENDMDL
MODEL 3
REMARK VINA RESULT:    -3.506     16.658     17.368
REMARK INTER + INTRA:          -4.437
REMARK INTER:                  -4.372
REMARK INTRA:                  -0.065
REMARK UNBOUND:                -0.111
REMARK SMILES CCCCCC(=O)[O-]
REMARK SMILES IDX 4 1 5 2 6 3 7 4 8 5 3 6 2 7 1 8
REMARK H PARENT
REMARK Flexibility Score: inf
ROOT
ATOM      1  C   UNL     1       4.294   1.634  17.300  1.00  0.00     0.006 C 
ENDROOT
BRANCH   1   2
ATOM      2  C   UNL     1       4.444   2.585  16.103  1.00  0.00     0.053 C 
BRANCH   2   3
ATOM      3  C   UNL     1       3.199   2.643  15.273  1.00  0.00     0.041 C 
ATOM      4  O   UNL     1       2.521   1.601  15.074  1.00  0.00    -0.550 OA
ATOM      5  O   UNL     1       2.805   3.842  14.694  1.00  0.00    -0.550 OA
ENDBRANCH   2   3
ENDBRANCH   1   2
BRANCH   1   6
ATOM      6  C   UNL     1       5.397   0.564  17.400  1.00  0.00     0.000 C 
BRANCH   6   7
ATOM      7  C   UNL     1       5.312  -0.258  18.695  1.00  0.00    -0.003 C 
ATOM      8  C   UNL     1       5.903  -1.652  18.500  1.00  0.00     0.004 C 
ENDBRANCH   6   7
ENDBRANCH   1   6
TORSDOF 4
ENDMDL
MODEL 4
REMARK VINA RESULT:    -3.481     15.935     16.767
REMARK INTER + INTRA:          -4.406
REMARK INTER:                  -4.352
REMARK INTRA:                  -0.054
REMARK UNBOUND:                -0.111
REMARK SMILES CCCCCC(=O)[O-]
REMARK SMILES IDX 4 1 5 2 6 3 7 4 8 5 3 6 2 7 1 8
REMARK H PARENT
REMARK Flexibility Score: inf
ROOT
ATOM      1  C   UNL     1       4.379   1.620  17.476  1.00  0.00     0.006 C 
ENDROOT
BRANCH   1   2
ATOM      2  C   UNL     1       5.502   0.580  17.343  1.00  0.00     0.053 C 
BRANCH   2   3
ATOM      3  C   UNL     1       5.504  -0.391  18.484  1.00  0.00     0.041 C 
ATOM      4  O   UNL     1       4.986  -0.075  19.587  1.00  0.00    -0.550 OA
ATOM      5  O   UNL     1       6.109  -1.633  18.339  1.00  0.00    -0.550 OA
ENDBRANCH   2   3
ENDBRANCH   1   2
BRANCH   1   6
ATOM      6  C   UNL     1       3.680   1.970  16.150  1.00  0.00     0.000 C 
BRANCH   6   7
ATOM      7  C   UNL     1       4.232   3.250  15.506  1.00  0.00    -0.003 C 
ATOM      8  C   UNL     1       3.200   3.889  14.582  1.00  0.00     0.004 C 
ENDBRANCH   6   7
ENDBRANCH   1   6
TORSDOF 4
ENDMDL
MODEL 5
REMARK VINA RESULT:    -3.476     16.253     17.303
REMARK INTER + INTRA:          -4.399
REMARK INTER:                  -4.201
REMARK INTRA:                  -0.199
REMARK UNBOUND:                -0.111
REMARK SMILES CCCCCC(=O)[O-]
REMARK SMILES IDX 4 1 5 2 6 3 7 4 8 5 3 6 2 7 1 8
REMARK H PARENT
REMARK Flexibility Score: inf
ROOT
ATOM      1  C   UNL     1       5.315  -0.103  15.767  1.00  0.00     0.006 C 
ENDROOT
BRANCH   1   2
ATOM      2  C   UNL     1       5.303   1.369  16.208  1.00  0.00     0.053 C 
BRANCH   2   3
ATOM      3  C   UNL     1       4.040   1.728  16.930  1.00  0.00     0.041 C 
ATOM      4  O   UNL     1       4.058   1.941  18.170  1.00  0.00    -0.550 OA
ATOM      5  O   UNL     1       2.838   1.794  16.237  1.00  0.00    -0.550 OA
ENDBRANCH   2   3
ENDBRANCH   1   2
BRANCH   1   6
ATOM      6  C   UNL     1       4.786  -1.085  16.829  1.00  0.00     0.000 C 
BRANCH   6   7
ATOM      7  C   UNL     1       5.904  -1.687  17.692  1.00  0.00    -0.003 C 
ATOM      8  C   UNL     1       6.094  -0.891  18.980  1.00  0.00     0.004 C 
ENDBRANCH   6   7
ENDBRANCH   1   6
TORSDOF 4
ENDMDL
MODEL 6
REMARK VINA RESULT:    -3.426     16.036     16.758
REMARK INTER + INTRA:          -4.338
REMARK INTER:                  -4.236
REMARK INTRA:                  -0.101
REMARK UNBOUND:                -0.111
REMARK SMILES CCCCCC(=O)[O-]
REMARK SMILES IDX 4 1 5 2 6 3 7 4 8 5 3 6 2 7 1 8
REMARK H PARENT
REMARK Flexibility Score: inf
ROOT
ATOM      1  C   UNL     1       4.309   1.434  17.230  1.00  0.00     0.006 C 
ENDROOT
BRANCH   1   2
ATOM      2  C   UNL     1       5.525   0.497  17.295  1.00  0.00     0.053 C 
BRANCH   2   3
ATOM      3  C   UNL     1       5.544  -0.308  18.558  1.00  0.00     0.041 C 
ATOM      4  O   UNL     1       4.874   0.063  19.557  1.00  0.00    -0.550 OA
ATOM      5  O   UNL     1       6.330  -1.451  18.642  1.00  0.00    -0.550 OA
ENDBRANCH   2   3
ENDBRANCH   1   2
BRANCH   1   6
ATOM      6  C   UNL     1       4.314   2.395  16.028  1.00  0.00     0.000 C 
BRANCH   6   7
ATOM      7  C   UNL     1       3.001   2.360  15.232  1.00  0.00    -0.003 C 
ATOM      8  C   UNL     1       2.394   0.960  15.234  1.00  0.00     0.004 C 
ENDBRANCH   6   7
ENDBRANCH   1   6
TORSDOF 4
ENDMDL
MODEL 7
REMARK VINA RESULT:    -3.396     16.786     17.957
REMARK INTER + INTRA:          -4.301
REMARK INTER:                  -4.047
REMARK INTRA:                  -0.253
REMARK UNBOUND:                -0.111
REMARK SMILES CCCCCC(=O)[O-]
REMARK SMILES IDX 4 1 5 2 6 3 7 4 8 5 3 6 2 7 1 8
REMARK H PARENT
REMARK Flexibility Score: inf
ROOT
ATOM      1  C   UNL     1       5.247   0.677  14.605  1.00  0.00     0.006 C 
ENDROOT
BRANCH   1   2
ATOM      2  C   UNL     1       5.806   1.258  15.913  1.00  0.00     0.053 C 
BRANCH   2   3
ATOM      3  C   UNL     1       4.948   0.913  17.092  1.00  0.00     0.041 C 
ATOM      4  O   UNL     1       4.999  -0.239  17.597  1.00  0.00    -0.550 OA
ATOM      5  O   UNL     1       4.068   1.854  17.610  1.00  0.00    -0.550 OA
ENDBRANCH   2   3
ENDBRANCH   1   2
BRANCH   1   6
ATOM      6  C   UNL     1       4.087   1.487  13.998  1.00  0.00     0.000 C 
BRANCH   6   7
ATOM      7  C   UNL     1       4.362   2.998  13.981  1.00  0.00    -0.003 C 
ATOM      8  C   UNL     1       3.226   3.771  14.645  1.00  0.00     0.004 C 
ENDBRANCH   6   7
ENDBRANCH   1   6
TORSDOF 4
ENDMDL
MODEL 8
REMARK VINA RESULT:    -3.385     16.650     17.929
REMARK INTER + INTRA:          -4.287
REMARK INTER:                  -4.046
REMARK INTRA:                  -0.241
REMARK UNBOUND:                -0.111
REMARK SMILES CCCCCC(=O)[O-]
REMARK SMILES IDX 4 1 5 2 6 3 7 4 8 5 3 6 2 7 1 8
REMARK H PARENT
REMARK Flexibility Score: inf
ROOT
ATOM      1  C   UNL     1       3.232   1.911  15.678  1.00  0.00     0.006 C 
ENDROOT
BRANCH   1   2
ATOM      2  C   UNL     1       4.007   1.920  17.004  1.00  0.00     0.053 C 
BRANCH   2   3
ATOM      3  C   UNL     1       5.169   0.976  16.981  1.00  0.00     0.041 C 
ATOM      4  O   UNL     1       6.145   1.190  16.214  1.00  0.00    -0.550 OA
ATOM      5  O   UNL     1       5.160  -0.158  17.783  1.00  0.00    -0.550 OA
ENDBRANCH   2   3
ENDBRANCH   1   2
BRANCH   1   6
ATOM      6  C   UNL     1       3.462   3.156  14.802  1.00  0.00     0.000 C 
BRANCH   6   7
ATOM      7  C   UNL     1       4.357   2.871  13.586  1.00  0.00    -0.003 C 
ATOM      8  C   UNL     1       4.353   1.385  13.237  1.00  0.00     0.004 C 
ENDBRANCH   6   7
ENDBRANCH   1   6
TORSDOF 4
ENDMDL
MODEL 9
REMARK VINA RESULT:    -3.326     17.146     17.691
REMARK INTER + INTRA:          -4.214
REMARK INTER:                  -4.067
REMARK INTRA:                  -0.147
REMARK UNBOUND:                -0.111
REMARK SMILES CCCCCC(=O)[O-]
REMARK SMILES IDX 4 1 5 2 6 3 7 4 8 5 3 6 2 7 1 8
REMARK H PARENT
REMARK Flexibility Score: inf
ROOT
ATOM      1  C   UNL     1       2.937   1.702  15.940  1.00  0.00     0.006 C 
ENDROOT
BRANCH   1   2
ATOM      2  C   UNL     1       2.854   0.707  14.772  1.00  0.00     0.053 C 
BRANCH   2   3
ATOM      3  C   UNL     1       1.925  -0.430  15.069  1.00  0.00     0.041 C 
ATOM      4  O   UNL     1       0.682  -0.288  14.926  1.00  0.00    -0.550 OA
ATOM      5  O   UNL     1       2.431  -1.637  15.535  1.00  0.00    -0.550 OA
ENDBRANCH   2   3
ENDBRANCH   1   2
BRANCH   1   6
ATOM      6  C   UNL     1       4.350   2.253  16.202  1.00  0.00     0.000 C 
BRANCH   6   7
ATOM      7  C   UNL     1       5.412   1.147  16.295  1.00  0.00    -0.003 C 
ATOM      8  C   UNL     1       5.367   0.455  17.655  1.00  0.00     0.004 C 
ENDBRANCH   6   7
ENDBRANCH   1   6
TORSDOF 4
ENDMDL
