MODEL 1
REMARK VINA RESULT:    -3.521      0.000      0.000
REMARK INTER + INTRA:          -8.287
REMARK INTER:                  -5.990
REMARK INTRA:                  -2.297
REMARK UNBOUND:                -2.297
REMARK SMILES CCCCCCCCCCCCCC(=O)[O-]
REMARK SMILES IDX 8 1 9 2 10 3 11 4 12 5 13 6 14 7 15 8 16 9 7 10 6 11 5 12
REMARK SMILES IDX 4 13 3 14 2 15 1 16
REMARK H PARENT
REMARK Flexibility Score: inf
ROOT
ATOM      1  C   UNL     1      26.513  -1.787  52.364  1.00  0.00     0.000 C 
ENDROOT
BRANCH   1   2
ATOM      2  C   UNL     1      27.492  -1.815  53.545  1.00  0.00     0.000 C 
BRANCH   2   3
ATOM      3  C   UNL     1      26.902  -2.592  54.730  1.00  0.00     0.000 C 
BRANCH   3   4
ATOM      4  C   UNL     1      25.365  -2.623  54.714  1.00  0.00     0.000 C 
BRANCH   4   5
ATOM      5  C   UNL     1      24.799  -4.045  54.874  1.00  0.00     0.006 C 
BRANCH   5   6
ATOM      6  C   UNL     1      25.798  -4.994  55.547  1.00  0.00     0.053 C 
BRANCH   6   7
ATOM      7  C   UNL     1      25.468  -5.221  56.991  1.00  0.00     0.041 C 
ATOM      8  O   UNL     1      24.295  -5.032  57.409  1.00  0.00    -0.550 OA
ATOM      9  O   UNL     1      26.446  -5.671  57.867  1.00  0.00    -0.550 OA
ENDBRANCH   6   7
ENDBRANCH   5   6
ENDBRANCH   4   5
ENDBRANCH   3   4
ENDBRANCH   2   3
ENDBRANCH   1   2
BRANCH   1  10
ATOM     10  C   UNL     1      26.859  -2.876  51.337  1.00  0.00     0.000 C 
BRANCH  10  11
ATOM     11  C   UNL     1      25.840  -4.026  51.327  1.00  0.00    -0.000 C 
BRANCH  11  12
ATOM     12  C   UNL     1      26.442  -5.351  51.825  1.00  0.00    -0.000 C 
BRANCH  12  13
ATOM     13  C   UNL     1      27.980  -5.318  51.900  1.00  0.00    -0.000 C 
BRANCH  13  14
ATOM     14  C   UNL     1      28.584  -5.827  53.225  1.00  0.00    -0.000 C 
BRANCH  14  15
ATOM     15  C   UNL     1      29.648  -4.908  53.851  1.00  0.00    -0.003 C 
ATOM     16  C   UNL     1      30.468  -4.151  52.808  1.00  0.00     0.004 C 
ENDBRANCH  14  15
ENDBRANCH  13  14
ENDBRANCH  12  13
ENDBRANCH  11  12
ENDBRANCH  10  11
ENDBRANCH   1  10
TORSDOF 12
ENDMDL
MODEL 2
REMARK VINA RESULT:    -3.358      1.075      2.534
REMARK INTER + INTRA:          -8.010
REMARK INTER:                  -6.286
REMARK INTRA:                  -1.725
REMARK UNBOUND:                -2.297
REMARK SMILES CCCCCCCCCCCCCC(=O)[O-]
REMARK SMILES IDX 8 1 9 2 10 3 11 4 12 5 13 6 14 7 15 8 16 9 7 10 6 11 5 12
REMARK SMILES IDX 4 13 3 14 2 15 1 16
REMARK H PARENT
REMARK Flexibility Score: inf
ROOT
ATOM      1  C   UNL     1      26.508  -2.338  54.800  1.00  0.00     0.000 C 
ENDROOT
BRANCH   1   2
ATOM      2  C   UNL     1      25.012  -2.582  54.564  1.00  0.00     0.000 C 
BRANCH   2   3
ATOM      3  C   UNL     1      24.611  -3.999  55.000  1.00  0.00     0.000 C 
BRANCH   3   4
ATOM      4  C   UNL     1      25.824  -4.912  55.243  1.00  0.00     0.000 C 
BRANCH   4   5
ATOM      5  C   UNL     1      25.771  -5.617  56.609  1.00  0.00     0.006 C 
BRANCH   5   6
ATOM      6  C   UNL     1      24.794  -4.935  57.576  1.00  0.00     0.053 C 
BRANCH   6   7
ATOM      7  C   UNL     1      25.199  -5.126  59.006  1.00  0.00     0.041 C 
ATOM      8  O   UNL     1      26.366  -4.833  59.378  1.00  0.00    -0.550 OA
ATOM      9  O   UNL     1      24.279  -5.596  59.934  1.00  0.00    -0.550 OA
ENDBRANCH   6   7
ENDBRANCH   5   6
ENDBRANCH   4   5
ENDBRANCH   3   4
ENDBRANCH   2   3
ENDBRANCH   1   2
BRANCH   1  10
ATOM     10  C   UNL     1      27.158  -1.678  53.575  1.00  0.00     0.000 C 
BRANCH  10  11
ATOM     11  C   UNL     1      26.287  -1.782  52.313  1.00  0.00    -0.000 C 
BRANCH  11  12
ATOM     12  C   UNL     1      26.792  -2.857  51.335  1.00  0.00    -0.000 C 
BRANCH  12  13
ATOM     13  C   UNL     1      25.934  -4.135  51.356  1.00  0.00    -0.000 C 
BRANCH  13  14
ATOM     14  C   UNL     1      26.659  -5.406  51.844  1.00  0.00    -0.000 C 
BRANCH  14  15
ATOM     15  C   UNL     1      28.194  -5.311  51.867  1.00  0.00    -0.003 C 
ATOM     16  C   UNL     1      28.801  -5.785  53.186  1.00  0.00     0.004 C 
ENDBRANCH  14  15
ENDBRANCH  13  14
ENDBRANCH  12  13
ENDBRANCH  11  12
ENDBRANCH  10  11
ENDBRANCH   1  10
TORSDOF 12
ENDMDL
MODEL 3
REMARK VINA RESULT:    -3.317      2.805      4.266
REMARK INTER + INTRA:          -7.940
REMARK INTER:                  -5.963
REMARK INTRA:                  -1.977
REMARK UNBOUND:                -2.297
REMARK SMILES CCCCCCCCCCCCCC(=O)[O-]
REMARK SMILES IDX 8 1 9 2 10 3 11 4 12 5 13 6 14 7 15 8 16 9 7 10 6 11 5 12
REMARK SMILES IDX 4 13 3 14 2 15 1 16
REMARK H PARENT
REMARK Flexibility Score: inf
ROOT
ATOM      1  C   UNL     1      24.697  -3.836  54.638  1.00  0.00     0.000 C 
ENDROOT
BRANCH   1   2
ATOM      2  C   UNL     1      26.043  -3.580  55.329  1.00  0.00     0.000 C 
BRANCH   2   3
ATOM      3  C   UNL     1      26.464  -4.788  56.179  1.00  0.00     0.000 C 
BRANCH   3   4
ATOM      4  C   UNL     1      27.230  -5.846  55.368  1.00  0.00     0.000 C 
BRANCH   4   5
ATOM      5  C   UNL     1      28.307  -5.230  54.458  1.00  0.00     0.006 C 
BRANCH   5   6
ATOM      6  C   UNL     1      28.562  -6.078  53.206  1.00  0.00     0.053 C 
BRANCH   6   7
ATOM      7  C   UNL     1      29.637  -5.491  52.343  1.00  0.00     0.041 C 
ATOM      8  O   UNL     1      29.461  -5.378  51.101  1.00  0.00    -0.550 OA
ATOM      9  O   UNL     1      30.820  -5.040  52.914  1.00  0.00    -0.550 OA
ENDBRANCH   6   7
ENDBRANCH   5   6
ENDBRANCH   4   5
ENDBRANCH   3   4
ENDBRANCH   2   3
ENDBRANCH   1   2
BRANCH   1  10
ATOM     10  C   UNL     1      24.695  -3.269  53.211  1.00  0.00     0.000 C 
BRANCH  10  11
ATOM     11  C   UNL     1      25.641  -4.030  52.268  1.00  0.00    -0.000 C 
BRANCH  11  12
ATOM     12  C   UNL     1      26.673  -3.107  51.598  1.00  0.00    -0.000 C 
BRANCH  12  13
ATOM     13  C   UNL     1      26.535  -1.637  52.037  1.00  0.00    -0.000 C 
BRANCH  13  14
ATOM     14  C   UNL     1      27.677  -1.108  52.929  1.00  0.00    -0.000 C 
BRANCH  14  15
ATOM     15  C   UNL     1      28.941  -1.985  52.956  1.00  0.00    -0.003 C 
ATOM     16  C   UNL     1      29.991  -1.549  51.937  1.00  0.00     0.004 C 
ENDBRANCH  14  15
ENDBRANCH  13  14
ENDBRANCH  12  13
ENDBRANCH  11  12
ENDBRANCH  10  11
ENDBRANCH   1  10
TORSDOF 12
ENDMDL
MODEL 4
REMARK VINA RESULT:    -3.289     10.269     12.344
REMARK INTER + INTRA:          -7.893
REMARK INTER:                  -5.708
REMARK INTRA:                  -2.185
REMARK UNBOUND:                -2.297
REMARK SMILES CCCCCCCCCCCCCC(=O)[O-]
REMARK SMILES IDX 8 1 9 2 10 3 11 4 12 5 13 6 14 7 15 8 16 9 7 10 6 11 5 12
REMARK SMILES IDX 4 13 3 14 2 15 1 16
REMARK H PARENT
REMARK Flexibility Score: inf
ROOT
ATOM      1  C   UNL     1      15.961   2.241  57.957  1.00  0.00     0.000 C 
ENDROOT
BRANCH   1   2
ATOM      2  C   UNL     1      14.864   1.394  58.614  1.00  0.00     0.000 C 
BRANCH   2   3
ATOM      3  C   UNL     1      14.865   1.580  60.139  1.00  0.00     0.000 C 
BRANCH   3   4
ATOM      4  C   UNL     1      14.812   0.246  60.900  1.00  0.00     0.000 C 
BRANCH   4   5
ATOM      5  C   UNL     1      14.920  -0.973  59.967  1.00  0.00     0.006 C 
BRANCH   5   6
ATOM      6  C   UNL     1      16.105  -1.877  60.330  1.00  0.00     0.053 C 
BRANCH   6   7
ATOM      7  C   UNL     1      15.680  -3.048  61.163  1.00  0.00     0.041 C 
ATOM      8  O   UNL     1      15.397  -4.145  60.615  1.00  0.00    -0.550 OA
ATOM      9  O   UNL     1      15.628  -2.937  62.547  1.00  0.00    -0.550 OA
ENDBRANCH   6   7
ENDBRANCH   5   6
ENDBRANCH   4   5
ENDBRANCH   3   4
ENDBRANCH   2   3
ENDBRANCH   1   2
BRANCH   1  10
ATOM     10  C   UNL     1      16.590   1.501  56.767  1.00  0.00     0.000 C 
BRANCH  10  11
ATOM     11  C   UNL     1      16.104   0.047  56.649  1.00  0.00    -0.000 C 
BRANCH  11  12
ATOM     12  C   UNL     1      17.233  -0.972  56.880  1.00  0.00    -0.000 C 
BRANCH  12  13
ATOM     13  C   UNL     1      18.588  -0.305  57.184  1.00  0.00    -0.000 C 
BRANCH  13  14
ATOM     14  C   UNL     1      19.052  -0.400  58.652  1.00  0.00    -0.000 C 
BRANCH  14  15
ATOM     15  C   UNL     1      19.212   0.950  59.372  1.00  0.00    -0.003 C 
ATOM     16  C   UNL     1      18.508   0.990  60.727  1.00  0.00     0.004 C 
ENDBRANCH  14  15
ENDBRANCH  13  14
ENDBRANCH  12  13
ENDBRANCH  11  12
ENDBRANCH  10  11
ENDBRANCH   1  10
TORSDOF 12
ENDMDL
MODEL 5
REMARK VINA RESULT:    -3.286      2.602      4.362
REMARK INTER + INTRA:          -7.888
REMARK INTER:                  -6.030
REMARK INTRA:                  -1.857
REMARK UNBOUND:                -2.297
REMARK SMILES CCCCCCCCCCCCCC(=O)[O-]
REMARK SMILES IDX 8 1 9 2 10 3 11 4 12 5 13 6 14 7 15 8 16 9 7 10 6 11 5 12
REMARK SMILES IDX 4 13 3 14 2 15 1 16
REMARK H PARENT
REMARK Flexibility Score: inf
ROOT
ATOM      1  C   UNL     1      26.522  -3.346  51.342  1.00  0.00     0.000 C 
ENDROOT
BRANCH   1   2
ATOM      2  C   UNL     1      26.873  -1.958  51.893  1.00  0.00     0.000 C 
BRANCH   2   3
ATOM      3  C   UNL     1      28.362  -1.873  52.261  1.00  0.00     0.000 C 
BRANCH   3   4
ATOM      4  C   UNL     1      28.627  -2.198  53.740  1.00  0.00     0.000 C 
BRANCH   4   5
ATOM      5  C   UNL     1      29.039  -3.665  53.959  1.00  0.00     0.006 C 
BRANCH   5   6
ATOM      6  C   UNL     1      29.885  -4.208  52.801  1.00  0.00     0.053 C 
BRANCH   6   7
ATOM      7  C   UNL     1      29.315  -5.475  52.239  1.00  0.00     0.041 C 
ATOM      8  O   UNL     1      28.649  -6.250  52.975  1.00  0.00    -0.550 OA
ATOM      9  O   UNL     1      29.491  -5.783  50.897  1.00  0.00    -0.550 OA
ENDBRANCH   6   7
ENDBRANCH   5   6
ENDBRANCH   4   5
ENDBRANCH   3   4
ENDBRANCH   2   3
ENDBRANCH   1   2
BRANCH   1  10
ATOM     10  C   UNL     1      25.410  -4.003  52.174  1.00  0.00     0.000 C 
BRANCH  10  11
ATOM     11  C   UNL     1      24.940  -3.118  53.340  1.00  0.00    -0.000 C 
BRANCH  11  12
ATOM     12  C   UNL     1      25.020  -3.839  54.696  1.00  0.00    -0.000 C 
BRANCH  12  13
ATOM     13  C   UNL     1      25.872  -5.121  54.643  1.00  0.00    -0.000 C 
BRANCH  13  14
ATOM     14  C   UNL     1      26.343  -5.654  56.011  1.00  0.00    -0.000 C 
BRANCH  14  15
ATOM     15  C   UNL     1      26.315  -4.626  57.155  1.00  0.00    -0.003 C 
ATOM     16  C   UNL     1      27.667  -3.951  57.383  1.00  0.00     0.004 C 
ENDBRANCH  14  15
ENDBRANCH  13  14
ENDBRANCH  12  13
ENDBRANCH  11  12
ENDBRANCH  10  11
ENDBRANCH   1  10
TORSDOF 12
ENDMDL
MODEL 6
REMARK VINA RESULT:    -3.277      1.368      2.429
REMARK INTER + INTRA:          -7.873
REMARK INTER:                  -6.090
REMARK INTRA:                  -1.783
REMARK UNBOUND:                -2.297
REMARK SMILES CCCCCCCCCCCCCC(=O)[O-]
REMARK SMILES IDX 8 1 9 2 10 3 11 4 12 5 13 6 14 7 15 8 16 9 7 10 6 11 5 12
REMARK SMILES IDX 4 13 3 14 2 15 1 16
REMARK H PARENT
REMARK Flexibility Score: inf
ROOT
ATOM      1  C   UNL     1      26.182  -4.683  51.509  1.00  0.00     0.000 C 
ENDROOT
BRANCH   1   2
ATOM      2  C   UNL     1      26.499  -3.183  51.559  1.00  0.00     0.000 C 
BRANCH   2   3
ATOM      3  C   UNL     1      25.821  -2.517  52.766  1.00  0.00     0.000 C 
BRANCH   3   4
ATOM      4  C   UNL     1      24.641  -3.336  53.310  1.00  0.00     0.000 C 
BRANCH   4   5
ATOM      5  C   UNL     1      24.644  -3.432  54.846  1.00  0.00     0.006 C 
BRANCH   5   6
ATOM      6  C   UNL     1      26.002  -3.890  55.395  1.00  0.00     0.053 C 
BRANCH   6   7
ATOM      7  C   UNL     1      25.889  -5.169  56.167  1.00  0.00     0.041 C 
ATOM      8  O   UNL     1      25.172  -5.224  57.201  1.00  0.00    -0.550 OA
ATOM      9  O   UNL     1      26.549  -6.309  55.727  1.00  0.00    -0.550 OA
ENDBRANCH   6   7
ENDBRANCH   5   6
ENDBRANCH   4   5
ENDBRANCH   3   4
ENDBRANCH   2   3
ENDBRANCH   1   2
BRANCH   1  10
ATOM     10  C   UNL     1      27.239  -5.495  52.272  1.00  0.00     0.000 C 
BRANCH  10  11
ATOM     11  C   UNL     1      28.609  -5.490  51.574  1.00  0.00    -0.000 C 
BRANCH  11  12
ATOM     12  C   UNL     1      29.777  -5.379  52.569  1.00  0.00    -0.000 C 
BRANCH  12  13
ATOM     13  C   UNL     1      29.439  -4.507  53.792  1.00  0.00    -0.000 C 
BRANCH  13  14
ATOM     14  C   UNL     1      30.195  -3.164  53.872  1.00  0.00    -0.000 C 
BRANCH  14  15
ATOM     15  C   UNL     1      29.542  -2.004  53.101  1.00  0.00    -0.003 C 
ATOM     16  C   UNL     1      30.214  -1.729  51.757  1.00  0.00     0.004 C 
ENDBRANCH  14  15
ENDBRANCH  13  14
ENDBRANCH  12  13
ENDBRANCH  11  12
ENDBRANCH  10  11
ENDBRANCH   1  10
TORSDOF 12
ENDMDL
MODEL 7
REMARK VINA RESULT:    -3.274      2.663      4.591
REMARK INTER + INTRA:          -7.867
REMARK INTER:                  -5.660
REMARK INTRA:                  -2.207
REMARK UNBOUND:                -2.297
REMARK SMILES CCCCCCCCCCCCCC(=O)[O-]
REMARK SMILES IDX 8 1 9 2 10 3 11 4 12 5 13 6 14 7 15 8 16 9 7 10 6 11 5 12
REMARK SMILES IDX 4 13 3 14 2 15 1 16
REMARK H PARENT
REMARK Flexibility Score: inf
ROOT
ATOM      1  C   UNL     1      24.851  -3.550  53.208  1.00  0.00     0.000 C 
ENDROOT
BRANCH   1   2
ATOM      2  C   UNL     1      25.841  -2.638  52.474  1.00  0.00     0.000 C 
BRANCH   2   3
ATOM      3  C   UNL     1      26.870  -3.463  51.687  1.00  0.00     0.000 C 
BRANCH   3   4
ATOM      4  C   UNL     1      26.633  -4.977  51.807  1.00  0.00     0.000 C 
BRANCH   4   5
ATOM      5  C   UNL     1      27.913  -5.750  52.173  1.00  0.00     0.006 C 
BRANCH   5   6
ATOM      6  C   UNL     1      29.160  -5.153  51.507  1.00  0.00     0.053 C 
BRANCH   6   7
ATOM      7  C   UNL     1      30.285  -4.980  52.482  1.00  0.00     0.041 C 
ATOM      8  O   UNL     1      30.588  -5.914  53.271  1.00  0.00    -0.550 OA
ATOM      9  O   UNL     1      31.018  -3.801  52.499  1.00  0.00    -0.550 OA
ENDBRANCH   6   7
ENDBRANCH   5   6
ENDBRANCH   4   5
ENDBRANCH   3   4
ENDBRANCH   2   3
ENDBRANCH   1   2
BRANCH   1  10
ATOM     10  C   UNL     1      24.722  -3.147  54.685  1.00  0.00     0.000 C 
BRANCH  10  11
ATOM     11  C   UNL     1      24.796  -4.352  55.637  1.00  0.00    -0.000 C 
BRANCH  11  12
ATOM     12  C   UNL     1      26.059  -5.202  55.415  1.00  0.00    -0.000 C 
BRANCH  12  13
ATOM     13  C   UNL     1      27.276  -4.681  56.201  1.00  0.00    -0.000 C 
BRANCH  13  14
ATOM     14  C   UNL     1      28.322  -3.918  55.362  1.00  0.00    -0.000 C 
BRANCH  14  15
ATOM     15  C   UNL     1      28.308  -2.389  55.537  1.00  0.00    -0.003 C 
ATOM     16  C   UNL     1      28.822  -1.644  54.308  1.00  0.00     0.004 C 
ENDBRANCH  14  15
ENDBRANCH  13  14
ENDBRANCH  12  13
ENDBRANCH  11  12
ENDBRANCH  10  11
ENDBRANCH   1  10
TORSDOF 12
ENDMDL
MODEL 8
REMARK VINA RESULT:    -3.272      2.858      4.719
REMARK INTER + INTRA:          -7.864
REMARK INTER:                  -5.918
REMARK INTRA:                  -1.947
REMARK UNBOUND:                -2.297
REMARK SMILES CCCCCCCCCCCCCC(=O)[O-]
REMARK SMILES IDX 8 1 9 2 10 3 11 4 12 5 13 6 14 7 15 8 16 9 7 10 6 11 5 12
REMARK SMILES IDX 4 13 3 14 2 15 1 16
REMARK H PARENT
REMARK Flexibility Score: inf
ROOT
ATOM      1  C   UNL     1      26.091  -2.612  52.531  1.00  0.00     0.000 C 
ENDROOT
BRANCH   1   2
ATOM      2  C   UNL     1      26.369  -3.472  51.291  1.00  0.00     0.000 C 
BRANCH   2   3
ATOM      3  C   UNL     1      26.249  -4.967  51.620  1.00  0.00     0.000 C 
BRANCH   3   4
ATOM      4  C   UNL     1      27.480  -5.513  52.361  1.00  0.00     0.000 C 
BRANCH   4   5
ATOM      5  C   UNL     1      28.756  -5.471  51.502  1.00  0.00     0.006 C 
BRANCH   5   6
ATOM      6  C   UNL     1      29.987  -5.051  52.314  1.00  0.00     0.053 C 
BRANCH   6   7
ATOM      7  C   UNL     1      30.176  -3.564  52.314  1.00  0.00     0.041 C 
ATOM      8  O   UNL     1      29.815  -2.881  51.320  1.00  0.00    -0.550 OA
ATOM      9  O   UNL     1      30.718  -2.930  53.424  1.00  0.00    -0.550 OA
ENDBRANCH   6   7
ENDBRANCH   5   6
ENDBRANCH   4   5
ENDBRANCH   3   4
ENDBRANCH   2   3
ENDBRANCH   1   2
BRANCH   1  10
ATOM     10  C   UNL     1      24.781  -3.037  53.212  1.00  0.00     0.000 C 
BRANCH  10  11
ATOM     11  C   UNL     1      24.859  -2.964  54.745  1.00  0.00    -0.000 C 
BRANCH  11  12
ATOM     12  C   UNL     1      24.729  -4.346  55.409  1.00  0.00    -0.000 C 
BRANCH  12  13
ATOM     13  C   UNL     1      26.090  -4.960  55.782  1.00  0.00    -0.000 C 
BRANCH  13  14
ATOM     14  C   UNL     1      27.259  -3.958  55.878  1.00  0.00    -0.000 C 
BRANCH  14  15
ATOM     15  C   UNL     1      28.662  -4.581  55.771  1.00  0.00    -0.003 C 
ATOM     16  C   UNL     1      28.645  -6.105  55.871  1.00  0.00     0.004 C 
ENDBRANCH  14  15
ENDBRANCH  13  14
ENDBRANCH  12  13
ENDBRANCH  11  12
ENDBRANCH  10  11
ENDBRANCH   1  10
TORSDOF 12
ENDMDL
MODEL 9
REMARK VINA RESULT:    -3.258     10.825     13.030
REMARK INTER + INTRA:          -7.840
REMARK INTER:                  -6.276
REMARK INTRA:                  -1.565
REMARK UNBOUND:                -2.297
REMARK SMILES CCCCCCCCCCCCCC(=O)[O-]
REMARK SMILES IDX 8 1 9 2 10 3 11 4 12 5 13 6 14 7 15 8 16 9 7 10 6 11 5 12
REMARK SMILES IDX 4 13 3 14 2 15 1 16
REMARK H PARENT
REMARK Flexibility Score: inf
ROOT
ATOM      1  C   UNL     1      16.032   1.263  59.922  1.00  0.00     0.000 C 
ENDROOT
BRANCH   1   2
ATOM      2  C   UNL     1      15.645   0.765  61.320  1.00  0.00     0.000 C 
BRANCH   2   3
ATOM      3  C   UNL     1      14.125   0.569  61.433  1.00  0.00     0.000 C 
BRANCH   3   4
ATOM      4  C   UNL     1      13.742  -0.846  61.896  1.00  0.00     0.000 C 
BRANCH   4   5
ATOM      5  C   UNL     1      14.520  -1.944  61.150  1.00  0.00     0.006 C 
BRANCH   5   6
ATOM      6  C   UNL     1      15.128  -2.976  62.109  1.00  0.00     0.053 C 
BRANCH   6   7
ATOM      7  C   UNL     1      16.582  -2.714  62.361  1.00  0.00     0.041 C 
ATOM      8  O   UNL     1      17.332  -2.347  61.419  1.00  0.00    -0.550 OA
ATOM      9  O   UNL     1      17.101  -2.844  63.643  1.00  0.00    -0.550 OA
ENDBRANCH   6   7
ENDBRANCH   5   6
ENDBRANCH   4   5
ENDBRANCH   3   4
ENDBRANCH   2   3
ENDBRANCH   1   2
BRANCH   1  10
ATOM     10  C   UNL     1      14.845   1.159  58.953  1.00  0.00     0.000 C 
BRANCH  10  11
ATOM     11  C   UNL     1      15.090   0.150  57.820  1.00  0.00    -0.000 C 
BRANCH  11  12
ATOM     12  C   UNL     1      16.397  -0.641  58.007  1.00  0.00    -0.000 C 
BRANCH  12  13
ATOM     13  C   UNL     1      17.082  -0.988  56.672  1.00  0.00    -0.000 C 
BRANCH  13  14
ATOM     14  C   UNL     1      17.224   0.186  55.682  1.00  0.00    -0.000 C 
BRANCH  14  15
ATOM     15  C   UNL     1      18.036   1.384  56.205  1.00  0.00    -0.003 C 
ATOM     16  C   UNL     1      17.246   2.691  56.190  1.00  0.00     0.004 C 
ENDBRANCH  14  15
ENDBRANCH  13  14
ENDBRANCH  12  13
ENDBRANCH  11  12
ENDBRANCH  10  11
ENDBRANCH   1  10
TORSDOF 12
ENDMDL
