MODEL 1
REMARK VINA RESULT:    -3.782      0.000      0.000
REMARK INTER + INTRA:          -4.972
REMARK INTER:                  -4.887
REMARK INTRA:                  -0.084
REMARK UNBOUND:                -0.084
REMARK SMILES CCCCCCC(=O)[O-]
REMARK SMILES IDX 5 1 6 2 7 3 8 4 9 5 4 6 3 7 2 8 1 9
REMARK H PARENT
REMARK Flexibility Score: inf
ROOT
ATOM      1  C   UNL     1      11.052   7.170  -6.576  1.00  0.00     0.006 C 
ENDROOT
BRANCH   1   2
ATOM      2  C   UNL     1      10.619   5.811  -7.138  1.00  0.00     0.053 C 
BRANCH   2   3
ATOM      3  C   UNL     1      11.239   4.699  -6.351  1.00  0.00     0.041 C 
ATOM      4  O   UNL     1      10.636   4.212  -5.360  1.00  0.00    -0.550 OA
ATOM      5  O   UNL     1      12.506   4.235  -6.683  1.00  0.00    -0.550 OA
ENDBRANCH   2   3
ENDBRANCH   1   2
BRANCH   1   6
ATOM      6  C   UNL     1      10.491   8.351  -7.384  1.00  0.00     0.000 C 
BRANCH   6   7
ATOM      7  C   UNL     1      11.478   9.527  -7.475  1.00  0.00    -0.000 C 
BRANCH   7   8
ATOM      8  C   UNL     1      11.343  10.307  -8.793  1.00  0.00    -0.003 C 
ATOM      9  C   UNL     1      12.686  10.819  -9.316  1.00  0.00     0.004 C 
ENDBRANCH   7   8
ENDBRANCH   6   7
ENDBRANCH   1   6
TORSDOF 5
ENDMDL
MODEL 2
REMARK VINA RESULT:    -3.629      3.806      5.684
REMARK INTER + INTRA:          -4.774
REMARK INTER:                  -4.691
REMARK INTRA:                  -0.082
REMARK UNBOUND:                -0.084
REMARK SMILES CCCCCCC(=O)[O-]
REMARK SMILES IDX 5 1 6 2 7 3 8 4 9 5 4 6 3 7 2 8 1 9
REMARK H PARENT
REMARK Flexibility Score: inf
ROOT
ATOM      1  C   UNL     1      11.687   9.346  -7.507  1.00  0.00     0.006 C 
ENDROOT
BRANCH   1   2
ATOM      2  C   UNL     1      11.342  10.261  -8.688  1.00  0.00     0.053 C 
BRANCH   2   3
ATOM      3  C   UNL     1      12.575  10.933  -9.205  1.00  0.00     0.041 C 
ATOM      4  O   UNL     1      12.878  10.848 -10.424  1.00  0.00    -0.550 OA
ATOM      5  O   UNL     1      13.416  11.612  -8.333  1.00  0.00    -0.550 OA
ENDBRANCH   2   3
ENDBRANCH   1   2
BRANCH   1   6
ATOM      6  C   UNL     1      10.526   8.416  -7.120  1.00  0.00     0.000 C 
BRANCH   6   7
ATOM      7  C   UNL     1      11.007   7.020  -6.687  1.00  0.00    -0.000 C 
BRANCH   7   8
ATOM      8  C   UNL     1      10.116   5.895  -7.236  1.00  0.00    -0.003 C 
ATOM      9  C   UNL     1      10.644   4.502  -6.890  1.00  0.00     0.004 C 
ENDBRANCH   7   8
ENDBRANCH   6   7
ENDBRANCH   1   6
TORSDOF 5
ENDMDL
MODEL 3
REMARK VINA RESULT:    -3.621     14.621     15.346
REMARK INTER + INTRA:          -4.764
REMARK INTER:                  -4.506
REMARK INTRA:                  -0.258
REMARK UNBOUND:                -0.084
REMARK SMILES CCCCCCC(=O)[O-]
REMARK SMILES IDX 5 1 6 2 7 3 8 4 9 5 4 6 3 7 2 8 1 9
REMARK H PARENT
REMARK Flexibility Score: inf
ROOT
ATOM      1  C   UNL     1      22.406  11.742   1.253  1.00  0.00     0.006 C 
ENDROOT
BRANCH   1   2
ATOM      2  C   UNL     1      23.918  11.689   1.501  1.00  0.00     0.053 C 
BRANCH   2   3
ATOM      3  C   UNL     1      24.453  10.328   1.181  1.00  0.00     0.041 C 
ATOM      4  O   UNL     1      24.423   9.417   2.048  1.00  0.00    -0.550 OA
ATOM      5  O   UNL     1      25.028  10.081  -0.059  1.00  0.00    -0.550 OA
ENDBRANCH   2   3
ENDBRANCH   1   2
BRANCH   1   6
ATOM      6  C   UNL     1      21.589  11.566   2.544  1.00  0.00     0.000 C 
BRANCH   6   7
ATOM      7  C   UNL     1      20.168  11.041   2.275  1.00  0.00    -0.000 C 
BRANCH   7   8
ATOM      8  C   UNL     1      19.982   9.586   2.735  1.00  0.00    -0.003 C 
ATOM      9  C   UNL     1      21.206   9.039   3.471  1.00  0.00     0.004 C 
ENDBRANCH   7   8
ENDBRANCH   6   7
ENDBRANCH   1   6
TORSDOF 5
ENDMDL
MODEL 4
REMARK VINA RESULT:    -3.620      2.229      3.330
REMARK INTER + INTRA:          -4.762
REMARK INTER:                  -4.598
REMARK INTRA:                  -0.164
REMARK UNBOUND:                -0.084
REMARK SMILES CCCCCCC(=O)[O-]
REMARK SMILES IDX 5 1 6 2 7 3 8 4 9 5 4 6 3 7 2 8 1 9
REMARK H PARENT
REMARK Flexibility Score: inf
ROOT
ATOM      1  C   UNL     1      12.063  10.040  -7.674  1.00  0.00     0.006 C 
ENDROOT
BRANCH   1   2
ATOM      2  C   UNL     1      10.763   9.261  -7.910  1.00  0.00     0.053 C 
BRANCH   2   3
ATOM      3  C   UNL     1      10.673   8.100  -6.971  1.00  0.00     0.041 C 
ATOM      4  O   UNL     1      10.902   8.259  -5.744  1.00  0.00    -0.550 OA
ATOM      5  O   UNL     1      10.383   6.832  -7.458  1.00  0.00    -0.550 OA
ENDBRANCH   2   3
ENDBRANCH   1   2
BRANCH   1   6
ATOM      6  C   UNL     1      12.591  10.710  -8.953  1.00  0.00     0.000 C 
BRANCH   6   7
ATOM      7  C   UNL     1      11.469  11.038  -9.954  1.00  0.00    -0.000 C 
BRANCH   7   8
ATOM      8  C   UNL     1      12.006  11.650 -11.258  1.00  0.00    -0.003 C 
ATOM      9  C   UNL     1      13.094  10.794 -11.908  1.00  0.00     0.004 C 
ENDBRANCH   7   8
ENDBRANCH   6   7
ENDBRANCH   1   6
TORSDOF 5
ENDMDL
MODEL 5
REMARK VINA RESULT:    -3.594     15.235     15.842
REMARK INTER + INTRA:          -4.729
REMARK INTER:                  -4.399
REMARK INTRA:                  -0.330
REMARK UNBOUND:                -0.084
REMARK SMILES CCCCCCC(=O)[O-]
REMARK SMILES IDX 5 1 6 2 7 3 8 4 9 5 4 6 3 7 2 8 1 9
REMARK H PARENT
REMARK Flexibility Score: inf
ROOT
ATOM      1  C   UNL     1      23.836  10.200   3.506  1.00  0.00     0.006 C 
ENDROOT
BRANCH   1   2
ATOM      2  C   UNL     1      24.358   9.497   2.247  1.00  0.00     0.053 C 
BRANCH   2   3
ATOM      3  C   UNL     1      24.455  10.466   1.111  1.00  0.00     0.041 C 
ATOM      4  O   UNL     1      25.014  10.127   0.036  1.00  0.00    -0.550 OA
ATOM      5  O   UNL     1      23.972  11.761   1.258  1.00  0.00    -0.550 OA
ENDBRANCH   2   3
ENDBRANCH   1   2
BRANCH   1   6
ATOM      6  C   UNL     1      22.608   9.498   4.109  1.00  0.00     0.000 C 
BRANCH   6   7
ATOM      7  C   UNL     1      21.598   9.052   3.037  1.00  0.00    -0.000 C 
BRANCH   7   8
ATOM      8  C   UNL     1      20.335   9.927   3.020  1.00  0.00    -0.003 C 
ATOM      9  C   UNL     1      20.518  11.213   2.213  1.00  0.00     0.004 C 
ENDBRANCH   7   8
ENDBRANCH   6   7
ENDBRANCH   1   6
TORSDOF 5
ENDMDL
MODEL 6
REMARK VINA RESULT:    -3.587     16.353     16.685
REMARK INTER + INTRA:          -4.720
REMARK INTER:                  -4.533
REMARK INTRA:                  -0.187
REMARK UNBOUND:                -0.084
REMARK SMILES CCCCCCC(=O)[O-]
REMARK SMILES IDX 5 1 6 2 7 3 8 4 9 5 4 6 3 7 2 8 1 9
REMARK H PARENT
REMARK Flexibility Score: inf
ROOT
ATOM      1  C   UNL     1      24.524  -1.393  -9.313  1.00  0.00     0.006 C 
ENDROOT
BRANCH   1   2
ATOM      2  C   UNL     1      25.642  -0.394  -8.993  1.00  0.00     0.053 C 
BRANCH   2   3
ATOM      3  C   UNL     1      26.764  -1.077  -8.276  1.00  0.00     0.041 C 
ATOM      4  O   UNL     1      26.889  -2.328  -8.343  1.00  0.00    -0.550 OA
ATOM      5  O   UNL     1      27.643  -0.338  -7.495  1.00  0.00    -0.550 OA
ENDBRANCH   2   3
ENDBRANCH   1   2
BRANCH   1   6
ATOM      6  C   UNL     1      24.119  -1.373 -10.796  1.00  0.00     0.000 C 
BRANCH   6   7
ATOM      7  C   UNL     1      24.928  -0.352 -11.615  1.00  0.00    -0.000 C 
BRANCH   7   8
ATOM      8  C   UNL     1      24.211   0.064 -12.909  1.00  0.00    -0.003 C 
ATOM      9  C   UNL     1      24.833   1.302 -13.556  1.00  0.00     0.004 C 
ENDBRANCH   7   8
ENDBRANCH   6   7
ENDBRANCH   1   6
TORSDOF 5
ENDMDL
MODEL 7
REMARK VINA RESULT:    -3.552     16.063     16.518
REMARK INTER + INTRA:          -4.674
REMARK INTER:                  -4.504
REMARK INTRA:                  -0.170
REMARK UNBOUND:                -0.084
REMARK SMILES CCCCCCC(=O)[O-]
REMARK SMILES IDX 5 1 6 2 7 3 8 4 9 5 4 6 3 7 2 8 1 9
REMARK H PARENT
REMARK Flexibility Score: inf
ROOT
ATOM      1  C   UNL     1      25.480  -0.555  -9.687  1.00  0.00     0.006 C 
ENDROOT
BRANCH   1   2
ATOM      2  C   UNL     1      24.499  -1.539  -9.040  1.00  0.00     0.053 C 
BRANCH   2   3
ATOM      3  C   UNL     1      25.236  -2.545  -8.214  1.00  0.00     0.041 C 
ATOM      4  O   UNL     1      24.666  -3.607  -7.851  1.00  0.00    -0.550 OA
ATOM      5  O   UNL     1      26.538  -2.289  -7.804  1.00  0.00    -0.550 OA
ENDBRANCH   2   3
ENDBRANCH   1   2
BRANCH   1   6
ATOM      6  C   UNL     1      25.601  -0.753 -11.207  1.00  0.00     0.000 C 
BRANCH   6   7
ATOM      7  C   UNL     1      24.235  -0.733 -11.915  1.00  0.00    -0.000 C 
BRANCH   7   8
ATOM      8  C   UNL     1      24.340  -0.288 -13.382  1.00  0.00    -0.003 C 
ATOM      9  C   UNL     1      24.715   1.188 -13.526  1.00  0.00     0.004 C 
ENDBRANCH   7   8
ENDBRANCH   6   7
ENDBRANCH   1   6
TORSDOF 5
ENDMDL
MODEL 8
REMARK VINA RESULT:    -3.486     14.537     14.956
REMARK INTER + INTRA:          -4.589
REMARK INTER:                  -4.320
REMARK INTRA:                  -0.269
REMARK UNBOUND:                -0.084
REMARK SMILES CCCCCCC(=O)[O-]
REMARK SMILES IDX 5 1 6 2 7 3 8 4 9 5 4 6 3 7 2 8 1 9
REMARK H PARENT
REMARK Flexibility Score: inf
ROOT
ATOM      1  C   UNL     1      21.554   9.150   2.977  1.00  0.00     0.006 C 
ENDROOT
BRANCH   1   2
ATOM      2  C   UNL     1      20.719  10.361   2.543  1.00  0.00     0.053 C 
BRANCH   2   3
ATOM      3  C   UNL     1      19.259  10.058   2.663  1.00  0.00     0.041 C 
ATOM      4  O   UNL     1      18.440  10.556   1.847  1.00  0.00    -0.550 OA
ATOM      5  O   UNL     1      18.796   9.266   3.706  1.00  0.00    -0.550 OA
ENDBRANCH   2   3
ENDBRANCH   1   2
BRANCH   1   6
ATOM      6  C   UNL     1      22.616   9.510   4.029  1.00  0.00     0.000 C 
BRANCH   6   7
ATOM      7  C   UNL     1      23.805  10.280   3.427  1.00  0.00    -0.000 C 
BRANCH   7   8
ATOM      8  C   UNL     1      24.473   9.519   2.271  1.00  0.00    -0.003 C 
ATOM      9  C   UNL     1      24.498  10.325   0.971  1.00  0.00     0.004 C 
ENDBRANCH   7   8
ENDBRANCH   6   7
ENDBRANCH   1   6
TORSDOF 5
ENDMDL
MODEL 9
REMARK VINA RESULT:    -3.471     16.573     17.716
REMARK INTER + INTRA:          -4.570
REMARK INTER:                  -4.432
REMARK INTRA:                  -0.138
REMARK UNBOUND:                -0.084
REMARK SMILES CCCCCCC(=O)[O-]
REMARK SMILES IDX 5 1 6 2 7 3 8 4 9 5 4 6 3 7 2 8 1 9
REMARK H PARENT
REMARK Flexibility Score: inf
ROOT
ATOM      1  C   UNL     1      24.894  -2.905  -7.901  1.00  0.00     0.006 C 
ENDROOT
BRANCH   1   2
ATOM      2  C   UNL     1      24.492  -1.979  -9.054  1.00  0.00     0.053 C 
BRANCH   2   3
ATOM      3  C   UNL     1      25.575  -0.983  -9.326  1.00  0.00     0.041 C 
ATOM      4  O   UNL     1      25.639  -0.406 -10.443  1.00  0.00    -0.550 OA
ATOM      5  O   UNL     1      26.543  -0.728  -8.363  1.00  0.00    -0.550 OA
ENDBRANCH   2   3
ENDBRANCH   1   2
BRANCH   1   6
ATOM      6  C   UNL     1      24.790  -4.393  -8.273  1.00  0.00     0.000 C 
BRANCH   6   7
ATOM      7  C   UNL     1      23.681  -4.667  -9.304  1.00  0.00    -0.000 C 
BRANCH   7   8
ATOM      8  C   UNL     1      23.487  -6.168  -9.573  1.00  0.00    -0.003 C 
ATOM      9  C   UNL     1      22.020  -6.545  -9.782  1.00  0.00     0.004 C 
ENDBRANCH   7   8
ENDBRANCH   6   7
ENDBRANCH   1   6
TORSDOF 5
ENDMDL
