MODEL 1
REMARK VINA RESULT:    -3.682      0.000      0.000
REMARK INTER + INTRA:          -4.286
REMARK INTER:                  -4.220
REMARK INTRA:                  -0.066
REMARK UNBOUND:                -0.066
REMARK SMILES COc1cc(C=O)ccc1O
REMARK SMILES IDX 3 1 10 2 9 3 8 4 5 5 4 6 2 7 1 8 11 9 6 11 7 12
REMARK H PARENT 11 10
REMARK Flexibility Score: inf
ROOT
ATOM      1  C   UNL     1     166.396 166.297 166.047  1.00  0.00     0.161 A 
ATOM      2  C   UNL     1     166.328 166.091 167.438  1.00  0.00     0.157 A 
ATOM      3  C   UNL     1     165.378 165.214 167.970  1.00  0.00     0.051 A 
ATOM      4  C   UNL     1     164.491 164.538 167.131  1.00  0.00     0.015 A 
ATOM      5  C   UNL     1     164.543 164.729 165.744  1.00  0.00     0.018 A 
ATOM      6  C   UNL     1     165.497 165.610 165.205  1.00  0.00     0.062 A 
ENDROOT
BRANCH   1   7
ATOM      7  O   UNL     1     167.361 167.182 165.541  1.00  0.00    -0.493 OA
ATOM      8  C   UNL     1     168.669 166.802 165.128  1.00  0.00     0.278 C 
ENDBRANCH   1   7
BRANCH   2   9
ATOM      9  O   UNL     1     167.198 166.750 168.307  1.00  0.00    -0.504 OA
ATOM     10  H   UNL     1     167.971 167.312 167.974  1.00  0.00     0.293 HD
ENDBRANCH   2   9
BRANCH   5  11
ATOM     11  C   UNL     1     163.597 164.005 164.875  1.00  0.00     0.260 C 
ATOM     12  O   UNL     1     162.352 164.125 165.024  1.00  0.00    -0.298 OA
ENDBRANCH   5  11
TORSDOF 3
ENDMDL
MODEL 2
REMARK VINA RESULT:    -3.638      1.482      3.981
REMARK INTER + INTRA:          -4.236
REMARK INTER:                  -4.178
REMARK INTRA:                  -0.058
REMARK UNBOUND:                -0.066
REMARK SMILES COc1cc(C=O)ccc1O
REMARK SMILES IDX 3 1 10 2 9 3 8 4 5 5 4 6 2 7 1 8 11 9 6 11 7 12
REMARK H PARENT 11 10
REMARK Flexibility Score: inf
ROOT
ATOM      1  C   UNL     1     164.894 164.978 166.345  1.00  0.00     0.161 A 
ATOM      2  C   UNL     1     165.062 165.210 167.723  1.00  0.00     0.157 A 
ATOM      3  C   UNL     1     166.065 166.076 168.170  1.00  0.00     0.051 A 
ATOM      4  C   UNL     1     166.906 166.715 167.258  1.00  0.00     0.015 A 
ATOM      5  C   UNL     1     166.754 166.497 165.881  1.00  0.00     0.018 A 
ATOM      6  C   UNL     1     165.746 165.628 165.429  1.00  0.00     0.062 A 
ENDROOT
BRANCH   1   7
ATOM      7  O   UNL     1     163.878 164.105 165.926  1.00  0.00    -0.493 OA
ATOM      8  C   UNL     1     164.015 163.149 164.878  1.00  0.00     0.278 C 
ENDBRANCH   1   7
BRANCH   2   9
ATOM      9  O   UNL     1     164.241 164.589 168.664  1.00  0.00    -0.504 OA
ATOM     10  H   UNL     1     163.586 163.859 168.411  1.00  0.00     0.293 HD
ENDBRANCH   2   9
BRANCH   5  11
ATOM     11  C   UNL     1     167.653 167.182 164.934  1.00  0.00     0.260 C 
ATOM     12  O   UNL     1     168.895 166.971 164.945  1.00  0.00    -0.298 OA
ENDBRANCH   5  11
TORSDOF 3
ENDMDL
MODEL 3
REMARK VINA RESULT:    -3.299      9.779     10.395
REMARK INTER + INTRA:          -3.847
REMARK INTER:                  -3.774
REMARK INTRA:                  -0.072
REMARK UNBOUND:                -0.066
REMARK SMILES COc1cc(C=O)ccc1O
REMARK SMILES IDX 3 1 10 2 9 3 8 4 5 5 4 6 2 7 1 8 11 9 6 11 7 12
REMARK H PARENT 11 10
REMARK Flexibility Score: inf
ROOT
ATOM      1  C   UNL     1     162.589 174.181 168.555  1.00  0.00     0.161 A 
ATOM      2  C   UNL     1     163.462 174.552 167.515  1.00  0.00     0.157 A 
ATOM      3  C   UNL     1     163.004 175.363 166.472  1.00  0.00     0.051 A 
ATOM      4  C   UNL     1     161.682 175.810 166.452  1.00  0.00     0.015 A 
ATOM      5  C   UNL     1     160.798 175.453 167.478  1.00  0.00     0.018 A 
ATOM      6  C   UNL     1     161.255 174.638 168.529  1.00  0.00     0.062 A 
ENDROOT
BRANCH   1   7
ATOM      7  O   UNL     1     163.077 173.367 169.589  1.00  0.00    -0.493 OA
ATOM      8  C   UNL     1     162.989 171.946 169.608  1.00  0.00     0.278 C 
ENDBRANCH   1   7
BRANCH   2   9
ATOM      9  O   UNL     1     164.789 174.123 167.501  1.00  0.00    -0.504 OA
ATOM     10  H   UNL     1     165.457 174.455 166.817  1.00  0.00     0.293 HD
ENDBRANCH   2   9
BRANCH   5  11
ATOM     11  C   UNL     1     159.405 175.937 167.438  1.00  0.00     0.260 C 
ATOM     12  O   UNL     1     158.804 176.105 166.344  1.00  0.00    -0.298 OA
ENDBRANCH   5  11
TORSDOF 3
ENDMDL
MODEL 4
REMARK VINA RESULT:    -3.298      1.536      3.828
REMARK INTER + INTRA:          -3.846
REMARK INTER:                  -3.794
REMARK INTRA:                  -0.052
REMARK UNBOUND:                -0.066
REMARK SMILES COc1cc(C=O)ccc1O
REMARK SMILES IDX 3 1 10 2 9 3 8 4 5 5 4 6 2 7 1 8 11 9 6 11 7 12
REMARK H PARENT 11 10
REMARK Flexibility Score: inf
ROOT
ATOM      1  C   UNL     1     166.039 166.302 166.146  1.00  0.00     0.161 A 
ATOM      2  C   UNL     1     165.216 165.161 166.090  1.00  0.00     0.157 A 
ATOM      3  C   UNL     1     164.889 164.476 167.264  1.00  0.00     0.051 A 
ATOM      4  C   UNL     1     165.373 164.914 168.497  1.00  0.00     0.015 A 
ATOM      5  C   UNL     1     166.193 166.048 168.574  1.00  0.00     0.018 A 
ATOM      6  C   UNL     1     166.523 166.740 167.396  1.00  0.00     0.062 A 
ENDROOT
BRANCH   1   7
ATOM      7  O   UNL     1     166.350 166.970 164.951  1.00  0.00    -0.493 OA
ATOM      8  C   UNL     1     166.846 168.303 164.877  1.00  0.00     0.278 C 
ENDBRANCH   1   7
BRANCH   2   9
ATOM      9  O   UNL     1     164.715 164.693 164.875  1.00  0.00    -0.504 OA
ATOM     10  H   UNL     1     164.998 165.087 163.986  1.00  0.00     0.293 HD
ENDBRANCH   2   9
BRANCH   5  11
ATOM     11  C   UNL     1     166.693 166.494 169.887  1.00  0.00     0.260 C 
ATOM     12  O   UNL     1     167.895 166.838 170.044  1.00  0.00    -0.298 OA
ENDBRANCH   5  11
TORSDOF 3
ENDMDL
MODEL 5
REMARK VINA RESULT:    -3.279      9.723     10.132
REMARK INTER + INTRA:          -3.825
REMARK INTER:                  -3.766
REMARK INTRA:                  -0.059
REMARK UNBOUND:                -0.066
REMARK SMILES COc1cc(C=O)ccc1O
REMARK SMILES IDX 3 1 10 2 9 3 8 4 5 5 4 6 2 7 1 8 11 9 6 11 7 12
REMARK H PARENT 11 10
REMARK Flexibility Score: inf
ROOT
ATOM      1  C   UNL     1     162.507 175.027 167.405  1.00  0.00     0.161 A 
ATOM      2  C   UNL     1     163.338 174.040 167.967  1.00  0.00     0.157 A 
ATOM      3  C   UNL     1     162.883 173.271 169.042  1.00  0.00     0.051 A 
ATOM      4  C   UNL     1     161.605 173.474 169.566  1.00  0.00     0.015 A 
ATOM      5  C   UNL     1     160.762 174.451 169.020  1.00  0.00     0.018 A 
ATOM      6  C   UNL     1     161.217 175.226 167.939  1.00  0.00     0.062 A 
ENDROOT
BRANCH   1   7
ATOM      7  O   UNL     1     162.991 175.784 166.326  1.00  0.00    -0.493 OA
ATOM      8  C   UNL     1     162.230 176.125 165.172  1.00  0.00     0.278 C 
ENDBRANCH   1   7
BRANCH   2   9
ATOM      9  O   UNL     1     164.621 173.810 167.471  1.00  0.00    -0.504 OA
ATOM     10  H   UNL     1     164.840 173.011 166.889  1.00  0.00     0.293 HD
ENDBRANCH   2   9
BRANCH   5  11
ATOM     11  C   UNL     1     159.416 174.649 169.588  1.00  0.00     0.260 C 
ATOM     12  O   UNL     1     158.575 173.712 169.613  1.00  0.00    -0.298 OA
ENDBRANCH   5  11
TORSDOF 3
ENDMDL
MODEL 6
REMARK VINA RESULT:    -3.275      1.224      2.927
REMARK INTER + INTRA:          -3.819
REMARK INTER:                  -3.750
REMARK INTRA:                  -0.069
REMARK UNBOUND:                -0.066
REMARK SMILES COc1cc(C=O)ccc1O
REMARK SMILES IDX 3 1 10 2 9 3 8 4 5 5 4 6 2 7 1 8 11 9 6 11 7 12
REMARK H PARENT 11 10
REMARK Flexibility Score: inf
ROOT
ATOM      1  C   UNL     1     165.307 165.147 168.146  1.00  0.00     0.161 A 
ATOM      2  C   UNL     1     166.263 166.063 167.667  1.00  0.00     0.157 A 
ATOM      3  C   UNL     1     166.369 166.310 166.295  1.00  0.00     0.051 A 
ATOM      4  C   UNL     1     165.532 165.655 165.391  1.00  0.00     0.015 A 
ATOM      5  C   UNL     1     164.574 164.740 165.848  1.00  0.00     0.018 A 
ATOM      6  C   UNL     1     164.464 164.489 167.227  1.00  0.00     0.062 A 
ENDROOT
BRANCH   1   7
ATOM      7  O   UNL     1     165.223 164.919 169.528  1.00  0.00    -0.493 OA
ATOM      8  C   UNL     1     165.552 163.689 170.166  1.00  0.00     0.278 C 
ENDBRANCH   1   7
BRANCH   2   9
ATOM      9  O   UNL     1     167.117 166.736 168.541  1.00  0.00    -0.504 OA
ATOM     10  H   UNL     1     168.101 166.865 168.342  1.00  0.00     0.293 HD
ENDBRANCH   2   9
BRANCH   5  11
ATOM     11  C   UNL     1     163.699 164.058 164.876  1.00  0.00     0.260 C 
ATOM     12  O   UNL     1     162.448 164.204 164.911  1.00  0.00    -0.298 OA
ENDBRANCH   5  11
TORSDOF 3
ENDMDL
MODEL 7
REMARK VINA RESULT:    -3.271      1.704      3.960
REMARK INTER + INTRA:          -3.815
REMARK INTER:                  -3.749
REMARK INTRA:                  -0.067
REMARK UNBOUND:                -0.066
REMARK SMILES COc1cc(C=O)ccc1O
REMARK SMILES IDX 3 1 10 2 9 3 8 4 5 5 4 6 2 7 1 8 11 9 6 11 7 12
REMARK H PARENT 11 10
REMARK Flexibility Score: inf
ROOT
ATOM      1  C   UNL     1     165.761 166.127 168.035  1.00  0.00     0.161 A 
ATOM      2  C   UNL     1     164.875 165.172 167.500  1.00  0.00     0.157 A 
ATOM      3  C   UNL     1     164.908 164.875 166.134  1.00  0.00     0.051 A 
ATOM      4  C   UNL     1     165.814 165.520 165.291  1.00  0.00     0.015 A 
ATOM      5  C   UNL     1     166.704 166.473 165.804  1.00  0.00     0.018 A 
ATOM      6  C   UNL     1     166.675 166.774 167.178  1.00  0.00     0.062 A 
ENDROOT
BRANCH   1   7
ATOM      7  O   UNL     1     165.706 166.404 169.410  1.00  0.00    -0.493 OA
ATOM      8  C   UNL     1     166.765 166.154 170.328  1.00  0.00     0.278 C 
ENDBRANCH   1   7
BRANCH   2   9
ATOM      9  O   UNL     1     163.956 164.508 168.312  1.00  0.00    -0.504 OA
ATOM     10  H   UNL     1     164.100 164.389 169.307  1.00  0.00     0.293 HD
ENDBRANCH   2   9
BRANCH   5  11
ATOM     11  C   UNL     1     167.654 167.142 164.897  1.00  0.00     0.260 C 
ATOM     12  O   UNL     1     168.872 166.821 164.875  1.00  0.00    -0.298 OA
ENDBRANCH   5  11
TORSDOF 3
ENDMDL
MODEL 8
REMARK VINA RESULT:    -3.247      1.885      3.676
REMARK INTER + INTRA:          -3.787
REMARK INTER:                  -3.736
REMARK INTRA:                  -0.051
REMARK UNBOUND:                -0.066
REMARK SMILES COc1cc(C=O)ccc1O
REMARK SMILES IDX 3 1 10 2 9 3 8 4 5 5 4 6 2 7 1 8 11 9 6 11 7 12
REMARK H PARENT 11 10
REMARK Flexibility Score: inf
ROOT
ATOM      1  C   UNL     1     165.235 164.956 166.161  1.00  0.00     0.161 A 
ATOM      2  C   UNL     1     166.026 166.119 166.100  1.00  0.00     0.157 A 
ATOM      3  C   UNL     1     166.435 166.749 167.279  1.00  0.00     0.051 A 
ATOM      4  C   UNL     1     166.066 166.234 168.522  1.00  0.00     0.015 A 
ATOM      5  C   UNL     1     165.279 165.077 168.604  1.00  0.00     0.018 A 
ATOM      6  C   UNL     1     164.866 164.440 167.420  1.00  0.00     0.062 A 
ENDROOT
BRANCH   1   7
ATOM      7  O   UNL     1     164.839 164.344 164.961  1.00  0.00    -0.493 OA
ATOM      8  C   UNL     1     164.180 163.085 164.875  1.00  0.00     0.278 C 
ENDBRANCH   1   7
BRANCH   2   9
ATOM      9  O   UNL     1     166.414 166.663 164.876  1.00  0.00    -0.504 OA
ATOM     10  H   UNL     1     167.355 166.568 164.516  1.00  0.00     0.293 HD
ENDBRANCH   2   9
BRANCH   5  11
ATOM     11  C   UNL     1     164.900 164.548 169.927  1.00  0.00     0.260 C 
ATOM     12  O   UNL     1     163.737 164.119 170.149  1.00  0.00    -0.298 OA
ENDBRANCH   5  11
TORSDOF 3
ENDMDL
MODEL 9
REMARK VINA RESULT:    -3.239      1.117      2.579
REMARK INTER + INTRA:          -3.778
REMARK INTER:                  -3.720
REMARK INTRA:                  -0.058
REMARK UNBOUND:                -0.066
REMARK SMILES COc1cc(C=O)ccc1O
REMARK SMILES IDX 3 1 10 2 9 3 8 4 5 5 4 6 2 7 1 8 11 9 6 11 7 12
REMARK H PARENT 11 10
REMARK Flexibility Score: inf
ROOT
ATOM      1  C   UNL     1     166.833 166.368 167.296  1.00  0.00     0.161 A 
ATOM      2  C   UNL     1     167.309 166.736 166.024  1.00  0.00     0.157 A 
ATOM      3  C   UNL     1     166.619 166.337 164.875  1.00  0.00     0.051 A 
ATOM      4  C   UNL     1     165.456 165.572 164.978  1.00  0.00     0.015 A 
ATOM      5  C   UNL     1     164.965 165.196 166.236  1.00  0.00     0.018 A 
ATOM      6  C   UNL     1     165.657 165.596 167.393  1.00  0.00     0.062 A 
ENDROOT
BRANCH   1   7
ATOM      7  O   UNL     1     167.546 166.784 168.431  1.00  0.00    -0.493 OA
ATOM      8  C   UNL     1     167.128 166.561 169.774  1.00  0.00     0.278 C 
ENDBRANCH   1   7
BRANCH   2   9
ATOM      9  O   UNL     1     168.468 167.499 165.881  1.00  0.00    -0.504 OA
ATOM     10  H   UNL     1     168.444 168.469 165.591  1.00  0.00     0.293 HD
ENDBRANCH   2   9
BRANCH   5  11
ATOM     11  C   UNL     1     163.735 164.388 166.323  1.00  0.00     0.260 C 
ATOM     12  O   UNL     1     163.114 164.031 165.287  1.00  0.00    -0.298 OA
ENDBRANCH   5  11
TORSDOF 3
ENDMDL
