MODEL 1
REMARK VINA RESULT:    -2.598      0.000      0.000
REMARK INTER + INTRA:         -12.202
REMARK INTER:                  -6.852
REMARK INTRA:                  -5.350
REMARK UNBOUND:                -5.350
REMARK SMILES CCCCCCCCCCCCCCCCCCCCCCCCCCCCCC(=O)[O-]
REMARK SMILES IDX 16 1 17 2 18 3 19 4 20 5 21 6 22 7 23 8 24 9 25 10 26 11
REMARK SMILES IDX 27 12 28 13 29 14 30 15 31 16 32 17 15 18 14 19 13 20 12 21
REMARK SMILES IDX 11 22 10 23 9 24 8 25 7 26 6 27 5 28 4 29 3 30 2 31 1 32
REMARK H PARENT
REMARK Flexibility Score: inf
ROOT
ATOM      1  C   UNL     1      54.129 -34.084  24.687  1.00  0.00     0.000 C 
ENDROOT
BRANCH   1   2
ATOM      2  C   UNL     1      54.451 -35.473  24.090  1.00  0.00     0.000 C 
BRANCH   2   3
ATOM      3  C   UNL     1      54.302 -35.555  22.559  1.00  0.00     0.000 C 
BRANCH   3   4
ATOM      4  C   UNL     1      55.598 -35.986  21.853  1.00  0.00     0.000 C 
BRANCH   4   5
ATOM      5  C   UNL     1      56.593 -36.682  22.798  1.00  0.00     0.000 C 
BRANCH   5   6
ATOM      6  C   UNL     1      58.081 -36.525  22.428  1.00  0.00     0.000 C 
BRANCH   6   7
ATOM      7  C   UNL     1      58.830 -35.455  23.250  1.00  0.00     0.000 C 
BRANCH   7   8
ATOM      8  C   UNL     1      58.513 -35.537  24.756  1.00  0.00     0.000 C 
BRANCH   8   9
ATOM      9  C   UNL     1      57.806 -34.280  25.283  1.00  0.00     0.000 C 
BRANCH   9  10
ATOM     10  C   UNL     1      57.796 -33.129  24.269  1.00  0.00     0.000 C 
BRANCH  10  11
ATOM     11  C   UNL     1      58.042 -31.785  24.970  1.00  0.00     0.000 C 
BRANCH  11  12
ATOM     12  C   UNL     1      59.377 -31.140  24.566  1.00  0.00     0.000 C 
BRANCH  12  13
ATOM     13  C   UNL     1      60.008 -31.823  23.339  1.00  0.00     0.006 C 
BRANCH  13  14
ATOM     14  C   UNL     1      61.243 -31.070  22.826  1.00  0.00     0.053 C 
BRANCH  14  15
ATOM     15  C   UNL     1      60.893 -30.016  21.818  1.00  0.00     0.041 C 
ATOM     16  O   UNL     1      61.735 -29.656  20.952  1.00  0.00    -0.550 OA
ATOM     17  O   UNL     1      59.621 -29.456  21.815  1.00  0.00    -0.550 OA
ENDBRANCH  14  15
ENDBRANCH  13  14
ENDBRANCH  12  13
ENDBRANCH  11  12
ENDBRANCH  10  11
ENDBRANCH   9  10
ENDBRANCH   8   9
ENDBRANCH   7   8
ENDBRANCH   6   7
ENDBRANCH   5   6
ENDBRANCH   4   5
ENDBRANCH   3   4
ENDBRANCH   2   3
ENDBRANCH   1   2
BRANCH   1  18
ATOM     18  C   UNL     1      54.193 -32.949  23.649  1.00  0.00     0.000 C 
BRANCH  18  19
ATOM     19  C   UNL     1      54.410 -31.572  24.297  1.00  0.00     0.000 C 
BRANCH  19  20
ATOM     20  C   UNL     1      53.903 -31.507  25.746  1.00  0.00     0.000 C 
BRANCH  20  21
ATOM     21  C   UNL     1      54.042 -30.084  26.308  1.00  0.00     0.000 C 
BRANCH  21  22
ATOM     22  C   UNL     1      52.739 -29.275  26.201  1.00  0.00     0.000 C 
BRANCH  22  23
ATOM     23  C   UNL     1      52.889 -28.031  25.307  1.00  0.00     0.000 C 
BRANCH  23  24
ATOM     24  C   UNL     1      52.379 -28.272  23.877  1.00  0.00    -0.000 C 
BRANCH  24  25
ATOM     25  C   UNL     1      50.851 -28.453  23.812  1.00  0.00    -0.000 C 
BRANCH  25  26
ATOM     26  C   UNL     1      50.423 -29.511  22.783  1.00  0.00    -0.000 C 
BRANCH  26  27
ATOM     27  C   UNL     1      50.993 -30.907  23.096  1.00  0.00    -0.000 C 
BRANCH  27  28
ATOM     28  C   UNL     1      50.432 -31.500  24.408  1.00  0.00    -0.000 C 
BRANCH  28  29
ATOM     29  C   UNL     1      50.499 -33.036  24.471  1.00  0.00    -0.000 C 
BRANCH  29  30
ATOM     30  C   UNL     1      50.627 -33.732  23.103  1.00  0.00    -0.000 C 
BRANCH  30  31
ATOM     31  C   UNL     1      50.649 -35.275  23.185  1.00  0.00    -0.003 C 
ATOM     32  C   UNL     1      50.776 -35.797  24.615  1.00  0.00     0.004 C 
ENDBRANCH  30  31
ENDBRANCH  29  30
ENDBRANCH  28  29
ENDBRANCH  27  28
ENDBRANCH  26  27
ENDBRANCH  25  26
ENDBRANCH  24  25
ENDBRANCH  23  24
ENDBRANCH  22  23
ENDBRANCH  21  22
ENDBRANCH  20  21
ENDBRANCH  19  20
ENDBRANCH  18  19
ENDBRANCH   1  18
TORSDOF 28
ENDMDL
MODEL 2
REMARK VINA RESULT:    -2.544      2.386      6.488
REMARK INTER + INTRA:         -12.058
REMARK INTER:                  -5.857
REMARK INTRA:                  -6.201
REMARK UNBOUND:                -5.350
REMARK SMILES CCCCCCCCCCCCCCCCCCCCCCCCCCCCCC(=O)[O-]
REMARK SMILES IDX 16 1 17 2 18 3 19 4 20 5 21 6 22 7 23 8 24 9 25 10 26 11
REMARK SMILES IDX 27 12 28 13 29 14 30 15 31 16 32 17 15 18 14 19 13 20 12 21
REMARK SMILES IDX 11 22 10 23 9 24 8 25 7 26 6 27 5 28 4 29 3 30 2 31 1 32
REMARK H PARENT
REMARK Flexibility Score: inf
ROOT
ATOM      1  C   UNL     1      58.980 -35.590  23.578  1.00  0.00     0.000 C 
ENDROOT
BRANCH   1   2
ATOM      2  C   UNL     1      58.145 -36.311  22.496  1.00  0.00     0.000 C 
BRANCH   2   3
ATOM      3  C   UNL     1      56.681 -36.573  22.897  1.00  0.00     0.000 C 
BRANCH   3   4
ATOM      4  C   UNL     1      55.674 -35.822  22.010  1.00  0.00     0.000 C 
BRANCH   4   5
ATOM      5  C   UNL     1      54.933 -34.701  22.760  1.00  0.00     0.000 C 
BRANCH   5   6
ATOM      6  C   UNL     1      54.541 -35.022  24.216  1.00  0.00     0.000 C 
BRANCH   6   7
ATOM      7  C   UNL     1      53.022 -34.987  24.485  1.00  0.00     0.000 C 
BRANCH   7   8
ATOM      8  C   UNL     1      52.188 -35.177  23.204  1.00  0.00     0.000 C 
BRANCH   8   9
ATOM      9  C   UNL     1      50.935 -34.290  23.172  1.00  0.00     0.000 C 
BRANCH   9  10
ATOM     10  C   UNL     1      50.882 -33.289  24.334  1.00  0.00     0.000 C 
BRANCH  10  11
ATOM     11  C   UNL     1      50.947 -31.847  23.811  1.00  0.00     0.000 C 
BRANCH  11  12
ATOM     12  C   UNL     1      52.347 -31.459  23.311  1.00  0.00     0.000 C 
BRANCH  12  13
ATOM     13  C   UNL     1      53.338 -31.231  24.466  1.00  0.00     0.006 C 
BRANCH  13  14
ATOM     14  C   UNL     1      53.004 -29.972  25.279  1.00  0.00     0.053 C 
BRANCH  14  15
ATOM     15  C   UNL     1      53.416 -28.713  24.576  1.00  0.00     0.041 C 
ATOM     16  O   UNL     1      54.636 -28.461  24.381  1.00  0.00    -0.550 OA
ATOM     17  O   UNL     1      52.449 -27.833  24.106  1.00  0.00    -0.550 OA
ENDBRANCH  14  15
ENDBRANCH  13  14
ENDBRANCH  12  13
ENDBRANCH  11  12
ENDBRANCH  10  11
ENDBRANCH   9  10
ENDBRANCH   8   9
ENDBRANCH   7   8
ENDBRANCH   6   7
ENDBRANCH   5   6
ENDBRANCH   4   5
ENDBRANCH   3   4
ENDBRANCH   2   3
ENDBRANCH   1   2
BRANCH   1  18
ATOM     18  C   UNL     1      58.243 -35.454  24.923  1.00  0.00     0.000 C 
BRANCH  18  19
ATOM     19  C   UNL     1      58.202 -34.001  25.425  1.00  0.00     0.000 C 
BRANCH  19  20
ATOM     20  C   UNL     1      58.230 -32.973  24.285  1.00  0.00     0.000 C 
BRANCH  20  21
ATOM     21  C   UNL     1      56.918 -32.175  24.239  1.00  0.00     0.000 C 
BRANCH  21  22
ATOM     22  C   UNL     1      57.098 -30.771  23.639  1.00  0.00     0.000 C 
BRANCH  22  23
ATOM     23  C   UNL     1      58.518 -30.544  23.092  1.00  0.00     0.000 C 
BRANCH  23  24
ATOM     24  C   UNL     1      59.249 -29.399  23.813  1.00  0.00    -0.000 C 
BRANCH  24  25
ATOM     25  C   UNL     1      58.287 -28.321  24.346  1.00  0.00    -0.000 C 
BRANCH  25  26
ATOM     26  C   UNL     1      58.340 -28.186  25.876  1.00  0.00    -0.000 C 
BRANCH  26  27
ATOM     27  C   UNL     1      59.024 -29.387  26.555  1.00  0.00    -0.000 C 
BRANCH  27  28
ATOM     28  C   UNL     1      58.021 -30.314  27.279  1.00  0.00    -0.000 C 
BRANCH  28  29
ATOM     29  C   UNL     1      56.588 -29.756  27.329  1.00  0.00    -0.000 C 
BRANCH  29  30
ATOM     30  C   UNL     1      55.515 -30.775  27.758  1.00  0.00    -0.000 C 
BRANCH  30  31
ATOM     31  C   UNL     1      56.023 -32.234  27.809  1.00  0.00    -0.003 C 
ATOM     32  C   UNL     1      54.968 -33.251  27.374  1.00  0.00     0.004 C 
ENDBRANCH  30  31
ENDBRANCH  29  30
ENDBRANCH  28  29
ENDBRANCH  27  28
ENDBRANCH  26  27
ENDBRANCH  25  26
ENDBRANCH  24  25
ENDBRANCH  23  24
ENDBRANCH  22  23
ENDBRANCH  21  22
ENDBRANCH  20  21
ENDBRANCH  19  20
ENDBRANCH  18  19
ENDBRANCH   1  18
TORSDOF 28
ENDMDL
MODEL 3
REMARK VINA RESULT:    -2.526      3.192      7.473
REMARK INTER + INTRA:         -12.011
REMARK INTER:                  -5.808
REMARK INTRA:                  -6.204
REMARK UNBOUND:                -5.350
REMARK SMILES CCCCCCCCCCCCCCCCCCCCCCCCCCCCCC(=O)[O-]
REMARK SMILES IDX 16 1 17 2 18 3 19 4 20 5 21 6 22 7 23 8 24 9 25 10 26 11
REMARK SMILES IDX 27 12 28 13 29 14 30 15 31 16 32 17 15 18 14 19 13 20 12 21
REMARK SMILES IDX 11 22 10 23 9 24 8 25 7 26 6 27 5 28 4 29 3 30 2 31 1 32
REMARK H PARENT
REMARK Flexibility Score: inf
ROOT
ATOM      1  C   UNL     1      57.858 -36.146  25.416  1.00  0.00     0.000 C 
ENDROOT
BRANCH   1   2
ATOM      2  C   UNL     1      56.838 -36.110  26.577  1.00  0.00     0.000 C 
BRANCH   2   3
ATOM      3  C   UNL     1      55.531 -36.875  26.294  1.00  0.00     0.000 C 
BRANCH   3   4
ATOM      4  C   UNL     1      54.274 -36.061  26.643  1.00  0.00     0.000 C 
BRANCH   4   5
ATOM      5  C   UNL     1      52.972 -36.742  26.186  1.00  0.00     0.000 C 
BRANCH   5   6
ATOM      6  C   UNL     1      52.403 -36.251  24.840  1.00  0.00     0.000 C 
BRANCH   6   7
ATOM      7  C   UNL     1      51.727 -34.866  24.905  1.00  0.00     0.000 C 
BRANCH   7   8
ATOM      8  C   UNL     1      51.525 -34.239  23.512  1.00  0.00     0.000 C 
BRANCH   8   9
ATOM      9  C   UNL     1      50.145 -33.586  23.348  1.00  0.00     0.000 C 
BRANCH   9  10
ATOM     10  C   UNL     1      50.218 -32.181  22.734  1.00  0.00     0.000 C 
BRANCH  10  11
ATOM     11  C   UNL     1      51.558 -31.511  23.068  1.00  0.00     0.000 C 
BRANCH  11  12
ATOM     12  C   UNL     1      51.458 -29.978  23.125  1.00  0.00     0.000 C 
BRANCH  12  13
ATOM     13  C   UNL     1      50.938 -29.477  24.484  1.00  0.00     0.006 C 
BRANCH  13  14
ATOM     14  C   UNL     1      51.778 -30.001  25.657  1.00  0.00     0.053 C 
BRANCH  14  15
ATOM     15  C   UNL     1      50.957 -30.767  26.651  1.00  0.00     0.041 C 
ATOM     16  O   UNL     1      49.996 -30.212  27.247  1.00  0.00    -0.550 OA
ATOM     17  O   UNL     1      51.234 -32.107  26.893  1.00  0.00    -0.550 OA
ENDBRANCH  14  15
ENDBRANCH  13  14
ENDBRANCH  12  13
ENDBRANCH  11  12
ENDBRANCH  10  11
ENDBRANCH   9  10
ENDBRANCH   8   9
ENDBRANCH   7   8
ENDBRANCH   6   7
ENDBRANCH   5   6
ENDBRANCH   4   5
ENDBRANCH   3   4
ENDBRANCH   2   3
ENDBRANCH   1   2
BRANCH   1  18
ATOM     18  C   UNL     1      57.441 -37.087  24.271  1.00  0.00     0.000 C 
BRANCH  18  19
ATOM     19  C   UNL     1      57.172 -36.333  22.959  1.00  0.00     0.000 C 
BRANCH  19  20
ATOM     20  C   UNL     1      55.732 -36.510  22.452  1.00  0.00     0.000 C 
BRANCH  20  21
ATOM     21  C   UNL     1      55.026 -35.151  22.333  1.00  0.00     0.000 C 
BRANCH  21  22
ATOM     22  C   UNL     1      55.255 -34.255  23.562  1.00  0.00     0.000 C 
BRANCH  22  23
ATOM     23  C   UNL     1      55.079 -32.760  23.241  1.00  0.00     0.000 C 
BRANCH  23  24
ATOM     24  C   UNL     1      54.795 -31.919  24.496  1.00  0.00    -0.000 C 
BRANCH  24  25
ATOM     25  C   UNL     1      54.570 -32.782  25.752  1.00  0.00    -0.000 C 
BRANCH  25  26
ATOM     26  C   UNL     1      55.023 -32.079  27.042  1.00  0.00    -0.000 C 
BRANCH  26  27
ATOM     27  C   UNL     1      56.439 -32.496  27.479  1.00  0.00    -0.000 C 
BRANCH  27  28
ATOM     28  C   UNL     1      57.492 -31.396  27.218  1.00  0.00    -0.000 C 
BRANCH  28  29
ATOM     29  C   UNL     1      58.694 -31.874  26.384  1.00  0.00    -0.000 C 
BRANCH  29  30
ATOM     30  C   UNL     1      58.323 -32.672  25.119  1.00  0.00    -0.000 C 
BRANCH  30  31
ATOM     31  C   UNL     1      58.864 -32.055  23.809  1.00  0.00    -0.003 C 
ATOM     32  C   UNL     1      58.198 -30.726  23.454  1.00  0.00     0.004 C 
ENDBRANCH  30  31
ENDBRANCH  29  30
ENDBRANCH  28  29
ENDBRANCH  27  28
ENDBRANCH  26  27
ENDBRANCH  25  26
ENDBRANCH  24  25
ENDBRANCH  23  24
ENDBRANCH  22  23
ENDBRANCH  21  22
ENDBRANCH  20  21
ENDBRANCH  19  20
ENDBRANCH  18  19
ENDBRANCH   1  18
TORSDOF 28
ENDMDL
MODEL 4
REMARK VINA RESULT:    -2.526      2.991      7.759
REMARK INTER + INTRA:         -12.011
REMARK INTER:                  -5.548
REMARK INTRA:                  -6.464
REMARK UNBOUND:                -5.350
REMARK SMILES CCCCCCCCCCCCCCCCCCCCCCCCCCCCCC(=O)[O-]
REMARK SMILES IDX 16 1 17 2 18 3 19 4 20 5 21 6 22 7 23 8 24 9 25 10 26 11
REMARK SMILES IDX 27 12 28 13 29 14 30 15 31 16 32 17 15 18 14 19 13 20 12 21
REMARK SMILES IDX 11 22 10 23 9 24 8 25 7 26 6 27 5 28 4 29 3 30 2 31 1 32
REMARK H PARENT
REMARK Flexibility Score: inf
ROOT
ATOM      1  C   UNL     1      53.523 -31.763  24.603  1.00  0.00     0.000 C 
ENDROOT
BRANCH   1   2
ATOM      2  C   UNL     1      52.022 -31.411  24.482  1.00  0.00     0.000 C 
BRANCH   2   3
ATOM      3  C   UNL     1      51.546 -31.159  23.039  1.00  0.00     0.000 C 
BRANCH   3   4
ATOM      4  C   UNL     1      50.286 -31.963  22.676  1.00  0.00     0.000 C 
BRANCH   4   5
ATOM      5  C   UNL     1      50.107 -33.222  23.542  1.00  0.00     0.000 C 
BRANCH   5   6
ATOM      6  C   UNL     1      50.652 -34.530  22.933  1.00  0.00     0.000 C 
BRANCH   6   7
ATOM      7  C   UNL     1      50.869 -35.664  23.957  1.00  0.00     0.000 C 
BRANCH   7   8
ATOM      8  C   UNL     1      50.308 -35.320  25.350  1.00  0.00     0.000 C 
BRANCH   8   9
ATOM      9  C   UNL     1      51.399 -35.238  26.427  1.00  0.00     0.000 C 
BRANCH   9  10
ATOM     10  C   UNL     1      51.446 -33.874  27.129  1.00  0.00     0.000 C 
BRANCH  10  11
ATOM     11  C   UNL     1      52.791 -33.675  27.841  1.00  0.00     0.000 C 
BRANCH  11  12
ATOM     12  C   UNL     1      52.843 -32.377  28.662  1.00  0.00     0.000 C 
BRANCH  12  13
ATOM     13  C   UNL     1      54.007 -31.464  28.237  1.00  0.00     0.006 C 
BRANCH  13  14
ATOM     14  C   UNL     1      55.275 -32.259  27.894  1.00  0.00     0.053 C 
BRANCH  14  15
ATOM     15  C   UNL     1      56.116 -32.544  29.103  1.00  0.00     0.041 C 
ATOM     16  O   UNL     1      56.736 -31.611  29.682  1.00  0.00    -0.550 OA
ATOM     17  O   UNL     1      56.187 -33.835  29.610  1.00  0.00    -0.550 OA
ENDBRANCH  14  15
ENDBRANCH  13  14
ENDBRANCH  12  13
ENDBRANCH  11  12
ENDBRANCH  10  11
ENDBRANCH   9  10
ENDBRANCH   8   9
ENDBRANCH   7   8
ENDBRANCH   6   7
ENDBRANCH   5   6
ENDBRANCH   4   5
ENDBRANCH   3   4
ENDBRANCH   2   3
ENDBRANCH   1   2
BRANCH   1  18
ATOM     18  C   UNL     1      53.909 -33.042  23.836  1.00  0.00     0.000 C 
BRANCH  18  19
ATOM     19  C   UNL     1      54.476 -34.132  24.760  1.00  0.00     0.000 C 
BRANCH  19  20
ATOM     20  C   UNL     1      54.520 -35.516  24.095  1.00  0.00     0.000 C 
BRANCH  20  21
ATOM     21  C   UNL     1      54.292 -35.399  22.580  1.00  0.00     0.000 C 
BRANCH  21  22
ATOM     22  C   UNL     1      55.503 -35.875  21.760  1.00  0.00     0.000 C 
BRANCH  22  23
ATOM     23  C   UNL     1      56.509 -36.674  22.607  1.00  0.00     0.000 C 
BRANCH  23  24
ATOM     24  C   UNL     1      57.951 -36.168  22.437  1.00  0.00    -0.000 C 
BRANCH  24  25
ATOM     25  C   UNL     1      58.765 -36.241  23.743  1.00  0.00    -0.000 C 
BRANCH  25  26
ATOM     26  C   UNL     1      57.982 -36.894  24.893  1.00  0.00    -0.000 C 
BRANCH  26  27
ATOM     27  C   UNL     1      58.215 -36.193  26.243  1.00  0.00    -0.000 C 
BRANCH  27  28
ATOM     28  C   UNL     1      57.572 -34.789  26.305  1.00  0.00    -0.000 C 
BRANCH  28  29
ATOM     29  C   UNL     1      58.592 -33.648  26.473  1.00  0.00    -0.000 C 
BRANCH  29  30
ATOM     30  C   UNL     1      58.852 -32.823  25.198  1.00  0.00    -0.000 C 
BRANCH  30  31
ATOM     31  C   UNL     1      57.645 -32.761  24.236  1.00  0.00    -0.003 C 
ATOM     32  C   UNL     1      57.209 -31.332  23.913  1.00  0.00     0.004 C 
ENDBRANCH  30  31
ENDBRANCH  29  30
ENDBRANCH  28  29
ENDBRANCH  27  28
ENDBRANCH  26  27
ENDBRANCH  25  26
ENDBRANCH  24  25
ENDBRANCH  23  24
ENDBRANCH  22  23
ENDBRANCH  21  22
ENDBRANCH  20  21
ENDBRANCH  19  20
ENDBRANCH  18  19
ENDBRANCH   1  18
TORSDOF 28
ENDMDL
MODEL 5
REMARK VINA RESULT:    -2.514      2.769      7.124
REMARK INTER + INTRA:         -11.981
REMARK INTER:                  -5.630
REMARK INTRA:                  -6.350
REMARK UNBOUND:                -5.350
REMARK SMILES CCCCCCCCCCCCCCCCCCCCCCCCCCCCCC(=O)[O-]
REMARK SMILES IDX 16 1 17 2 18 3 19 4 20 5 21 6 22 7 23 8 24 9 25 10 26 11
REMARK SMILES IDX 27 12 28 13 29 14 30 15 31 16 32 17 15 18 14 19 13 20 12 21
REMARK SMILES IDX 11 22 10 23 9 24 8 25 7 26 6 27 5 28 4 29 3 30 2 31 1 32
REMARK H PARENT
REMARK Flexibility Score: inf
ROOT
ATOM      1  C   UNL     1      57.152 -36.665  25.117  1.00  0.00     0.000 C 
ENDROOT
BRANCH   1   2
ATOM      2  C   UNL     1      56.915 -35.528  26.136  1.00  0.00     0.000 C 
BRANCH   2   3
ATOM      3  C   UNL     1      55.702 -35.747  27.060  1.00  0.00     0.000 C 
BRANCH   3   4
ATOM      4  C   UNL     1      54.860 -36.971  26.661  1.00  0.00     0.000 C 
BRANCH   4   5
ATOM      5  C   UNL     1      53.436 -36.599  26.212  1.00  0.00     0.000 C 
BRANCH   5   6
ATOM      6  C   UNL     1      52.961 -35.188  26.613  1.00  0.00     0.000 C 
BRANCH   6   7
ATOM      7  C   UNL     1      51.893 -34.589  25.674  1.00  0.00     0.000 C 
BRANCH   7   8
ATOM      8  C   UNL     1      51.358 -33.233  26.174  1.00  0.00     0.000 C 
BRANCH   8   9
ATOM      9  C   UNL     1      50.510 -32.504  25.123  1.00  0.00     0.000 C 
BRANCH   9  10
ATOM     10  C   UNL     1      51.020 -32.716  23.691  1.00  0.00     0.000 C 
BRANCH  10  11
ATOM     11  C   UNL     1      50.575 -31.563  22.779  1.00  0.00     0.000 C 
BRANCH  11  12
ATOM     12  C   UNL     1      50.108 -30.330  23.568  1.00  0.00     0.000 C 
BRANCH  12  13
ATOM     13  C   UNL     1      50.781 -29.035  23.079  1.00  0.00     0.006 C 
BRANCH  13  14
ATOM     14  C   UNL     1      52.080 -28.733  23.840  1.00  0.00     0.053 C 
BRANCH  14  15
ATOM     15  C   UNL     1      52.095 -27.351  24.422  1.00  0.00     0.041 C 
ATOM     16  O   UNL     1      52.759 -27.105  25.464  1.00  0.00    -0.550 OA
ATOM     17  O   UNL     1      51.400 -26.326  23.791  1.00  0.00    -0.550 OA
ENDBRANCH  14  15
ENDBRANCH  13  14
ENDBRANCH  12  13
ENDBRANCH  11  12
ENDBRANCH  10  11
ENDBRANCH   9  10
ENDBRANCH   8   9
ENDBRANCH   7   8
ENDBRANCH   6   7
ENDBRANCH   5   6
ENDBRANCH   4   5
ENDBRANCH   3   4
ENDBRANCH   2   3
ENDBRANCH   1   2
BRANCH   1  18
ATOM     18  C   UNL     1      57.392 -36.155  23.684  1.00  0.00     0.000 C 
BRANCH  18  19
ATOM     19  C   UNL     1      56.403 -36.756  22.673  1.00  0.00     0.000 C 
BRANCH  19  20
ATOM     20  C   UNL     1      55.509 -35.698  22.009  1.00  0.00     0.000 C 
BRANCH  20  21
ATOM     21  C   UNL     1      54.585 -35.040  23.045  1.00  0.00     0.000 C 
BRANCH  21  22
ATOM     22  C   UNL     1      54.701 -33.506  23.053  1.00  0.00     0.000 C 
BRANCH  22  23
ATOM     23  C   UNL     1      54.925 -32.941  24.467  1.00  0.00     0.000 C 
BRANCH  23  24
ATOM     24  C   UNL     1      54.323 -31.537  24.639  1.00  0.00    -0.000 C 
BRANCH  24  25
ATOM     25  C   UNL     1      54.453 -31.006  26.079  1.00  0.00    -0.000 C 
BRANCH  25  26
ATOM     26  C   UNL     1      54.942 -32.080  27.064  1.00  0.00    -0.000 C 
BRANCH  26  27
ATOM     27  C   UNL     1      56.296 -31.724  27.705  1.00  0.00    -0.000 C 
BRANCH  27  28
ATOM     28  C   UNL     1      56.985 -30.524  27.017  1.00  0.00    -0.000 C 
BRANCH  28  29
ATOM     29  C   UNL     1      58.325 -30.879  26.348  1.00  0.00    -0.000 C 
BRANCH  29  30
ATOM     30  C   UNL     1      58.312 -32.187  25.534  1.00  0.00    -0.000 C 
BRANCH  30  31
ATOM     31  C   UNL     1      58.501 -31.980  24.014  1.00  0.00    -0.003 C 
ATOM     32  C   UNL     1      57.782 -30.740  23.484  1.00  0.00     0.004 C 
ENDBRANCH  30  31
ENDBRANCH  29  30
ENDBRANCH  28  29
ENDBRANCH  27  28
ENDBRANCH  26  27
ENDBRANCH  25  26
ENDBRANCH  24  25
ENDBRANCH  23  24
ENDBRANCH  22  23
ENDBRANCH  21  22
ENDBRANCH  20  21
ENDBRANCH  19  20
ENDBRANCH  18  19
ENDBRANCH   1  18
TORSDOF 28
ENDMDL
MODEL 6
REMARK VINA RESULT:    -2.511      2.155      5.416
REMARK INTER + INTRA:         -11.972
REMARK INTER:                  -6.635
REMARK INTRA:                  -5.337
REMARK UNBOUND:                -5.350
REMARK SMILES CCCCCCCCCCCCCCCCCCCCCCCCCCCCCC(=O)[O-]
REMARK SMILES IDX 16 1 17 2 18 3 19 4 20 5 21 6 22 7 23 8 24 9 25 10 26 11
REMARK SMILES IDX 27 12 28 13 29 14 30 15 31 16 32 17 15 18 14 19 13 20 12 21
REMARK SMILES IDX 11 22 10 23 9 24 8 25 7 26 6 27 5 28 4 29 3 30 2 31 1 32
REMARK H PARENT
REMARK Flexibility Score: inf
ROOT
ATOM      1  C   UNL     1      54.293 -37.068  26.495  1.00  0.00     0.000 C 
ENDROOT
BRANCH   1   2
ATOM      2  C   UNL     1      55.728 -36.592  26.816  1.00  0.00     0.000 C 
BRANCH   2   3
ATOM      3  C   UNL     1      56.760 -36.906  25.717  1.00  0.00     0.000 C 
BRANCH   3   4
ATOM      4  C   UNL     1      57.450 -35.647  25.166  1.00  0.00     0.000 C 
BRANCH   4   5
ATOM      5  C   UNL     1      57.365 -35.538  23.634  1.00  0.00     0.000 C 
BRANCH   5   6
ATOM      6  C   UNL     1      56.190 -36.289  22.978  1.00  0.00     0.000 C 
BRANCH   6   7
ATOM      7  C   UNL     1      54.895 -35.459  22.857  1.00  0.00     0.000 C 
BRANCH   7   8
ATOM      8  C   UNL     1      55.156 -33.942  22.909  1.00  0.00     0.000 C 
BRANCH   8   9
ATOM      9  C   UNL     1      54.140 -33.193  23.783  1.00  0.00     0.000 C 
BRANCH   9  10
ATOM     10  C   UNL     1      54.363 -33.416  25.285  1.00  0.00     0.000 C 
BRANCH  10  11
ATOM     11  C   UNL     1      53.493 -32.458  26.111  1.00  0.00     0.000 C 
BRANCH  11  12
ATOM     12  C   UNL     1      53.392 -31.058  25.485  1.00  0.00     0.000 C 
BRANCH  12  13
ATOM     13  C   UNL     1      54.573 -30.154  25.882  1.00  0.00     0.006 C 
BRANCH  13  14
ATOM     14  C   UNL     1      55.439 -29.766  24.675  1.00  0.00     0.053 C 
BRANCH  14  15
ATOM     15  C   UNL     1      56.669 -30.617  24.557  1.00  0.00     0.041 C 
ATOM     16  O   UNL     1      57.227 -30.780  23.439  1.00  0.00    -0.550 OA
ATOM     17  O   UNL     1      57.218 -31.204  25.691  1.00  0.00    -0.550 OA
ENDBRANCH  14  15
ENDBRANCH  13  14
ENDBRANCH  12  13
ENDBRANCH  11  12
ENDBRANCH  10  11
ENDBRANCH   9  10
ENDBRANCH   8   9
ENDBRANCH   7   8
ENDBRANCH   6   7
ENDBRANCH   5   6
ENDBRANCH   4   5
ENDBRANCH   3   4
ENDBRANCH   2   3
ENDBRANCH   1   2
BRANCH   1  18
ATOM     18  C   UNL     1      53.213 -36.326  27.303  1.00  0.00     0.000 C 
BRANCH  18  19
ATOM     19  C   UNL     1      51.943 -36.056  26.479  1.00  0.00     0.000 C 
BRANCH  19  20
ATOM     20  C   UNL     1      52.127 -36.357  24.984  1.00  0.00     0.000 C 
BRANCH  20  21
ATOM     21  C   UNL     1      50.818 -36.117  24.216  1.00  0.00     0.000 C 
BRANCH  21  22
ATOM     22  C   UNL     1      50.892 -34.895  23.285  1.00  0.00     0.000 C 
BRANCH  22  23
ATOM     23  C   UNL     1      50.539 -33.583  24.008  1.00  0.00     0.000 C 
BRANCH  23  24
ATOM     24  C   UNL     1      50.252 -32.433  23.029  1.00  0.00    -0.000 C 
BRANCH  24  25
ATOM     25  C   UNL     1      50.224 -31.056  23.718  1.00  0.00    -0.000 C 
BRANCH  25  26
ATOM     26  C   UNL     1      50.700 -29.923  22.796  1.00  0.00    -0.000 C 
BRANCH  26  27
ATOM     27  C   UNL     1      50.230 -28.536  23.270  1.00  0.00    -0.000 C 
BRANCH  27  28
ATOM     28  C   UNL     1      51.213 -27.881  24.267  1.00  0.00    -0.000 C 
BRANCH  28  29
ATOM     29  C   UNL     1      52.621 -27.650  23.688  1.00  0.00    -0.000 C 
BRANCH  29  30
ATOM     30  C   UNL     1      53.014 -26.170  23.521  1.00  0.00    -0.000 C 
BRANCH  30  31
ATOM     31  C   UNL     1      52.057 -25.185  24.229  1.00  0.00    -0.003 C 
ATOM     32  C   UNL     1      51.175 -24.403  23.256  1.00  0.00     0.004 C 
ENDBRANCH  30  31
ENDBRANCH  29  30
ENDBRANCH  28  29
ENDBRANCH  27  28
ENDBRANCH  26  27
ENDBRANCH  25  26
ENDBRANCH  24  25
ENDBRANCH  23  24
ENDBRANCH  22  23
ENDBRANCH  21  22
ENDBRANCH  20  21
ENDBRANCH  19  20
ENDBRANCH  18  19
ENDBRANCH   1  18
TORSDOF 28
ENDMDL
MODEL 7
REMARK VINA RESULT:    -2.497      2.582      5.308
REMARK INTER + INTRA:         -11.935
REMARK INTER:                  -6.044
REMARK INTRA:                  -5.890
REMARK UNBOUND:                -5.350
REMARK SMILES CCCCCCCCCCCCCCCCCCCCCCCCCCCCCC(=O)[O-]
REMARK SMILES IDX 16 1 17 2 18 3 19 4 20 5 21 6 22 7 23 8 24 9 25 10 26 11
REMARK SMILES IDX 27 12 28 13 29 14 30 15 31 16 32 17 15 18 14 19 13 20 12 21
REMARK SMILES IDX 11 22 10 23 9 24 8 25 7 26 6 27 5 28 4 29 3 30 2 31 1 32
REMARK H PARENT
REMARK Flexibility Score: inf
ROOT
ATOM      1  C   UNL     1      57.093 -31.479  25.122  1.00  0.00     0.000 C 
ENDROOT
BRANCH   1   2
ATOM      2  C   UNL     1      57.633 -32.691  24.329  1.00  0.00     0.000 C 
BRANCH   2   3
ATOM      3  C   UNL     1      58.076 -33.876  25.208  1.00  0.00     0.000 C 
BRANCH   3   4
ATOM      4  C   UNL     1      57.006 -34.298  26.229  1.00  0.00     0.000 C 
BRANCH   4   5
ATOM      5  C   UNL     1      56.796 -35.821  26.283  1.00  0.00     0.000 C 
BRANCH   5   6
ATOM      6  C   UNL     1      55.336 -36.295  26.144  1.00  0.00     0.000 C 
BRANCH   6   7
ATOM      7  C   UNL     1      54.357 -35.202  25.667  1.00  0.00     0.000 C 
BRANCH   7   8
ATOM      8  C   UNL     1      53.416 -35.695  24.551  1.00  0.00     0.000 C 
BRANCH   8   9
ATOM      9  C   UNL     1      53.604 -34.929  23.234  1.00  0.00     0.000 C 
BRANCH   9  10
ATOM     10  C   UNL     1      55.076 -34.823  22.808  1.00  0.00     0.000 C 
BRANCH  10  11
ATOM     11  C   UNL     1      55.511 -36.080  22.042  1.00  0.00     0.000 C 
BRANCH  11  12
ATOM     12  C   UNL     1      56.689 -36.806  22.712  1.00  0.00     0.000 C 
BRANCH  12  13
ATOM     13  C   UNL     1      58.036 -36.118  22.428  1.00  0.00     0.006 C 
BRANCH  13  14
ATOM     14  C   UNL     1      59.189 -37.125  22.308  1.00  0.00     0.053 C 
BRANCH  14  15
ATOM     15  C   UNL     1      60.260 -36.893  23.332  1.00  0.00     0.041 C 
ATOM     16  O   UNL     1      61.450 -36.681  22.973  1.00  0.00    -0.550 OA
ATOM     17  O   UNL     1      59.937 -36.878  24.683  1.00  0.00    -0.550 OA
ENDBRANCH  14  15
ENDBRANCH  13  14
ENDBRANCH  12  13
ENDBRANCH  11  12
ENDBRANCH  10  11
ENDBRANCH   9  10
ENDBRANCH   8   9
ENDBRANCH   7   8
ENDBRANCH   6   7
ENDBRANCH   5   6
ENDBRANCH   4   5
ENDBRANCH   3   4
ENDBRANCH   2   3
ENDBRANCH   1   2
BRANCH   1  18
ATOM     18  C   UNL     1      55.877 -30.811  24.455  1.00  0.00     0.000 C 
BRANCH  18  19
ATOM     19  C   UNL     1      54.585 -31.624  24.642  1.00  0.00     0.000 C 
BRANCH  19  20
ATOM     20  C   UNL     1      53.878 -31.326  25.973  1.00  0.00     0.000 C 
BRANCH  20  21
ATOM     21  C   UNL     1      52.458 -31.910  25.977  1.00  0.00     0.000 C 
BRANCH  21  22
ATOM     22  C   UNL     1      51.900 -32.124  24.560  1.00  0.00     0.000 C 
BRANCH  22  23
ATOM     23  C   UNL     1      50.889 -31.038  24.156  1.00  0.00     0.000 C 
BRANCH  23  24
ATOM     24  C   UNL     1      51.520 -29.945  23.277  1.00  0.00    -0.000 C 
BRANCH  24  25
ATOM     25  C   UNL     1      51.105 -28.525  23.703  1.00  0.00    -0.000 C 
BRANCH  25  26
ATOM     26  C   UNL     1      52.263 -27.518  23.614  1.00  0.00    -0.000 C 
BRANCH  26  27
ATOM     27  C   UNL     1      53.432 -27.873  24.550  1.00  0.00    -0.000 C 
BRANCH  27  28
ATOM     28  C   UNL     1      53.037 -27.820  26.044  1.00  0.00    -0.000 C 
BRANCH  28  29
ATOM     29  C   UNL     1      54.164 -27.319  26.965  1.00  0.00    -0.000 C 
BRANCH  29  30
ATOM     30  C   UNL     1      55.589 -27.622  26.463  1.00  0.00    -0.000 C 
BRANCH  30  31
ATOM     31  C   UNL     1      56.388 -28.570  27.385  1.00  0.00    -0.003 C 
ATOM     32  C   UNL     1      55.503 -29.339  28.366  1.00  0.00     0.004 C 
ENDBRANCH  30  31
ENDBRANCH  29  30
ENDBRANCH  28  29
ENDBRANCH  27  28
ENDBRANCH  26  27
ENDBRANCH  25  26
ENDBRANCH  24  25
ENDBRANCH  23  24
ENDBRANCH  22  23
ENDBRANCH  21  22
ENDBRANCH  20  21
ENDBRANCH  19  20
ENDBRANCH  18  19
ENDBRANCH   1  18
TORSDOF 28
ENDMDL
MODEL 8
REMARK VINA RESULT:    -2.494      2.565      7.086
REMARK INTER + INTRA:         -11.928
REMARK INTER:                  -5.214
REMARK INTRA:                  -6.714
REMARK UNBOUND:                -5.350
REMARK SMILES CCCCCCCCCCCCCCCCCCCCCCCCCCCCCC(=O)[O-]
REMARK SMILES IDX 16 1 17 2 18 3 19 4 20 5 21 6 22 7 23 8 24 9 25 10 26 11
REMARK SMILES IDX 27 12 28 13 29 14 30 15 31 16 32 17 15 18 14 19 13 20 12 21
REMARK SMILES IDX 11 22 10 23 9 24 8 25 7 26 6 27 5 28 4 29 3 30 2 31 1 32
REMARK H PARENT
REMARK Flexibility Score: inf
ROOT
ATOM      1  C   UNL     1      58.014 -32.808  27.402  1.00  0.00     0.000 C 
ENDROOT
BRANCH   1   2
ATOM      2  C   UNL     1      56.906 -33.658  28.065  1.00  0.00     0.000 C 
BRANCH   2   3
ATOM      3  C   UNL     1      56.585 -34.969  27.322  1.00  0.00     0.000 C 
BRANCH   3   4
ATOM      4  C   UNL     1      55.089 -35.323  27.353  1.00  0.00     0.000 C 
BRANCH   4   5
ATOM      5  C   UNL     1      54.740 -36.535  26.472  1.00  0.00     0.000 C 
BRANCH   5   6
ATOM      6  C   UNL     1      53.342 -36.506  25.825  1.00  0.00     0.000 C 
BRANCH   6   7
ATOM      7  C   UNL     1      52.554 -35.204  26.076  1.00  0.00     0.000 C 
BRANCH   7   8
ATOM      8  C   UNL     1      51.354 -35.044  25.123  1.00  0.00     0.000 C 
BRANCH   8   9
ATOM      9  C   UNL     1      51.068 -33.578  24.767  1.00  0.00     0.000 C 
BRANCH   9  10
ATOM     10  C   UNL     1      51.645 -33.171  23.404  1.00  0.00     0.000 C 
BRANCH  10  11
ATOM     11  C   UNL     1      51.590 -31.647  23.225  1.00  0.00     0.000 C 
BRANCH  11  12
ATOM     12  C   UNL     1      51.150 -30.914  24.502  1.00  0.00     0.000 C 
BRANCH  12  13
ATOM     13  C   UNL     1      51.421 -29.401  24.431  1.00  0.00     0.006 C 
BRANCH  13  14
ATOM     14  C   UNL     1      52.848 -29.088  23.958  1.00  0.00     0.053 C 
BRANCH  14  15
ATOM     15  C   UNL     1      53.241 -27.666  24.230  1.00  0.00     0.041 C 
ATOM     16  O   UNL     1      53.488 -26.880  23.276  1.00  0.00    -0.550 OA
ATOM     17  O   UNL     1      53.302 -27.201  25.538  1.00  0.00    -0.550 OA
ENDBRANCH  14  15
ENDBRANCH  13  14
ENDBRANCH  12  13
ENDBRANCH  11  12
ENDBRANCH  10  11
ENDBRANCH   9  10
ENDBRANCH   8   9
ENDBRANCH   7   8
ENDBRANCH   6   7
ENDBRANCH   5   6
ENDBRANCH   4   5
ENDBRANCH   3   4
ENDBRANCH   2   3
ENDBRANCH   1   2
BRANCH   1  18
ATOM     18  C   UNL     1      58.863 -33.600  26.391  1.00  0.00     0.000 C 
BRANCH  18  19
ATOM     19  C   UNL     1      59.105 -32.820  25.089  1.00  0.00     0.000 C 
BRANCH  19  20
ATOM     20  C   UNL     1      59.343 -33.736  23.879  1.00  0.00     0.000 C 
BRANCH  20  21
ATOM     21  C   UNL     1      59.152 -35.210  24.266  1.00  0.00     0.000 C 
BRANCH  21  22
ATOM     22  C   UNL     1      59.344 -36.165  23.077  1.00  0.00     0.000 C 
BRANCH  22  23
ATOM     23  C   UNL     1      58.052 -36.363  22.266  1.00  0.00     0.000 C 
BRANCH  23  24
ATOM     24  C   UNL     1      56.800 -36.398  23.158  1.00  0.00    -0.000 C 
BRANCH  24  25
ATOM     25  C   UNL     1      55.500 -36.146  22.370  1.00  0.00    -0.000 C 
BRANCH  25  26
ATOM     26  C   UNL     1      54.764 -34.879  22.834  1.00  0.00    -0.000 C 
BRANCH  26  27
ATOM     27  C   UNL     1      55.547 -34.095  23.903  1.00  0.00    -0.000 C 
BRANCH  27  28
ATOM     28  C   UNL     1      55.704 -32.599  23.550  1.00  0.00    -0.000 C 
BRANCH  28  29
ATOM     29  C   UNL     1      55.450 -31.653  24.737  1.00  0.00    -0.000 C 
BRANCH  29  30
ATOM     30  C   UNL     1      54.375 -32.137  25.728  1.00  0.00    -0.000 C 
BRANCH  30  31
ATOM     31  C   UNL     1      54.299 -31.303  27.027  1.00  0.00    -0.003 C 
ATOM     32  C   UNL     1      55.217 -30.081  27.009  1.00  0.00     0.004 C 
ENDBRANCH  30  31
ENDBRANCH  29  30
ENDBRANCH  28  29
ENDBRANCH  27  28
ENDBRANCH  26  27
ENDBRANCH  25  26
ENDBRANCH  24  25
ENDBRANCH  23  24
ENDBRANCH  22  23
ENDBRANCH  21  22
ENDBRANCH  20  21
ENDBRANCH  19  20
ENDBRANCH  18  19
ENDBRANCH   1  18
TORSDOF 28
ENDMDL
MODEL 9
REMARK VINA RESULT:    -2.471      2.366      5.779
REMARK INTER + INTRA:         -11.865
REMARK INTER:                  -5.335
REMARK INTRA:                  -6.531
REMARK UNBOUND:                -5.350
REMARK SMILES CCCCCCCCCCCCCCCCCCCCCCCCCCCCCC(=O)[O-]
REMARK SMILES IDX 16 1 17 2 18 3 19 4 20 5 21 6 22 7 23 8 24 9 25 10 26 11
REMARK SMILES IDX 27 12 28 13 29 14 30 15 31 16 32 17 15 18 14 19 13 20 12 21
REMARK SMILES IDX 11 22 10 23 9 24 8 25 7 26 6 27 5 28 4 29 3 30 2 31 1 32
REMARK H PARENT
REMARK Flexibility Score: inf
ROOT
ATOM      1  C   UNL     1      54.123 -32.147  24.246  1.00  0.00     0.000 C 
ENDROOT
BRANCH   1   2
ATOM      2  C   UNL     1      53.565 -31.639  25.595  1.00  0.00     0.000 C 
BRANCH   2   3
ATOM      3  C   UNL     1      53.703 -32.642  26.756  1.00  0.00     0.000 C 
BRANCH   3   4
ATOM      4  C   UNL     1      54.452 -32.058  27.965  1.00  0.00     0.000 C 
BRANCH   4   5
ATOM      5  C   UNL     1      55.480 -30.982  27.572  1.00  0.00     0.000 C 
BRANCH   5   6
ATOM      6  C   UNL     1      56.942 -31.463  27.478  1.00  0.00     0.000 C 
BRANCH   6   7
ATOM      7  C   UNL     1      57.390 -31.854  26.054  1.00  0.00     0.000 C 
BRANCH   7   8
ATOM      8  C   UNL     1      57.340 -30.670  25.070  1.00  0.00     0.000 C 
BRANCH   8   9
ATOM      9  C   UNL     1      57.922 -31.016  23.693  1.00  0.00     0.000 C 
BRANCH   9  10
ATOM     10  C   UNL     1      59.431 -30.752  23.597  1.00  0.00     0.000 C 
BRANCH  10  11
ATOM     11  C   UNL     1      60.169 -31.998  23.086  1.00  0.00     0.000 C 
BRANCH  11  12
ATOM     12  C   UNL     1      59.591 -33.305  23.652  1.00  0.00     0.000 C 
BRANCH  12  13
ATOM     13  C   UNL     1      60.568 -34.009  24.609  1.00  0.00     0.006 C 
BRANCH  13  14
ATOM     14  C   UNL     1      61.167 -35.283  23.995  1.00  0.00     0.053 C 
BRANCH  14  15
ATOM     15  C   UNL     1      62.551 -35.065  23.462  1.00  0.00     0.041 C 
ATOM     16  O   UNL     1      63.161 -33.987  23.695  1.00  0.00    -0.550 OA
ATOM     17  O   UNL     1      63.182 -36.068  22.736  1.00  0.00    -0.550 OA
ENDBRANCH  14  15
ENDBRANCH  13  14
ENDBRANCH  12  13
ENDBRANCH  11  12
ENDBRANCH  10  11
ENDBRANCH   9  10
ENDBRANCH   8   9
ENDBRANCH   7   8
ENDBRANCH   6   7
ENDBRANCH   5   6
ENDBRANCH   4   5
ENDBRANCH   3   4
ENDBRANCH   2   3
ENDBRANCH   1   2
BRANCH   1  18
ATOM     18  C   UNL     1      54.707 -33.570  24.330  1.00  0.00     0.000 C 
BRANCH  18  19
ATOM     19  C   UNL     1      55.089 -34.130  22.949  1.00  0.00     0.000 C 
BRANCH  19  20
ATOM     20  C   UNL     1      54.766 -35.624  22.800  1.00  0.00     0.000 C 
BRANCH  20  21
ATOM     21  C   UNL     1      56.014 -36.410  22.369  1.00  0.00     0.000 C 
BRANCH  21  22
ATOM     22  C   UNL     1      57.262 -36.035  23.186  1.00  0.00     0.000 C 
BRANCH  22  23
ATOM     23  C   UNL     1      57.261 -36.672  24.587  1.00  0.00     0.000 C 
BRANCH  23  24
ATOM     24  C   UNL     1      57.394 -35.627  25.707  1.00  0.00    -0.000 C 
BRANCH  24  25
ATOM     25  C   UNL     1      56.282 -35.744  26.766  1.00  0.00    -0.000 C 
BRANCH  25  26
ATOM     26  C   UNL     1      55.165 -36.714  26.347  1.00  0.00    -0.000 C 
BRANCH  26  27
ATOM     27  C   UNL     1      53.772 -36.249  26.806  1.00  0.00    -0.000 C 
BRANCH  27  28
ATOM     28  C   UNL     1      52.653 -36.648  25.817  1.00  0.00    -0.000 C 
BRANCH  28  29
ATOM     29  C   UNL     1      51.796 -35.462  25.340  1.00  0.00    -0.000 C 
BRANCH  29  30
ATOM     30  C   UNL     1      51.253 -35.595  23.905  1.00  0.00    -0.000 C 
BRANCH  30  31
ATOM     31  C   UNL     1      51.162 -34.254  23.143  1.00  0.00    -0.003 C 
ATOM     32  C   UNL     1      50.541 -33.133  23.975  1.00  0.00     0.004 C 
ENDBRANCH  30  31
ENDBRANCH  29  30
ENDBRANCH  28  29
ENDBRANCH  27  28
ENDBRANCH  26  27
ENDBRANCH  25  26
ENDBRANCH  24  25
ENDBRANCH  23  24
ENDBRANCH  22  23
ENDBRANCH  21  22
ENDBRANCH  20  21
ENDBRANCH  19  20
ENDBRANCH  18  19
ENDBRANCH   1  18
TORSDOF 28
ENDMDL
