MODEL 1
REMARK VINA RESULT:    -7.249      0.000      0.000
REMARK INTER + INTRA:         -14.448
REMARK INTER:                 -11.910
REMARK INTRA:                  -2.538
REMARK UNBOUND:                -2.538
REMARK SMILES C[C@H]1O[C@H](OC[C@H]2O[C@@H](Oc3c(-c4ccc(O)c(O)c4)oc4cc(O)cc(O)c4c3=O)[C@H](O)[C@@H](O)[C@@H]2O)[C@@H](O)[C@@H](O)[C@H]1O
REMARK SMILES IDX 7 1 36 2 34 3 32 4 9 5 8 6 6 7 5 8 4 9 1 10 2 11 42 12 3 13
REMARK SMILES IDX 40 14 38 15 43 16 41 18 39 20 37 22 35 24 10 26 11 27 12 28
REMARK SMILES IDX 30 29 21 30 29 31 31 32 22 33 27 34 23 35 26 36 24 37 13 38
REMARK SMILES IDX 20 39 14 40 18 41 15 42 16 43 19 44 17 46 28 48 25 50 33 52
REMARK H PARENT 43 17 41 19 39 21 37 23 35 25 19 45 17 47 28 49 25 51 33 53
REMARK Flexibility Score: inf
ROOT
ATOM      1  C   UNL     1      -6.300   9.631  -2.853  1.00  0.00     0.180 C 
ATOM      2  C   UNL     1      -7.398  10.076  -3.854  1.00  0.00     0.177 C 
ATOM      3  C   UNL     1      -8.600   9.113  -3.855  1.00  0.00     0.180 C 
ATOM      4  C   UNL     1      -8.208   7.680  -3.431  1.00  0.00     0.214 C 
ATOM      5  C   UNL     1      -6.709   7.400  -3.689  1.00  0.00     0.339 C 
ATOM      6  O   UNL     1      -5.811   8.313  -3.068  1.00  0.00    -0.332 OA
ENDROOT
BRANCH   1   7
ATOM      7  C   UNL     1      -6.690   9.808  -1.375  1.00  0.00     0.198 C 
BRANCH   7   8
ATOM      8  O   UNL     1      -6.511   8.588  -0.680  1.00  0.00    -0.347 OA
BRANCH   8   9
ATOM      9  C   UNL     1      -7.514   8.384   0.311  1.00  0.00     0.281 C 
ATOM     10  C   UNL     1      -8.278   4.881  -0.548  1.00  0.00     0.041 C 
ATOM     11  C   UNL     1      -7.448   6.055  -0.022  1.00  0.00     0.150 C 
ATOM     12  C   UNL     1      -6.876   5.744   1.378  1.00  0.00     0.174 C 
ATOM     13  O   UNL     1      -8.265   7.218  -0.000  1.00  0.00    -0.344 OA
ATOM     14  C   UNL     1      -6.095   6.977   1.884  1.00  0.00     0.179 C 
ATOM     15  C   UNL     1      -6.916   8.279   1.743  1.00  0.00     0.202 C 
BRANCH  12  16
ATOM     16  O   UNL     1      -7.923   5.413   2.260  1.00  0.00    -0.388 OA
ATOM     17  H   UNL     1      -8.326   6.265   2.568  1.00  0.00     0.211 HD
ENDBRANCH  12  16
BRANCH  14  18
ATOM     18  O   UNL     1      -5.614   6.797   3.194  1.00  0.00    -0.387 OA
ATOM     19  H   UNL     1      -6.139   6.073   3.621  1.00  0.00     0.211 HD
ENDBRANCH  14  18
BRANCH  15  20
ATOM     20  O   UNL     1      -7.926   8.370   2.724  1.00  0.00    -0.385 OA
ATOM     21  H   UNL     1      -8.125   9.328   2.888  1.00  0.00     0.211 HD
ENDBRANCH  15  20
ENDBRANCH   8   9
ENDBRANCH   7   8
ENDBRANCH   1   7
BRANCH   2  22
ATOM     22  O   UNL     1      -6.848  10.128  -5.148  1.00  0.00    -0.387 OA
ATOM     23  H   UNL     1      -7.607  10.220  -5.781  1.00  0.00     0.211 HD
ENDBRANCH   2  22
BRANCH   3  24
ATOM     24  O   UNL     1      -9.594   9.604  -2.989  1.00  0.00    -0.387 OA
ATOM     25  H   UNL     1     -10.073  10.324  -3.479  1.00  0.00     0.211 HD
ENDBRANCH   3  24
BRANCH   5  26
ATOM     26  O   UNL     1      -6.391   6.070  -3.261  1.00  0.00    -0.454 OA
BRANCH  26  27
ATOM     27  C   UNL     1      -6.012   5.058  -4.155  1.00  0.00     0.214 A 
ATOM     28  C   UNL     1      -4.740   5.069  -4.761  1.00  0.00     0.180 A 
ATOM     29  C   UNL     1      -6.905   4.026  -4.483  1.00  0.00     0.239 A 
ATOM     30  O   UNL     1      -4.445   4.173  -5.697  1.00  0.00    -0.452 OA
ATOM     31  C   UNL     1      -6.561   3.099  -5.486  1.00  0.00     0.111 A 
ATOM     32  O   UNL     1      -8.005   3.941  -3.872  1.00  0.00    -0.285 OA
ATOM     33  C   UNL     1      -5.285   3.222  -6.087  1.00  0.00     0.146 A 
ATOM     34  C   UNL     1      -7.429   2.068  -5.917  1.00  0.00     0.134 A 
ATOM     35  C   UNL     1      -4.895   2.339  -7.097  1.00  0.00     0.094 A 
ATOM     36  C   UNL     1      -7.016   1.190  -6.931  1.00  0.00     0.093 A 
ATOM     37  C   UNL     1      -5.756   1.326  -7.522  1.00  0.00     0.123 A 
BRANCH  28  38
ATOM     38  C   UNL     1      -3.712   6.069  -4.406  1.00  0.00     0.025 A 
ATOM     39  C   UNL     1      -3.073   5.992  -3.158  1.00  0.00     0.062 A 
ATOM     40  C   UNL     1      -3.384   7.120  -5.280  1.00  0.00     0.016 A 
ATOM     41  C   UNL     1      -2.091   6.922  -2.800  1.00  0.00     0.158 A 
ATOM     42  C   UNL     1      -2.406   8.051  -4.925  1.00  0.00     0.051 A 
ATOM     43  C   UNL     1      -1.752   7.955  -3.689  1.00  0.00     0.157 A 
BRANCH  41  44
ATOM     44  O   UNL     1      -1.464   6.801  -1.561  1.00  0.00    -0.504 OA
ATOM     45  H   UNL     1      -1.938   6.414  -0.754  1.00  0.00     0.293 HD
ENDBRANCH  41  44
BRANCH  43  46
ATOM     46  O   UNL     1      -0.772   8.882  -3.340  1.00  0.00    -0.504 OA
ATOM     47  H   UNL     1      -0.574   9.104  -2.370  1.00  0.00     0.293 HD
ENDBRANCH  43  46
ENDBRANCH  28  38
BRANCH  34  48
ATOM     48  O   UNL     1      -8.698   1.915  -5.355  1.00  0.00    -0.507 OA
ATOM     49  H   UNL     1      -9.078   1.002  -5.137  1.00  0.00     0.293 HD
ENDBRANCH  34  48
BRANCH  37  50
ATOM     50  O   UNL     1      -5.349   0.461  -8.535  1.00  0.00    -0.508 OA
ATOM     51  H   UNL     1      -4.793   0.787  -9.316  1.00  0.00     0.293 HD
ENDBRANCH  37  50
ENDBRANCH  26  27
ENDBRANCH   5  26
BRANCH   4  52
ATOM     52  O   UNL     1      -8.977   6.754  -4.155  1.00  0.00    -0.384 OA
ATOM     53  H   UNL     1      -9.457   6.197  -3.487  1.00  0.00     0.211 HD
ENDBRANCH   4  52
TORSDOF 16
ENDMDL
MODEL 2
REMARK VINA RESULT:    -6.968      2.511      7.286
REMARK INTER + INTRA:         -13.987
REMARK INTER:                 -10.911
REMARK INTRA:                  -3.076
REMARK UNBOUND:                -2.538
REMARK SMILES C[C@H]1O[C@H](OC[C@H]2O[C@@H](Oc3c(-c4ccc(O)c(O)c4)oc4cc(O)cc(O)c4c3=O)[C@H](O)[C@@H](O)[C@@H]2O)[C@@H](O)[C@@H](O)[C@H]1O
REMARK SMILES IDX 7 1 36 2 34 3 32 4 9 5 8 6 6 7 5 8 4 9 1 10 2 11 42 12 3 13
REMARK SMILES IDX 40 14 38 15 43 16 41 18 39 20 37 22 35 24 10 26 11 27 12 28
REMARK SMILES IDX 30 29 21 30 29 31 31 32 22 33 27 34 23 35 26 36 24 37 13 38
REMARK SMILES IDX 20 39 14 40 18 41 15 42 16 43 19 44 17 46 28 48 25 50 33 52
REMARK H PARENT 43 17 41 19 39 21 37 23 35 25 19 45 17 47 28 49 25 51 33 53
REMARK Flexibility Score: inf
ROOT
ATOM      1  C   UNL     1      -7.331   6.654  -4.817  1.00  0.00     0.180 C 
ATOM      2  C   UNL     1      -8.825   6.683  -5.234  1.00  0.00     0.177 C 
ATOM      3  C   UNL     1      -9.320   8.118  -5.498  1.00  0.00     0.180 C 
ATOM      4  C   UNL     1      -8.524   9.173  -4.699  1.00  0.00     0.214 C 
ATOM      5  C   UNL     1      -7.877   8.561  -3.435  1.00  0.00     0.339 C 
ATOM      6  O   UNL     1      -7.028   7.445  -3.675  1.00  0.00    -0.332 OA
ENDROOT
BRANCH   1   7
ATOM      7  C   UNL     1      -6.355   6.989  -5.958  1.00  0.00     0.198 C 
BRANCH   7   8
ATOM      8  O   UNL     1      -5.054   7.188  -5.437  1.00  0.00    -0.347 OA
BRANCH   8   9
ATOM      9  C   UNL     1      -4.264   6.004  -5.504  1.00  0.00     0.281 C 
ATOM     10  C   UNL     1      -1.117   7.630  -6.528  1.00  0.00     0.041 C 
ATOM     11  C   UNL     1      -2.280   7.267  -5.601  1.00  0.00     0.150 C 
ATOM     12  C   UNL     1      -1.763   6.793  -4.224  1.00  0.00     0.174 C 
ATOM     13  O   UNL     1      -3.069   6.266  -6.229  1.00  0.00    -0.344 OA
ATOM     14  C   UNL     1      -2.969   6.389  -3.349  1.00  0.00     0.179 C 
ATOM     15  C   UNL     1      -3.931   5.436  -4.095  1.00  0.00     0.202 C 
BRANCH  12  16
ATOM     16  O   UNL     1      -0.877   5.712  -4.393  1.00  0.00    -0.388 OA
ATOM     17  H   UNL     1      -0.540   5.753  -5.325  1.00  0.00     0.211 HD
ENDBRANCH  12  16
BRANCH  14  18
ATOM     18  O   UNL     1      -2.569   5.867  -2.106  1.00  0.00    -0.387 OA
ATOM     19  H   UNL     1      -3.291   6.040  -1.450  1.00  0.00     0.211 HD
ENDBRANCH  14  18
BRANCH  15  20
ATOM     20  O   UNL     1      -3.409   4.129  -4.183  1.00  0.00    -0.385 OA
ATOM     21  H   UNL     1      -3.515   3.682  -3.304  1.00  0.00     0.211 HD
ENDBRANCH  15  20
ENDBRANCH   8   9
ENDBRANCH   7   8
ENDBRANCH   1   7
BRANCH   2  22
ATOM     22  O   UNL     1      -9.600   6.109  -4.211  1.00  0.00    -0.387 OA
ATOM     23  H   UNL     1      -9.731   5.153  -4.448  1.00  0.00     0.211 HD
ENDBRANCH   2  22
BRANCH   3  24
ATOM     24  O   UNL     1      -9.227   8.400  -6.873  1.00  0.00    -0.387 OA
ATOM     25  H   UNL     1      -8.319   8.120  -7.164  1.00  0.00     0.211 HD
ENDBRANCH   3  24
BRANCH   5  26
ATOM     26  O   UNL     1      -7.133   9.571  -2.742  1.00  0.00    -0.454 OA
BRANCH  26  27
ATOM     27  C   UNL     1      -5.746   9.491  -2.549  1.00  0.00     0.214 A 
ATOM     28  C   UNL     1      -5.213   8.926  -1.372  1.00  0.00     0.180 A 
ATOM     29  C   UNL     1      -4.861   9.994  -3.515  1.00  0.00     0.239 A 
ATOM     30  O   UNL     1      -3.904   8.970  -1.152  1.00  0.00    -0.452 OA
ATOM     31  C   UNL     1      -3.480  10.031  -3.242  1.00  0.00     0.111 A 
ATOM     32  O   UNL     1      -5.315  10.405  -4.617  1.00  0.00    -0.285 OA
ATOM     33  C   UNL     1      -3.037   9.500  -2.008  1.00  0.00     0.146 A 
ATOM     34  C   UNL     1      -2.529  10.579  -4.136  1.00  0.00     0.134 A 
ATOM     35  C   UNL     1      -1.680   9.522  -1.678  1.00  0.00     0.094 A 
ATOM     36  C   UNL     1      -1.170  10.590  -3.786  1.00  0.00     0.093 A 
ATOM     37  C   UNL     1      -0.747  10.067  -2.560  1.00  0.00     0.123 A 
BRANCH  28  38
ATOM     38  C   UNL     1      -6.071   8.296  -0.347  1.00  0.00     0.025 A 
ATOM     39  C   UNL     1      -6.756   9.105   0.573  1.00  0.00     0.062 A 
ATOM     40  C   UNL     1      -6.188   6.899  -0.253  1.00  0.00     0.016 A 
ATOM     41  C   UNL     1      -7.580   8.534   1.549  1.00  0.00     0.158 A 
ATOM     42  C   UNL     1      -7.009   6.326   0.721  1.00  0.00     0.051 A 
ATOM     43  C   UNL     1      -7.711   7.138   1.622  1.00  0.00     0.157 A 
BRANCH  41  44
ATOM     44  O   UNL     1      -8.261   9.370   2.433  1.00  0.00    -0.504 OA
ATOM     45  H   UNL     1      -9.069   9.056   2.956  1.00  0.00     0.293 HD
ENDBRANCH  41  44
BRANCH  43  46
ATOM     46  O   UNL     1      -8.534   6.564   2.589  1.00  0.00    -0.504 OA
ATOM     47  H   UNL     1      -9.416   6.990   2.855  1.00  0.00     0.293 HD
ENDBRANCH  43  46
ENDBRANCH  28  38
BRANCH  34  48
ATOM     48  O   UNL     1      -2.925  11.121  -5.362  1.00  0.00    -0.507 OA
ATOM     49  H   UNL     1      -2.954  12.121  -5.518  1.00  0.00     0.293 HD
ENDBRANCH  34  48
BRANCH  37  50
ATOM     50  O   UNL     1       0.601  10.086  -2.209  1.00  0.00    -0.508 OA
ATOM     51  H   UNL     1       1.322  10.293  -2.890  1.00  0.00     0.293 HD
ENDBRANCH  37  50
ENDBRANCH  26  27
ENDBRANCH   5  26
BRANCH   4  52
ATOM     52  O   UNL     1      -9.386  10.213  -4.313  1.00  0.00    -0.384 OA
ATOM     53  H   UNL     1      -9.807   9.933  -3.457  1.00  0.00     0.211 HD
ENDBRANCH   4  52
TORSDOF 16
ENDMDL
MODEL 3
REMARK VINA RESULT:    -6.963      2.805      6.634
REMARK INTER + INTRA:         -13.979
REMARK INTER:                 -11.967
REMARK INTRA:                  -2.012
REMARK UNBOUND:                -2.538
REMARK SMILES C[C@H]1O[C@H](OC[C@H]2O[C@@H](Oc3c(-c4ccc(O)c(O)c4)oc4cc(O)cc(O)c4c3=O)[C@H](O)[C@@H](O)[C@@H]2O)[C@@H](O)[C@@H](O)[C@H]1O
REMARK SMILES IDX 7 1 36 2 34 3 32 4 9 5 8 6 6 7 5 8 4 9 1 10 2 11 42 12 3 13
REMARK SMILES IDX 40 14 38 15 43 16 41 18 39 20 37 22 35 24 10 26 11 27 12 28
REMARK SMILES IDX 30 29 21 30 29 31 31 32 22 33 27 34 23 35 26 36 24 37 13 38
REMARK SMILES IDX 20 39 14 40 18 41 15 42 16 43 19 44 17 46 28 48 25 50 33 52
REMARK H PARENT 43 17 41 19 39 21 37 23 35 25 19 45 17 47 28 49 25 51 33 53
REMARK Flexibility Score: inf
ROOT
ATOM      1  C   UNL     1      -7.281   7.876  -5.460  1.00  0.00     0.180 C 
ATOM      2  C   UNL     1      -8.509   8.565  -6.111  1.00  0.00     0.177 C 
ATOM      3  C   UNL     1      -8.301  10.084  -6.266  1.00  0.00     0.180 C 
ATOM      4  C   UNL     1      -7.322  10.655  -5.217  1.00  0.00     0.214 C 
ATOM      5  C   UNL     1      -7.259   9.767  -3.953  1.00  0.00     0.339 C 
ATOM      6  O   UNL     1      -6.919   8.405  -4.191  1.00  0.00    -0.332 OA
ENDROOT
BRANCH   1   7
ATOM      7  C   UNL     1      -6.042   7.810  -6.371  1.00  0.00     0.198 C 
BRANCH   7   8
ATOM      8  O   UNL     1      -4.868   7.746  -5.584  1.00  0.00    -0.347 OA
BRANCH   8   9
ATOM      9  C   UNL     1      -4.327   6.429  -5.536  1.00  0.00     0.281 C 
ATOM     10  C   UNL     1      -0.837   7.356  -6.283  1.00  0.00     0.041 C 
ATOM     11  C   UNL     1      -2.131   7.273  -5.468  1.00  0.00     0.150 C 
ATOM     12  C   UNL     1      -1.850   6.775  -4.033  1.00  0.00     0.174 C 
ATOM     13  O   UNL     1      -3.041   6.416  -6.143  1.00  0.00    -0.344 OA
ATOM     14  C   UNL     1      -3.189   6.658  -3.274  1.00  0.00     0.179 C 
ATOM     15  C   UNL     1      -4.247   5.876  -4.085  1.00  0.00     0.202 C 
BRANCH  12  16
ATOM     16  O   UNL     1      -1.185   5.535  -4.080  1.00  0.00    -0.388 OA
ATOM     17  H   UNL     1      -1.498   5.066  -4.896  1.00  0.00     0.211 HD
ENDBRANCH  12  16
BRANCH  14  18
ATOM     18  O   UNL     1      -3.019   6.128  -1.981  1.00  0.00    -0.387 OA
ATOM     19  H   UNL     1      -3.341   6.798  -1.326  1.00  0.00     0.211 HD
ENDBRANCH  14  18
BRANCH  15  20
ATOM     20  O   UNL     1      -3.990   4.489  -4.082  1.00  0.00    -0.385 OA
ATOM     21  H   UNL     1      -4.854   4.004  -4.035  1.00  0.00     0.211 HD
ENDBRANCH  15  20
ENDBRANCH   8   9
ENDBRANCH   7   8
ENDBRANCH   1   7
BRANCH   2  22
ATOM     22  O   UNL     1      -9.644   8.334  -5.314  1.00  0.00    -0.387 OA
ATOM     23  H   UNL     1      -9.897   9.206  -4.912  1.00  0.00     0.211 HD
ENDBRANCH   2  22
BRANCH   3  24
ATOM     24  O   UNL     1      -7.820  10.362  -7.558  1.00  0.00    -0.387 OA
ATOM     25  H   UNL     1      -8.394  11.084  -7.930  1.00  0.00     0.211 HD
ENDBRANCH   3  24
BRANCH   5  26
ATOM     26  O   UNL     1      -6.324  10.324  -3.022  1.00  0.00    -0.454 OA
BRANCH  26  27
ATOM     27  C   UNL     1      -5.965   9.677  -1.830  1.00  0.00     0.214 A 
ATOM     28  C   UNL     1      -4.615   9.391  -1.543  1.00  0.00     0.180 A 
ATOM     29  C   UNL     1      -6.948   9.280  -0.911  1.00  0.00     0.239 A 
ATOM     30  O   UNL     1      -4.306   8.670  -0.471  1.00  0.00    -0.452 OA
ATOM     31  C   UNL     1      -6.583   8.509   0.210  1.00  0.00     0.111 A 
ATOM     32  O   UNL     1      -8.148   9.620  -1.100  1.00  0.00    -0.285 OA
ATOM     33  C   UNL     1      -5.210   8.214   0.388  1.00  0.00     0.146 A 
ATOM     34  C   UNL     1      -7.520   8.016   1.149  1.00  0.00     0.134 A 
ATOM     35  C   UNL     1      -4.791   7.442   1.474  1.00  0.00     0.094 A 
ATOM     36  C   UNL     1      -7.078   7.245   2.235  1.00  0.00     0.093 A 
ATOM     37  C   UNL     1      -5.719   6.955   2.395  1.00  0.00     0.123 A 
BRANCH  28  38
ATOM     38  C   UNL     1      -3.514   9.852  -2.414  1.00  0.00     0.025 A 
ATOM     39  C   UNL     1      -2.192   9.797  -1.945  1.00  0.00     0.062 A 
ATOM     40  C   UNL     1      -3.768  10.377  -3.693  1.00  0.00     0.016 A 
ATOM     41  C   UNL     1      -1.131  10.220  -2.753  1.00  0.00     0.158 A 
ATOM     42  C   UNL     1      -2.711  10.802  -4.501  1.00  0.00     0.051 A 
ATOM     43  C   UNL     1      -1.390  10.722  -4.039  1.00  0.00     0.157 A 
BRANCH  41  44
ATOM     44  O   UNL     1       0.171  10.132  -2.262  1.00  0.00    -0.504 OA
ATOM     45  H   UNL     1       0.980  10.190  -2.868  1.00  0.00     0.293 HD
ENDBRANCH  41  44
BRANCH  43  46
ATOM     46  O   UNL     1      -0.337  11.141  -4.850  1.00  0.00    -0.504 OA
ATOM     47  H   UNL     1      -0.465  11.856  -5.557  1.00  0.00     0.293 HD
ENDBRANCH  43  46
ENDBRANCH  28  38
BRANCH  34  48
ATOM     48  O   UNL     1      -8.885   8.279   1.007  1.00  0.00    -0.507 OA
ATOM     49  H   UNL     1      -9.389   8.038   0.161  1.00  0.00     0.293 HD
ENDBRANCH  34  48
BRANCH  37  50
ATOM     50  O   UNL     1      -5.281   6.182   3.468  1.00  0.00    -0.508 OA
ATOM     51  H   UNL     1      -4.379   6.343   3.901  1.00  0.00     0.293 HD
ENDBRANCH  37  50
ENDBRANCH  26  27
ENDBRANCH   5  26
BRANCH   4  52
ATOM     52  O   UNL     1      -7.735  11.946  -4.848  1.00  0.00    -0.384 OA
ATOM     53  H   UNL     1      -7.265  12.580  -5.452  1.00  0.00     0.211 HD
ENDBRANCH   4  52
TORSDOF 16
ENDMDL
MODEL 4
REMARK VINA RESULT:    -6.827      1.549      4.557
REMARK INTER + INTRA:         -13.756
REMARK INTER:                 -11.656
REMARK INTRA:                  -2.100
REMARK UNBOUND:                -2.538
REMARK SMILES C[C@H]1O[C@H](OC[C@H]2O[C@@H](Oc3c(-c4ccc(O)c(O)c4)oc4cc(O)cc(O)c4c3=O)[C@H](O)[C@@H](O)[C@@H]2O)[C@@H](O)[C@@H](O)[C@H]1O
REMARK SMILES IDX 7 1 36 2 34 3 32 4 9 5 8 6 6 7 5 8 4 9 1 10 2 11 42 12 3 13
REMARK SMILES IDX 40 14 38 15 43 16 41 18 39 20 37 22 35 24 10 26 11 27 12 28
REMARK SMILES IDX 30 29 21 30 29 31 31 32 22 33 27 34 23 35 26 36 24 37 13 38
REMARK SMILES IDX 20 39 14 40 18 41 15 42 16 43 19 44 17 46 28 48 25 50 33 52
REMARK H PARENT 43 17 41 19 39 21 37 23 35 25 19 45 17 47 28 49 25 51 33 53
REMARK Flexibility Score: inf
ROOT
ATOM      1  C   UNL     1      -3.740   7.773  -1.400  1.00  0.00     0.180 C 
ATOM      2  C   UNL     1      -2.219   8.016  -1.583  1.00  0.00     0.177 C 
ATOM      3  C   UNL     1      -1.919   8.873  -2.827  1.00  0.00     0.180 C 
ATOM      4  C   UNL     1      -3.008   8.737  -3.913  1.00  0.00     0.214 C 
ATOM      5  C   UNL     1      -3.773   7.399  -3.788  1.00  0.00     0.339 C 
ATOM      6  O   UNL     1      -4.373   7.166  -2.519  1.00  0.00    -0.332 OA
ENDROOT
BRANCH   1   7
ATOM      7  C   UNL     1      -4.528   9.023  -0.969  1.00  0.00     0.198 C 
BRANCH   7   8
ATOM      8  O   UNL     1      -5.747   8.639  -0.361  1.00  0.00    -0.347 OA
BRANCH   8   9
ATOM      9  C   UNL     1      -5.657   8.631   1.061  1.00  0.00     0.281 C 
ATOM     10  C   UNL     1      -8.975  10.097   1.722  1.00  0.00     0.041 C 
ATOM     11  C   UNL     1      -7.966   9.040   1.265  1.00  0.00     0.150 C 
ATOM     12  C   UNL     1      -8.281   7.665   1.894  1.00  0.00     0.174 C 
ATOM     13  O   UNL     1      -6.659   9.478   1.609  1.00  0.00    -0.344 OA
ATOM     14  C   UNL     1      -7.206   6.652   1.446  1.00  0.00     0.179 C 
ATOM     15  C   UNL     1      -5.775   7.198   1.652  1.00  0.00     0.202 C 
BRANCH  12  16
ATOM     16  O   UNL     1      -8.315   7.778   3.297  1.00  0.00    -0.388 OA
ATOM     17  H   UNL     1      -9.079   8.369   3.525  1.00  0.00     0.211 HD
ENDBRANCH  12  16
BRANCH  14  18
ATOM     18  O   UNL     1      -7.381   5.393   2.049  1.00  0.00    -0.387 OA
ATOM     19  H   UNL     1      -7.655   5.535   2.991  1.00  0.00     0.211 HD
ENDBRANCH  14  18
BRANCH  15  20
ATOM     20  O   UNL     1      -5.396   7.175   3.011  1.00  0.00    -0.385 OA
ATOM     21  H   UNL     1      -5.912   6.466   3.474  1.00  0.00     0.211 HD
ENDBRANCH  15  20
ENDBRANCH   8   9
ENDBRANCH   7   8
ENDBRANCH   1   7
BRANCH   2  22
ATOM     22  O   UNL     1      -1.566   6.777  -1.708  1.00  0.00    -0.387 OA
ATOM     23  H   UNL     1      -2.230   6.135  -2.073  1.00  0.00     0.211 HD
ENDBRANCH   2  22
BRANCH   3  24
ATOM     24  O   UNL     1      -1.798  10.222  -2.449  1.00  0.00    -0.387 OA
ATOM     25  H   UNL     1      -1.093  10.621  -3.026  1.00  0.00     0.211 HD
ENDBRANCH   3  24
BRANCH   5  26
ATOM     26  O   UNL     1      -4.785   7.330  -4.801  1.00  0.00    -0.454 OA
BRANCH  26  27
ATOM     27  C   UNL     1      -5.500   6.155  -5.077  1.00  0.00     0.214 A 
ATOM     28  C   UNL     1      -6.815   5.982  -4.601  1.00  0.00     0.180 A 
ATOM     29  C   UNL     1      -4.908   5.117  -5.813  1.00  0.00     0.239 A 
ATOM     30  O   UNL     1      -7.431   4.816  -4.767  1.00  0.00    -0.452 OA
ATOM     31  C   UNL     1      -5.588   3.892  -5.961  1.00  0.00     0.111 A 
ATOM     32  O   UNL     1      -3.774   5.295  -6.336  1.00  0.00    -0.285 OA
ATOM     33  C   UNL     1      -6.881   3.784  -5.396  1.00  0.00     0.146 A 
ATOM     34  C   UNL     1      -5.035   2.777  -6.634  1.00  0.00     0.134 A 
ATOM     35  C   UNL     1      -7.597   2.588  -5.500  1.00  0.00     0.094 A 
ATOM     36  C   UNL     1      -5.772   1.586  -6.729  1.00  0.00     0.093 A 
ATOM     37  C   UNL     1      -7.046   1.490  -6.161  1.00  0.00     0.123 A 
BRANCH  28  38
ATOM     38  C   UNL     1      -7.540   7.058  -3.894  1.00  0.00     0.025 A 
ATOM     39  C   UNL     1      -7.727   8.297  -4.527  1.00  0.00     0.062 A 
ATOM     40  C   UNL     1      -8.018   6.877  -2.585  1.00  0.00     0.016 A 
ATOM     41  C   UNL     1      -8.416   9.330  -3.882  1.00  0.00     0.158 A 
ATOM     42  C   UNL     1      -8.704   7.906  -1.938  1.00  0.00     0.051 A 
ATOM     43  C   UNL     1      -8.911   9.133  -2.582  1.00  0.00     0.157 A 
BRANCH  41  44
ATOM     44  O   UNL     1      -8.600  10.540  -4.549  1.00  0.00    -0.504 OA
ATOM     45  H   UNL     1      -7.840  11.018  -5.018  1.00  0.00     0.293 HD
ENDBRANCH  41  44
BRANCH  43  46
ATOM     46  O   UNL     1      -9.602  10.157  -1.937  1.00  0.00    -0.504 OA
ATOM     47  H   UNL     1      -9.454  11.131  -2.180  1.00  0.00     0.293 HD
ENDBRANCH  43  46
ENDBRANCH  28  38
BRANCH  34  48
ATOM     48  O   UNL     1      -3.759   2.839  -7.200  1.00  0.00    -0.507 OA
ATOM     49  H   UNL     1      -3.555   3.439  -7.990  1.00  0.00     0.293 HD
ENDBRANCH  34  48
BRANCH  37  50
ATOM     50  O   UNL     1      -7.774   0.306  -6.247  1.00  0.00    -0.508 OA
ATOM     51  H   UNL     1      -7.866  -0.317  -5.453  1.00  0.00     0.293 HD
ENDBRANCH  37  50
ENDBRANCH  26  27
ENDBRANCH   5  26
BRANCH   4  52
ATOM     52  O   UNL     1      -2.411   8.804  -5.183  1.00  0.00    -0.384 OA
ATOM     53  H   UNL     1      -1.482   8.466  -5.081  1.00  0.00     0.211 HD
ENDBRANCH   4  52
TORSDOF 16
ENDMDL
MODEL 5
REMARK VINA RESULT:    -6.798      1.535      4.220
REMARK INTER + INTRA:         -13.708
REMARK INTER:                 -11.552
REMARK INTRA:                  -2.155
REMARK UNBOUND:                -2.538
REMARK SMILES C[C@H]1O[C@H](OC[C@H]2O[C@@H](Oc3c(-c4ccc(O)c(O)c4)oc4cc(O)cc(O)c4c3=O)[C@H](O)[C@@H](O)[C@@H]2O)[C@@H](O)[C@@H](O)[C@H]1O
REMARK SMILES IDX 7 1 36 2 34 3 32 4 9 5 8 6 6 7 5 8 4 9 1 10 2 11 42 12 3 13
REMARK SMILES IDX 40 14 38 15 43 16 41 18 39 20 37 22 35 24 10 26 11 27 12 28
REMARK SMILES IDX 30 29 21 30 29 31 31 32 22 33 27 34 23 35 26 36 24 37 13 38
REMARK SMILES IDX 20 39 14 40 18 41 15 42 16 43 19 44 17 46 28 48 25 50 33 52
REMARK H PARENT 43 17 41 19 39 21 37 23 35 25 19 45 17 47 28 49 25 51 33 53
REMARK Flexibility Score: inf
ROOT
ATOM      1  C   UNL     1      -3.090   7.180  -2.174  1.00  0.00     0.180 C 
ATOM      2  C   UNL     1      -1.706   7.874  -2.254  1.00  0.00     0.177 C 
ATOM      3  C   UNL     1      -1.702   9.036  -3.266  1.00  0.00     0.180 C 
ATOM      4  C   UNL     1      -2.749   8.845  -4.386  1.00  0.00     0.214 C 
ATOM      5  C   UNL     1      -3.104   7.353  -4.585  1.00  0.00     0.339 C 
ATOM      6  O   UNL     1      -3.568   6.684  -3.418  1.00  0.00    -0.332 OA
ENDROOT
BRANCH   1   7
ATOM      7  C   UNL     1      -4.180   8.029  -1.497  1.00  0.00     0.198 C 
BRANCH   7   8
ATOM      8  O   UNL     1      -4.962   7.218  -0.641  1.00  0.00    -0.347 OA
BRANCH   8   9
ATOM      9  C   UNL     1      -6.081   7.922  -0.111  1.00  0.00     0.281 C 
ATOM     10  C   UNL     1      -8.481   5.127  -0.273  1.00  0.00     0.041 C 
ATOM     11  C   UNL     1      -7.262   5.912   0.218  1.00  0.00     0.150 C 
ATOM     12  C   UNL     1      -7.251   6.012   1.759  1.00  0.00     0.174 C 
ATOM     13  O   UNL     1      -7.275   7.200  -0.383  1.00  0.00    -0.344 OA
ATOM     14  C   UNL     1      -6.036   6.856   2.198  1.00  0.00     0.179 C 
ATOM     15  C   UNL     1      -5.943   8.186   1.416  1.00  0.00     0.202 C 
BRANCH  12  16
ATOM     16  O   UNL     1      -8.455   6.588   2.208  1.00  0.00    -0.388 OA
ATOM     17  H   UNL     1      -8.298   6.909   3.133  1.00  0.00     0.211 HD
ENDBRANCH  12  16
BRANCH  14  18
ATOM     18  O   UNL     1      -6.008   7.060   3.589  1.00  0.00    -0.387 OA
ATOM     19  H   UNL     1      -6.288   6.219   4.032  1.00  0.00     0.211 HD
ENDBRANCH  14  18
BRANCH  15  20
ATOM     20  O   UNL     1      -6.900   9.122   1.859  1.00  0.00    -0.385 OA
ATOM     21  H   UNL     1      -7.027   9.011   2.836  1.00  0.00     0.211 HD
ENDBRANCH  15  20
ENDBRANCH   8   9
ENDBRANCH   7   8
ENDBRANCH   1   7
BRANCH   2  22
ATOM     22  O   UNL     1      -0.737   6.929  -2.635  1.00  0.00    -0.387 OA
ATOM     23  H   UNL     1      -0.438   6.470  -1.806  1.00  0.00     0.211 HD
ENDBRANCH   2  22
BRANCH   3  24
ATOM     24  O   UNL     1      -1.950  10.245  -2.592  1.00  0.00    -0.387 OA
ATOM     25  H   UNL     1      -2.045  10.949  -3.288  1.00  0.00     0.211 HD
ENDBRANCH   3  24
BRANCH   5  26
ATOM     26  O   UNL     1      -4.091   7.230  -5.617  1.00  0.00    -0.454 OA
BRANCH  26  27
ATOM     27  C   UNL     1      -5.155   6.319  -5.541  1.00  0.00     0.214 A 
ATOM     28  C   UNL     1      -6.409   6.716  -5.033  1.00  0.00     0.180 A 
ATOM     29  C   UNL     1      -4.983   4.987  -5.947  1.00  0.00     0.239 A 
ATOM     30  O   UNL     1      -7.366   5.811  -4.854  1.00  0.00    -0.452 OA
ATOM     31  C   UNL     1      -6.017   4.055  -5.733  1.00  0.00     0.111 A 
ATOM     32  O   UNL     1      -3.904   4.642  -6.500  1.00  0.00    -0.285 OA
ATOM     33  C   UNL     1      -7.222   4.526  -5.160  1.00  0.00     0.146 A 
ATOM     34  C   UNL     1      -5.899   2.682  -6.056  1.00  0.00     0.134 A 
ATOM     35  C   UNL     1      -8.276   3.644  -4.912  1.00  0.00     0.094 A 
ATOM     36  C   UNL     1      -6.972   1.813  -5.802  1.00  0.00     0.093 A 
ATOM     37  C   UNL     1      -8.155   2.291  -5.229  1.00  0.00     0.123 A 
BRANCH  28  38
ATOM     38  C   UNL     1      -6.698   8.117  -4.666  1.00  0.00     0.025 A 
ATOM     39  C   UNL     1      -7.352   8.394  -3.456  1.00  0.00     0.062 A 
ATOM     40  C   UNL     1      -6.362   9.179  -5.524  1.00  0.00     0.016 A 
ATOM     41  C   UNL     1      -7.631   9.713  -3.082  1.00  0.00     0.158 A 
ATOM     42  C   UNL     1      -6.641  10.497  -5.154  1.00  0.00     0.051 A 
ATOM     43  C   UNL     1      -7.271  10.771  -3.933  1.00  0.00     0.157 A 
BRANCH  41  44
ATOM     44  O   UNL     1      -8.264   9.951  -1.862  1.00  0.00    -0.504 OA
ATOM     45  H   UNL     1      -8.404  10.887  -1.502  1.00  0.00     0.293 HD
ENDBRANCH  41  44
BRANCH  43  46
ATOM     46  O   UNL     1      -7.543  12.087  -3.563  1.00  0.00    -0.504 OA
ATOM     47  H   UNL     1      -6.939  12.593  -2.924  1.00  0.00     0.293 HD
ENDBRANCH  43  46
ENDBRANCH  28  38
BRANCH  34  48
ATOM     48  O   UNL     1      -4.725   2.174  -6.618  1.00  0.00    -0.507 OA
ATOM     49  H   UNL     1      -3.906   2.753  -6.753  1.00  0.00     0.293 HD
ENDBRANCH  34  48
BRANCH  37  50
ATOM     50  O   UNL     1      -9.216   1.427  -4.968  1.00  0.00    -0.508 OA
ATOM     51  H   UNL     1      -9.489   1.197  -4.020  1.00  0.00     0.293 HD
ENDBRANCH  37  50
ENDBRANCH  26  27
ENDBRANCH   5  26
BRANCH   4  52
ATOM     52  O   UNL     1      -2.240   9.358  -5.591  1.00  0.00    -0.384 OA
ATOM     53  H   UNL     1      -1.678   8.643  -5.992  1.00  0.00     0.211 HD
ENDBRANCH   4  52
TORSDOF 16
ENDMDL
MODEL 6
REMARK VINA RESULT:    -6.759      2.082      3.339
REMARK INTER + INTRA:         -13.643
REMARK INTER:                 -10.798
REMARK INTRA:                  -2.846
REMARK UNBOUND:                -2.538
REMARK SMILES C[C@H]1O[C@H](OC[C@H]2O[C@@H](Oc3c(-c4ccc(O)c(O)c4)oc4cc(O)cc(O)c4c3=O)[C@H](O)[C@@H](O)[C@@H]2O)[C@@H](O)[C@@H](O)[C@H]1O
REMARK SMILES IDX 7 1 36 2 34 3 32 4 9 5 8 6 6 7 5 8 4 9 1 10 2 11 42 12 3 13
REMARK SMILES IDX 40 14 38 15 43 16 41 18 39 20 37 22 35 24 10 26 11 27 12 28
REMARK SMILES IDX 30 29 21 30 29 31 31 32 22 33 27 34 23 35 26 36 24 37 13 38
REMARK SMILES IDX 20 39 14 40 18 41 15 42 16 43 19 44 17 46 28 48 25 50 33 52
REMARK H PARENT 43 17 41 19 39 21 37 23 35 25 19 45 17 47 28 49 25 51 33 53
REMARK Flexibility Score: inf
ROOT
ATOM      1  C   UNL     1      -5.293   9.359  -1.708  1.00  0.00     0.180 C 
ATOM      2  C   UNL     1      -4.970  10.866  -1.874  1.00  0.00     0.177 C 
ATOM      3  C   UNL     1      -5.838  11.524  -2.963  1.00  0.00     0.180 C 
ATOM      4  C   UNL     1      -6.300  10.516  -4.038  1.00  0.00     0.214 C 
ATOM      5  C   UNL     1      -5.349   9.300  -4.124  1.00  0.00     0.339 C 
ATOM      6  O   UNL     1      -5.159   8.597  -2.901  1.00  0.00    -0.332 OA
ENDROOT
BRANCH   1   7
ATOM      7  C   UNL     1      -6.661   9.078  -1.061  1.00  0.00     0.198 C 
BRANCH   7   8
ATOM      8  O   UNL     1      -6.481   8.534   0.233  1.00  0.00    -0.347 OA
BRANCH   8   9
ATOM      9  C   UNL     1      -6.280   7.124   0.198  1.00  0.00     0.281 C 
ATOM     10  C   UNL     1      -6.869   6.504   3.784  1.00  0.00     0.041 C 
ATOM     11  C   UNL     1      -7.219   6.881   2.343  1.00  0.00     0.150 C 
ATOM     12  C   UNL     1      -8.454   6.095   1.849  1.00  0.00     0.174 C 
ATOM     13  O   UNL     1      -6.088   6.634   1.519  1.00  0.00    -0.344 OA
ATOM     14  C   UNL     1      -8.731   6.471   0.377  1.00  0.00     0.179 C 
ATOM     15  C   UNL     1      -7.456   6.377  -0.492  1.00  0.00     0.202 C 
BRANCH  12  16
ATOM     16  O   UNL     1      -8.226   4.712   1.984  1.00  0.00    -0.388 OA
ATOM     17  H   UNL     1      -8.954   4.247   1.497  1.00  0.00     0.211 HD
ENDBRANCH  12  16
BRANCH  14  18
ATOM     18  O   UNL     1      -9.795   5.729  -0.167  1.00  0.00    -0.387 OA
ATOM     19  H   UNL     1      -9.416   5.033  -0.762  1.00  0.00     0.211 HD
ENDBRANCH  14  18
BRANCH  15  20
ATOM     20  O   UNL     1      -7.113   5.039  -0.776  1.00  0.00    -0.385 OA
ATOM     21  H   UNL     1      -7.583   4.757  -1.603  1.00  0.00     0.211 HD
ENDBRANCH  15  20
ENDBRANCH   8   9
ENDBRANCH   7   8
ENDBRANCH   1   7
BRANCH   2  22
ATOM     22  O   UNL     1      -3.614  11.012  -2.215  1.00  0.00    -0.387 OA
ATOM     23  H   UNL     1      -3.117  11.168  -1.369  1.00  0.00     0.211 HD
ENDBRANCH   2  22
BRANCH   3  24
ATOM     24  O   UNL     1      -6.962  12.125  -2.368  1.00  0.00    -0.387 OA
ATOM     25  H   UNL     1      -7.525  12.478  -3.107  1.00  0.00     0.211 HD
ENDBRANCH   3  24
BRANCH   5  26
ATOM     26  O   UNL     1      -5.831   8.385  -5.117  1.00  0.00    -0.454 OA
BRANCH  26  27
ATOM     27  C   UNL     1      -6.217   7.071  -4.811  1.00  0.00     0.214 A 
ATOM     28  C   UNL     1      -5.351   5.988  -5.064  1.00  0.00     0.180 A 
ATOM     29  C   UNL     1      -7.484   6.808  -4.269  1.00  0.00     0.239 A 
ATOM     30  O   UNL     1      -5.779   4.743  -4.884  1.00  0.00    -0.452 OA
ATOM     31  C   UNL     1      -7.906   5.475  -4.100  1.00  0.00     0.111 A 
ATOM     32  O   UNL     1      -8.229   7.770  -3.939  1.00  0.00    -0.285 OA
ATOM     33  C   UNL     1      -6.995   4.447  -4.439  1.00  0.00     0.146 A 
ATOM     34  C   UNL     1      -9.191   5.125  -3.620  1.00  0.00     0.134 A 
ATOM     35  C   UNL     1      -7.364   3.106  -4.305  1.00  0.00     0.094 A 
ATOM     36  C   UNL     1      -9.540   3.772  -3.490  1.00  0.00     0.093 A 
ATOM     37  C   UNL     1      -8.632   2.766  -3.834  1.00  0.00     0.123 A 
BRANCH  28  38
ATOM     38  C   UNL     1      -3.970   6.186  -5.550  1.00  0.00     0.025 A 
ATOM     39  C   UNL     1      -2.943   6.446  -4.630  1.00  0.00     0.062 A 
ATOM     40  C   UNL     1      -3.669   6.154  -6.923  1.00  0.00     0.016 A 
ATOM     41  C   UNL     1      -1.625   6.630  -5.064  1.00  0.00     0.158 A 
ATOM     42  C   UNL     1      -2.356   6.340  -7.360  1.00  0.00     0.051 A 
ATOM     43  C   UNL     1      -1.329   6.573  -6.436  1.00  0.00     0.157 A 
BRANCH  41  44
ATOM     44  O   UNL     1      -0.628   6.865  -4.119  1.00  0.00    -0.504 OA
ATOM     45  H   UNL     1      -0.185   7.771  -4.018  1.00  0.00     0.293 HD
ENDBRANCH  41  44
BRANCH  43  46
ATOM     46  O   UNL     1      -0.018   6.751  -6.874  1.00  0.00    -0.504 OA
ATOM     47  H   UNL     1       0.774   6.496  -6.293  1.00  0.00     0.293 HD
ENDBRANCH  43  46
ENDBRANCH  28  38
BRANCH  34  48
ATOM     48  O   UNL     1     -10.123   6.109  -3.280  1.00  0.00    -0.507 OA
ATOM     49  H   UNL     1     -10.016   6.680  -2.451  1.00  0.00     0.293 HD
ENDBRANCH  34  48
BRANCH  37  50
ATOM     50  O   UNL     1      -8.982   1.423  -3.714  1.00  0.00    -0.508 OA
ATOM     51  H   UNL     1      -9.776   1.132  -3.155  1.00  0.00     0.293 HD
ENDBRANCH  37  50
ENDBRANCH  26  27
ENDBRANCH   5  26
BRANCH   4  52
ATOM     52  O   UNL     1      -6.340  11.154  -5.289  1.00  0.00    -0.384 OA
ATOM     53  H   UNL     1      -6.170  12.119  -5.123  1.00  0.00     0.211 HD
ENDBRANCH   4  52
TORSDOF 16
ENDMDL
MODEL 7
REMARK VINA RESULT:    -6.641      2.047      5.592
REMARK INTER + INTRA:         -13.450
REMARK INTER:                 -10.803
REMARK INTRA:                  -2.648
REMARK UNBOUND:                -2.538
REMARK SMILES C[C@H]1O[C@H](OC[C@H]2O[C@@H](Oc3c(-c4ccc(O)c(O)c4)oc4cc(O)cc(O)c4c3=O)[C@H](O)[C@@H](O)[C@@H]2O)[C@@H](O)[C@@H](O)[C@H]1O
REMARK SMILES IDX 7 1 36 2 34 3 32 4 9 5 8 6 6 7 5 8 4 9 1 10 2 11 42 12 3 13
REMARK SMILES IDX 40 14 38 15 43 16 41 18 39 20 37 22 35 24 10 26 11 27 12 28
REMARK SMILES IDX 30 29 21 30 29 31 31 32 22 33 27 34 23 35 26 36 24 37 13 38
REMARK SMILES IDX 20 39 14 40 18 41 15 42 16 43 19 44 17 46 28 48 25 50 33 52
REMARK H PARENT 43 17 41 19 39 21 37 23 35 25 19 45 17 47 28 49 25 51 33 53
REMARK Flexibility Score: inf
ROOT
ATOM      1  C   UNL     1      -5.559  10.034  -1.478  1.00  0.00     0.180 C 
ATOM      2  C   UNL     1      -6.294  11.128  -0.661  1.00  0.00     0.177 C 
ATOM      3  C   UNL     1      -7.488  10.555   0.126  1.00  0.00     0.180 C 
ATOM      4  C   UNL     1      -8.077   9.290  -0.536  1.00  0.00     0.214 C 
ATOM      5  C   UNL     1      -7.771   9.244  -2.051  1.00  0.00     0.339 C 
ATOM      6  O   UNL     1      -6.391   9.326  -2.388  1.00  0.00    -0.332 OA
ENDROOT
BRANCH   1   7
ATOM      7  C   UNL     1      -4.762   9.038  -0.616  1.00  0.00     0.198 C 
BRANCH   7   8
ATOM      8  O   UNL     1      -4.137   8.075  -1.445  1.00  0.00    -0.347 OA
BRANCH   8   9
ATOM      9  C   UNL     1      -2.720   8.084  -1.302  1.00  0.00     0.281 C 
ATOM     10  C   UNL     1      -2.082   4.875  -3.000  1.00  0.00     0.041 C 
ATOM     11  C   UNL     1      -2.494   6.344  -2.870  1.00  0.00     0.150 C 
ATOM     12  C   UNL     1      -1.774   7.216  -3.922  1.00  0.00     0.174 C 
ATOM     13  O   UNL     1      -2.205   6.783  -1.549  1.00  0.00    -0.344 OA
ATOM     14  C   UNL     1      -2.182   8.690  -3.712  1.00  0.00     0.179 C 
ATOM     15  C   UNL     1      -2.039   9.125  -2.236  1.00  0.00     0.202 C 
BRANCH  12  16
ATOM     16  O   UNL     1      -0.380   7.055  -3.803  1.00  0.00    -0.388 OA
ATOM     17  H   UNL     1      -0.224   6.357  -3.116  1.00  0.00     0.211 HD
ENDBRANCH  12  16
BRANCH  14  18
ATOM     18  O   UNL     1      -1.498   9.557  -4.584  1.00  0.00    -0.387 OA
ATOM     19  H   UNL     1      -1.281  10.388  -4.090  1.00  0.00     0.211 HD
ENDBRANCH  14  18
BRANCH  15  20
ATOM     20  O   UNL     1      -0.690   9.325  -1.876  1.00  0.00    -0.385 OA
ATOM     21  H   UNL     1      -0.114   8.819  -2.505  1.00  0.00     0.211 HD
ENDBRANCH  15  20
ENDBRANCH   8   9
ENDBRANCH   7   8
ENDBRANCH   1   7
BRANCH   2  22
ATOM     22  O   UNL     1      -6.757  12.125  -1.539  1.00  0.00    -0.387 OA
ATOM     23  H   UNL     1      -5.966  12.462  -2.038  1.00  0.00     0.211 HD
ENDBRANCH   2  22
BRANCH   3  24
ATOM     24  O   UNL     1      -7.082  10.253   1.438  1.00  0.00    -0.387 OA
ATOM     25  H   UNL     1      -7.862   9.835   1.892  1.00  0.00     0.211 HD
ENDBRANCH   3  24
BRANCH   5  26
ATOM     26  O   UNL     1      -8.318   8.046  -2.614  1.00  0.00    -0.454 OA
BRANCH  26  27
ATOM     27  C   UNL     1      -7.531   7.097  -3.284  1.00  0.00     0.214 A 
ATOM     28  C   UNL     1      -7.077   5.939  -2.620  1.00  0.00     0.180 A 
ATOM     29  C   UNL     1      -7.160   7.295  -4.622  1.00  0.00     0.239 A 
ATOM     30  O   UNL     1      -6.233   5.115  -3.231  1.00  0.00    -0.452 OA
ATOM     31  C   UNL     1      -6.256   6.405  -5.234  1.00  0.00     0.111 A 
ATOM     32  O   UNL     1      -7.642   8.269  -5.262  1.00  0.00    -0.285 OA
ATOM     33  C   UNL     1      -5.801   5.301  -4.474  1.00  0.00     0.146 A 
ATOM     34  C   UNL     1      -5.785   6.570  -6.558  1.00  0.00     0.134 A 
ATOM     35  C   UNL     1      -4.894   4.393  -5.024  1.00  0.00     0.094 A 
ATOM     36  C   UNL     1      -4.875   5.644  -7.093  1.00  0.00     0.093 A 
ATOM     37  C   UNL     1      -4.428   4.562  -6.329  1.00  0.00     0.123 A 
BRANCH  28  38
ATOM     38  C   UNL     1      -7.494   5.612  -1.241  1.00  0.00     0.025 A 
ATOM     39  C   UNL     1      -6.749   6.106  -0.159  1.00  0.00     0.062 A 
ATOM     40  C   UNL     1      -8.603   4.786  -0.991  1.00  0.00     0.016 A 
ATOM     41  C   UNL     1      -7.126   5.817   1.157  1.00  0.00     0.158 A 
ATOM     42  C   UNL     1      -8.981   4.494   0.321  1.00  0.00     0.051 A 
ATOM     43  C   UNL     1      -8.250   5.010   1.400  1.00  0.00     0.157 A 
BRANCH  41  44
ATOM     44  O   UNL     1      -6.375   6.342   2.208  1.00  0.00    -0.504 OA
ATOM     45  H   UNL     1      -6.573   6.120   3.176  1.00  0.00     0.293 HD
ENDBRANCH  41  44
BRANCH  43  46
ATOM     46  O   UNL     1      -8.633   4.723   2.709  1.00  0.00    -0.504 OA
ATOM     47  H   UNL     1      -9.327   4.012   2.914  1.00  0.00     0.293 HD
ENDBRANCH  43  46
ENDBRANCH  28  38
BRANCH  34  48
ATOM     48  O   UNL     1      -6.203   7.648  -7.341  1.00  0.00    -0.507 OA
ATOM     49  H   UNL     1      -5.542   8.297  -7.752  1.00  0.00     0.293 HD
ENDBRANCH  34  48
BRANCH  37  50
ATOM     50  O   UNL     1      -3.519   3.648  -6.856  1.00  0.00    -0.508 OA
ATOM     51  H   UNL     1      -2.699   3.954  -7.366  1.00  0.00     0.293 HD
ENDBRANCH  37  50
ENDBRANCH  26  27
ENDBRANCH   5  26
BRANCH   4  52
ATOM     52  O   UNL     1      -9.470   9.274  -0.351  1.00  0.00    -0.384 OA
ATOM     53  H   UNL     1      -9.748   8.319  -0.356  1.00  0.00     0.211 HD
ENDBRANCH   4  52
TORSDOF 16
ENDMDL
MODEL 8
REMARK VINA RESULT:    -6.570      2.274      7.203
REMARK INTER + INTRA:         -13.334
REMARK INTER:                 -11.771
REMARK INTRA:                  -1.563
REMARK UNBOUND:                -2.538
REMARK SMILES C[C@H]1O[C@H](OC[C@H]2O[C@@H](Oc3c(-c4ccc(O)c(O)c4)oc4cc(O)cc(O)c4c3=O)[C@H](O)[C@@H](O)[C@@H]2O)[C@@H](O)[C@@H](O)[C@H]1O
REMARK SMILES IDX 7 1 36 2 34 3 32 4 9 5 8 6 6 7 5 8 4 9 1 10 2 11 42 12 3 13
REMARK SMILES IDX 40 14 38 15 43 16 41 18 39 20 37 22 35 24 10 26 11 27 12 28
REMARK SMILES IDX 30 29 21 30 29 31 31 32 22 33 27 34 23 35 26 36 24 37 13 38
REMARK SMILES IDX 20 39 14 40 18 41 15 42 16 43 19 44 17 46 28 48 25 50 33 52
REMARK H PARENT 43 17 41 19 39 21 37 23 35 25 19 45 17 47 28 49 25 51 33 53
REMARK Flexibility Score: inf
ROOT
ATOM      1  C   UNL     1      -7.892   7.567  -5.082  1.00  0.00     0.180 C 
ATOM      2  C   UNL     1      -9.410   7.757  -5.336  1.00  0.00     0.177 C 
ATOM      3  C   UNL     1      -9.890   9.163  -4.931  1.00  0.00     0.180 C 
ATOM      4  C   UNL     1      -9.016   9.787  -3.821  1.00  0.00     0.214 C 
ATOM      5  C   UNL     1      -8.295   8.704  -2.986  1.00  0.00     0.339 C 
ATOM      6  O   UNL     1      -7.491   7.802  -3.738  1.00  0.00    -0.332 OA
ENDROOT
BRANCH   1   7
ATOM      7  C   UNL     1      -6.991   8.363  -6.042  1.00  0.00     0.198 C 
BRANCH   7   8
ATOM      8  O   UNL     1      -5.912   7.555  -6.473  1.00  0.00    -0.347 OA
BRANCH   8   9
ATOM      9  C   UNL     1      -4.937   7.374  -5.451  1.00  0.00     0.281 C 
ATOM     10  C   UNL     1      -6.035   4.022  -4.378  1.00  0.00     0.041 C 
ATOM     11  C   UNL     1      -5.430   5.077  -5.308  1.00  0.00     0.150 C 
ATOM     12  C   UNL     1      -4.055   4.621  -5.843  1.00  0.00     0.174 C 
ATOM     13  O   UNL     1      -5.327   6.305  -4.599  1.00  0.00    -0.344 OA
ATOM     14  C   UNL     1      -3.467   5.740  -6.729  1.00  0.00     0.179 C 
ATOM     15  C   UNL     1      -3.516   7.117  -6.030  1.00  0.00     0.202 C 
BRANCH  12  16
ATOM     16  O   UNL     1      -3.198   4.325  -4.766  1.00  0.00    -0.388 OA
ATOM     17  H   UNL     1      -2.405   3.862  -5.142  1.00  0.00     0.211 HD
ENDBRANCH  12  16
BRANCH  14  18
ATOM     18  O   UNL     1      -2.173   5.427  -7.186  1.00  0.00    -0.387 OA
ATOM     19  H   UNL     1      -1.537   5.574  -6.441  1.00  0.00     0.211 HD
ENDBRANCH  14  18
BRANCH  15  20
ATOM     20  O   UNL     1      -2.530   7.231  -5.027  1.00  0.00    -0.385 OA
ATOM     21  H   UNL     1      -2.193   6.325  -4.807  1.00  0.00     0.211 HD
ENDBRANCH  15  20
ENDBRANCH   8   9
ENDBRANCH   7   8
ENDBRANCH   1   7
BRANCH   2  22
ATOM     22  O   UNL     1     -10.125   6.795  -4.599  1.00  0.00    -0.387 OA
ATOM     23  H   UNL     1     -11.038   6.754  -4.986  1.00  0.00     0.211 HD
ENDBRANCH   2  22
BRANCH   3  24
ATOM     24  O   UNL     1      -9.888  10.003  -6.059  1.00  0.00    -0.387 OA
ATOM     25  H   UNL     1      -9.706   9.425  -6.848  1.00  0.00     0.211 HD
ENDBRANCH   3  24
BRANCH   5  26
ATOM     26  O   UNL     1      -7.482   9.331  -1.987  1.00  0.00    -0.454 OA
BRANCH  26  27
ATOM     27  C   UNL     1      -6.082   9.238  -1.983  1.00  0.00     0.214 A 
ATOM     28  C   UNL     1      -5.421   8.344  -1.117  1.00  0.00     0.180 A 
ATOM     29  C   UNL     1      -5.311  10.053  -2.827  1.00  0.00     0.239 A 
ATOM     30  O   UNL     1      -4.095   8.358  -1.039  1.00  0.00    -0.452 OA
ATOM     31  C   UNL     1      -3.908  10.046  -2.709  1.00  0.00     0.111 A 
ATOM     32  O   UNL     1      -5.886  10.780  -3.681  1.00  0.00    -0.285 OA
ATOM     33  C   UNL     1      -3.329   9.162  -1.768  1.00  0.00     0.146 A 
ATOM     34  C   UNL     1      -3.063  10.882  -3.478  1.00  0.00     0.134 A 
ATOM     35  C   UNL     1      -1.943   9.122  -1.599  1.00  0.00     0.094 A 
ATOM     36  C   UNL     1      -1.673  10.824  -3.295  1.00  0.00     0.093 A 
ATOM     37  C   UNL     1      -1.114   9.951  -2.356  1.00  0.00     0.123 A 
BRANCH  28  38
ATOM     38  C   UNL     1      -6.159   7.392  -0.261  1.00  0.00     0.025 A 
ATOM     39  C   UNL     1      -6.164   7.573   1.130  1.00  0.00     0.062 A 
ATOM     40  C   UNL     1      -6.830   6.286  -0.812  1.00  0.00     0.016 A 
ATOM     41  C   UNL     1      -6.861   6.690   1.962  1.00  0.00     0.158 A 
ATOM     42  C   UNL     1      -7.525   5.401   0.015  1.00  0.00     0.051 A 
ATOM     43  C   UNL     1      -7.548   5.600   1.402  1.00  0.00     0.157 A 
BRANCH  41  44
ATOM     44  O   UNL     1      -6.860   6.913   3.338  1.00  0.00    -0.504 OA
ATOM     45  H   UNL     1      -6.280   7.623   3.768  1.00  0.00     0.293 HD
ENDBRANCH  41  44
BRANCH  43  46
ATOM     46  O   UNL     1      -8.248   4.720   2.225  1.00  0.00    -0.504 OA
ATOM     47  H   UNL     1      -8.363   4.900   3.217  1.00  0.00     0.293 HD
ENDBRANCH  43  46
ENDBRANCH  28  38
BRANCH  34  48
ATOM     48  O   UNL     1      -3.593  11.774  -4.414  1.00  0.00    -0.507 OA
ATOM     49  H   UNL     1      -3.315  12.747  -4.439  1.00  0.00     0.293 HD
ENDBRANCH  34  48
BRANCH  37  50
ATOM     50  O   UNL     1       0.265   9.899  -2.167  1.00  0.00    -0.508 OA
ATOM     51  H   UNL     1       0.887  10.539  -2.647  1.00  0.00     0.293 HD
ENDBRANCH  37  50
ENDBRANCH  26  27
ENDBRANCH   5  26
BRANCH   4  52
ATOM     52  O   UNL     1      -9.824  10.558  -2.968  1.00  0.00    -0.384 OA
ATOM     53  H   UNL     1     -10.222   9.931  -2.308  1.00  0.00     0.211 HD
ENDBRANCH   4  52
TORSDOF 16
ENDMDL
MODEL 9
REMARK VINA RESULT:    -6.488      2.024      3.358
REMARK INTER + INTRA:         -13.198
REMARK INTER:                 -11.212
REMARK INTRA:                  -1.986
REMARK UNBOUND:                -2.538
REMARK SMILES C[C@H]1O[C@H](OC[C@H]2O[C@@H](Oc3c(-c4ccc(O)c(O)c4)oc4cc(O)cc(O)c4c3=O)[C@H](O)[C@@H](O)[C@@H]2O)[C@@H](O)[C@@H](O)[C@H]1O
REMARK SMILES IDX 7 1 36 2 34 3 32 4 9 5 8 6 6 7 5 8 4 9 1 10 2 11 42 12 3 13
REMARK SMILES IDX 40 14 38 15 43 16 41 18 39 20 37 22 35 24 10 26 11 27 12 28
REMARK SMILES IDX 30 29 21 30 29 31 31 32 22 33 27 34 23 35 26 36 24 37 13 38
REMARK SMILES IDX 20 39 14 40 18 41 15 42 16 43 19 44 17 46 28 48 25 50 33 52
REMARK H PARENT 43 17 41 19 39 21 37 23 35 25 19 45 17 47 28 49 25 51 33 53
REMARK Flexibility Score: inf
ROOT
ATOM      1  C   UNL     1      -4.574   8.070  -0.858  1.00  0.00     0.180 C 
ATOM      2  C   UNL     1      -3.431   9.051  -1.227  1.00  0.00     0.177 C 
ATOM      3  C   UNL     1      -3.866  10.062  -2.305  1.00  0.00     0.180 C 
ATOM      4  C   UNL     1      -4.992   9.512  -3.209  1.00  0.00     0.214 C 
ATOM      5  C   UNL     1      -4.996   7.966  -3.236  1.00  0.00     0.339 C 
ATOM      6  O   UNL     1      -5.100   7.342  -1.961  1.00  0.00    -0.332 OA
ENDROOT
BRANCH   1   7
ATOM      7  C   UNL     1      -5.723   8.716  -0.064  1.00  0.00     0.198 C 
BRANCH   7   8
ATOM      8  O   UNL     1      -6.875   7.896  -0.129  1.00  0.00    -0.347 OA
BRANCH   8   9
ATOM      9  C   UNL     1      -6.957   7.000   0.975  1.00  0.00     0.281 C 
ATOM     10  C   UNL     1      -9.399   8.940   2.941  1.00  0.00     0.041 C 
ATOM     11  C   UNL     1      -8.885   8.081   1.782  1.00  0.00     0.150 C 
ATOM     12  C   UNL     1      -9.819   6.877   1.529  1.00  0.00     0.174 C 
ATOM     13  O   UNL     1      -7.563   7.655   2.081  1.00  0.00    -0.344 OA
ATOM     14  C   UNL     1      -9.229   6.017   0.391  1.00  0.00     0.179 C 
ATOM     15  C   UNL     1      -7.734   5.699   0.623  1.00  0.00     0.202 C 
BRANCH  12  16
ATOM     16  O   UNL     1      -9.959   6.125   2.711  1.00  0.00    -0.388 OA
ATOM     17  H   UNL     1      -9.057   5.796   2.957  1.00  0.00     0.211 HD
ENDBRANCH  12  16
BRANCH  14  18
ATOM     18  O   UNL     1      -9.985   4.853   0.161  1.00  0.00    -0.387 OA
ATOM     19  H   UNL     1      -9.490   4.082   0.538  1.00  0.00     0.211 HD
ENDBRANCH  14  18
BRANCH  15  20
ATOM     20  O   UNL     1      -7.556   4.715   1.618  1.00  0.00    -0.385 OA
ATOM     21  H   UNL     1      -8.431   4.532   2.046  1.00  0.00     0.211 HD
ENDBRANCH  15  20
ENDBRANCH   8   9
ENDBRANCH   7   8
ENDBRANCH   1   7
BRANCH   2  22
ATOM     22  O   UNL     1      -2.329   8.317  -1.703  1.00  0.00    -0.387 OA
ATOM     23  H   UNL     1      -1.820   8.918  -2.308  1.00  0.00     0.211 HD
ENDBRANCH   2  22
BRANCH   3  24
ATOM     24  O   UNL     1      -4.298  11.249  -1.686  1.00  0.00    -0.387 OA
ATOM     25  H   UNL     1      -3.819  11.312  -0.817  1.00  0.00     0.211 HD
ENDBRANCH   3  24
BRANCH   5  26
ATOM     26  O   UNL     1      -6.068   7.505  -4.068  1.00  0.00    -0.454 OA
BRANCH  26  27
ATOM     27  C   UNL     1      -6.390   6.147  -4.204  1.00  0.00     0.214 A 
ATOM     28  C   UNL     1      -5.520   5.263  -4.872  1.00  0.00     0.180 A 
ATOM     29  C   UNL     1      -7.599   5.646  -3.696  1.00  0.00     0.239 A 
ATOM     30  O   UNL     1      -5.896   4.009  -5.099  1.00  0.00    -0.452 OA
ATOM     31  C   UNL     1      -7.968   4.314  -3.964  1.00  0.00     0.111 A 
ATOM     32  O   UNL     1      -8.339   6.397  -3.004  1.00  0.00    -0.285 OA
ATOM     33  C   UNL     1      -7.061   3.513  -4.698  1.00  0.00     0.146 A 
ATOM     34  C   UNL     1      -9.197   3.752  -3.542  1.00  0.00     0.134 A 
ATOM     35  C   UNL     1      -7.380   2.188  -5.004  1.00  0.00     0.094 A 
ATOM     36  C   UNL     1      -9.497   2.418  -3.858  1.00  0.00     0.093 A 
ATOM     37  C   UNL     1      -8.594   1.639  -4.590  1.00  0.00     0.123 A 
BRANCH  28  38
ATOM     38  C   UNL     1      -4.191   5.690  -5.359  1.00  0.00     0.025 A 
ATOM     39  C   UNL     1      -3.166   5.945  -4.435  1.00  0.00     0.062 A 
ATOM     40  C   UNL     1      -3.943   5.880  -6.730  1.00  0.00     0.016 A 
ATOM     41  C   UNL     1      -1.897   6.343  -4.870  1.00  0.00     0.158 A 
ATOM     42  C   UNL     1      -2.679   6.279  -7.167  1.00  0.00     0.051 A 
ATOM     43  C   UNL     1      -1.650   6.508  -6.243  1.00  0.00     0.157 A 
BRANCH  41  44
ATOM     44  O   UNL     1      -0.897   6.568  -3.925  1.00  0.00    -0.504 OA
ATOM     45  H   UNL     1      -0.315   5.819  -3.569  1.00  0.00     0.293 HD
ENDBRANCH  41  44
BRANCH  43  46
ATOM     46  O   UNL     1      -0.387   6.901  -6.682  1.00  0.00    -0.504 OA
ATOM     47  H   UNL     1       0.381   7.036  -6.033  1.00  0.00     0.293 HD
ENDBRANCH  43  46
ENDBRANCH  28  38
BRANCH  34  48
ATOM     48  O   UNL     1     -10.123   4.509  -2.821  1.00  0.00    -0.507 OA
ATOM     49  H   UNL     1     -10.922   4.082  -2.367  1.00  0.00     0.293 HD
ENDBRANCH  34  48
BRANCH  37  50
ATOM     50  O   UNL     1      -8.895   0.318  -4.912  1.00  0.00    -0.508 OA
ATOM     51  H   UNL     1      -9.851   0.014  -5.055  1.00  0.00     0.293 HD
ENDBRANCH  37  50
ENDBRANCH  26  27
ENDBRANCH   5  26
BRANCH   4  52
ATOM     52  O   UNL     1      -4.814   9.991  -4.517  1.00  0.00    -0.384 OA
ATOM     53  H   UNL     1      -3.943   9.635  -4.837  1.00  0.00     0.211 HD
ENDBRANCH   4  52
TORSDOF 16
ENDMDL
