MODEL 1
REMARK VINA RESULT:    -7.038      0.000      0.000
REMARK INTER + INTRA:          -7.655
REMARK INTER:                  -7.655
REMARK INTRA:                   0.000
REMARK UNBOUND:                 0.000
REMARK SMILES Cc1cc(O)c2c(c1)C(=O)c1cc(O)cc(O)c1C2=O
REMARK SMILES IDX 1 1 2 2 8 3 7 4 6 5 4 6 3 7 19 8 20 9 18 10 11 11 9 12 10 13
REMARK SMILES IDX 12 14 13 15 15 16 16 17 5 18 17 20 14 22
REMARK H PARENT 5 19 17 21 14 23
REMARK Flexibility Score: inf
ROOT
ATOM      1  C   UNL     1      -4.000  -5.795  -4.652  1.00  0.00     0.044 C 
ATOM      2  C   UNL     1      -4.179  -4.309  -4.757  1.00  0.00    -0.047 A 
ATOM      3  C   UNL     1      -5.458  -3.764  -4.921  1.00  0.00     0.016 A 
ATOM      4  C   UNL     1      -5.641  -2.371  -4.982  1.00  0.00     0.038 A 
ATOM      5  C   UNL     1      -4.528  -1.512  -4.872  1.00  0.00     0.076 A 
ATOM      6  C   UNL     1      -3.241  -2.066  -4.679  1.00  0.00     0.127 A 
ATOM      7  C   UNL     1      -3.079  -3.456  -4.619  1.00  0.00     0.050 A 
ATOM      8  C   UNL     1      -4.734  -0.043  -4.981  1.00  0.00     0.201 C 
ATOM      9  O   UNL     1      -3.753   0.701  -5.249  1.00  0.00    -0.288 OA
ATOM     10  C   UNL     1      -6.106   0.529  -4.889  1.00  0.00     0.076 A 
ATOM     11  C   UNL     1      -7.209  -0.339  -5.061  1.00  0.00     0.041 A 
ATOM     12  C   UNL     1      -6.997  -1.803  -5.162  1.00  0.00     0.194 C 
ATOM     13  O   UNL     1      -7.975  -2.568  -5.385  1.00  0.00    -0.289 OA
ATOM     14  C   UNL     1      -8.512   0.187  -5.126  1.00  0.00     0.059 A 
ATOM     15  C   UNL     1      -8.728   1.562  -5.007  1.00  0.00     0.120 A 
ATOM     16  C   UNL     1      -7.650   2.416  -4.790  1.00  0.00     0.093 A 
ATOM     17  C   UNL     1      -6.347   1.918  -4.693  1.00  0.00     0.131 A 
ENDROOT
BRANCH   6  18
ATOM     18  O   UNL     1      -2.126  -1.241  -4.535  1.00  0.00    -0.507 OA
ATOM     19  H   UNL     1      -1.419  -1.418  -3.831  1.00  0.00     0.293 HD
ENDBRANCH   6  18
BRANCH  17  20
ATOM     20  O   UNL     1      -5.339   2.827  -4.368  1.00  0.00    -0.507 OA
ATOM     21  H   UNL     1      -4.433   2.557  -4.010  1.00  0.00     0.293 HD
ENDBRANCH  17  20
BRANCH  15  22
ATOM     22  O   UNL     1     -10.016   2.087  -5.088  1.00  0.00    -0.508 OA
ATOM     23  H   UNL     1     -10.761   1.763  -4.483  1.00  0.00     0.293 HD
ENDBRANCH  15  22
TORSDOF 3
ENDMDL
MODEL 2
REMARK VINA RESULT:    -6.444      1.512      5.516
REMARK INTER + INTRA:          -7.010
REMARK INTER:                  -7.010
REMARK INTRA:                   0.000
REMARK UNBOUND:                 0.000
REMARK SMILES Cc1cc(O)c2c(c1)C(=O)c1cc(O)cc(O)c1C2=O
REMARK SMILES IDX 1 1 2 2 8 3 7 4 6 5 4 6 3 7 19 8 20 9 18 10 11 11 9 12 10 13
REMARK SMILES IDX 12 14 13 15 15 16 16 17 5 18 17 20 14 22
REMARK H PARENT 5 19 17 21 14 23
REMARK Flexibility Score: inf
ROOT
ATOM      1  C   UNL     1      -9.447   2.383  -7.003  1.00  0.00     0.044 C 
ATOM      2  C   UNL     1      -8.337   1.605  -6.359  1.00  0.00    -0.047 A 
ATOM      3  C   UNL     1      -8.359   0.205  -6.371  1.00  0.00     0.016 A 
ATOM      4  C   UNL     1      -7.305  -0.533  -5.804  1.00  0.00     0.038 A 
ATOM      5  C   UNL     1      -6.211   0.140  -5.222  1.00  0.00     0.076 A 
ATOM      6  C   UNL     1      -6.180   1.554  -5.237  1.00  0.00     0.127 A 
ATOM      7  C   UNL     1      -7.238   2.272  -5.808  1.00  0.00     0.050 A 
ATOM      8  C   UNL     1      -5.125  -0.655  -4.590  1.00  0.00     0.201 C 
ATOM      9  O   UNL     1      -4.349  -0.099  -3.767  1.00  0.00    -0.288 OA
ATOM     10  C   UNL     1      -5.028  -2.120  -4.838  1.00  0.00     0.076 A 
ATOM     11  C   UNL     1      -6.158  -2.788  -5.367  1.00  0.00     0.041 A 
ATOM     12  C   UNL     1      -7.340  -2.013  -5.814  1.00  0.00     0.194 C 
ATOM     13  O   UNL     1      -8.372  -2.616  -6.220  1.00  0.00    -0.289 OA
ATOM     14  C   UNL     1      -6.154  -4.190  -5.479  1.00  0.00     0.059 A 
ATOM     15  C   UNL     1      -5.037  -4.930  -5.085  1.00  0.00     0.120 A 
ATOM     16  C   UNL     1      -3.905  -4.274  -4.608  1.00  0.00     0.093 A 
ATOM     17  C   UNL     1      -3.870  -2.879  -4.512  1.00  0.00     0.131 A 
ENDROOT
BRANCH   6  18
ATOM     18  O   UNL     1      -5.096   2.247  -4.698  1.00  0.00    -0.507 OA
ATOM     19  H   UNL     1      -4.621   2.979  -5.213  1.00  0.00     0.293 HD
ENDBRANCH   6  18
BRANCH  17  20
ATOM     20  O   UNL     1      -2.662  -2.296  -4.127  1.00  0.00    -0.507 OA
ATOM     21  H   UNL     1      -1.850  -2.238  -4.726  1.00  0.00     0.293 HD
ENDBRANCH  17  20
BRANCH  15  22
ATOM     22  O   UNL     1      -5.038  -6.320  -5.178  1.00  0.00    -0.508 OA
ATOM     23  H   UNL     1      -4.727  -6.796  -6.017  1.00  0.00     0.293 HD
ENDBRANCH  15  22
TORSDOF 3
ENDMDL
MODEL 3
REMARK VINA RESULT:    -6.383      1.516      6.310
REMARK INTER + INTRA:          -6.942
REMARK INTER:                  -6.942
REMARK INTRA:                   0.000
REMARK UNBOUND:                 0.000
REMARK SMILES Cc1cc(O)c2c(c1)C(=O)c1cc(O)cc(O)c1C2=O
REMARK SMILES IDX 1 1 2 2 8 3 7 4 6 5 4 6 3 7 19 8 20 9 18 10 11 11 9 12 10 13
REMARK SMILES IDX 12 14 13 15 15 16 16 17 5 18 17 20 14 22
REMARK H PARENT 5 19 17 21 14 23
REMARK Flexibility Score: inf
ROOT
ATOM      1  C   UNL     1      -7.195   4.144  -4.780  1.00  0.00     0.044 C 
ATOM      2  C   UNL     1      -6.968   2.664  -4.875  1.00  0.00    -0.047 A 
ATOM      3  C   UNL     1      -5.713   2.166  -5.247  1.00  0.00     0.016 A 
ATOM      4  C   UNL     1      -5.479   0.781  -5.302  1.00  0.00     0.038 A 
ATOM      5  C   UNL     1      -6.515  -0.119  -4.974  1.00  0.00     0.076 A 
ATOM      6  C   UNL     1      -7.772   0.388  -4.573  1.00  0.00     0.127 A 
ATOM      7  C   UNL     1      -7.986   1.772  -4.522  1.00  0.00     0.050 A 
ATOM      8  C   UNL     1      -6.264  -1.581  -5.078  1.00  0.00     0.201 C 
ATOM      9  O   UNL     1      -7.240  -2.374  -5.148  1.00  0.00    -0.288 OA
ATOM     10  C   UNL     1      -4.872  -2.093  -5.214  1.00  0.00     0.076 A 
ATOM     11  C   UNL     1      -3.857  -1.186  -5.602  1.00  0.00     0.041 A 
ATOM     12  C   UNL     1      -4.152   0.262  -5.704  1.00  0.00     0.194 C 
ATOM     13  O   UNL     1      -3.264   1.059  -6.116  1.00  0.00    -0.289 OA
ATOM     14  C   UNL     1      -2.563  -1.661  -5.881  1.00  0.00     0.059 A 
ATOM     15  C   UNL     1      -2.266  -3.021  -5.765  1.00  0.00     0.120 A 
ATOM     16  C   UNL     1      -3.248  -3.911  -5.339  1.00  0.00     0.093 A 
ATOM     17  C   UNL     1      -4.536  -3.463  -5.027  1.00  0.00     0.131 A 
ENDROOT
BRANCH   6  18
ATOM     18  O   UNL     1      -8.806  -0.476  -4.212  1.00  0.00    -0.507 OA
ATOM     19  H   UNL     1      -8.959  -0.752  -3.249  1.00  0.00     0.293 HD
ENDBRANCH   6  18
BRANCH  17  20
ATOM     20  O   UNL     1      -5.428  -4.400  -4.504  1.00  0.00    -0.507 OA
ATOM     21  H   UNL     1      -5.296  -5.400  -4.570  1.00  0.00     0.293 HD
ENDBRANCH  17  20
BRANCH  15  22
ATOM     22  O   UNL     1      -0.989  -3.496  -6.059  1.00  0.00    -0.508 OA
ATOM     23  H   UNL     1      -0.768  -3.904  -6.960  1.00  0.00     0.293 HD
ENDBRANCH  15  22
TORSDOF 3
ENDMDL
MODEL 4
REMARK VINA RESULT:    -6.329      1.760      6.595
REMARK INTER + INTRA:          -6.884
REMARK INTER:                  -6.884
REMARK INTRA:                   0.000
REMARK UNBOUND:                 0.000
REMARK SMILES Cc1cc(O)c2c(c1)C(=O)c1cc(O)cc(O)c1C2=O
REMARK SMILES IDX 1 1 2 2 8 3 7 4 6 5 4 6 3 7 19 8 20 9 18 10 11 11 9 12 10 13
REMARK SMILES IDX 12 14 13 15 15 16 16 17 5 18 17 20 14 22
REMARK H PARENT 5 19 17 21 14 23
REMARK Flexibility Score: inf
ROOT
ATOM      1  C   UNL     1      -6.057   2.493  -4.875  1.00  0.00     0.044 C 
ATOM      2  C   UNL     1      -6.040   1.000  -5.028  1.00  0.00    -0.047 A 
ATOM      3  C   UNL     1      -4.856   0.284  -4.813  1.00  0.00     0.016 A 
ATOM      4  C   UNL     1      -4.838  -1.118  -4.917  1.00  0.00     0.038 A 
ATOM      5  C   UNL     1      -6.024  -1.814  -5.235  1.00  0.00     0.076 A 
ATOM      6  C   UNL     1      -7.223  -1.088  -5.424  1.00  0.00     0.127 A 
ATOM      7  C   UNL     1      -7.222   0.308  -5.314  1.00  0.00     0.050 A 
ATOM      8  C   UNL     1      -5.979  -3.292  -5.381  1.00  0.00     0.201 C 
ATOM      9  O   UNL     1      -6.902  -3.882  -6.005  1.00  0.00    -0.288 OA
ATOM     10  C   UNL     1      -4.795  -4.057  -4.897  1.00  0.00     0.076 A 
ATOM     11  C   UNL     1      -3.598  -3.349  -4.641  1.00  0.00     0.041 A 
ATOM     12  C   UNL     1      -3.581  -1.868  -4.695  1.00  0.00     0.194 C 
ATOM     13  O   UNL     1      -2.496  -1.244  -4.534  1.00  0.00    -0.289 OA
ATOM     14  C   UNL     1      -2.422  -4.054  -4.324  1.00  0.00     0.059 A 
ATOM     15  C   UNL     1      -2.430  -5.448  -4.245  1.00  0.00     0.120 A 
ATOM     16  C   UNL     1      -3.617  -6.146  -4.450  1.00  0.00     0.093 A 
ATOM     17  C   UNL     1      -4.807  -5.471  -4.739  1.00  0.00     0.131 A 
ENDROOT
BRANCH   6  18
ATOM     18  O   UNL     1      -8.417  -1.750  -5.707  1.00  0.00    -0.507 OA
ATOM     19  H   UNL     1      -8.975  -1.519  -6.522  1.00  0.00     0.293 HD
ENDBRANCH   6  18
BRANCH  17  20
ATOM     20  O   UNL     1      -5.971  -6.236  -4.824  1.00  0.00    -0.507 OA
ATOM     21  H   UNL     1      -6.839  -5.899  -5.216  1.00  0.00     0.293 HD
ENDBRANCH  17  20
BRANCH  15  22
ATOM     22  O   UNL     1      -1.263  -6.149  -3.948  1.00  0.00    -0.508 OA
ATOM     23  H   UNL     1      -1.158  -6.663  -3.081  1.00  0.00     0.293 HD
ENDBRANCH  15  22
TORSDOF 3
ENDMDL
MODEL 5
REMARK VINA RESULT:    -6.228      6.767      9.938
REMARK INTER + INTRA:          -6.774
REMARK INTER:                  -6.774
REMARK INTRA:                   0.000
REMARK UNBOUND:                 0.000
REMARK SMILES Cc1cc(O)c2c(c1)C(=O)c1cc(O)cc(O)c1C2=O
REMARK SMILES IDX 1 1 2 2 8 3 7 4 6 5 4 6 3 7 19 8 20 9 18 10 11 11 9 12 10 13
REMARK SMILES IDX 12 14 13 15 15 16 16 17 5 18 17 20 14 22
REMARK H PARENT 5 19 17 21 14 23
REMARK Flexibility Score: inf
ROOT
ATOM      1  C   UNL     1       2.899  -8.620   1.488  1.00  0.00     0.044 C 
ATOM      2  C   UNL     1       2.770  -8.280   0.032  1.00  0.00    -0.047 A 
ATOM      3  C   UNL     1       1.605  -7.672  -0.449  1.00  0.00     0.016 A 
ATOM      4  C   UNL     1       1.489  -7.315  -1.804  1.00  0.00     0.038 A 
ATOM      5  C   UNL     1       2.559  -7.566  -2.690  1.00  0.00     0.076 A 
ATOM      6  C   UNL     1       3.744  -8.156  -2.194  1.00  0.00     0.127 A 
ATOM      7  C   UNL     1       3.842  -8.502  -0.840  1.00  0.00     0.050 A 
ATOM      8  C   UNL     1       2.404  -7.221  -4.127  1.00  0.00     0.201 C 
ATOM      9  O   UNL     1       3.167  -7.753  -4.977  1.00  0.00    -0.288 OA
ATOM     10  C   UNL     1       1.283  -6.346  -4.571  1.00  0.00     0.076 A 
ATOM     11  C   UNL     1       0.192  -6.154  -3.691  1.00  0.00     0.041 A 
ATOM     12  C   UNL     1       0.250  -6.679  -2.307  1.00  0.00     0.194 C 
ATOM     13  O   UNL     1      -0.752  -6.567  -1.548  1.00  0.00    -0.289 OA
ATOM     14  C   UNL     1      -0.947  -5.455  -4.131  1.00  0.00     0.059 A 
ATOM     15  C   UNL     1      -1.005  -4.935  -5.425  1.00  0.00     0.120 A 
ATOM     16  C   UNL     1       0.086  -5.080  -6.279  1.00  0.00     0.093 A 
ATOM     17  C   UNL     1       1.242  -5.745  -5.860  1.00  0.00     0.131 A 
ENDROOT
BRANCH   6  18
ATOM     18  O   UNL     1       4.830  -8.387  -3.038  1.00  0.00    -0.507 OA
ATOM     19  H   UNL     1       5.775  -8.465  -2.682  1.00  0.00     0.293 HD
ENDBRANCH   6  18
BRANCH  17  20
ATOM     20  O   UNL     1       2.328  -5.752  -6.738  1.00  0.00    -0.507 OA
ATOM     21  H   UNL     1       2.274  -6.068  -7.696  1.00  0.00     0.293 HD
ENDBRANCH  17  20
BRANCH  15  22
ATOM     22  O   UNL     1      -2.139  -4.257  -5.868  1.00  0.00    -0.508 OA
ATOM     23  H   UNL     1      -2.497  -3.445  -5.379  1.00  0.00     0.293 HD
ENDBRANCH  15  22
TORSDOF 3
ENDMDL
MODEL 6
REMARK VINA RESULT:    -6.155      2.111      5.781
REMARK INTER + INTRA:          -6.695
REMARK INTER:                  -6.695
REMARK INTRA:                   0.000
REMARK UNBOUND:                 0.000
REMARK SMILES Cc1cc(O)c2c(c1)C(=O)c1cc(O)cc(O)c1C2=O
REMARK SMILES IDX 1 1 2 2 8 3 7 4 6 5 4 6 3 7 19 8 20 9 18 10 11 11 9 12 10 13
REMARK SMILES IDX 12 14 13 15 15 16 16 17 5 18 17 20 14 22
REMARK H PARENT 5 19 17 21 14 23
REMARK Flexibility Score: inf
ROOT
ATOM      1  C   UNL     1      -7.121   1.948  -5.956  1.00  0.00     0.044 C 
ATOM      2  C   UNL     1      -6.462   0.656  -5.571  1.00  0.00    -0.047 A 
ATOM      3  C   UNL     1      -7.096  -0.564  -5.837  1.00  0.00     0.016 A 
ATOM      4  C   UNL     1      -6.471  -1.782  -5.514  1.00  0.00     0.038 A 
ATOM      5  C   UNL     1      -5.191  -1.778  -4.921  1.00  0.00     0.076 A 
ATOM      6  C   UNL     1      -4.543  -0.544  -4.680  1.00  0.00     0.127 A 
ATOM      7  C   UNL     1      -5.180   0.658  -5.010  1.00  0.00     0.050 A 
ATOM      8  C   UNL     1      -4.562  -3.072  -4.548  1.00  0.00     0.201 C 
ATOM      9  O   UNL     1      -3.619  -3.085  -3.712  1.00  0.00    -0.288 OA
ATOM     10  C   UNL     1      -5.118  -4.352  -5.070  1.00  0.00     0.076 A 
ATOM     11  C   UNL     1      -6.427  -4.347  -5.606  1.00  0.00     0.041 A 
ATOM     12  C   UNL     1      -7.151  -3.067  -5.792  1.00  0.00     0.194 C 
ATOM     13  O   UNL     1      -8.343  -3.072  -6.205  1.00  0.00    -0.289 OA
ATOM     14  C   UNL     1      -7.039  -5.560  -5.972  1.00  0.00     0.059 A 
ATOM     15  C   UNL     1      -6.358  -6.770  -5.825  1.00  0.00     0.120 A 
ATOM     16  C   UNL     1      -5.052  -6.776  -5.342  1.00  0.00     0.093 A 
ATOM     17  C   UNL     1      -4.409  -5.584  -4.996  1.00  0.00     0.131 A 
ENDROOT
BRANCH   6  18
ATOM     18  O   UNL     1      -3.264  -0.510  -4.125  1.00  0.00    -0.507 OA
ATOM     19  H   UNL     1      -2.787  -1.354  -3.831  1.00  0.00     0.293 HD
ENDBRANCH   6  18
BRANCH  17  20
ATOM     20  O   UNL     1      -3.067  -5.668  -4.623  1.00  0.00    -0.507 OA
ATOM     21  H   UNL     1      -2.297  -5.492  -5.253  1.00  0.00     0.293 HD
ENDBRANCH  17  20
BRANCH  15  22
ATOM     22  O   UNL     1      -6.969  -7.974  -6.171  1.00  0.00    -0.508 OA
ATOM     23  H   UNL     1      -6.597  -8.567  -6.904  1.00  0.00     0.293 HD
ENDBRANCH  15  22
TORSDOF 3
ENDMDL
MODEL 7
REMARK VINA RESULT:    -6.113      2.348      6.377
REMARK INTER + INTRA:          -6.650
REMARK INTER:                  -6.650
REMARK INTRA:                   0.000
REMARK UNBOUND:                 0.000
REMARK SMILES Cc1cc(O)c2c(c1)C(=O)c1cc(O)cc(O)c1C2=O
REMARK SMILES IDX 1 1 2 2 8 3 7 4 6 5 4 6 3 7 19 8 20 9 18 10 11 11 9 12 10 13
REMARK SMILES IDX 12 14 13 15 15 16 16 17 5 18 17 20 14 22
REMARK H PARENT 5 19 17 21 14 23
REMARK Flexibility Score: inf
ROOT
ATOM      1  C   UNL     1      -8.345  -0.146  -5.865  1.00  0.00     0.044 C 
ATOM      2  C   UNL     1      -7.164  -0.980  -5.462  1.00  0.00    -0.047 A 
ATOM      3  C   UNL     1      -7.169  -2.362  -5.686  1.00  0.00     0.016 A 
ATOM      4  C   UNL     1      -6.053  -3.146  -5.347  1.00  0.00     0.038 A 
ATOM      5  C   UNL     1      -4.913  -2.538  -4.780  1.00  0.00     0.076 A 
ATOM      6  C   UNL     1      -4.902  -1.138  -4.582  1.00  0.00     0.127 A 
ATOM      7  C   UNL     1      -6.023  -0.372  -4.928  1.00  0.00     0.050 A 
ATOM      8  C   UNL     1      -3.757  -3.387  -4.389  1.00  0.00     0.201 C 
ATOM      9  O   UNL     1      -2.908  -2.940  -3.572  1.00  0.00    -0.288 OA
ATOM     10  C   UNL     1      -3.667  -4.795  -4.867  1.00  0.00     0.076 A 
ATOM     11  C   UNL     1      -4.837  -5.408  -5.377  1.00  0.00     0.041 A 
ATOM     12  C   UNL     1      -6.068  -4.609  -5.579  1.00  0.00     0.194 C 
ATOM     13  O   UNL     1      -7.128  -5.172  -5.968  1.00  0.00    -0.289 OA
ATOM     14  C   UNL     1      -4.826  -6.776  -5.702  1.00  0.00     0.059 A 
ATOM     15  C   UNL     1      -3.665  -7.534  -5.539  1.00  0.00     0.120 A 
ATOM     16  C   UNL     1      -2.498  -6.926  -5.082  1.00  0.00     0.093 A 
ATOM     17  C   UNL     1      -2.472  -5.561  -4.779  1.00  0.00     0.131 A 
ENDROOT
BRANCH   6  18
ATOM     18  O   UNL     1      -3.778  -0.503  -4.054  1.00  0.00    -0.507 OA
ATOM     19  H   UNL     1      -3.666  -0.359  -3.057  1.00  0.00     0.293 HD
ENDBRANCH   6  18
BRANCH  17  20
ATOM     20  O   UNL     1      -1.238  -5.008  -4.431  1.00  0.00    -0.507 OA
ATOM     21  H   UNL     1      -0.351  -5.365  -4.757  1.00  0.00     0.293 HD
ENDBRANCH  17  20
BRANCH  15  22
ATOM     22  O   UNL     1      -3.656  -8.894  -5.844  1.00  0.00    -0.508 OA
ATOM     23  H   UNL     1      -4.439  -9.495  -5.613  1.00  0.00     0.293 HD
ENDBRANCH  15  22
TORSDOF 3
ENDMDL
MODEL 8
REMARK VINA RESULT:    -6.081      1.584      3.694
REMARK INTER + INTRA:          -6.614
REMARK INTER:                  -6.614
REMARK INTRA:                   0.000
REMARK UNBOUND:                 0.000
REMARK SMILES Cc1cc(O)c2c(c1)C(=O)c1cc(O)cc(O)c1C2=O
REMARK SMILES IDX 1 1 2 2 8 3 7 4 6 5 4 6 3 7 19 8 20 9 18 10 11 11 9 12 10 13
REMARK SMILES IDX 12 14 13 15 15 16 16 17 5 18 17 20 14 22
REMARK H PARENT 5 19 17 21 14 23
REMARK Flexibility Score: inf
ROOT
ATOM      1  C   UNL     1      -2.122  -6.521  -4.077  1.00  0.00     0.044 C 
ATOM      2  C   UNL     1      -3.254  -5.594  -4.409  1.00  0.00    -0.047 A 
ATOM      3  C   UNL     1      -3.066  -4.208  -4.362  1.00  0.00     0.016 A 
ATOM      4  C   UNL     1      -4.109  -3.330  -4.708  1.00  0.00     0.038 A 
ATOM      5  C   UNL     1      -5.357  -3.849  -5.113  1.00  0.00     0.076 A 
ATOM      6  C   UNL     1      -5.534  -5.250  -5.185  1.00  0.00     0.127 A 
ATOM      7  C   UNL     1      -4.482  -6.109  -4.839  1.00  0.00     0.050 A 
ATOM      8  C   UNL     1      -6.461  -2.908  -5.435  1.00  0.00     0.201 C 
ATOM      9  O   UNL     1      -7.650  -3.327  -5.440  1.00  0.00    -0.288 OA
ATOM     10  C   UNL     1      -6.177  -1.460  -5.636  1.00  0.00     0.076 A 
ATOM     11  C   UNL     1      -4.943  -0.947  -5.170  1.00  0.00     0.041 A 
ATOM     12  C   UNL     1      -3.903  -1.865  -4.649  1.00  0.00     0.194 C 
ATOM     13  O   UNL     1      -2.833  -1.399  -4.169  1.00  0.00    -0.289 OA
ATOM     14  C   UNL     1      -4.701   0.438  -5.210  1.00  0.00     0.059 A 
ATOM     15  C   UNL     1      -5.662   1.312  -5.722  1.00  0.00     0.120 A 
ATOM     16  C   UNL     1      -6.859   0.808  -6.226  1.00  0.00     0.093 A 
ATOM     17  C   UNL     1      -7.115  -0.567  -6.224  1.00  0.00     0.131 A 
ENDROOT
BRANCH   6  18
ATOM     18  O   UNL     1      -6.746  -5.792  -5.613  1.00  0.00    -0.507 OA
ATOM     19  H   UNL     1      -6.931  -6.787  -5.564  1.00  0.00     0.293 HD
ENDBRANCH   6  18
BRANCH  17  20
ATOM     20  O   UNL     1      -8.289  -0.998  -6.845  1.00  0.00    -0.507 OA
ATOM     21  H   UNL     1      -8.809  -0.443  -7.510  1.00  0.00     0.293 HD
ENDBRANCH  17  20
BRANCH  15  22
ATOM     22  O   UNL     1      -5.431   2.686  -5.747  1.00  0.00    -0.508 OA
ATOM     23  H   UNL     1      -5.474   3.216  -6.610  1.00  0.00     0.293 HD
ENDBRANCH  15  22
TORSDOF 3
ENDMDL
MODEL 9
REMARK VINA RESULT:    -5.931      1.629      2.411
REMARK INTER + INTRA:          -6.451
REMARK INTER:                  -6.451
REMARK INTRA:                   0.000
REMARK UNBOUND:                 0.000
REMARK SMILES Cc1cc(O)c2c(c1)C(=O)c1cc(O)cc(O)c1C2=O
REMARK SMILES IDX 1 1 2 2 8 3 7 4 6 5 4 6 3 7 19 8 20 9 18 10 11 11 9 12 10 13
REMARK SMILES IDX 12 14 13 15 15 16 16 17 5 18 17 20 14 22
REMARK H PARENT 5 19 17 21 14 23
REMARK Flexibility Score: inf
ROOT
ATOM      1  C   UNL     1      -3.671  -3.136  -4.124  1.00  0.00     0.044 C 
ATOM      2  C   UNL     1      -4.234  -1.838  -4.623  1.00  0.00    -0.047 A 
ATOM      3  C   UNL     1      -5.570  -1.505  -4.367  1.00  0.00     0.016 A 
ATOM      4  C   UNL     1      -6.097  -0.274  -4.798  1.00  0.00     0.038 A 
ATOM      5  C   UNL     1      -5.272   0.639  -5.489  1.00  0.00     0.076 A 
ATOM      6  C   UNL     1      -3.917   0.310  -5.720  1.00  0.00     0.127 A 
ATOM      7  C   UNL     1      -3.409  -0.920  -5.282  1.00  0.00     0.050 A 
ATOM      8  C   UNL     1      -5.856   1.918  -5.973  1.00  0.00     0.201 C 
ATOM      9  O   UNL     1      -5.266   2.563  -6.880  1.00  0.00    -0.288 OA
ATOM     10  C   UNL     1      -7.183   2.372  -5.473  1.00  0.00     0.076 A 
ATOM     11  C   UNL     1      -8.020   1.426  -4.835  1.00  0.00     0.041 A 
ATOM     12  C   UNL     1      -7.512   0.068  -4.530  1.00  0.00     0.194 C 
ATOM     13  O   UNL     1      -8.283  -0.795  -4.025  1.00  0.00    -0.289 OA
ATOM     14  C   UNL     1      -9.335   1.780  -4.481  1.00  0.00     0.059 A 
ATOM     15  C   UNL     1      -9.818   3.065  -4.741  1.00  0.00     0.120 A 
ATOM     16  C   UNL     1      -8.983   4.014  -5.325  1.00  0.00     0.093 A 
ATOM     17  C   UNL     1      -7.663   3.698  -5.662  1.00  0.00     0.131 A 
ENDROOT
BRANCH   6  18
ATOM     18  O   UNL     1      -3.069   1.206  -6.372  1.00  0.00    -0.507 OA
ATOM     19  H   UNL     1      -2.893   1.144  -7.368  1.00  0.00     0.293 HD
ENDBRANCH   6  18
BRANCH  17  20
ATOM     20  O   UNL     1      -6.861   4.735  -6.143  1.00  0.00    -0.507 OA
ATOM     21  H   UNL     1      -5.860   4.774  -6.020  1.00  0.00     0.293 HD
ENDBRANCH  17  20
BRANCH  15  22
ATOM     22  O   UNL     1     -11.125   3.412  -4.407  1.00  0.00    -0.508 OA
ATOM     23  H   UNL     1     -11.330   4.233  -3.849  1.00  0.00     0.293 HD
ENDBRANCH  15  22
TORSDOF 3
ENDMDL
