MODEL 1
REMARK VINA RESULT:    -5.844      0.000      0.000
REMARK INTER + INTRA:          -6.380
REMARK INTER:                  -6.357
REMARK INTRA:                  -0.023
REMARK UNBOUND:                -0.023
REMARK SMILES CC1(C)[C@H]2CC=C(CO)[C@@H]1C2
REMARK SMILES IDX 8 1 7 2 1 3 2 4 4 5 3 6 10 7 5 8 11 9 6 10 9 11
REMARK H PARENT 9 12
REMARK Flexibility Score: inf
ROOT
ATOM      1  C   UNL     1     -44.451  15.042  -2.058  1.00  0.00     0.187 C 
ENDROOT
BRANCH   1   2
ATOM      2  C   UNL     1     -44.222  13.775  -1.283  1.00  0.00    -0.045 C 
ATOM      3  C   UNL     1     -41.152  11.373  -1.148  1.00  0.00     0.012 C 
ATOM      4  C   UNL     1     -42.338  12.232  -0.640  1.00  0.00    -0.026 C 
ATOM      5  C   UNL     1     -43.531  11.361  -0.161  1.00  0.00    -0.000 C 
ATOM      6  C   UNL     1     -41.777  13.319   0.318  1.00  0.00     0.012 C 
ATOM      7  C   UNL     1     -43.276  12.679  -1.793  1.00  0.00     0.023 C 
ATOM      8  C   UNL     1     -44.545  12.229   0.660  1.00  0.00     0.031 C 
ATOM      9  C   UNL     1     -44.057  11.363  -1.611  1.00  0.00     0.013 C 
ATOM     10  C   UNL     1     -44.854  13.537  -0.096  1.00  0.00    -0.025 C 
ENDBRANCH   1   2
BRANCH   1  11
ATOM     11  O   UNL     1     -45.037  16.016  -1.239  1.00  0.00    -0.392 OA
ATOM     12  H   UNL     1     -44.291  16.527  -0.828  1.00  0.00     0.211 HD
ENDBRANCH   1  11
TORSDOF 2
ENDMDL
MODEL 2
REMARK VINA RESULT:    -5.618      2.133      3.706
REMARK INTER + INTRA:          -6.133
REMARK INTER:                  -6.088
REMARK INTRA:                  -0.046
REMARK UNBOUND:                -0.023
REMARK SMILES CC1(C)[C@H]2CC=C(CO)[C@@H]1C2
REMARK SMILES IDX 8 1 7 2 1 3 2 4 4 5 3 6 10 7 5 8 11 9 6 10 9 11
REMARK H PARENT 9 12
REMARK Flexibility Score: inf
ROOT
ATOM      1  C   UNL     1     -41.007  12.874   2.037  1.00  0.00     0.187 C 
ENDROOT
BRANCH   1   2
ATOM      2  C   UNL     1     -41.924  12.407   0.942  1.00  0.00    -0.045 C 
ATOM      3  C   UNL     1     -45.346  13.805  -0.304  1.00  0.00     0.012 C 
ATOM      4  C   UNL     1     -43.913  13.221  -0.374  1.00  0.00    -0.026 C 
ATOM      5  C   UNL     1     -43.904  11.742  -0.848  1.00  0.00    -0.000 C 
ATOM      6  C   UNL     1     -43.004  14.244  -1.109  1.00  0.00     0.012 C 
ATOM      7  C   UNL     1     -43.438  12.664   0.994  1.00  0.00     0.023 C 
ATOM      8  C   UNL     1     -42.451  11.304  -1.244  1.00  0.00     0.031 C 
ATOM      9  C   UNL     1     -44.084  11.315   0.623  1.00  0.00     0.013 C 
ATOM     10  C   UNL     1     -41.456  11.724  -0.144  1.00  0.00    -0.025 C 
ENDBRANCH   1   2
BRANCH   1  11
ATOM     11  O   UNL     1     -41.748  13.430   3.089  1.00  0.00    -0.392 OA
ATOM     12  H   UNL     1     -42.324  14.133   2.688  1.00  0.00     0.211 HD
ENDBRANCH   1  11
TORSDOF 2
ENDMDL
MODEL 3
REMARK VINA RESULT:    -5.441      1.309      2.097
REMARK INTER + INTRA:          -5.941
REMARK INTER:                  -5.898
REMARK INTRA:                  -0.043
REMARK UNBOUND:                -0.023
REMARK SMILES CC1(C)[C@H]2CC=C(CO)[C@@H]1C2
REMARK SMILES IDX 8 1 7 2 1 3 2 4 4 5 3 6 10 7 5 8 11 9 6 10 9 11
REMARK H PARENT 9 12
REMARK Flexibility Score: inf
ROOT
ATOM      1  C   UNL     1     -45.011  14.464  -0.962  1.00  0.00     0.187 C 
ENDROOT
BRANCH   1   2
ATOM      2  C   UNL     1     -43.970  13.383  -1.044  1.00  0.00    -0.045 C 
ATOM      3  C   UNL     1     -40.714  12.800   1.024  1.00  0.00     0.012 C 
ATOM      4  C   UNL     1     -42.042  12.471   0.296  1.00  0.00    -0.026 C 
ATOM      5  C   UNL     1     -41.809  11.682  -1.022  1.00  0.00    -0.000 C 
ATOM      6  C   UNL     1     -43.041  11.898   1.339  1.00  0.00     0.012 C 
ATOM      7  C   UNL     1     -42.516  13.632  -0.617  1.00  0.00     0.023 C 
ATOM      8  C   UNL     1     -43.156  11.067  -1.535  1.00  0.00     0.031 C 
ATOM      9  C   UNL     1     -41.661  13.033  -1.752  1.00  0.00     0.013 C 
ATOM     10  C   UNL     1     -44.268  12.135  -1.511  1.00  0.00    -0.025 C 
ENDBRANCH   1   2
BRANCH   1  11
ATOM     11  O   UNL     1     -45.984  14.133  -0.009  1.00  0.00    -0.392 OA
ATOM     12  H   UNL     1     -46.566  14.931   0.091  1.00  0.00     0.211 HD
ENDBRANCH   1  11
TORSDOF 2
ENDMDL
MODEL 4
REMARK VINA RESULT:    -5.332      2.357      3.241
REMARK INTER + INTRA:          -5.822
REMARK INTER:                  -5.779
REMARK INTRA:                  -0.043
REMARK UNBOUND:                -0.023
REMARK SMILES CC1(C)[C@H]2CC=C(CO)[C@@H]1C2
REMARK SMILES IDX 8 1 7 2 1 3 2 4 4 5 3 6 10 7 5 8 11 9 6 10 9 11
REMARK H PARENT 9 12
REMARK Flexibility Score: inf
ROOT
ATOM      1  C   UNL     1     -40.401  12.507  -1.917  1.00  0.00     0.187 C 
ENDROOT
BRANCH   1   2
ATOM      2  C   UNL     1     -41.810  12.747  -1.453  1.00  0.00    -0.045 C 
ATOM      3  C   UNL     1     -44.042  10.789   1.078  1.00  0.00     0.012 C 
ATOM      4  C   UNL     1     -43.385  11.998   0.365  1.00  0.00    -0.026 C 
ATOM      5  C   UNL     1     -44.397  12.779  -0.518  1.00  0.00    -0.000 C 
ATOM      6  C   UNL     1     -42.548  12.786   1.411  1.00  0.00     0.012 C 
ATOM      7  C   UNL     1     -42.706  11.596  -0.970  1.00  0.00     0.023 C 
ATOM      8  C   UNL     1     -43.803  14.170  -0.929  1.00  0.00     0.031 C 
ATOM      9  C   UNL     1     -44.057  11.820  -1.677  1.00  0.00     0.013 C 
ATOM     10  C   UNL     1     -42.362  13.996  -1.449  1.00  0.00    -0.025 C 
ENDBRANCH   1   2
BRANCH   1  11
ATOM     11  O   UNL     1     -40.244  11.178  -2.330  1.00  0.00    -0.392 OA
ATOM     12  H   UNL     1     -40.527  11.141  -3.281  1.00  0.00     0.211 HD
ENDBRANCH   1  11
TORSDOF 2
ENDMDL
MODEL 5
REMARK VINA RESULT:    -5.327     10.007     11.506
REMARK INTER + INTRA:          -5.817
REMARK INTER:                  -5.762
REMARK INTRA:                  -0.055
REMARK UNBOUND:                -0.023
REMARK SMILES CC1(C)[C@H]2CC=C(CO)[C@@H]1C2
REMARK SMILES IDX 8 1 7 2 1 3 2 4 4 5 3 6 10 7 5 8 11 9 6 10 9 11
REMARK H PARENT 9 12
REMARK Flexibility Score: inf
ROOT
ATOM      1  C   UNL     1     -45.969  22.229  -8.265  1.00  0.00     0.187 C 
ENDROOT
BRANCH   1   2
ATOM      2  C   UNL     1     -45.740  22.195  -6.780  1.00  0.00    -0.045 C 
ATOM      3  C   UNL     1     -44.633  24.990  -4.294  1.00  0.00     0.012 C 
ATOM      4  C   UNL     1     -45.432  23.783  -4.849  1.00  0.00    -0.026 C 
ATOM      5  C   UNL     1     -45.071  22.458  -4.125  1.00  0.00    -0.000 C 
ATOM      6  C   UNL     1     -46.928  24.193  -4.951  1.00  0.00     0.012 C 
ATOM      7  C   UNL     1     -44.755  23.153  -6.095  1.00  0.00     0.023 C 
ATOM      8  C   UNL     1     -46.130  21.350  -4.455  1.00  0.00     0.031 C 
ATOM      9  C   UNL     1     -43.930  22.263  -5.144  1.00  0.00     0.013 C 
ATOM     10  C   UNL     1     -46.390  21.304  -5.974  1.00  0.00    -0.025 C 
ENDBRANCH   1   2
BRANCH   1  11
ATOM     11  O   UNL     1     -47.049  23.066  -8.573  1.00  0.00    -0.392 OA
ATOM     12  H   UNL     1     -47.856  22.488  -8.607  1.00  0.00     0.211 HD
ENDBRANCH   1  11
TORSDOF 2
ENDMDL
MODEL 6
REMARK VINA RESULT:    -5.155      9.955     11.866
REMARK INTER + INTRA:          -5.630
REMARK INTER:                  -5.570
REMARK INTRA:                  -0.060
REMARK UNBOUND:                -0.023
REMARK SMILES CC1(C)[C@H]2CC=C(CO)[C@@H]1C2
REMARK SMILES IDX 8 1 7 2 1 3 2 4 4 5 3 6 10 7 5 8 11 9 6 10 9 11
REMARK H PARENT 9 12
REMARK Flexibility Score: inf
ROOT
ATOM      1  C   UNL     1     -46.756  23.216  -6.497  1.00  0.00     0.187 C 
ENDROOT
BRANCH   1   2
ATOM      2  C   UNL     1     -45.644  23.597  -5.559  1.00  0.00    -0.045 C 
ATOM      3  C   UNL     1     -45.650  24.269  -1.717  1.00  0.00     0.012 C 
ATOM      4  C   UNL     1     -45.177  23.722  -3.088  1.00  0.00    -0.026 C 
ATOM      5  C   UNL     1     -43.909  24.455  -3.606  1.00  0.00    -0.000 C 
ATOM      6  C   UNL     1     -45.162  22.170  -3.015  1.00  0.00     0.012 C 
ATOM      7  C   UNL     1     -45.912  24.397  -4.276  1.00  0.00     0.023 C 
ATOM      8  C   UNL     1     -43.262  23.656  -4.790  1.00  0.00     0.031 C 
ATOM      9  C   UNL     1     -44.835  25.499  -4.262  1.00  0.00     0.013 C 
ATOM     10  C   UNL     1     -44.346  23.259  -5.813  1.00  0.00    -0.025 C 
ENDBRANCH   1   2
BRANCH   1  11
ATOM     11  O   UNL     1     -47.900  22.853  -5.773  1.00  0.00    -0.392 OA
ATOM     12  H   UNL     1     -48.680  23.166  -6.301  1.00  0.00     0.211 HD
ENDBRANCH   1  11
TORSDOF 2
ENDMDL
MODEL 7
REMARK VINA RESULT:    -5.117      8.384     10.565
REMARK INTER + INTRA:          -5.589
REMARK INTER:                  -5.555
REMARK INTRA:                  -0.034
REMARK UNBOUND:                -0.023
REMARK SMILES CC1(C)[C@H]2CC=C(CO)[C@@H]1C2
REMARK SMILES IDX 8 1 7 2 1 3 2 4 4 5 3 6 10 7 5 8 11 9 6 10 9 11
REMARK H PARENT 9 12
REMARK Flexibility Score: inf
ROOT
ATOM      1  C   UNL     1     -45.779  23.052  -8.088  1.00  0.00     0.187 C 
ENDROOT
BRANCH   1   2
ATOM      2  C   UNL     1     -45.965  22.594  -6.668  1.00  0.00    -0.045 C 
ATOM      3  C   UNL     1     -44.886  19.303  -4.875  1.00  0.00     0.012 C 
ATOM      4  C   UNL     1     -45.114  20.820  -5.097  1.00  0.00    -0.026 C 
ATOM      5  C   UNL     1     -46.273  21.373  -4.223  1.00  0.00    -0.000 C 
ATOM      6  C   UNL     1     -43.734  21.533  -5.043  1.00  0.00     0.012 C 
ATOM      7  C   UNL     1     -46.043  21.104  -6.306  1.00  0.00     0.023 C 
ATOM      8  C   UNL     1     -46.241  22.941  -4.204  1.00  0.00     0.031 C 
ATOM      9  C   UNL     1     -47.249  20.989  -5.353  1.00  0.00     0.013 C 
ATOM     10  C   UNL     1     -46.085  23.483  -5.639  1.00  0.00    -0.025 C 
ENDBRANCH   1   2
BRANCH   1  11
ATOM     11  O   UNL     1     -47.019  23.156  -8.733  1.00  0.00    -0.392 OA
ATOM     12  H   UNL     1     -47.628  23.622  -8.102  1.00  0.00     0.211 HD
ENDBRANCH   1  11
TORSDOF 2
ENDMDL
MODEL 8
REMARK VINA RESULT:    -5.104      8.074      9.340
REMARK INTER + INTRA:          -5.575
REMARK INTER:                  -5.536
REMARK INTRA:                  -0.038
REMARK UNBOUND:                -0.023
REMARK SMILES CC1(C)[C@H]2CC=C(CO)[C@@H]1C2
REMARK SMILES IDX 8 1 7 2 1 3 2 4 4 5 3 6 10 7 5 8 11 9 6 10 9 11
REMARK H PARENT 9 12
REMARK Flexibility Score: inf
ROOT
ATOM      1  C   UNL     1     -37.806  18.221  -5.816  1.00  0.00     0.187 C 
ENDROOT
BRANCH   1   2
ATOM      2  C   UNL     1     -36.901  17.023  -5.894  1.00  0.00    -0.045 C 
ATOM      3  C   UNL     1     -36.342  14.069  -3.408  1.00  0.00     0.012 C 
ATOM      4  C   UNL     1     -36.556  14.802  -4.757  1.00  0.00    -0.026 C 
ATOM      5  C   UNL     1     -35.266  14.828  -5.622  1.00  0.00    -0.000 C 
ATOM      6  C   UNL     1     -37.870  14.274  -5.396  1.00  0.00     0.012 C 
ATOM      7  C   UNL     1     -36.364  16.336  -4.630  1.00  0.00     0.023 C 
ATOM      8  C   UNL     1     -35.605  15.248  -7.094  1.00  0.00     0.031 C 
ATOM      9  C   UNL     1     -34.860  16.129  -4.899  1.00  0.00     0.013 C 
ATOM     10  C   UNL     1     -36.508  16.498  -7.092  1.00  0.00    -0.025 C 
ENDBRANCH   1   2
BRANCH   1  11
ATOM     11  O   UNL     1     -37.105  19.329  -5.322  1.00  0.00    -0.392 OA
ATOM     12  H   UNL     1     -37.294  19.372  -4.348  1.00  0.00     0.211 HD
ENDBRANCH   1  11
TORSDOF 2
ENDMDL
MODEL 9
REMARK VINA RESULT:    -5.082      1.084      2.586
REMARK INTER + INTRA:          -5.551
REMARK INTER:                  -5.501
REMARK INTRA:                  -0.050
REMARK UNBOUND:                -0.023
REMARK SMILES CC1(C)[C@H]2CC=C(CO)[C@@H]1C2
REMARK SMILES IDX 8 1 7 2 1 3 2 4 4 5 3 6 10 7 5 8 11 9 6 10 9 11
REMARK H PARENT 9 12
REMARK Flexibility Score: inf
ROOT
ATOM      1  C   UNL     1     -44.705  14.784  -1.512  1.00  0.00     0.187 C 
ENDROOT
BRANCH   1   2
ATOM      2  C   UNL     1     -43.741  13.763  -0.974  1.00  0.00    -0.045 C 
ATOM      3  C   UNL     1     -44.356  10.388   0.882  1.00  0.00     0.012 C 
ATOM      4  C   UNL     1     -43.734  11.394  -0.120  1.00  0.00    -0.026 C 
ATOM      5  C   UNL     1     -42.284  11.790   0.270  1.00  0.00    -0.000 C 
ATOM      6  C   UNL     1     -44.004  10.876  -1.561  1.00  0.00     0.012 C 
ATOM      7  C   UNL     1     -44.103  12.863   0.216  1.00  0.00     0.023 C 
ATOM      8  C   UNL     1     -41.574  12.510  -0.929  1.00  0.00     0.031 C 
ATOM      9  C   UNL     1     -42.873  12.916   1.144  1.00  0.00     0.013 C 
ATOM     10  C   UNL     1     -42.497  13.599  -1.512  1.00  0.00    -0.025 C 
ENDBRANCH   1   2
BRANCH   1  11
ATOM     11  O   UNL     1     -45.981  14.583  -0.968  1.00  0.00    -0.392 OA
ATOM     12  H   UNL     1     -45.935  14.881  -0.022  1.00  0.00     0.211 HD
ENDBRANCH   1  11
TORSDOF 2
ENDMDL
