MODEL 1
REMARK VINA RESULT:    72.904      0.000      0.000
REMARK INTER + INTRA:         102.796
REMARK INTER:                 102.737
REMARK INTRA:                   0.058
REMARK UNBOUND:                 0.058
REMARK SMILES O=c1cc(-c2ccc(O)c(O)c2)oc2cc(O)c([C@H]3O[C@H](CO)[C@@H](O)[C@@H](O)[C@@H]3O)c(O)c12
REMARK SMILES IDX 4 1 3 2 2 3 1 4 32 5 14 6 13 7 15 8 16 9 18 10 30 11 5 12
REMARK SMILES IDX 6 13 7 14 8 15 12 16 10 17 9 18 11 20 31 22 17 24 19 26
REMARK SMILES IDX 28 27 20 28 26 29 21 30 24 31 29 32 27 34 22 36 23 37 25 39
REMARK H PARENT 9 19 11 21 31 23 17 25 29 33 27 35 23 38 25 40
REMARK Flexibility Score: inf
ROOT
ATOM      1  C   UNL     1      12.670  40.236   9.235  1.00  0.00     0.138 A 
ATOM      2  C   UNL     1      13.183  39.265  10.105  1.00  0.00     0.100 A 
ATOM      3  C   UNL     1      14.451  39.439  10.660  1.00  0.00     0.197 A 
ATOM      4  O   UNL     1      14.854  38.591  11.498  1.00  0.00    -0.289 OA
ATOM      5  C   UNL     1      15.228  40.569  10.304  1.00  0.00     0.107 A 
ATOM      6  C   UNL     1      14.617  41.518   9.449  1.00  0.00     0.146 A 
ATOM      7  O   UNL     1      13.401  41.309   8.952  1.00  0.00    -0.456 OA
ATOM      8  C   UNL     1      15.277  42.697   9.115  1.00  0.00     0.094 A 
ATOM      9  C   UNL     1      16.542  42.979   9.633  1.00  0.00     0.128 A 
ATOM     10  C   UNL     1      17.183  42.054  10.483  1.00  0.00     0.068 A 
ATOM     11  C   UNL     1      16.552  40.817  10.771  1.00  0.00     0.140 A 
ENDROOT
BRANCH   1  12
ATOM     12  C   UNL     1      11.328  40.102   8.611  1.00  0.00     0.021 A 
ATOM     13  C   UNL     1      10.608  38.907   8.775  1.00  0.00     0.016 A 
ATOM     14  C   UNL     1       9.347  38.752   8.192  1.00  0.00     0.051 A 
ATOM     15  C   UNL     1       8.790  39.780   7.428  1.00  0.00     0.157 A 
ATOM     16  C   UNL     1      10.768  41.132   7.829  1.00  0.00     0.062 A 
ATOM     17  C   UNL     1       9.504  40.976   7.242  1.00  0.00     0.158 A 
BRANCH  15  18
ATOM     18  O   UNL     1       7.529  39.597   6.861  1.00  0.00    -0.504 OA
ATOM     19  H   UNL     1       7.068  38.695   6.855  1.00  0.00     0.293 HD
ENDBRANCH  15  18
BRANCH  17  20
ATOM     20  O   UNL     1       8.957  42.001   6.471  1.00  0.00    -0.504 OA
ATOM     21  H   UNL     1       8.655  42.874   6.887  1.00  0.00     0.293 HD
ENDBRANCH  17  20
ENDBRANCH   1  12
BRANCH  11  22
ATOM     22  O   UNL     1      17.284  39.863  11.486  1.00  0.00    -0.506 OA
ATOM     23  H   UNL     1      17.886  40.074  12.269  1.00  0.00     0.293 HD
ENDBRANCH  11  22
BRANCH   9  24
ATOM     24  O   UNL     1      17.167  44.178   9.289  1.00  0.00    -0.507 OA
ATOM     25  H   UNL     1      16.888  45.063   9.696  1.00  0.00     0.293 HD
ENDBRANCH   9  24
BRANCH  10  26
ATOM     26  C   UNL     1      18.584  42.351  11.007  1.00  0.00     0.188 C 
ATOM     27  C   UNL     1      19.589  41.302  10.473  1.00  0.00     0.179 C 
ATOM     28  O   UNL     1      18.548  42.373  12.428  1.00  0.00    -0.362 OA
ATOM     29  C   UNL     1      20.984  41.581  11.051  1.00  0.00     0.177 C 
ATOM     30  C   UNL     1      19.805  42.680  13.016  1.00  0.00     0.176 C 
ATOM     31  C   UNL     1      20.913  41.689  12.580  1.00  0.00     0.177 C 
BRANCH  27  32
ATOM     32  O   UNL     1      19.656  41.368   9.071  1.00  0.00    -0.387 OA
ATOM     33  H   UNL     1      20.278  40.653   8.775  1.00  0.00     0.211 HD
ENDBRANCH  27  32
BRANCH  29  34
ATOM     34  O   UNL     1      21.870  40.547  10.699  1.00  0.00    -0.387 OA
ATOM     35  H   UNL     1      21.908  39.923  11.470  1.00  0.00     0.211 HD
ENDBRANCH  29  34
BRANCH  30  36
ATOM     36  C   UNL     1      20.192  44.166  12.836  1.00  0.00     0.191 C 
BRANCH  36  37
ATOM     37  O   UNL     1      20.517  44.432  11.498  1.00  0.00    -0.394 OA
ATOM     38  H   UNL     1      21.394  44.899  11.504  1.00  0.00     0.210 HD
ENDBRANCH  36  37
ENDBRANCH  30  36
BRANCH  31  39
ATOM     39  O   UNL     1      20.647  40.420  13.125  1.00  0.00    -0.388 OA
ATOM     40  H   UNL     1      19.816  40.503  13.661  1.00  0.00     0.211 HD
ENDBRANCH  31  39
ENDBRANCH  10  26
TORSDOF 11
ENDMDL
MODEL 2
REMARK VINA RESULT:    75.188      1.432      2.337
REMARK INTER + INTRA:         106.014
REMARK INTER:                 104.901
REMARK INTRA:                   1.113
REMARK UNBOUND:                 0.058
REMARK SMILES O=c1cc(-c2ccc(O)c(O)c2)oc2cc(O)c([C@H]3O[C@H](CO)[C@@H](O)[C@@H](O)[C@@H]3O)c(O)c12
REMARK SMILES IDX 4 1 3 2 2 3 1 4 32 5 14 6 13 7 15 8 16 9 18 10 30 11 5 12
REMARK SMILES IDX 6 13 7 14 8 15 12 16 10 17 9 18 11 20 31 22 17 24 19 26
REMARK SMILES IDX 28 27 20 28 26 29 21 30 24 31 29 32 27 34 22 36 23 37 25 39
REMARK H PARENT 9 19 11 21 31 23 17 25 29 33 27 35 23 38 25 40
REMARK Flexibility Score: inf
ROOT
ATOM      1  C   UNL     1      13.131  40.092   9.540  1.00  0.00     0.138 A 
ATOM      2  C   UNL     1      12.992  41.475   9.718  1.00  0.00     0.100 A 
ATOM      3  C   UNL     1      14.116  42.248  10.009  1.00  0.00     0.197 A 
ATOM      4  O   UNL     1      13.974  43.497  10.087  1.00  0.00    -0.289 OA
ATOM      5  C   UNL     1      15.378  41.626  10.169  1.00  0.00     0.107 A 
ATOM      6  C   UNL     1      15.434  40.230   9.934  1.00  0.00     0.146 A 
ATOM      7  O   UNL     1      14.334  39.539   9.651  1.00  0.00    -0.456 OA
ATOM      8  C   UNL     1      16.649  39.553   9.988  1.00  0.00     0.094 A 
ATOM      9  C   UNL     1      17.837  40.236  10.251  1.00  0.00     0.128 A 
ATOM     10  C   UNL     1      17.818  41.625  10.495  1.00  0.00     0.068 A 
ATOM     11  C   UNL     1      16.578  42.312  10.516  1.00  0.00     0.140 A 
ENDROOT
BRANCH   1  12
ATOM     12  C   UNL     1      11.969  39.218   9.233  1.00  0.00     0.021 A 
ATOM     13  C   UNL     1      11.947  37.903   9.727  1.00  0.00     0.016 A 
ATOM     14  C   UNL     1      10.870  37.057   9.448  1.00  0.00     0.051 A 
ATOM     15  C   UNL     1       9.805  37.505   8.662  1.00  0.00     0.157 A 
ATOM     16  C   UNL     1      10.900  39.661   8.431  1.00  0.00     0.062 A 
ATOM     17  C   UNL     1       9.820  38.812   8.148  1.00  0.00     0.158 A 
BRANCH  15  18
ATOM     18  O   UNL     1       8.743  36.639   8.402  1.00  0.00    -0.504 OA
ATOM     19  H   UNL     1       7.783  36.887   8.609  1.00  0.00     0.293 HD
ENDBRANCH  15  18
BRANCH  17  20
ATOM     20  O   UNL     1       8.764  39.261   7.354  1.00  0.00    -0.504 OA
ATOM     21  H   UNL     1       8.293  40.137   7.544  1.00  0.00     0.293 HD
ENDBRANCH  17  20
ENDBRANCH   1  12
BRANCH  11  22
ATOM     22  O   UNL     1      16.583  43.653  10.917  1.00  0.00    -0.506 OA
ATOM     23  H   UNL     1      16.408  44.434  10.301  1.00  0.00     0.293 HD
ENDBRANCH  11  22
BRANCH   9  24
ATOM     24  O   UNL     1      19.039  39.526  10.281  1.00  0.00    -0.507 OA
ATOM     25  H   UNL     1      19.427  39.097   9.450  1.00  0.00     0.293 HD
ENDBRANCH   9  24
BRANCH  10  26
ATOM     26  C   UNL     1      19.116  42.354  10.827  1.00  0.00     0.188 C 
ATOM     27  C   UNL     1      20.335  41.480  10.443  1.00  0.00     0.179 C 
ATOM     28  O   UNL     1      19.116  42.684  12.209  1.00  0.00    -0.362 OA
ATOM     29  C   UNL     1      21.632  42.203  10.831  1.00  0.00     0.177 C 
ATOM     30  C   UNL     1      20.274  43.403  12.614  1.00  0.00     0.176 C 
ATOM     31  C   UNL     1      21.581  42.631  12.304  1.00  0.00     0.177 C 
BRANCH  27  32
ATOM     32  O   UNL     1      20.342  41.246   9.057  1.00  0.00    -0.387 OA
ATOM     33  H   UNL     1      21.122  41.732   8.683  1.00  0.00     0.211 HD
ENDBRANCH  27  32
BRANCH  29  34
ATOM     34  O   UNL     1      22.737  41.357  10.631  1.00  0.00    -0.387 OA
ATOM     35  H   UNL     1      22.743  40.706  11.381  1.00  0.00     0.211 HD
ENDBRANCH  29  34
BRANCH  30  36
ATOM     36  C   UNL     1      20.273  44.859  12.095  1.00  0.00     0.191 C 
BRANCH  36  37
ATOM     37  O   UNL     1      21.334  45.064  11.201  1.00  0.00    -0.394 OA
ATOM     38  H   UNL     1      20.999  44.823  10.298  1.00  0.00     0.210 HD
ENDBRANCH  36  37
ENDBRANCH  30  36
BRANCH  31  39
ATOM     39  O   UNL     1      21.655  41.489  13.123  1.00  0.00    -0.388 OA
ATOM     40  H   UNL     1      21.894  41.801  14.034  1.00  0.00     0.211 HD
ENDBRANCH  31  39
ENDBRANCH  10  26
TORSDOF 11
ENDMDL
