MODEL 1
REMARK VINA RESULT:    -4.599      0.000      0.000
REMARK INTER + INTRA:          -7.088
REMARK INTER:                  -6.482
REMARK INTRA:                  -0.606
REMARK UNBOUND:                -0.606
REMARK SMILES CCCCCCCCC(=O)[O-]
REMARK SMILES IDX 6 1 7 2 8 3 9 4 10 5 11 6 5 7 4 8 3 9 2 10 1 11
REMARK H PARENT
REMARK Flexibility Score: inf
ROOT
ATOM      1  C   UNL     1      15.370  22.560  13.319  1.00  0.00     0.000 C 
ENDROOT
BRANCH   1   2
ATOM      2  C   UNL     1      15.384  22.241  14.821  1.00  0.00     0.006 C 
BRANCH   2   3
ATOM      3  C   UNL     1      15.718  20.770  15.100  1.00  0.00     0.053 C 
BRANCH   3   4
ATOM      4  C   UNL     1      16.113  20.552  16.529  1.00  0.00     0.041 C 
ATOM      5  O   UNL     1      16.938  21.325  17.084  1.00  0.00    -0.550 OA
ATOM      6  O   UNL     1      15.545  19.514  17.256  1.00  0.00    -0.550 OA
ENDBRANCH   3   4
ENDBRANCH   2   3
ENDBRANCH   1   2
BRANCH   1   7
ATOM      7  C   UNL     1      15.316  21.275  12.485  1.00  0.00     0.000 C 
BRANCH   7   8
ATOM      8  C   UNL     1      16.151  21.413  11.205  1.00  0.00    -0.000 C 
BRANCH   8   9
ATOM      9  C   UNL     1      17.171  20.271  11.089  1.00  0.00    -0.000 C 
BRANCH   9  10
ATOM     10  C   UNL     1      18.205  20.285  12.225  1.00  0.00    -0.003 C 
ATOM     11  C   UNL     1      18.203  18.995  13.043  1.00  0.00     0.004 C 
ENDBRANCH   9  10
ENDBRANCH   8   9
ENDBRANCH   7   8
ENDBRANCH   1   7
TORSDOF 7
ENDMDL
MODEL 2
REMARK VINA RESULT:    -4.592     14.693     16.524
REMARK INTER + INTRA:          -7.077
REMARK INTER:                  -6.401
REMARK INTRA:                  -0.677
REMARK UNBOUND:                -0.606
REMARK SMILES CCCCCCCCC(=O)[O-]
REMARK SMILES IDX 6 1 7 2 8 3 9 4 10 5 11 6 5 7 4 8 3 9 2 10 1 11
REMARK H PARENT
REMARK Flexibility Score: inf
ROOT
ATOM      1  C   UNL     1      30.013  17.719   5.677  1.00  0.00     0.000 C 
ENDROOT
BRANCH   1   2
ATOM      2  C   UNL     1      30.684  16.663   6.568  1.00  0.00     0.006 C 
BRANCH   2   3
ATOM      3  C   UNL     1      31.692  17.282   7.544  1.00  0.00     0.053 C 
BRANCH   3   4
ATOM      4  C   UNL     1      33.064  17.362   6.947  1.00  0.00     0.041 C 
ATOM      5  O   UNL     1      33.381  16.617   5.983  1.00  0.00    -0.550 OA
ATOM      6  O   UNL     1      33.983  18.282   7.437  1.00  0.00    -0.550 OA
ENDBRANCH   3   4
ENDBRANCH   2   3
ENDBRANCH   1   2
BRANCH   1   7
ATOM      7  C   UNL     1      28.546  17.363   5.412  1.00  0.00     0.000 C 
BRANCH   7   8
ATOM      8  C   UNL     1      27.662  17.742   6.608  1.00  0.00    -0.000 C 
BRANCH   8   9
ATOM      9  C   UNL     1      27.779  19.239   6.924  1.00  0.00    -0.000 C 
BRANCH   9  10
ATOM     10  C   UNL     1      28.228  19.504   8.371  1.00  0.00    -0.003 C 
ATOM     11  C   UNL     1      29.581  20.208   8.450  1.00  0.00     0.004 C 
ENDBRANCH   9  10
ENDBRANCH   8   9
ENDBRANCH   7   8
ENDBRANCH   1   7
TORSDOF 7
ENDMDL
MODEL 3
REMARK VINA RESULT:    -4.550      1.384      3.142
REMARK INTER + INTRA:          -7.017
REMARK INTER:                  -6.354
REMARK INTRA:                  -0.664
REMARK UNBOUND:                -0.606
REMARK SMILES CCCCCCCCC(=O)[O-]
REMARK SMILES IDX 6 1 7 2 8 3 9 4 10 5 11 6 5 7 4 8 3 9 2 10 1 11
REMARK H PARENT
REMARK Flexibility Score: inf
ROOT
ATOM      1  C   UNL     1      17.709  19.357  12.631  1.00  0.00     0.000 C 
ENDROOT
BRANCH   1   2
ATOM      2  C   UNL     1      18.475  19.369  13.963  1.00  0.00     0.006 C 
BRANCH   2   3
ATOM      3  C   UNL     1      17.537  19.472  15.172  1.00  0.00     0.053 C 
BRANCH   3   4
ATOM      4  C   UNL     1      18.145  20.279  16.279  1.00  0.00     0.041 C 
ATOM      5  O   UNL     1      17.413  20.958  17.045  1.00  0.00    -0.550 OA
ATOM      6  O   UNL     1      19.520  20.255  16.481  1.00  0.00    -0.550 OA
ENDBRANCH   3   4
ENDBRANCH   2   3
ENDBRANCH   1   2
BRANCH   1   7
ATOM      7  C   UNL     1      18.082  20.569  11.772  1.00  0.00     0.000 C 
BRANCH   7   8
ATOM      8  C   UNL     1      16.839  21.181  11.113  1.00  0.00    -0.000 C 
BRANCH   8   9
ATOM      9  C   UNL     1      15.638  21.150  12.069  1.00  0.00    -0.000 C 
BRANCH   9  10
ATOM     10  C   UNL     1      15.458  22.471  12.834  1.00  0.00    -0.003 C 
ATOM     11  C   UNL     1      15.201  22.261  14.325  1.00  0.00     0.004 C 
ENDBRANCH   9  10
ENDBRANCH   8   9
ENDBRANCH   7   8
ENDBRANCH   1   7
TORSDOF 7
ENDMDL
MODEL 4
REMARK VINA RESULT:    -4.528     13.948     15.841
REMARK INTER + INTRA:          -6.987
REMARK INTER:                  -6.222
REMARK INTRA:                  -0.765
REMARK UNBOUND:                -0.606
REMARK SMILES CCCCCCCCC(=O)[O-]
REMARK SMILES IDX 6 1 7 2 8 3 9 4 10 5 11 6 5 7 4 8 3 9 2 10 1 11
REMARK H PARENT
REMARK Flexibility Score: inf
ROOT
ATOM      1  C   UNL     1      30.320  16.595   6.134  1.00  0.00     0.000 C 
ENDROOT
BRANCH   1   2
ATOM      2  C   UNL     1      31.229  17.064   7.279  1.00  0.00     0.006 C 
BRANCH   2   3
ATOM      3  C   UNL     1      31.752  18.489   7.060  1.00  0.00     0.053 C 
BRANCH   3   4
ATOM      4  C   UNL     1      32.087  19.163   8.356  1.00  0.00     0.041 C 
ATOM      5  O   UNL     1      32.629  20.299   8.358  1.00  0.00    -0.550 OA
ATOM      6  O   UNL     1      31.770  18.548   9.561  1.00  0.00    -0.550 OA
ENDBRANCH   3   4
ENDBRANCH   2   3
ENDBRANCH   1   2
BRANCH   1   7
ATOM      7  C   UNL     1      29.429  17.738   5.635  1.00  0.00     0.000 C 
BRANCH   7   8
ATOM      8  C   UNL     1      27.944  17.405   5.827  1.00  0.00    -0.000 C 
BRANCH   8   9
ATOM      9  C   UNL     1      27.294  18.356   6.841  1.00  0.00    -0.000 C 
BRANCH   9  10
ATOM     10  C   UNL     1      28.187  19.563   7.175  1.00  0.00    -0.003 C 
ATOM     11  C   UNL     1      28.448  19.708   8.673  1.00  0.00     0.004 C 
ENDBRANCH   9  10
ENDBRANCH   8   9
ENDBRANCH   7   8
ENDBRANCH   1   7
TORSDOF 7
ENDMDL
MODEL 5
REMARK VINA RESULT:    -4.524      0.789      1.361
REMARK INTER + INTRA:          -6.981
REMARK INTER:                  -6.327
REMARK INTRA:                  -0.654
REMARK UNBOUND:                -0.606
REMARK SMILES CCCCCCCCC(=O)[O-]
REMARK SMILES IDX 6 1 7 2 8 3 9 4 10 5 11 6 5 7 4 8 3 9 2 10 1 11
REMARK H PARENT
REMARK Flexibility Score: inf
ROOT
ATOM      1  C   UNL     1      15.400  22.282  14.722  1.00  0.00     0.000 C 
ENDROOT
BRANCH   1   2
ATOM      2  C   UNL     1      15.692  20.810  15.052  1.00  0.00     0.006 C 
BRANCH   2   3
ATOM      3  C   UNL     1      16.884  20.654  16.004  1.00  0.00     0.053 C 
BRANCH   3   4
ATOM      4  C   UNL     1      16.441  20.372  17.407  1.00  0.00     0.041 C 
ATOM      5  O   UNL     1      17.227  20.566  18.372  1.00  0.00    -0.550 OA
ATOM      6  O   UNL     1      15.148  19.925  17.651  1.00  0.00    -0.550 OA
ENDBRANCH   3   4
ENDBRANCH   2   3
ENDBRANCH   1   2
BRANCH   1   7
ATOM      7  C   UNL     1      15.343  22.503  13.206  1.00  0.00     0.000 C 
BRANCH   7   8
ATOM      8  C   UNL     1      15.262  21.168  12.456  1.00  0.00    -0.000 C 
BRANCH   8   9
ATOM      9  C   UNL     1      16.084  21.215  11.160  1.00  0.00    -0.000 C 
BRANCH   9  10
ATOM     10  C   UNL     1      17.599  21.248  11.423  1.00  0.00    -0.003 C 
ATOM     11  C   UNL     1      18.074  20.080  12.287  1.00  0.00     0.004 C 
ENDBRANCH   9  10
ENDBRANCH   8   9
ENDBRANCH   7   8
ENDBRANCH   1   7
TORSDOF 7
ENDMDL
MODEL 6
REMARK VINA RESULT:    -4.444      2.630      3.846
REMARK INTER + INTRA:          -6.868
REMARK INTER:                  -6.592
REMARK INTRA:                  -0.276
REMARK UNBOUND:                -0.606
REMARK SMILES CCCCCCCCC(=O)[O-]
REMARK SMILES IDX 6 1 7 2 8 3 9 4 10 5 11 6 5 7 4 8 3 9 2 10 1 11
REMARK H PARENT
REMARK Flexibility Score: inf
ROOT
ATOM      1  C   UNL     1      14.556  22.976  17.136  1.00  0.00     0.000 C 
ENDROOT
BRANCH   1   2
ATOM      2  C   UNL     1      13.924  22.597  18.484  1.00  0.00     0.006 C 
BRANCH   2   3
ATOM      3  C   UNL     1      14.183  21.132  18.856  1.00  0.00     0.053 C 
BRANCH   3   4
ATOM      4  C   UNL     1      15.174  21.010  19.973  1.00  0.00     0.041 C 
ATOM      5  O   UNL     1      14.911  21.486  21.109  1.00  0.00    -0.550 OA
ATOM      6  O   UNL     1      16.375  20.342  19.767  1.00  0.00    -0.550 OA
ENDBRANCH   3   4
ENDBRANCH   2   3
ENDBRANCH   1   2
BRANCH   1   7
ATOM      7  C   UNL     1      14.707  21.746  16.235  1.00  0.00     0.000 C 
BRANCH   7   8
ATOM      8  C   UNL     1      13.933  21.925  14.922  1.00  0.00    -0.000 C 
BRANCH   8   9
ATOM      9  C   UNL     1      14.670  21.254  13.754  1.00  0.00    -0.000 C 
BRANCH   9  10
ATOM     10  C   UNL     1      15.425  22.263  12.874  1.00  0.00    -0.003 C 
ATOM     11  C   UNL     1      15.969  21.637  11.591  1.00  0.00     0.004 C 
ENDBRANCH   9  10
ENDBRANCH   8   9
ENDBRANCH   7   8
ENDBRANCH   1   7
TORSDOF 7
ENDMDL
MODEL 7
REMARK VINA RESULT:    -4.430     13.223     14.545
REMARK INTER + INTRA:          -6.849
REMARK INTER:                  -6.235
REMARK INTRA:                  -0.613
REMARK UNBOUND:                -0.606
REMARK SMILES CCCCCCCCC(=O)[O-]
REMARK SMILES IDX 6 1 7 2 8 3 9 4 10 5 11 6 5 7 4 8 3 9 2 10 1 11
REMARK H PARENT
REMARK Flexibility Score: inf
ROOT
ATOM      1  C   UNL     1      27.750  18.881   7.783  1.00  0.00     0.000 C 
ENDROOT
BRANCH   1   2
ATOM      2  C   UNL     1      28.452  20.235   7.963  1.00  0.00     0.006 C 
BRANCH   2   3
ATOM      3  C   UNL     1      29.744  20.117   8.780  1.00  0.00     0.053 C 
BRANCH   3   4
ATOM      4  C   UNL     1      29.752  21.060   9.944  1.00  0.00     0.041 C 
ATOM      5  O   UNL     1      28.927  20.916  10.884  1.00  0.00    -0.550 OA
ATOM      6  O   UNL     1      30.694  22.080  10.005  1.00  0.00    -0.550 OA
ENDBRANCH   3   4
ENDBRANCH   2   3
ENDBRANCH   1   2
BRANCH   1   7
ATOM      7  C   UNL     1      27.321  18.673   6.326  1.00  0.00     0.000 C 
BRANCH   7   8
ATOM      8  C   UNL     1      28.017  17.451   5.715  1.00  0.00    -0.000 C 
BRANCH   8   9
ATOM      9  C   UNL     1      29.528  17.690   5.578  1.00  0.00    -0.000 C 
BRANCH   9  10
ATOM     10  C   UNL     1      30.363  16.554   6.191  1.00  0.00    -0.003 C 
ATOM     11  C   UNL     1      31.254  17.028   7.338  1.00  0.00     0.004 C 
ENDBRANCH   9  10
ENDBRANCH   8   9
ENDBRANCH   7   8
ENDBRANCH   1   7
TORSDOF 7
ENDMDL
MODEL 8
REMARK VINA RESULT:    -4.416      1.044      1.381
REMARK INTER + INTRA:          -6.829
REMARK INTER:                  -6.240
REMARK INTRA:                  -0.589
REMARK UNBOUND:                -0.606
REMARK SMILES CCCCCCCCC(=O)[O-]
REMARK SMILES IDX 6 1 7 2 8 3 9 4 10 5 11 6 5 7 4 8 3 9 2 10 1 11
REMARK H PARENT
REMARK Flexibility Score: inf
ROOT
ATOM      1  C   UNL     1      15.039  21.314  13.901  1.00  0.00     0.000 C 
ENDROOT
BRANCH   1   2
ATOM      2  C   UNL     1      15.687  21.622  15.259  1.00  0.00     0.006 C 
BRANCH   2   3
ATOM      3  C   UNL     1      16.251  20.364  15.932  1.00  0.00     0.053 C 
BRANCH   3   4
ATOM      4  C   UNL     1      17.198  20.707  17.042  1.00  0.00     0.041 C 
ATOM      5  O   UNL     1      16.755  21.076  18.162  1.00  0.00    -0.550 OA
ATOM      6  O   UNL     1      18.568  20.588  16.848  1.00  0.00    -0.550 OA
ENDBRANCH   3   4
ENDBRANCH   2   3
ENDBRANCH   1   2
BRANCH   1   7
ATOM      7  C   UNL     1      15.510  22.304  12.830  1.00  0.00     0.000 C 
BRANCH   7   8
ATOM      8  C   UNL     1      15.848  21.581  11.520  1.00  0.00    -0.000 C 
BRANCH   8   9
ATOM      9  C   UNL     1      17.364  21.387  11.375  1.00  0.00    -0.000 C 
BRANCH   9  10
ATOM     10  C   UNL     1      17.796  19.929  11.600  1.00  0.00    -0.003 C 
ATOM     11  C   UNL     1      18.365  19.691  12.997  1.00  0.00     0.004 C 
ENDBRANCH   9  10
ENDBRANCH   8   9
ENDBRANCH   7   8
ENDBRANCH   1   7
TORSDOF 7
ENDMDL
MODEL 9
REMARK VINA RESULT:    -4.408     14.291     15.668
REMARK INTER + INTRA:          -6.818
REMARK INTER:                  -6.073
REMARK INTRA:                  -0.745
REMARK UNBOUND:                -0.606
REMARK SMILES CCCCCCCCC(=O)[O-]
REMARK SMILES IDX 6 1 7 2 8 3 9 4 10 5 11 6 5 7 4 8 3 9 2 10 1 11
REMARK H PARENT
REMARK Flexibility Score: inf
ROOT
ATOM      1  C   UNL     1      28.416  19.620   8.416  1.00  0.00     0.000 C 
ENDROOT
BRANCH   1   2
ATOM      2  C   UNL     1      29.782  20.263   8.135  1.00  0.00     0.006 C 
BRANCH   2   3
ATOM      3  C   UNL     1      30.909  19.611   8.946  1.00  0.00     0.053 C 
BRANCH   3   4
ATOM      4  C   UNL     1      32.260  20.047   8.467  1.00  0.00     0.041 C 
ATOM      5  O   UNL     1      32.601  21.257   8.545  1.00  0.00    -0.550 OA
ATOM      6  O   UNL     1      33.154  19.110   7.964  1.00  0.00    -0.550 OA
ENDBRANCH   3   4
ENDBRANCH   2   3
ENDBRANCH   1   2
BRANCH   1   7
ATOM      7  C   UNL     1      27.714  19.228   7.111  1.00  0.00     0.000 C 
BRANCH   7   8
ATOM      8  C   UNL     1      27.989  17.761   6.756  1.00  0.00    -0.000 C 
BRANCH   8   9
ATOM      9  C   UNL     1      28.828  17.653   5.475  1.00  0.00    -0.000 C 
BRANCH   9  10
ATOM     10  C   UNL     1      30.338  17.611   5.760  1.00  0.00    -0.003 C 
ATOM     11  C   UNL     1      30.704  16.619   6.863  1.00  0.00     0.004 C 
ENDBRANCH   9  10
ENDBRANCH   8   9
ENDBRANCH   7   8
ENDBRANCH   1   7
TORSDOF 7
ENDMDL
