MODEL 1
REMARK VINA RESULT:    -5.683      0.000      0.000
REMARK INTER + INTRA:          -6.309
REMARK INTER:                  -6.182
REMARK INTRA:                  -0.127
REMARK UNBOUND:                -0.127
REMARK SMILES Cc1ccc(C(C)C)cc1O
REMARK SMILES IDX 1 1 2 2 10 3 9 4 5 5 4 6 3 7 11 8 6 10 7 11 8 12
REMARK H PARENT 11 9
REMARK Flexibility Score: inf
ROOT
ATOM      1  C   UNL     1     118.970  52.505  -5.651  1.00  0.00     0.048 C 
ATOM      2  C   UNL     1     118.169  52.230  -4.408  1.00  0.00    -0.009 A 
ATOM      3  C   UNL     1     118.090  53.178  -3.364  1.00  0.00     0.118 A 
ATOM      4  C   UNL     1     117.336  52.892  -2.220  1.00  0.00     0.050 A 
ATOM      5  C   UNL     1     116.651  51.670  -2.092  1.00  0.00    -0.042 A 
ATOM      6  C   UNL     1     116.735  50.733  -3.135  1.00  0.00     0.004 A 
ATOM      7  C   UNL     1     117.485  51.011  -4.280  1.00  0.00     0.007 A 
ENDROOT
BRANCH   3   8
ATOM      8  O   UNL     1     118.747  54.409  -3.431  1.00  0.00    -0.508 OA
ATOM      9  H   UNL     1     118.329  55.276  -3.115  1.00  0.00     0.293 HD
ENDBRANCH   3   8
BRANCH   5  10
ATOM     10  C   UNL     1     115.833  51.355  -0.855  1.00  0.00     0.013 C 
ATOM     11  C   UNL     1     115.138  52.611  -0.317  1.00  0.00     0.012 C 
ATOM     12  C   UNL     1     114.818  50.239  -1.132  1.00  0.00     0.012 C 
ENDBRANCH   5  10
TORSDOF 2
ENDMDL
MODEL 2
REMARK VINA RESULT:    -5.566      1.654      2.375
REMARK INTER + INTRA:          -6.181
REMARK INTER:                  -6.070
REMARK INTRA:                  -0.111
REMARK UNBOUND:                -0.127
REMARK SMILES Cc1ccc(C(C)C)cc1O
REMARK SMILES IDX 1 1 2 2 10 3 9 4 5 5 4 6 3 7 11 8 6 10 7 11 8 12
REMARK H PARENT 11 9
REMARK Flexibility Score: inf
ROOT
ATOM      1  C   UNL     1     118.964  52.204  -5.811  1.00  0.00     0.048 C 
ATOM      2  C   UNL     1     118.172  52.171  -4.533  1.00  0.00    -0.009 A 
ATOM      3  C   UNL     1     117.433  51.027  -4.159  1.00  0.00     0.118 A 
ATOM      4  C   UNL     1     116.707  51.028  -2.963  1.00  0.00     0.050 A 
ATOM      5  C   UNL     1     116.700  52.156  -2.122  1.00  0.00    -0.042 A 
ATOM      6  C   UNL     1     117.437  53.289  -2.501  1.00  0.00     0.004 A 
ATOM      7  C   UNL     1     118.165  53.296  -3.693  1.00  0.00     0.007 A 
ENDROOT
BRANCH   3   8
ATOM      8  O   UNL     1     117.400  49.876  -4.951  1.00  0.00    -0.508 OA
ATOM      9  H   UNL     1     117.988  49.750  -5.765  1.00  0.00     0.293 HD
ENDBRANCH   3   8
BRANCH   5  10
ATOM     10  C   UNL     1     115.914  52.162  -0.825  1.00  0.00     0.013 C 
ATOM     11  C   UNL     1     114.902  51.011  -0.786  1.00  0.00     0.012 C 
ATOM     12  C   UNL     1     116.850  52.115   0.389  1.00  0.00     0.012 C 
ENDBRANCH   5  10
TORSDOF 2
ENDMDL
MODEL 3
REMARK VINA RESULT:    -5.516      1.755      4.307
REMARK INTER + INTRA:          -6.126
REMARK INTER:                  -6.002
REMARK INTRA:                  -0.124
REMARK UNBOUND:                -0.127
REMARK SMILES Cc1ccc(C(C)C)cc1O
REMARK SMILES IDX 1 1 2 2 10 3 9 4 5 5 4 6 3 7 11 8 6 10 7 11 8 12
REMARK H PARENT 11 9
REMARK Flexibility Score: inf
ROOT
ATOM      1  C   UNL     1     114.335  49.875  -0.834  1.00  0.00     0.048 C 
ATOM      2  C   UNL     1     115.405  50.609  -1.595  1.00  0.00    -0.009 A 
ATOM      3  C   UNL     1     115.806  51.911  -1.223  1.00  0.00     0.118 A 
ATOM      4  C   UNL     1     116.805  52.566  -1.952  1.00  0.00     0.050 A 
ATOM      5  C   UNL     1     117.420  51.947  -3.054  1.00  0.00    -0.042 A 
ATOM      6  C   UNL     1     117.016  50.652  -3.418  1.00  0.00     0.004 A 
ATOM      7  C   UNL     1     116.020  49.991  -2.696  1.00  0.00     0.007 A 
ENDROOT
BRANCH   3   8
ATOM      8  O   UNL     1     115.233  52.579  -0.138  1.00  0.00    -0.508 OA
ATOM      9  H   UNL     1     114.286  52.408   0.178  1.00  0.00     0.293 HD
ENDBRANCH   3   8
BRANCH   5  10
ATOM     10  C   UNL     1     118.503  52.653  -3.847  1.00  0.00     0.013 C 
ATOM     11  C   UNL     1     118.358  52.379  -5.348  1.00  0.00     0.012 C 
ATOM     12  C   UNL     1     118.505  54.160  -3.559  1.00  0.00     0.012 C 
ENDBRANCH   5  10
TORSDOF 2
ENDMDL
MODEL 4
REMARK VINA RESULT:    -5.494      1.940      4.704
REMARK INTER + INTRA:          -6.103
REMARK INTER:                  -5.980
REMARK INTRA:                  -0.123
REMARK UNBOUND:                -0.127
REMARK SMILES Cc1ccc(C(C)C)cc1O
REMARK SMILES IDX 1 1 2 2 10 3 9 4 5 5 4 6 3 7 11 8 6 10 7 11 8 12
REMARK H PARENT 11 9
REMARK Flexibility Score: inf
ROOT
ATOM      1  C   UNL     1     115.458  52.315  -0.371  1.00  0.00     0.048 C 
ATOM      2  C   UNL     1     116.265  52.212  -1.636  1.00  0.00    -0.009 A 
ATOM      3  C   UNL     1     116.259  51.033  -2.413  1.00  0.00     0.118 A 
ATOM      4  C   UNL     1     117.021  50.969  -3.586  1.00  0.00     0.050 A 
ATOM      5  C   UNL     1     117.795  52.065  -4.006  1.00  0.00    -0.042 A 
ATOM      6  C   UNL     1     117.795  53.234  -3.228  1.00  0.00     0.004 A 
ATOM      7  C   UNL     1     117.038  53.306  -2.057  1.00  0.00     0.007 A 
ENDROOT
BRANCH   3   8
ATOM      8  O   UNL     1     115.511  49.911  -2.049  1.00  0.00    -0.508 OA
ATOM      9  H   UNL     1     115.099  49.279  -2.725  1.00  0.00     0.293 HD
ENDBRANCH   3   8
BRANCH   5  10
ATOM     10  C   UNL     1     118.622  52.000  -5.276  1.00  0.00     0.013 C 
ATOM     11  C   UNL     1     118.240  50.781  -6.123  1.00  0.00     0.012 C 
ATOM     12  C   UNL     1     118.495  53.297  -6.085  1.00  0.00     0.012 C 
ENDBRANCH   5  10
TORSDOF 2
ENDMDL
MODEL 5
REMARK VINA RESULT:    -5.429      1.630      2.325
REMARK INTER + INTRA:          -6.032
REMARK INTER:                  -5.905
REMARK INTRA:                  -0.128
REMARK UNBOUND:                -0.127
REMARK SMILES Cc1ccc(C(C)C)cc1O
REMARK SMILES IDX 1 1 2 2 10 3 9 4 5 5 4 6 3 7 11 8 6 10 7 11 8 12
REMARK H PARENT 11 9
REMARK Flexibility Score: inf
ROOT
ATOM      1  C   UNL     1     118.694  52.863  -5.913  1.00  0.00     0.048 C 
ATOM      2  C   UNL     1     118.120  52.556  -4.559  1.00  0.00    -0.009 A 
ATOM      3  C   UNL     1     117.576  51.286  -4.265  1.00  0.00     0.118 A 
ATOM      4  C   UNL     1     117.049  51.032  -2.993  1.00  0.00     0.050 A 
ATOM      5  C   UNL     1     117.052  52.025  -1.997  1.00  0.00    -0.042 A 
ATOM      6  C   UNL     1     117.595  53.284  -2.297  1.00  0.00     0.004 A 
ATOM      7  C   UNL     1     118.123  53.546  -3.563  1.00  0.00     0.007 A 
ENDROOT
BRANCH   3   8
ATOM      8  O   UNL     1     117.543  50.259  -5.211  1.00  0.00    -0.508 OA
ATOM      9  H   UNL     1     118.147  49.447  -5.165  1.00  0.00     0.293 HD
ENDBRANCH   3   8
BRANCH   5  10
ATOM     10  C   UNL     1     116.482  51.754  -0.618  1.00  0.00     0.013 C 
ATOM     11  C   UNL     1     117.492  52.111   0.478  1.00  0.00     0.012 C 
ATOM     12  C   UNL     1     115.157  52.498  -0.412  1.00  0.00     0.012 C 
ENDBRANCH   5  10
TORSDOF 2
ENDMDL
MODEL 6
REMARK VINA RESULT:    -4.795      1.907      2.701
REMARK INTER + INTRA:          -5.342
REMARK INTER:                  -5.216
REMARK INTRA:                  -0.126
REMARK UNBOUND:                -0.127
REMARK SMILES Cc1ccc(C(C)C)cc1O
REMARK SMILES IDX 1 1 2 2 10 3 9 4 5 5 4 6 3 7 11 8 6 10 7 11 8 12
REMARK H PARENT 11 9
REMARK Flexibility Score: inf
ROOT
ATOM      1  C   UNL     1     118.400  53.191  -5.620  1.00  0.00     0.048 C 
ATOM      2  C   UNL     1     118.086  52.757  -4.215  1.00  0.00    -0.009 A 
ATOM      3  C   UNL     1     117.560  51.474  -3.945  1.00  0.00     0.118 A 
ATOM      4  C   UNL     1     117.279  51.100  -2.627  1.00  0.00     0.050 A 
ATOM      5  C   UNL     1     117.513  51.985  -1.558  1.00  0.00    -0.042 A 
ATOM      6  C   UNL     1     118.036  53.258  -1.834  1.00  0.00     0.004 A 
ATOM      7  C   UNL     1     118.320  53.639  -3.148  1.00  0.00     0.007 A 
ENDROOT
BRANCH   3   8
ATOM      8  O   UNL     1     117.306  50.551  -4.963  1.00  0.00    -0.508 OA
ATOM      9  H   UNL     1     117.570  49.576  -4.901  1.00  0.00     0.293 HD
ENDBRANCH   3   8
BRANCH   5  10
ATOM     10  C   UNL     1     117.210  51.584  -0.127  1.00  0.00     0.013 C 
ATOM     11  C   UNL     1     117.349  50.069   0.064  1.00  0.00     0.012 C 
ATOM     12  C   UNL     1     118.099  52.349   0.861  1.00  0.00     0.012 C 
ENDBRANCH   5  10
TORSDOF 2
ENDMDL
MODEL 7
REMARK VINA RESULT:    -4.571      2.408      4.596
REMARK INTER + INTRA:          -5.098
REMARK INTER:                  -4.971
REMARK INTRA:                  -0.128
REMARK UNBOUND:                -0.127
REMARK SMILES Cc1ccc(C(C)C)cc1O
REMARK SMILES IDX 1 1 2 2 10 3 9 4 5 5 4 6 3 7 11 8 6 10 7 11 8 12
REMARK H PARENT 11 9
REMARK Flexibility Score: inf
ROOT
ATOM      1  C   UNL     1     117.807  52.163   0.345  1.00  0.00     0.048 C 
ATOM      2  C   UNL     1     118.025  52.149  -1.142  1.00  0.00    -0.009 A 
ATOM      3  C   UNL     1     118.623  51.042  -1.784  1.00  0.00     0.118 A 
ATOM      4  C   UNL     1     118.812  51.060  -3.171  1.00  0.00     0.050 A 
ATOM      5  C   UNL     1     118.414  52.168  -3.941  1.00  0.00    -0.042 A 
ATOM      6  C   UNL     1     117.819  53.264  -3.296  1.00  0.00     0.004 A 
ATOM      7  C   UNL     1     117.627  53.254  -1.912  1.00  0.00     0.007 A 
ENDROOT
BRANCH   3   8
ATOM      8  O   UNL     1     119.041  49.913  -1.075  1.00  0.00    -0.508 OA
ATOM      9  H   UNL     1     118.440  49.412  -0.432  1.00  0.00     0.293 HD
ENDBRANCH   3   8
BRANCH   5  10
ATOM     10  C   UNL     1     118.617  52.192  -5.444  1.00  0.00     0.013 C 
ATOM     11  C   UNL     1     117.843  51.057  -6.125  1.00  0.00     0.012 C 
ATOM     12  C   UNL     1     118.229  53.554  -6.032  1.00  0.00     0.012 C 
ENDBRANCH   5  10
TORSDOF 2
ENDMDL
MODEL 8
REMARK VINA RESULT:    -4.315      9.311     10.865
REMARK INTER + INTRA:          -4.820
REMARK INTER:                  -4.711
REMARK INTRA:                  -0.109
REMARK UNBOUND:                -0.127
REMARK SMILES Cc1ccc(C(C)C)cc1O
REMARK SMILES IDX 1 1 2 2 10 3 9 4 5 5 4 6 3 7 11 8 6 10 7 11 8 12
REMARK H PARENT 11 9
REMARK Flexibility Score: inf
ROOT
ATOM      1  C   UNL     1     126.524  56.209   3.572  1.00  0.00     0.048 C 
ATOM      2  C   UNL     1     126.295  55.772   2.152  1.00  0.00    -0.009 A 
ATOM      3  C   UNL     1     126.583  54.453   1.737  1.00  0.00     0.118 A 
ATOM      4  C   UNL     1     126.359  54.077   0.407  1.00  0.00     0.050 A 
ATOM      5  C   UNL     1     125.847  54.996  -0.527  1.00  0.00    -0.042 A 
ATOM      6  C   UNL     1     125.563  56.304  -0.106  1.00  0.00     0.004 A 
ATOM      7  C   UNL     1     125.784  56.687   1.218  1.00  0.00     0.007 A 
ENDROOT
BRANCH   3   8
ATOM      8  O   UNL     1     127.093  53.495   2.617  1.00  0.00    -0.508 OA
ATOM      9  H   UNL     1     127.241  52.529   2.355  1.00  0.00     0.293 HD
ENDBRANCH   3   8
BRANCH   5  10
ATOM     10  C   UNL     1     125.602  54.593  -1.969  1.00  0.00     0.013 C 
ATOM     11  C   UNL     1     126.676  55.175  -2.896  1.00  0.00     0.012 C 
ATOM     12  C   UNL     1     125.519  53.068  -2.110  1.00  0.00     0.012 C 
ENDBRANCH   5  10
TORSDOF 2
ENDMDL
MODEL 9
REMARK VINA RESULT:    -4.310      2.225      4.343
REMARK INTER + INTRA:          -4.815
REMARK INTER:                  -4.688
REMARK INTRA:                  -0.128
REMARK UNBOUND:                -0.127
REMARK SMILES Cc1ccc(C(C)C)cc1O
REMARK SMILES IDX 1 1 2 2 10 3 9 4 5 5 4 6 3 7 11 8 6 10 7 11 8 12
REMARK H PARENT 11 9
REMARK Flexibility Score: inf
ROOT
ATOM      1  C   UNL     1     117.433  51.997   1.529  1.00  0.00     0.048 C 
ATOM      2  C   UNL     1     117.483  51.794   0.040  1.00  0.00    -0.009 A 
ATOM      3  C   UNL     1     116.383  52.123  -0.782  1.00  0.00     0.118 A 
ATOM      4  C   UNL     1     116.461  51.922  -2.164  1.00  0.00     0.050 A 
ATOM      5  C   UNL     1     117.625  51.396  -2.754  1.00  0.00    -0.042 A 
ATOM      6  C   UNL     1     118.715  51.072  -1.931  1.00  0.00     0.004 A 
ATOM      7  C   UNL     1     118.645  51.269  -0.550  1.00  0.00     0.007 A 
ENDROOT
BRANCH   3   8
ATOM      8  O   UNL     1     115.199  52.648  -0.256  1.00  0.00    -0.508 OA
ATOM      9  H   UNL     1     115.123  52.995   0.691  1.00  0.00     0.293 HD
ENDBRANCH   3   8
BRANCH   5  10
ATOM     10  C   UNL     1     117.714  51.176  -4.252  1.00  0.00     0.013 C 
ATOM     11  C   UNL     1     118.300  52.405  -4.957  1.00  0.00     0.012 C 
ATOM     12  C   UNL     1     118.524  49.915  -4.578  1.00  0.00     0.012 C 
ENDBRANCH   5  10
TORSDOF 2
ENDMDL
