MODEL 1
REMARK VINA RESULT:    -5.730      0.000      0.000
REMARK INTER + INTRA:          -7.090
REMARK INTER:                  -9.414
REMARK INTRA:                   2.324
REMARK UNBOUND:                 2.324
REMARK SMILES COc1ccc([C@@H]2CC(=O)c3c(O)cc(O[C@H]4O[C@@H](CO[C@@H]5O[C@H](C)[C@@H](O)[C@H](O)[C@H]5O)[C@@H](O)[C@H](O)[C@H]4O)cc3O2)cc1O
REMARK SMILES IDX 19 1 32 2 34 3 36 4 17 5 18 6 20 7 21 8 22 9 25 10 24 11
REMARK SMILES IDX 26 12 23 13 28 14 30 15 27 16 29 18 31 20 33 22 35 24 16 26
REMARK SMILES IDX 15 27 14 28 38 29 12 30 39 31 11 32 40 33 9 34 7 35 10 36
REMARK SMILES IDX 8 37 13 38 6 40 41 41 5 42 42 43 4 44 3 45 43 46 2 48 1 49
REMARK SMILES IDX 37 50
REMARK H PARENT 27 17 29 19 31 21 33 23 35 25 13 39 43 47 37 51
REMARK Flexibility Score: inf
ROOT
ATOM      1  C   UNL     1     -16.061 -24.106   0.213  1.00  0.00     0.180 C 
ATOM      2  C   UNL     1     -15.116 -22.888   0.360  1.00  0.00     0.177 C 
ATOM      3  C   UNL     1     -13.665 -23.358   0.272  1.00  0.00     0.180 C 
ATOM      4  C   UNL     1     -13.477 -24.051  -1.084  1.00  0.00     0.214 C 
ATOM      5  C   UNL     1     -14.569 -25.108  -1.378  1.00  0.00     0.339 C 
ATOM      6  O   UNL     1     -15.908 -24.743  -1.043  1.00  0.00    -0.332 OA
ENDROOT
BRANCH   1   7
ATOM      7  C   UNL     1     -16.091 -25.117   1.399  1.00  0.00     0.198 C 
BRANCH   7   8
ATOM      8  O   UNL     1     -17.015 -24.723   2.392  1.00  0.00    -0.347 OA
BRANCH   8   9
ATOM      9  C   UNL     1     -18.371 -24.678   1.970  1.00  0.00     0.281 C 
ATOM     10  C   UNL     1     -21.440 -23.756   3.695  1.00  0.00     0.041 C 
ATOM     11  C   UNL     1     -20.574 -24.380   2.599  1.00  0.00     0.150 C 
ATOM     12  C   UNL     1     -21.121 -25.765   2.170  1.00  0.00     0.174 C 
ATOM     13  O   UNL     1     -19.246 -24.515   3.079  1.00  0.00    -0.344 OA
ATOM     14  C   UNL     1     -19.981 -26.682   1.582  1.00  0.00     0.179 C 
ATOM     15  C   UNL     1     -18.770 -25.878   1.037  1.00  0.00     0.202 C 
BRANCH  12  16
ATOM     16  O   UNL     1     -22.193 -25.581   1.271  1.00  0.00    -0.388 OA
ATOM     17  H   UNL     1     -23.048 -25.598   1.787  1.00  0.00     0.211 HD
ENDBRANCH  12  16
BRANCH  14  18
ATOM     18  O   UNL     1     -19.522 -27.631   2.522  1.00  0.00    -0.387 OA
ATOM     19  H   UNL     1     -20.237 -27.802   3.194  1.00  0.00     0.211 HD
ENDBRANCH  14  18
BRANCH  15  20
ATOM     20  O   UNL     1     -19.025 -25.431  -0.273  1.00  0.00    -0.385 OA
ATOM     21  H   UNL     1     -19.557 -26.118  -0.740  1.00  0.00     0.211 HD
ENDBRANCH  15  20
ENDBRANCH   8   9
ENDBRANCH   7   8
ENDBRANCH   1   7
BRANCH   2  22
ATOM     22  O   UNL     1     -15.353 -22.205   1.560  1.00  0.00    -0.387 OA
ATOM     23  H   UNL     1     -15.546 -22.892   2.241  1.00  0.00     0.211 HD
ENDBRANCH   2  22
BRANCH   3  24
ATOM     24  O   UNL     1     -12.733 -22.297   0.381  1.00  0.00    -0.387 OA
ATOM     25  H   UNL     1     -11.858 -22.629   0.728  1.00  0.00     0.211 HD
ENDBRANCH   3  24
BRANCH   5  26
ATOM     26  O   UNL     1     -14.240 -26.390  -0.823  1.00  0.00    -0.462 OA
BRANCH  26  27
ATOM     27  C   UNL     1     -13.128 -26.626   0.001  1.00  0.00     0.130 A 
ATOM     28  C   UNL     1     -13.109 -26.269   1.362  1.00  0.00     0.093 A 
ATOM     29  C   UNL     1     -12.012 -27.287  -0.548  1.00  0.00     0.094 A 
ATOM     30  C   UNL     1     -12.034 -26.628   2.185  1.00  0.00     0.133 A 
ATOM     31  C   UNL     1     -10.920 -27.622   0.258  1.00  0.00     0.138 A 
ATOM     32  C   UNL     1     -10.941 -27.326   1.632  1.00  0.00     0.102 A 
ATOM     33  O   UNL     1      -9.819 -28.276  -0.307  1.00  0.00    -0.484 OA
ATOM     34  C   UNL     1      -9.807 -27.796   2.457  1.00  0.00     0.174 C 
ATOM     35  C   UNL     1      -8.570 -28.373   0.389  1.00  0.00     0.211 C 
ATOM     36  O   UNL     1      -9.703 -27.465   3.670  1.00  0.00    -0.294 OA
ATOM     37  C   UNL     1      -8.804 -28.741   1.862  1.00  0.00     0.131 C 
BRANCH  30  38
ATOM     38  O   UNL     1     -12.064 -26.310   3.541  1.00  0.00    -0.507 OA
ATOM     39  H   UNL     1     -12.925 -26.102   4.029  1.00  0.00     0.293 HD
ENDBRANCH  30  38
BRANCH  35  40
ATOM     40  C   UNL     1      -7.680 -29.395  -0.288  1.00  0.00    -0.003 A 
ATOM     41  C   UNL     1      -7.950 -30.766  -0.168  1.00  0.00     0.057 A 
ATOM     42  C   UNL     1      -6.598 -28.983  -1.085  1.00  0.00     0.011 A 
ATOM     43  C   UNL     1      -7.126 -31.721  -0.771  1.00  0.00     0.158 A 
ATOM     44  C   UNL     1      -5.774 -29.932  -1.709  1.00  0.00     0.051 A 
ATOM     45  C   UNL     1      -6.031 -31.311  -1.546  1.00  0.00     0.160 A 
BRANCH  43  46
ATOM     46  O   UNL     1      -7.416 -33.073  -0.584  1.00  0.00    -0.504 OA
ATOM     47  H   UNL     1      -8.002 -33.407   0.171  1.00  0.00     0.293 HD
ENDBRANCH  43  46
BRANCH  45  48
ATOM     48  O   UNL     1      -5.221 -32.294  -2.125  1.00  0.00    -0.493 OA
ATOM     49  C   UNL     1      -5.242 -33.672  -1.762  1.00  0.00     0.278 C 
ENDBRANCH  45  48
ENDBRANCH  35  40
ENDBRANCH  26  27
ENDBRANCH   5  26
BRANCH   4  50
ATOM     50  O   UNL     1     -12.219 -24.679  -1.144  1.00  0.00    -0.384 OA
ATOM     51  H   UNL     1     -12.015 -25.021  -0.235  1.00  0.00     0.211 HD
ENDBRANCH   4  50
TORSDOF 15
ENDMDL
MODEL 2
REMARK VINA RESULT:    -4.661      1.934      3.751
REMARK INTER + INTRA:          -5.334
REMARK INTER:                  -7.587
REMARK INTRA:                   2.253
REMARK UNBOUND:                 2.324
REMARK SMILES COc1ccc([C@@H]2CC(=O)c3c(O)cc(O[C@H]4O[C@@H](CO[C@@H]5O[C@H](C)[C@@H](O)[C@H](O)[C@H]5O)[C@@H](O)[C@H](O)[C@H]4O)cc3O2)cc1O
REMARK SMILES IDX 19 1 32 2 34 3 36 4 17 5 18 6 20 7 21 8 22 9 25 10 24 11
REMARK SMILES IDX 26 12 23 13 28 14 30 15 27 16 29 18 31 20 33 22 35 24 16 26
REMARK SMILES IDX 15 27 14 28 38 29 12 30 39 31 11 32 40 33 9 34 7 35 10 36
REMARK SMILES IDX 8 37 13 38 6 40 41 41 5 42 42 43 4 44 3 45 43 46 2 48 1 49
REMARK SMILES IDX 37 50
REMARK H PARENT 27 17 29 19 31 21 33 23 35 25 13 39 43 47 37 51
REMARK Flexibility Score: inf
ROOT
ATOM      1  C   UNL     1     -15.548 -23.694   3.458  1.00  0.00     0.180 C 
ATOM      2  C   UNL     1     -14.247 -24.012   4.237  1.00  0.00     0.177 C 
ATOM      3  C   UNL     1     -13.041 -23.770   3.330  1.00  0.00     0.180 C 
ATOM      4  C   UNL     1     -13.079 -22.303   2.880  1.00  0.00     0.214 C 
ATOM      5  C   UNL     1     -14.461 -21.877   2.327  1.00  0.00     0.339 C 
ATOM      6  O   UNL     1     -15.601 -22.337   3.053  1.00  0.00    -0.332 OA
ENDROOT
BRANCH   1   7
ATOM      7  C   UNL     1     -15.939 -24.678   2.314  1.00  0.00     0.198 C 
BRANCH   7   8
ATOM      8  O   UNL     1     -17.020 -25.505   2.691  1.00  0.00    -0.347 OA
BRANCH   8   9
ATOM      9  C   UNL     1     -18.276 -25.148   2.129  1.00  0.00     0.281 C 
ATOM     10  C   UNL     1     -21.276 -23.686   3.578  1.00  0.00     0.041 C 
ATOM     11  C   UNL     1     -20.430 -24.420   2.537  1.00  0.00     0.150 C 
ATOM     12  C   UNL     1     -21.194 -25.630   1.943  1.00  0.00     0.174 C 
ATOM     13  O   UNL     1     -19.227 -24.862   3.146  1.00  0.00    -0.344 OA
ATOM     14  C   UNL     1     -20.204 -26.736   1.410  1.00  0.00     0.179 C 
ATOM     15  C   UNL     1     -18.796 -26.182   1.066  1.00  0.00     0.202 C 
BRANCH  12  16
ATOM     16  O   UNL     1     -22.086 -25.171   0.949  1.00  0.00    -0.388 OA
ATOM     17  H   UNL     1     -21.566 -24.661   0.267  1.00  0.00     0.211 HD
ENDBRANCH  12  16
BRANCH  14  18
ATOM     18  O   UNL     1     -20.070 -27.812   2.316  1.00  0.00    -0.387 OA
ATOM     19  H   UNL     1     -19.913 -27.454   3.232  1.00  0.00     0.211 HD
ENDBRANCH  14  18
BRANCH  15  20
ATOM     20  O   UNL     1     -18.790 -25.619  -0.225  1.00  0.00    -0.385 OA
ATOM     21  H   UNL     1     -18.553 -24.665  -0.148  1.00  0.00     0.211 HD
ENDBRANCH  15  20
ENDBRANCH   8   9
ENDBRANCH   7   8
ENDBRANCH   1   7
BRANCH   2  22
ATOM     22  O   UNL     1     -14.256 -25.325   4.723  1.00  0.00    -0.387 OA
ATOM     23  H   UNL     1     -13.630 -25.838   4.160  1.00  0.00     0.211 HD
ENDBRANCH   2  22
BRANCH   3  24
ATOM     24  O   UNL     1     -11.806 -24.022   3.975  1.00  0.00    -0.387 OA
ATOM     25  H   UNL     1     -11.910 -23.976   4.968  1.00  0.00     0.211 HD
ENDBRANCH   3  24
BRANCH   5  26
ATOM     26  O   UNL     1     -14.596 -22.175   0.930  1.00  0.00    -0.462 OA
BRANCH  26  27
ATOM     27  C   UNL     1     -14.468 -23.462   0.387  1.00  0.00     0.130 A 
ATOM     28  C   UNL     1     -15.533 -24.118  -0.259  1.00  0.00     0.093 A 
ATOM     29  C   UNL     1     -13.213 -24.097   0.450  1.00  0.00     0.094 A 
ATOM     30  C   UNL     1     -15.339 -25.349  -0.897  1.00  0.00     0.133 A 
ATOM     31  C   UNL     1     -13.016 -25.341  -0.157  1.00  0.00     0.138 A 
ATOM     32  C   UNL     1     -14.066 -25.954  -0.862  1.00  0.00     0.102 A 
ATOM     33  O   UNL     1     -11.762 -25.958  -0.080  1.00  0.00    -0.484 OA
ATOM     34  C   UNL     1     -13.775 -27.218  -1.574  1.00  0.00     0.174 C 
ATOM     35  C   UNL     1     -11.587 -27.340  -0.416  1.00  0.00     0.211 C 
ATOM     36  O   UNL     1     -14.694 -27.883  -2.125  1.00  0.00    -0.294 OA
ATOM     37  C   UNL     1     -12.352 -27.679  -1.703  1.00  0.00     0.131 C 
BRANCH  30  38
ATOM     38  O   UNL     1     -16.396 -25.951  -1.576  1.00  0.00    -0.507 OA
ATOM     39  H   UNL     1     -16.411 -26.044  -2.582  1.00  0.00     0.293 HD
ENDBRANCH  30  38
BRANCH  35  40
ATOM     40  C   UNL     1     -10.111 -27.652  -0.566  1.00  0.00    -0.003 A 
ATOM     41  C   UNL     1      -9.159 -26.980   0.214  1.00  0.00     0.057 A 
ATOM     42  C   UNL     1      -9.680 -28.651  -1.454  1.00  0.00     0.011 A 
ATOM     43  C   UNL     1      -7.794 -27.243   0.073  1.00  0.00     0.158 A 
ATOM     44  C   UNL     1      -8.313 -28.935  -1.592  1.00  0.00     0.051 A 
ATOM     45  C   UNL     1      -7.359 -28.223  -0.833  1.00  0.00     0.160 A 
BRANCH  43  46
ATOM     46  O   UNL     1      -6.885 -26.515   0.842  1.00  0.00    -0.504 OA
ATOM     47  H   UNL     1      -6.775 -25.513   0.755  1.00  0.00     0.293 HD
ENDBRANCH  43  46
BRANCH  45  48
ATOM     48  O   UNL     1      -5.985 -28.451  -0.957  1.00  0.00    -0.493 OA
ATOM     49  C   UNL     1      -5.370 -29.735  -0.873  1.00  0.00     0.278 C 
ENDBRANCH  45  48
ENDBRANCH  35  40
ENDBRANCH  26  27
ENDBRANCH   5  26
BRANCH   4  50
ATOM     50  O   UNL     1     -12.109 -22.069   1.889  1.00  0.00    -0.384 OA
ATOM     51  H   UNL     1     -11.985 -22.919   1.390  1.00  0.00     0.211 HD
ENDBRANCH   4  50
TORSDOF 15
ENDMDL
MODEL 3
REMARK VINA RESULT:    -3.897      2.275     11.554
REMARK INTER + INTRA:          -4.080
REMARK INTER:                  -2.005
REMARK INTRA:                  -2.075
REMARK UNBOUND:                 2.324
REMARK SMILES COc1ccc([C@@H]2CC(=O)c3c(O)cc(O[C@H]4O[C@@H](CO[C@@H]5O[C@H](C)[C@@H](O)[C@H](O)[C@H]5O)[C@@H](O)[C@H](O)[C@H]4O)cc3O2)cc1O
REMARK SMILES IDX 19 1 32 2 34 3 36 4 17 5 18 6 20 7 21 8 22 9 25 10 24 11
REMARK SMILES IDX 26 12 23 13 28 14 30 15 27 16 29 18 31 20 33 22 35 24 16 26
REMARK SMILES IDX 15 27 14 28 38 29 12 30 39 31 11 32 40 33 9 34 7 35 10 36
REMARK SMILES IDX 8 37 13 38 6 40 41 41 5 42 42 43 4 44 3 45 43 46 2 48 1 49
REMARK SMILES IDX 37 50
REMARK H PARENT 27 17 29 19 31 21 33 23 35 25 13 39 43 47 37 51
REMARK Flexibility Score: inf
ROOT
ATOM      1  C   UNL     1     -11.102 -28.178   1.124  1.00  0.00     0.180 C 
ATOM      2  C   UNL     1     -10.044 -28.636   2.158  1.00  0.00     0.177 C 
ATOM      3  C   UNL     1      -9.555 -27.425   2.952  1.00  0.00     0.180 C 
ATOM      4  C   UNL     1     -10.772 -26.793   3.641  1.00  0.00     0.214 C 
ATOM      5  C   UNL     1     -11.957 -26.557   2.673  1.00  0.00     0.339 C 
ATOM      6  O   UNL     1     -12.238 -27.609   1.750  1.00  0.00    -0.332 OA
ENDROOT
BRANCH   1   7
ATOM      7  C   UNL     1     -10.588 -27.327  -0.077  1.00  0.00     0.198 C 
BRANCH   7   8
ATOM      8  O   UNL     1     -10.215 -28.143  -1.168  1.00  0.00    -0.347 OA
BRANCH   8   9
ATOM      9  C   UNL     1      -8.858 -28.028  -1.570  1.00  0.00     0.281 C 
ATOM     10  C   UNL     1      -6.172 -30.469  -1.840  1.00  0.00     0.041 C 
ATOM     11  C   UNL     1      -6.810 -29.081  -1.758  1.00  0.00     0.150 C 
ATOM     12  C   UNL     1      -5.985 -28.136  -0.847  1.00  0.00     0.174 C 
ATOM     13  O   UNL     1      -8.130 -29.207  -1.252  1.00  0.00    -0.344 OA
ATOM     14  C   UNL     1      -6.885 -26.998  -0.228  1.00  0.00     0.179 C 
ATOM     15  C   UNL     1      -8.167 -26.714  -1.054  1.00  0.00     0.202 C 
BRANCH  12  16
ATOM     16  O   UNL     1      -4.888 -27.630  -1.577  1.00  0.00    -0.388 OA
ATOM     17  H   UNL     1      -4.845 -26.643  -1.440  1.00  0.00     0.211 HD
ENDBRANCH  12  16
BRANCH  14  18
ATOM     18  O   UNL     1      -7.246 -27.272   1.109  1.00  0.00    -0.387 OA
ATOM     19  H   UNL     1      -8.019 -27.901   1.121  1.00  0.00     0.211 HD
ENDBRANCH  14  18
BRANCH  15  20
ATOM     20  O   UNL     1      -7.881 -25.845  -2.125  1.00  0.00    -0.385 OA
ATOM     21  H   UNL     1      -7.254 -26.298  -2.736  1.00  0.00     0.211 HD
ENDBRANCH  15  20
ENDBRANCH   8   9
ENDBRANCH   7   8
ENDBRANCH   1   7
BRANCH   2  22
ATOM     22  O   UNL     1      -8.976 -29.293   1.532  1.00  0.00    -0.387 OA
ATOM     23  H   UNL     1      -9.218 -29.379   0.580  1.00  0.00     0.211 HD
ENDBRANCH   2  22
BRANCH   3  24
ATOM     24  O   UNL     1      -8.593 -27.763   3.935  1.00  0.00    -0.387 OA
ATOM     25  H   UNL     1      -7.683 -27.461   3.658  1.00  0.00     0.211 HD
ENDBRANCH   3  24
BRANCH   5  26
ATOM     26  O   UNL     1     -11.852 -25.298   1.991  1.00  0.00    -0.462 OA
BRANCH  26  27
ATOM     27  C   UNL     1     -12.954 -24.557   1.539  1.00  0.00     0.130 A 
ATOM     28  C   UNL     1     -12.916 -23.793   0.357  1.00  0.00     0.093 A 
ATOM     29  C   UNL     1     -14.154 -24.621   2.272  1.00  0.00     0.094 A 
ATOM     30  C   UNL     1     -14.068 -23.165  -0.131  1.00  0.00     0.133 A 
ATOM     31  C   UNL     1     -15.302 -23.970   1.810  1.00  0.00     0.138 A 
ATOM     32  C   UNL     1     -15.274 -23.271   0.592  1.00  0.00     0.102 A 
ATOM     33  O   UNL     1     -16.485 -24.042   2.555  1.00  0.00    -0.484 OA
ATOM     34  C   UNL     1     -16.542 -22.691   0.098  1.00  0.00     0.174 C 
ATOM     35  C   UNL     1     -17.589 -23.166   2.293  1.00  0.00     0.211 C 
ATOM     36  O   UNL     1     -16.567 -21.952  -0.924  1.00  0.00    -0.294 OA
ATOM     37  C   UNL     1     -17.830 -23.047   0.781  1.00  0.00     0.131 C 
BRANCH  30  38
ATOM     38  O   UNL     1     -14.016 -22.460  -1.332  1.00  0.00    -0.507 OA
ATOM     39  H   UNL     1     -13.143 -22.194  -1.766  1.00  0.00     0.293 HD
ENDBRANCH  30  38
BRANCH  35  40
ATOM     40  C   UNL     1     -18.829 -23.673   3.001  1.00  0.00    -0.003 A 
ATOM     41  C   UNL     1     -20.075 -23.074   2.769  1.00  0.00     0.057 A 
ATOM     42  C   UNL     1     -18.757 -24.779   3.864  1.00  0.00     0.011 A 
ATOM     43  C   UNL     1     -21.225 -23.517   3.430  1.00  0.00     0.158 A 
ATOM     44  C   UNL     1     -19.907 -25.243   4.520  1.00  0.00     0.051 A 
ATOM     45  C   UNL     1     -21.149 -24.606   4.312  1.00  0.00     0.160 A 
BRANCH  43  46
ATOM     46  O   UNL     1     -22.431 -22.857   3.196  1.00  0.00    -0.504 OA
ATOM     47  H   UNL     1     -22.507 -21.848   3.169  1.00  0.00     0.293 HD
ENDBRANCH  43  46
BRANCH  45  48
ATOM     48  O   UNL     1     -22.317 -25.015   4.965  1.00  0.00    -0.493 OA
ATOM     49  C   UNL     1     -22.573 -24.823   6.354  1.00  0.00     0.278 C 
ENDBRANCH  45  48
ENDBRANCH  35  40
ENDBRANCH  26  27
ENDBRANCH   5  26
BRANCH   4  50
ATOM     50  O   UNL     1     -10.421 -25.563   4.226  1.00  0.00    -0.384 OA
ATOM     51  H   UNL     1      -9.767 -25.124   3.622  1.00  0.00     0.211 HD
ENDBRANCH   4  50
TORSDOF 15
ENDMDL
MODEL 4
REMARK VINA RESULT:    -3.548      2.011     10.775
REMARK INTER + INTRA:          -3.506
REMARK INTER:                  -6.581
REMARK INTRA:                   3.075
REMARK UNBOUND:                 2.324
REMARK SMILES COc1ccc([C@@H]2CC(=O)c3c(O)cc(O[C@H]4O[C@@H](CO[C@@H]5O[C@H](C)[C@@H](O)[C@H](O)[C@H]5O)[C@@H](O)[C@H](O)[C@H]4O)cc3O2)cc1O
REMARK SMILES IDX 19 1 32 2 34 3 36 4 17 5 18 6 20 7 21 8 22 9 25 10 24 11
REMARK SMILES IDX 26 12 23 13 28 14 30 15 27 16 29 18 31 20 33 22 35 24 16 26
REMARK SMILES IDX 15 27 14 28 38 29 12 30 39 31 11 32 40 33 9 34 7 35 10 36
REMARK SMILES IDX 8 37 13 38 6 40 41 41 5 42 42 43 4 44 3 45 43 46 2 48 1 49
REMARK SMILES IDX 37 50
REMARK H PARENT 27 17 29 19 31 21 33 23 35 25 13 39 43 47 37 51
REMARK Flexibility Score: inf
ROOT
ATOM      1  C   UNL     1     -11.015 -26.192  -1.187  1.00  0.00     0.180 C 
ATOM      2  C   UNL     1     -12.115 -27.223  -1.540  1.00  0.00     0.177 C 
ATOM      3  C   UNL     1     -13.490 -26.612  -1.269  1.00  0.00     0.180 C 
ATOM      4  C   UNL     1     -13.616 -25.344  -2.125  1.00  0.00     0.214 C 
ATOM      5  C   UNL     1     -12.396 -24.400  -1.989  1.00  0.00     0.339 C 
ATOM      6  O   UNL     1     -11.112 -25.025  -1.983  1.00  0.00    -0.332 OA
ENDROOT
BRANCH   1   7
ATOM      7  C   UNL     1     -10.813 -25.872   0.325  1.00  0.00     0.198 C 
BRANCH   7   8
ATOM      8  O   UNL     1      -9.729 -26.598   0.867  1.00  0.00    -0.347 OA
BRANCH   8   9
ATOM      9  C   UNL     1      -8.993 -27.373  -0.070  1.00  0.00     0.281 C 
ATOM     10  C   UNL     1      -7.962 -30.862  -0.085  1.00  0.00     0.041 C 
ATOM     11  C   UNL     1      -7.965 -29.393  -0.512  1.00  0.00     0.150 C 
ATOM     12  C   UNL     1      -6.523 -28.870  -0.732  1.00  0.00     0.174 C 
ATOM     13  O   UNL     1      -8.609 -28.621   0.489  1.00  0.00    -0.344 OA
ATOM     14  C   UNL     1      -6.435 -27.309  -0.525  1.00  0.00     0.179 C 
ATOM     15  C   UNL     1      -7.796 -26.589  -0.719  1.00  0.00     0.202 C 
BRANCH  12  16
ATOM     16  O   UNL     1      -6.073 -29.278  -2.007  1.00  0.00    -0.388 OA
ATOM     17  H   UNL     1      -6.011 -28.474  -2.594  1.00  0.00     0.211 HD
ENDBRANCH  12  16
BRANCH  14  18
ATOM     18  O   UNL     1      -5.906 -26.968   0.739  1.00  0.00    -0.387 OA
ATOM     19  H   UNL     1      -5.628 -26.011   0.734  1.00  0.00     0.211 HD
ENDBRANCH  14  18
BRANCH  15  20
ATOM     20  O   UNL     1      -8.036 -26.349  -2.086  1.00  0.00    -0.385 OA
ATOM     21  H   UNL     1      -9.010 -26.286  -2.225  1.00  0.00     0.211 HD
ENDBRANCH  15  20
ENDBRANCH   8   9
ENDBRANCH   7   8
ENDBRANCH   1   7
BRANCH   2  22
ATOM     22  O   UNL     1     -11.943 -28.414  -0.822  1.00  0.00    -0.387 OA
ATOM     23  H   UNL     1     -11.037 -28.379  -0.434  1.00  0.00     0.211 HD
ENDBRANCH   2  22
BRANCH   3  24
ATOM     24  O   UNL     1     -14.555 -27.489  -1.584  1.00  0.00    -0.387 OA
ATOM     25  H   UNL     1     -15.364 -26.975  -1.869  1.00  0.00     0.211 HD
ENDBRANCH   3  24
BRANCH   5  26
ATOM     26  O   UNL     1     -12.530 -23.506  -0.874  1.00  0.00    -0.462 OA
BRANCH  26  27
ATOM     27  C   UNL     1     -13.068 -23.876   0.368  1.00  0.00     0.130 A 
ATOM     28  C   UNL     1     -12.271 -24.041   1.516  1.00  0.00     0.093 A 
ATOM     29  C   UNL     1     -14.462 -24.039   0.475  1.00  0.00     0.094 A 
ATOM     30  C   UNL     1     -12.852 -24.290   2.765  1.00  0.00     0.133 A 
ATOM     31  C   UNL     1     -15.050 -24.320   1.712  1.00  0.00     0.138 A 
ATOM     32  C   UNL     1     -14.254 -24.411   2.866  1.00  0.00     0.102 A 
ATOM     33  O   UNL     1     -16.438 -24.483   1.798  1.00  0.00    -0.484 OA
ATOM     34  C   UNL     1     -14.936 -24.604   4.164  1.00  0.00     0.174 C 
ATOM     35  C   UNL     1     -17.053 -25.056   2.957  1.00  0.00     0.211 C 
ATOM     36  O   UNL     1     -14.281 -24.813   5.221  1.00  0.00    -0.294 OA
ATOM     37  C   UNL     1     -16.430 -24.477   4.236  1.00  0.00     0.131 C 
BRANCH  30  38
ATOM     38  O   UNL     1     -12.044 -24.397   3.896  1.00  0.00    -0.507 OA
ATOM     39  H   UNL     1     -12.313 -24.012   4.791  1.00  0.00     0.293 HD
ENDBRANCH  30  38
BRANCH  35  40
ATOM     40  C   UNL     1     -18.548 -24.810   2.924  1.00  0.00    -0.003 A 
ATOM     41  C   UNL     1     -19.275 -25.003   1.741  1.00  0.00     0.057 A 
ATOM     42  C   UNL     1     -19.234 -24.429   4.090  1.00  0.00     0.011 A 
ATOM     43  C   UNL     1     -20.651 -24.759   1.690  1.00  0.00     0.158 A 
ATOM     44  C   UNL     1     -20.618 -24.199   4.055  1.00  0.00     0.051 A 
ATOM     45  C   UNL     1     -21.334 -24.355   2.848  1.00  0.00     0.160 A 
BRANCH  43  46
ATOM     46  O   UNL     1     -21.319 -24.925   0.477  1.00  0.00    -0.504 OA
ATOM     47  H   UNL     1     -20.854 -25.245  -0.364  1.00  0.00     0.293 HD
ENDBRANCH  43  46
BRANCH  45  48
ATOM     48  O   UNL     1     -22.708 -24.109   2.758  1.00  0.00    -0.493 OA
ATOM     49  C   UNL     1     -23.454 -23.348   3.704  1.00  0.00     0.278 C 
ENDBRANCH  45  48
ENDBRANCH  35  40
ENDBRANCH  26  27
ENDBRANCH   5  26
BRANCH   4  50
ATOM     50  O   UNL     1     -14.776 -24.629  -1.773  1.00  0.00    -0.384 OA
ATOM     51  H   UNL     1     -15.501 -25.293  -1.631  1.00  0.00     0.211 HD
ENDBRANCH   4  50
TORSDOF 15
ENDMDL
MODEL 5
REMARK VINA RESULT:    -3.159      2.991      5.486
REMARK INTER + INTRA:          -2.868
REMARK INTER:                  -5.956
REMARK INTRA:                   3.088
REMARK UNBOUND:                 2.324
REMARK SMILES COc1ccc([C@@H]2CC(=O)c3c(O)cc(O[C@H]4O[C@@H](CO[C@@H]5O[C@H](C)[C@@H](O)[C@H](O)[C@H]5O)[C@@H](O)[C@H](O)[C@H]4O)cc3O2)cc1O
REMARK SMILES IDX 19 1 32 2 34 3 36 4 17 5 18 6 20 7 21 8 22 9 25 10 24 11
REMARK SMILES IDX 26 12 23 13 28 14 30 15 27 16 29 18 31 20 33 22 35 24 16 26
REMARK SMILES IDX 15 27 14 28 38 29 12 30 39 31 11 32 40 33 9 34 7 35 10 36
REMARK SMILES IDX 8 37 13 38 6 40 41 41 5 42 42 43 4 44 3 45 43 46 2 48 1 49
REMARK SMILES IDX 37 50
REMARK H PARENT 27 17 29 19 31 21 33 23 35 25 13 39 43 47 37 51
REMARK Flexibility Score: inf
ROOT
ATOM      1  C   UNL     1     -15.985 -23.111   2.870  1.00  0.00     0.180 C 
ATOM      2  C   UNL     1     -16.662 -23.200   1.480  1.00  0.00     0.177 C 
ATOM      3  C   UNL     1     -15.768 -23.999   0.531  1.00  0.00     0.180 C 
ATOM      4  C   UNL     1     -15.559 -25.391   1.142  1.00  0.00     0.214 C 
ATOM      5  C   UNL     1     -15.125 -25.338   2.628  1.00  0.00     0.339 C 
ATOM      6  O   UNL     1     -15.804 -24.390   3.451  1.00  0.00    -0.332 OA
ENDROOT
BRANCH   1   7
ATOM      7  C   UNL     1     -14.711 -22.218   2.973  1.00  0.00     0.198 C 
BRANCH   7   8
ATOM      8  O   UNL     1     -13.593 -22.960   3.415  1.00  0.00    -0.347 OA
BRANCH   8   9
ATOM      9  C   UNL     1     -12.948 -22.447   4.573  1.00  0.00     0.281 C 
ATOM     10  C   UNL     1      -9.444 -21.875   5.369  1.00  0.00     0.041 C 
ATOM     11  C   UNL     1     -10.939 -22.054   5.641  1.00  0.00     0.150 C 
ATOM     12  C   UNL     1     -11.180 -22.920   6.904  1.00  0.00     0.174 C 
ATOM     13  O   UNL     1     -11.545 -22.666   4.514  1.00  0.00    -0.344 OA
ATOM     14  C   UNL     1     -12.578 -23.648   6.848  1.00  0.00     0.179 C 
ATOM     15  C   UNL     1     -13.598 -22.943   5.915  1.00  0.00     0.202 C 
BRANCH  12  16
ATOM     16  O   UNL     1     -11.028 -22.115   8.053  1.00  0.00    -0.388 OA
ATOM     17  H   UNL     1     -10.478 -21.318   7.812  1.00  0.00     0.211 HD
ENDBRANCH  12  16
BRANCH  14  18
ATOM     18  O   UNL     1     -12.459 -25.002   6.465  1.00  0.00    -0.387 OA
ATOM     19  H   UNL     1     -12.515 -25.581   7.275  1.00  0.00     0.211 HD
ENDBRANCH  14  18
BRANCH  15  20
ATOM     20  O   UNL     1     -14.229 -21.880   6.589  1.00  0.00    -0.385 OA
ATOM     21  H   UNL     1     -15.065 -22.216   6.990  1.00  0.00     0.211 HD
ENDBRANCH  15  20
ENDBRANCH   8   9
ENDBRANCH   7   8
ENDBRANCH   1   7
BRANCH   2  22
ATOM     22  O   UNL     1     -16.932 -21.926   0.965  1.00  0.00    -0.387 OA
ATOM     23  H   UNL     1     -16.091 -21.600   0.566  1.00  0.00     0.211 HD
ENDBRANCH   2  22
BRANCH   3  24
ATOM     24  O   UNL     1     -16.325 -24.142  -0.762  1.00  0.00    -0.387 OA
ATOM     25  H   UNL     1     -17.310 -23.975  -0.744  1.00  0.00     0.211 HD
ENDBRANCH   3  24
BRANCH   5  26
ATOM     26  O   UNL     1     -13.703 -25.206   2.768  1.00  0.00    -0.462 OA
BRANCH  26  27
ATOM     27  C   UNL     1     -12.808 -25.177   1.687  1.00  0.00     0.130 A 
ATOM     28  C   UNL     1     -12.675 -24.055   0.848  1.00  0.00     0.093 A 
ATOM     29  C   UNL     1     -11.982 -26.296   1.468  1.00  0.00     0.094 A 
ATOM     30  C   UNL     1     -11.687 -24.013  -0.144  1.00  0.00     0.133 A 
ATOM     31  C   UNL     1     -11.014 -26.276   0.459  1.00  0.00     0.138 A 
ATOM     32  C   UNL     1     -10.839 -25.124  -0.326  1.00  0.00     0.102 A 
ATOM     33  O   UNL     1     -10.205 -27.400   0.255  1.00  0.00    -0.484 OA
ATOM     34  C   UNL     1      -9.732 -25.118  -1.307  1.00  0.00     0.174 C 
ATOM     35  C   UNL     1      -9.418 -27.548  -0.933  1.00  0.00     0.211 C 
ATOM     36  O   UNL     1      -9.591 -24.168  -2.125  1.00  0.00    -0.294 OA
ATOM     37  C   UNL     1      -8.719 -26.225  -1.281  1.00  0.00     0.131 C 
BRANCH  30  38
ATOM     38  O   UNL     1     -11.541 -22.868  -0.926  1.00  0.00    -0.507 OA
ATOM     39  H   UNL     1     -12.093 -22.035  -0.775  1.00  0.00     0.293 HD
ENDBRANCH  30  38
BRANCH  35  40
ATOM     40  C   UNL     1      -8.407 -28.661  -0.748  1.00  0.00    -0.003 A 
ATOM     41  C   UNL     1      -8.758 -29.835  -0.066  1.00  0.00     0.057 A 
ATOM     42  C   UNL     1      -7.117 -28.553  -1.296  1.00  0.00     0.011 A 
ATOM     43  C   UNL     1      -7.830 -30.862   0.131  1.00  0.00     0.158 A 
ATOM     44  C   UNL     1      -6.183 -29.585  -1.120  1.00  0.00     0.051 A 
ATOM     45  C   UNL     1      -6.534 -30.745  -0.395  1.00  0.00     0.160 A 
BRANCH  43  46
ATOM     46  O   UNL     1      -8.219 -31.990   0.854  1.00  0.00    -0.504 OA
ATOM     47  H   UNL     1      -9.173 -32.145   1.153  1.00  0.00     0.293 HD
ENDBRANCH  43  46
BRANCH  45  48
ATOM     48  O   UNL     1      -5.628 -31.786  -0.169  1.00  0.00    -0.493 OA
ATOM     49  C   UNL     1      -5.497 -32.935  -1.002  1.00  0.00     0.278 C 
ENDBRANCH  45  48
ENDBRANCH  35  40
ENDBRANCH  26  27
ENDBRANCH   5  26
BRANCH   4  50
ATOM     50  O   UNL     1     -14.588 -26.104   0.417  1.00  0.00    -0.384 OA
ATOM     51  H   UNL     1     -14.633 -25.792  -0.525  1.00  0.00     0.211 HD
ENDBRANCH   4  50
TORSDOF 15
ENDMDL
MODEL 6
REMARK VINA RESULT:    -3.141      1.951     10.596
REMARK INTER + INTRA:          -2.838
REMARK INTER:                  -5.608
REMARK INTRA:                   2.770
REMARK UNBOUND:                 2.324
REMARK SMILES COc1ccc([C@@H]2CC(=O)c3c(O)cc(O[C@H]4O[C@@H](CO[C@@H]5O[C@H](C)[C@@H](O)[C@H](O)[C@H]5O)[C@@H](O)[C@H](O)[C@H]4O)cc3O2)cc1O
REMARK SMILES IDX 19 1 32 2 34 3 36 4 17 5 18 6 20 7 21 8 22 9 25 10 24 11
REMARK SMILES IDX 26 12 23 13 28 14 30 15 27 16 29 18 31 20 33 22 35 24 16 26
REMARK SMILES IDX 15 27 14 28 38 29 12 30 39 31 11 32 40 33 9 34 7 35 10 36
REMARK SMILES IDX 8 37 13 38 6 40 41 41 5 42 42 43 4 44 3 45 43 46 2 48 1 49
REMARK SMILES IDX 37 50
REMARK H PARENT 27 17 29 19 31 21 33 23 35 25 13 39 43 47 37 51
REMARK Flexibility Score: inf
ROOT
ATOM      1  C   UNL     1     -11.217 -26.431  -1.476  1.00  0.00     0.180 C 
ATOM      2  C   UNL     1     -12.468 -27.255  -1.868  1.00  0.00     0.177 C 
ATOM      3  C   UNL     1     -13.726 -26.507  -1.427  1.00  0.00     0.180 C 
ATOM      4  C   UNL     1     -13.722 -25.135  -2.117  1.00  0.00     0.214 C 
ATOM      5  C   UNL     1     -12.377 -24.386  -1.960  1.00  0.00     0.339 C 
ATOM      6  O   UNL     1     -11.194 -25.170  -2.121  1.00  0.00    -0.332 OA
ENDROOT
BRANCH   1   7
ATOM      7  C   UNL     1     -10.888 -26.334   0.044  1.00  0.00     0.198 C 
BRANCH   7   8
ATOM      8  O   UNL     1      -9.530 -26.010   0.260  1.00  0.00    -0.347 OA
BRANCH   8   9
ATOM      9  C   UNL     1      -8.651 -27.123   0.349  1.00  0.00     0.281 C 
ATOM     10  C   UNL     1      -5.442 -27.836  -1.211  1.00  0.00     0.041 C 
ATOM     11  C   UNL     1      -6.742 -28.139  -0.465  1.00  0.00     0.150 C 
ATOM     12  C   UNL     1      -7.383 -29.458  -0.965  1.00  0.00     0.174 C 
ATOM     13  O   UNL     1      -7.647 -27.062  -0.655  1.00  0.00    -0.344 OA
ATOM     14  C   UNL     1      -8.944 -29.468  -0.733  1.00  0.00     0.179 C 
ATOM     15  C   UNL     1      -9.401 -28.504   0.392  1.00  0.00     0.202 C 
BRANCH  12  16
ATOM     16  O   UNL     1      -6.733 -30.550  -0.350  1.00  0.00    -0.388 OA
ATOM     17  H   UNL     1      -7.423 -31.218  -0.077  1.00  0.00     0.211 HD
ENDBRANCH  12  16
BRANCH  14  18
ATOM     18  O   UNL     1      -9.659 -29.174  -1.915  1.00  0.00    -0.387 OA
ATOM     19  H   UNL     1     -10.564 -28.831  -1.677  1.00  0.00     0.211 HD
ENDBRANCH  14  18
BRANCH  15  20
ATOM     20  O   UNL     1      -9.256 -29.113   1.653  1.00  0.00    -0.385 OA
ATOM     21  H   UNL     1      -9.432 -30.079   1.556  1.00  0.00     0.211 HD
ENDBRANCH  15  20
ENDBRANCH   8   9
ENDBRANCH   7   8
ENDBRANCH   1   7
BRANCH   2  22
ATOM     22  O   UNL     1     -12.424 -28.539  -1.309  1.00  0.00    -0.387 OA
ATOM     23  H   UNL     1     -11.717 -29.030  -1.788  1.00  0.00     0.211 HD
ENDBRANCH   2  22
BRANCH   3  24
ATOM     24  O   UNL     1     -14.920 -27.189  -1.765  1.00  0.00    -0.387 OA
ATOM     25  H   UNL     1     -15.643 -26.985  -1.106  1.00  0.00     0.211 HD
ENDBRANCH   3  24
BRANCH   5  26
ATOM     26  O   UNL     1     -12.321 -23.629  -0.742  1.00  0.00    -0.462 OA
BRANCH  26  27
ATOM     27  C   UNL     1     -12.899 -24.047   0.467  1.00  0.00     0.130 A 
ATOM     28  C   UNL     1     -12.133 -24.305   1.620  1.00  0.00     0.093 A 
ATOM     29  C   UNL     1     -14.300 -24.164   0.538  1.00  0.00     0.094 A 
ATOM     30  C   UNL     1     -12.750 -24.600   2.841  1.00  0.00     0.133 A 
ATOM     31  C   UNL     1     -14.924 -24.490   1.746  1.00  0.00     0.138 A 
ATOM     32  C   UNL     1     -14.156 -24.674   2.908  1.00  0.00     0.102 A 
ATOM     33  O   UNL     1     -16.318 -24.605   1.796  1.00  0.00    -0.484 OA
ATOM     34  C   UNL     1     -14.873 -24.912   4.180  1.00  0.00     0.174 C 
ATOM     35  C   UNL     1     -16.979 -25.219   2.909  1.00  0.00     0.211 C 
ATOM     36  O   UNL     1     -14.248 -25.203   5.236  1.00  0.00    -0.294 OA
ATOM     37  C   UNL     1     -16.363 -24.734   4.230  1.00  0.00     0.131 C 
BRANCH  30  38
ATOM     38  O   UNL     1     -11.970 -24.798   3.980  1.00  0.00    -0.507 OA
ATOM     39  H   UNL     1     -11.038 -24.420   4.070  1.00  0.00     0.293 HD
ENDBRANCH  30  38
BRANCH  35  40
ATOM     40  C   UNL     1     -18.462 -24.915   2.861  1.00  0.00    -0.003 A 
ATOM     41  C   UNL     1     -19.209 -25.192   1.707  1.00  0.00     0.057 A 
ATOM     42  C   UNL     1     -19.121 -24.395   3.988  1.00  0.00     0.011 A 
ATOM     43  C   UNL     1     -20.574 -24.898   1.641  1.00  0.00     0.158 A 
ATOM     44  C   UNL     1     -20.495 -24.113   3.939  1.00  0.00     0.051 A 
ATOM     45  C   UNL     1     -21.228 -24.356   2.757  1.00  0.00     0.160 A 
BRANCH  43  46
ATOM     46  O   UNL     1     -21.260 -25.154   0.453  1.00  0.00    -0.504 OA
ATOM     47  H   UNL     1     -21.641 -24.417  -0.127  1.00  0.00     0.293 HD
ENDBRANCH  43  46
BRANCH  45  48
ATOM     48  O   UNL     1     -22.592 -24.064   2.652  1.00  0.00    -0.493 OA
ATOM     49  C   UNL     1     -23.220 -22.927   3.239  1.00  0.00     0.278 C 
ENDBRANCH  45  48
ENDBRANCH  35  40
ENDBRANCH  26  27
ENDBRANCH   5  26
BRANCH   4  50
ATOM     50  O   UNL     1     -14.749 -24.324  -1.601  1.00  0.00    -0.384 OA
ATOM     51  H   UNL     1     -15.186 -24.831  -0.866  1.00  0.00     0.211 HD
ENDBRANCH   4  50
TORSDOF 15
ENDMDL
MODEL 7
REMARK VINA RESULT:    -3.066      2.604     11.620
REMARK INTER + INTRA:          -2.714
REMARK INTER:                  -1.074
REMARK INTRA:                  -1.640
REMARK UNBOUND:                 2.324
REMARK SMILES COc1ccc([C@@H]2CC(=O)c3c(O)cc(O[C@H]4O[C@@H](CO[C@@H]5O[C@H](C)[C@@H](O)[C@H](O)[C@H]5O)[C@@H](O)[C@H](O)[C@H]4O)cc3O2)cc1O
REMARK SMILES IDX 19 1 32 2 34 3 36 4 17 5 18 6 20 7 21 8 22 9 25 10 24 11
REMARK SMILES IDX 26 12 23 13 28 14 30 15 27 16 29 18 31 20 33 22 35 24 16 26
REMARK SMILES IDX 15 27 14 28 38 29 12 30 39 31 11 32 40 33 9 34 7 35 10 36
REMARK SMILES IDX 8 37 13 38 6 40 41 41 5 42 42 43 4 44 3 45 43 46 2 48 1 49
REMARK SMILES IDX 37 50
REMARK H PARENT 27 17 29 19 31 21 33 23 35 25 13 39 43 47 37 51
REMARK Flexibility Score: inf
ROOT
ATOM      1  C   UNL     1     -11.693 -25.501   4.607  1.00  0.00     0.180 C 
ATOM      2  C   UNL     1     -11.061 -24.328   5.396  1.00  0.00     0.177 C 
ATOM      3  C   UNL     1     -11.572 -23.003   4.829  1.00  0.00     0.180 C 
ATOM      4  C   UNL     1     -13.102 -23.000   4.952  1.00  0.00     0.214 C 
ATOM      5  C   UNL     1     -13.754 -24.291   4.398  1.00  0.00     0.339 C 
ATOM      6  O   UNL     1     -13.104 -25.518   4.728  1.00  0.00    -0.332 OA
ENDROOT
BRANCH   1   7
ATOM      7  C   UNL     1     -11.213 -25.698   3.137  1.00  0.00     0.198 C 
BRANCH   7   8
ATOM      8  O   UNL     1     -10.404 -26.849   3.006  1.00  0.00    -0.347 OA
BRANCH   8   9
ATOM      9  C   UNL     1     -10.552 -27.552   1.780  1.00  0.00     0.281 C 
ATOM     10  C   UNL     1      -8.159 -29.269  -0.356  1.00  0.00     0.041 C 
ATOM     11  C   UNL     1      -9.482 -28.601   0.022  1.00  0.00     0.150 C 
ATOM     12  C   UNL     1     -10.011 -27.709  -1.130  1.00  0.00     0.174 C 
ATOM     13  O   UNL     1      -9.287 -27.817   1.188  1.00  0.00    -0.344 OA
ATOM     14  C   UNL     1     -10.939 -26.555  -0.588  1.00  0.00     0.179 C 
ATOM     15  C   UNL     1     -11.569 -26.873   0.793  1.00  0.00     0.202 C 
BRANCH  12  16
ATOM     16  O   UNL     1     -10.653 -28.523  -2.087  1.00  0.00    -0.388 OA
ATOM     17  H   UNL     1      -9.979 -29.148  -2.477  1.00  0.00     0.211 HD
ENDBRANCH  12  16
BRANCH  14  18
ATOM     18  O   UNL     1     -10.262 -25.317  -0.515  1.00  0.00    -0.387 OA
ATOM     19  H   UNL     1     -10.767 -24.700   0.083  1.00  0.00     0.211 HD
ENDBRANCH  14  18
BRANCH  15  20
ATOM     20  O   UNL     1     -12.722 -27.667   0.638  1.00  0.00    -0.385 OA
ATOM     21  H   UNL     1     -13.446 -27.099   0.283  1.00  0.00     0.211 HD
ENDBRANCH  15  20
ENDBRANCH   8   9
ENDBRANCH   7   8
ENDBRANCH   1   7
BRANCH   2  22
ATOM     22  O   UNL     1      -9.662 -24.386   5.356  1.00  0.00    -0.387 OA
ATOM     23  H   UNL     1      -9.428 -25.253   4.949  1.00  0.00     0.211 HD
ENDBRANCH   2  22
BRANCH   3  24
ATOM     24  O   UNL     1     -11.053 -21.875   5.510  1.00  0.00    -0.387 OA
ATOM     25  H   UNL     1     -11.717 -21.521   6.166  1.00  0.00     0.211 HD
ENDBRANCH   3  24
BRANCH   5  26
ATOM     26  O   UNL     1     -13.996 -24.208   2.986  1.00  0.00    -0.462 OA
BRANCH  26  27
ATOM     27  C   UNL     1     -15.251 -24.412   2.393  1.00  0.00     0.130 A 
ATOM     28  C   UNL     1     -15.402 -25.060   1.152  1.00  0.00     0.093 A 
ATOM     29  C   UNL     1     -16.401 -23.994   3.090  1.00  0.00     0.094 A 
ATOM     30  C   UNL     1     -16.674 -25.356   0.646  1.00  0.00     0.133 A 
ATOM     31  C   UNL     1     -17.675 -24.257   2.578  1.00  0.00     0.138 A 
ATOM     32  C   UNL     1     -17.818 -24.969   1.375  1.00  0.00     0.102 A 
ATOM     33  O   UNL     1     -18.806 -23.830   3.284  1.00  0.00    -0.484 OA
ATOM     34  C   UNL     1     -19.187 -25.312   0.933  1.00  0.00     0.174 C 
ATOM     35  C   UNL     1     -20.102 -23.805   2.674  1.00  0.00     0.211 C 
ATOM     36  O   UNL     1     -19.395 -25.843  -0.192  1.00  0.00    -0.294 OA
ATOM     37  C   UNL     1     -20.340 -25.091   1.868  1.00  0.00     0.131 C 
BRANCH  30  38
ATOM     38  O   UNL     1     -16.796 -26.047  -0.558  1.00  0.00    -0.507 OA
ATOM     39  H   UNL     1     -16.873 -25.574  -1.448  1.00  0.00     0.293 HD
ENDBRANCH  30  38
BRANCH  35  40
ATOM     40  C   UNL     1     -21.169 -23.628   3.736  1.00  0.00    -0.003 A 
ATOM     41  C   UNL     1     -21.043 -24.256   4.984  1.00  0.00     0.057 A 
ATOM     42  C   UNL     1     -22.277 -22.796   3.503  1.00  0.00     0.011 A 
ATOM     43  C   UNL     1     -22.028 -24.118   5.965  1.00  0.00     0.158 A 
ATOM     44  C   UNL     1     -23.264 -22.636   4.488  1.00  0.00     0.051 A 
ATOM     45  C   UNL     1     -23.148 -23.306   5.725  1.00  0.00     0.160 A 
BRANCH  43  46
ATOM     46  O   UNL     1     -21.874 -24.799   7.173  1.00  0.00    -0.504 OA
ATOM     47  H   UNL     1     -22.272 -24.466   8.042  1.00  0.00     0.293 HD
ENDBRANCH  43  46
BRANCH  45  48
ATOM     48  O   UNL     1     -24.120 -23.201   6.725  1.00  0.00    -0.493 OA
ATOM     49  C   UNL     1     -25.119 -22.186   6.773  1.00  0.00     0.278 C 
ENDBRANCH  45  48
ENDBRANCH  35  40
ENDBRANCH  26  27
ENDBRANCH   5  26
BRANCH   4  50
ATOM     50  O   UNL     1     -13.646 -21.896   4.270  1.00  0.00    -0.384 OA
ATOM     51  H   UNL     1     -14.120 -21.338   4.941  1.00  0.00     0.211 HD
ENDBRANCH   4  50
TORSDOF 15
ENDMDL
MODEL 8
REMARK VINA RESULT:    -2.791      2.736      9.870
REMARK INTER + INTRA:          -2.263
REMARK INTER:                  -2.147
REMARK INTRA:                  -0.116
REMARK UNBOUND:                 2.324
REMARK SMILES COc1ccc([C@@H]2CC(=O)c3c(O)cc(O[C@H]4O[C@@H](CO[C@@H]5O[C@H](C)[C@@H](O)[C@H](O)[C@H]5O)[C@@H](O)[C@H](O)[C@H]4O)cc3O2)cc1O
REMARK SMILES IDX 19 1 32 2 34 3 36 4 17 5 18 6 20 7 21 8 22 9 25 10 24 11
REMARK SMILES IDX 26 12 23 13 28 14 30 15 27 16 29 18 31 20 33 22 35 24 16 26
REMARK SMILES IDX 15 27 14 28 38 29 12 30 39 31 11 32 40 33 9 34 7 35 10 36
REMARK SMILES IDX 8 37 13 38 6 40 41 41 5 42 42 43 4 44 3 45 43 46 2 48 1 49
REMARK SMILES IDX 37 50
REMARK H PARENT 27 17 29 19 31 21 33 23 35 25 13 39 43 47 37 51
REMARK Flexibility Score: inf
ROOT
ATOM      1  C   UNL     1     -12.367 -25.257   4.282  1.00  0.00     0.180 C 
ATOM      2  C   UNL     1     -11.022 -25.508   5.006  1.00  0.00     0.177 C 
ATOM      3  C   UNL     1     -10.226 -24.204   5.062  1.00  0.00     0.180 C 
ATOM      4  C   UNL     1     -11.076 -23.166   5.807  1.00  0.00     0.214 C 
ATOM      5  C   UNL     1     -12.524 -23.074   5.266  1.00  0.00     0.339 C 
ATOM      6  O   UNL     1     -13.168 -24.313   4.970  1.00  0.00    -0.332 OA
ENDROOT
BRANCH   1   7
ATOM      7  C   UNL     1     -12.299 -24.982   2.749  1.00  0.00     0.198 C 
BRANCH   7   8
ATOM      8  O   UNL     1     -13.075 -25.911   2.021  1.00  0.00    -0.347 OA
BRANCH   8   9
ATOM      9  C   UNL     1     -12.333 -26.831   1.233  1.00  0.00     0.281 C 
ATOM     10  C   UNL     1      -8.900 -28.019   1.447  1.00  0.00     0.041 C 
ATOM     11  C   UNL     1     -10.265 -27.766   0.804  1.00  0.00     0.150 C 
ATOM     12  C   UNL     1     -10.115 -27.318  -0.672  1.00  0.00     0.174 C 
ATOM     13  O   UNL     1     -10.947 -26.767   1.544  1.00  0.00    -0.344 OA
ATOM     14  C   UNL     1     -11.349 -26.455  -1.143  1.00  0.00     0.179 C 
ATOM     15  C   UNL     1     -12.630 -26.711  -0.306  1.00  0.00     0.202 C 
BRANCH  12  16
ATOM     16  O   UNL     1      -9.903 -28.455  -1.482  1.00  0.00    -0.388 OA
ATOM     17  H   UNL     1     -10.771 -28.936  -1.587  1.00  0.00     0.211 HD
ENDBRANCH  12  16
BRANCH  14  18
ATOM     18  O   UNL     1     -11.063 -25.072  -1.142  1.00  0.00    -0.387 OA
ATOM     19  H   UNL     1     -11.578 -24.628  -1.870  1.00  0.00     0.211 HD
ENDBRANCH  14  18
BRANCH  15  20
ATOM     20  O   UNL     1     -13.306 -27.853  -0.775  1.00  0.00    -0.385 OA
ATOM     21  H   UNL     1     -13.112 -28.604  -0.166  1.00  0.00     0.211 HD
ENDBRANCH  15  20
ENDBRANCH   8   9
ENDBRANCH   7   8
ENDBRANCH   1   7
BRANCH   2  22
ATOM     22  O   UNL     1     -10.287 -26.520   4.374  1.00  0.00    -0.387 OA
ATOM     23  H   UNL     1      -9.437 -26.112   4.085  1.00  0.00     0.211 HD
ENDBRANCH   2  22
BRANCH   3  24
ATOM     24  O   UNL     1      -8.984 -24.345   5.727  1.00  0.00    -0.387 OA
ATOM     25  H   UNL     1      -8.695 -25.301   5.740  1.00  0.00     0.211 HD
ENDBRANCH   3  24
BRANCH   5  26
ATOM     26  O   UNL     1     -12.627 -22.171   4.156  1.00  0.00    -0.462 OA
BRANCH  26  27
ATOM     27  C   UNL     1     -13.490 -22.365   3.065  1.00  0.00     0.130 A 
ATOM     28  C   UNL     1     -13.165 -21.942   1.762  1.00  0.00     0.093 A 
ATOM     29  C   UNL     1     -14.701 -23.050   3.279  1.00  0.00     0.094 A 
ATOM     30  C   UNL     1     -13.990 -22.259   0.677  1.00  0.00     0.133 A 
ATOM     31  C   UNL     1     -15.548 -23.344   2.206  1.00  0.00     0.138 A 
ATOM     32  C   UNL     1     -15.180 -22.982   0.899  1.00  0.00     0.102 A 
ATOM     33  O   UNL     1     -16.750 -24.023   2.439  1.00  0.00    -0.484 OA
ATOM     34  C   UNL     1     -16.061 -23.409  -0.210  1.00  0.00     0.174 C 
ATOM     35  C   UNL     1     -17.779 -24.084   1.444  1.00  0.00     0.211 C 
ATOM     36  O   UNL     1     -15.857 -23.019  -1.392  1.00  0.00    -0.294 OA
ATOM     37  C   UNL     1     -17.172 -24.380   0.064  1.00  0.00     0.131 C 
BRANCH  30  38
ATOM     38  O   UNL     1     -13.619 -21.875  -0.610  1.00  0.00    -0.507 OA
ATOM     39  H   UNL     1     -13.473 -20.909  -0.866  1.00  0.00     0.293 HD
ENDBRANCH  30  38
BRANCH  35  40
ATOM     40  C   UNL     1     -18.801 -25.137   1.823  1.00  0.00    -0.003 A 
ATOM     41  C   UNL     1     -19.455 -25.081   3.062  1.00  0.00     0.057 A 
ATOM     42  C   UNL     1     -19.142 -26.158   0.920  1.00  0.00     0.011 A 
ATOM     43  C   UNL     1     -20.385 -26.056   3.433  1.00  0.00     0.158 A 
ATOM     44  C   UNL     1     -20.087 -27.132   1.275  1.00  0.00     0.051 A 
ATOM     45  C   UNL     1     -20.709 -27.091   2.542  1.00  0.00     0.160 A 
BRANCH  43  46
ATOM     46  O   UNL     1     -20.975 -25.977   4.695  1.00  0.00    -0.504 OA
ATOM     47  H   UNL     1     -21.610 -25.233   4.955  1.00  0.00     0.293 HD
ENDBRANCH  43  46
BRANCH  45  48
ATOM     48  O   UNL     1     -21.635 -28.056   2.951  1.00  0.00    -0.493 OA
ATOM     49  C   UNL     1     -21.298 -29.246   3.660  1.00  0.00     0.278 C 
ENDBRANCH  45  48
ENDBRANCH  35  40
ENDBRANCH  26  27
ENDBRANCH   5  26
BRANCH   4  50
ATOM     50  O   UNL     1     -10.484 -21.893   5.719  1.00  0.00    -0.384 OA
ATOM     51  H   UNL     1     -11.164 -21.276   5.341  1.00  0.00     0.211 HD
ENDBRANCH   4  50
TORSDOF 15
ENDMDL
