MODEL 1
REMARK VINA RESULT:    -4.491      0.000      0.000
REMARK INTER + INTRA:         -10.319
REMARK INTER:                  -8.298
REMARK INTRA:                  -2.021
REMARK UNBOUND:                -2.021
REMARK SMILES CCCCCCCCCCCCCCCCO
REMARK SMILES IDX 9 1 8 2 7 3 6 4 5 5 4 6 3 7 2 8 1 9 10 10 11 11 12 12 13 13
REMARK SMILES IDX 14 14 15 15 16 16 17 17
REMARK H PARENT 17 18
REMARK Flexibility Score: inf
ROOT
ATOM      1  C   UNL     1     -44.773  39.271 -51.476  1.00  0.00     0.000 C 
ENDROOT
BRANCH   1   2
ATOM      2  C   UNL     1     -44.103  37.893 -51.621  1.00  0.00    -0.000 C 
BRANCH   2   3
ATOM      3  C   UNL     1     -43.145  37.579 -50.460  1.00  0.00    -0.000 C 
BRANCH   3   4
ATOM      4  C   UNL     1     -41.690  37.393 -50.925  1.00  0.00    -0.000 C 
BRANCH   4   5
ATOM      5  C   UNL     1     -40.965  38.730 -51.145  1.00  0.00    -0.000 C 
BRANCH   5   6
ATOM      6  C   UNL     1     -40.699  39.483 -49.831  1.00  0.00    -0.000 C 
BRANCH   6   7
ATOM      7  C   UNL     1     -41.525  40.783 -49.727  1.00  0.00    -0.000 C 
BRANCH   7   8
ATOM      8  C   UNL     1     -41.704  41.507 -51.072  1.00  0.00    -0.003 C 
ATOM      9  C   UNL     1     -40.667  42.604 -51.304  1.00  0.00     0.004 C 
ENDBRANCH   7   8
ENDBRANCH   6   7
ENDBRANCH   5   6
ENDBRANCH   4   5
ENDBRANCH   3   4
ENDBRANCH   2   3
ENDBRANCH   1   2
BRANCH   1  10
ATOM     10  C   UNL     1     -44.835  40.039 -52.806  1.00  0.00     0.000 C 
BRANCH  10  11
ATOM     11  C   UNL     1     -43.540  39.907 -53.625  1.00  0.00     0.000 C 
BRANCH  11  12
ATOM     12  C   UNL     1     -43.249  41.157 -54.472  1.00  0.00     0.000 C 
BRANCH  12  13
ATOM     13  C   UNL     1     -43.882  42.431 -53.887  1.00  0.00     0.000 C 
BRANCH  13  14
ATOM     14  C   UNL     1     -43.080  43.703 -54.217  1.00  0.00     0.002 C 
BRANCH  14  15
ATOM     15  C   UNL     1     -43.207  44.833 -53.179  1.00  0.00     0.028 C 
BRANCH  15  16
ATOM     16  C   UNL     1     -44.420  45.739 -53.424  1.00  0.00     0.156 C 
BRANCH  16  17
ATOM     17  O   UNL     1     -45.276  45.709 -52.315  1.00  0.00    -0.396 OA
ATOM     18  H   UNL     1     -45.772  46.569 -52.314  1.00  0.00     0.210 HD
ENDBRANCH  16  17
ENDBRANCH  15  16
ENDBRANCH  14  15
ENDBRANCH  13  14
ENDBRANCH  12  13
ENDBRANCH  11  12
ENDBRANCH  10  11
ENDBRANCH   1  10
TORSDOF 15
ENDMDL
MODEL 2
REMARK VINA RESULT:    -4.372      0.946      3.344
REMARK INTER + INTRA:         -10.098
REMARK INTER:                  -8.574
REMARK INTRA:                  -1.525
REMARK UNBOUND:                -2.021
REMARK SMILES CCCCCCCCCCCCCCCCO
REMARK SMILES IDX 9 1 8 2 7 3 6 4 5 5 4 6 3 7 2 8 1 9 10 10 11 11 12 12 13 13
REMARK SMILES IDX 14 14 15 15 16 16 17 17
REMARK H PARENT 17 18
REMARK Flexibility Score: inf
ROOT
ATOM      1  C   UNL     1     -41.022  41.331 -49.480  1.00  0.00     0.000 C 
ENDROOT
BRANCH   1   2
ATOM      2  C   UNL     1     -41.177  39.804 -49.371  1.00  0.00    -0.000 C 
BRANCH   2   3
ATOM      3  C   UNL     1     -40.647  39.068 -50.613  1.00  0.00    -0.000 C 
BRANCH   3   4
ATOM      4  C   UNL     1     -41.387  37.745 -50.879  1.00  0.00    -0.000 C 
BRANCH   4   5
ATOM      5  C   UNL     1     -42.771  37.700 -50.214  1.00  0.00    -0.000 C 
BRANCH   5   6
ATOM      6  C   UNL     1     -43.920  37.864 -51.223  1.00  0.00    -0.000 C 
BRANCH   6   7
ATOM      7  C   UNL     1     -44.115  39.335 -51.649  1.00  0.00    -0.000 C 
BRANCH   7   8
ATOM      8  C   UNL     1     -43.692  39.615 -53.102  1.00  0.00    -0.003 C 
ATOM      9  C   UNL     1     -43.548  41.106 -53.406  1.00  0.00     0.004 C 
ENDBRANCH   7   8
ENDBRANCH   6   7
ENDBRANCH   5   6
ENDBRANCH   4   5
ENDBRANCH   3   4
ENDBRANCH   2   3
ENDBRANCH   1   2
BRANCH   1  10
ATOM     10  C   UNL     1     -40.689  41.790 -50.909  1.00  0.00     0.000 C 
BRANCH  10  11
ATOM     11  C   UNL     1     -41.355  43.129 -51.269  1.00  0.00     0.000 C 
BRANCH  11  12
ATOM     12  C   UNL     1     -40.594  43.887 -52.370  1.00  0.00     0.000 C 
BRANCH  12  13
ATOM     13  C   UNL     1     -41.339  45.144 -52.849  1.00  0.00     0.000 C 
BRANCH  13  14
ATOM     14  C   UNL     1     -42.394  44.839 -53.928  1.00  0.00     0.002 C 
BRANCH  14  15
ATOM     15  C   UNL     1     -43.556  45.846 -53.998  1.00  0.00     0.028 C 
BRANCH  15  16
ATOM     16  C   UNL     1     -44.894  45.252 -53.539  1.00  0.00     0.156 C 
BRANCH  16  17
ATOM     17  O   UNL     1     -45.274  45.813 -52.311  1.00  0.00    -0.396 OA
ATOM     18  H   UNL     1     -45.245  45.079 -51.642  1.00  0.00     0.210 HD
ENDBRANCH  16  17
ENDBRANCH  15  16
ENDBRANCH  14  15
ENDBRANCH  13  14
ENDBRANCH  12  13
ENDBRANCH  11  12
ENDBRANCH  10  11
ENDBRANCH   1  10
TORSDOF 15
ENDMDL
MODEL 3
REMARK VINA RESULT:    -4.325      8.052     10.870
REMARK INTER + INTRA:         -10.012
REMARK INTER:                  -9.090
REMARK INTRA:                  -0.922
REMARK UNBOUND:                -2.021
REMARK SMILES CCCCCCCCCCCCCCCCO
REMARK SMILES IDX 9 1 8 2 7 3 6 4 5 5 4 6 3 7 2 8 1 9 10 10 11 11 12 12 13 13
REMARK SMILES IDX 14 14 15 15 16 16 17 17
REMARK H PARENT 17 18
REMARK Flexibility Score: inf
ROOT
ATOM      1  C   UNL     1     -38.242  48.928 -52.506  1.00  0.00     0.000 C 
ENDROOT
BRANCH   1   2
ATOM      2  C   UNL     1     -36.877  48.307 -52.156  1.00  0.00    -0.000 C 
BRANCH   2   3
ATOM      3  C   UNL     1     -35.749  48.810 -53.072  1.00  0.00    -0.000 C 
BRANCH   3   4
ATOM      4  C   UNL     1     -34.560  49.387 -52.285  1.00  0.00    -0.000 C 
BRANCH   4   5
ATOM      5  C   UNL     1     -34.536  50.924 -52.296  1.00  0.00    -0.000 C 
BRANCH   5   6
ATOM      6  C   UNL     1     -33.141  51.492 -52.609  1.00  0.00    -0.000 C 
BRANCH   6   7
ATOM      7  C   UNL     1     -32.154  51.291 -51.440  1.00  0.00    -0.000 C 
BRANCH   7   8
ATOM      8  C   UNL     1     -32.606  51.962 -50.131  1.00  0.00    -0.003 C 
ATOM      9  C   UNL     1     -32.466  51.051 -48.913  1.00  0.00     0.004 C 
ENDBRANCH   7   8
ENDBRANCH   6   7
ENDBRANCH   5   6
ENDBRANCH   4   5
ENDBRANCH   3   4
ENDBRANCH   2   3
ENDBRANCH   1   2
BRANCH   1  10
ATOM     10  C   UNL     1     -38.287  49.483 -53.939  1.00  0.00     0.000 C 
BRANCH  10  11
ATOM     11  C   UNL     1     -39.201  48.659 -54.863  1.00  0.00     0.000 C 
BRANCH  11  12
ATOM     12  C   UNL     1     -39.554  47.286 -54.267  1.00  0.00     0.000 C 
BRANCH  12  13
ATOM     13  C   UNL     1     -40.703  46.590 -55.018  1.00  0.00     0.000 C 
BRANCH  13  14
ATOM     14  C   UNL     1     -41.003  45.180 -54.477  1.00  0.00     0.002 C 
BRANCH  14  15
ATOM     15  C   UNL     1     -41.045  45.073 -52.942  1.00  0.00     0.028 C 
BRANCH  15  16
ATOM     16  C   UNL     1     -40.147  43.957 -52.394  1.00  0.00     0.156 C 
BRANCH  16  17
ATOM     17  O   UNL     1     -38.811  44.379 -52.374  1.00  0.00    -0.396 OA
ATOM     18  H   UNL     1     -38.650  44.857 -53.230  1.00  0.00     0.210 HD
ENDBRANCH  16  17
ENDBRANCH  15  16
ENDBRANCH  14  15
ENDBRANCH  13  14
ENDBRANCH  12  13
ENDBRANCH  11  12
ENDBRANCH  10  11
ENDBRANCH   1  10
TORSDOF 15
ENDMDL
MODEL 4
REMARK VINA RESULT:    -4.315      1.072      3.240
REMARK INTER + INTRA:          -9.993
REMARK INTER:                  -8.189
REMARK INTRA:                  -1.804
REMARK UNBOUND:                -2.021
REMARK SMILES CCCCCCCCCCCCCCCCO
REMARK SMILES IDX 9 1 8 2 7 3 6 4 5 5 4 6 3 7 2 8 1 9 10 10 11 11 12 12 13 13
REMARK SMILES IDX 14 14 15 15 16 16 17 17
REMARK H PARENT 17 18
REMARK Flexibility Score: inf
ROOT
ATOM      1  C   UNL     1     -41.947  40.956 -50.036  1.00  0.00     0.000 C 
ENDROOT
BRANCH   1   2
ATOM      2  C   UNL     1     -41.200  39.720 -49.505  1.00  0.00    -0.000 C 
BRANCH   2   3
ATOM      3  C   UNL     1     -40.678  38.816 -50.635  1.00  0.00    -0.000 C 
BRANCH   3   4
ATOM      4  C   UNL     1     -41.475  37.507 -50.763  1.00  0.00    -0.000 C 
BRANCH   4   5
ATOM      5  C   UNL     1     -41.956  37.247 -52.200  1.00  0.00    -0.000 C 
BRANCH   5   6
ATOM      6  C   UNL     1     -41.967  38.522 -53.060  1.00  0.00    -0.000 C 
BRANCH   6   7
ATOM      7  C   UNL     1     -43.400  39.004 -53.370  1.00  0.00    -0.000 C 
BRANCH   7   8
ATOM      8  C   UNL     1     -44.479  38.314 -52.518  1.00  0.00    -0.003 C 
ATOM      9  C   UNL     1     -44.984  39.187 -51.370  1.00  0.00     0.004 C 
ENDBRANCH   7   8
ENDBRANCH   6   7
ENDBRANCH   5   6
ENDBRANCH   4   5
ENDBRANCH   3   4
ENDBRANCH   2   3
ENDBRANCH   1   2
BRANCH   1  10
ATOM     10  C   UNL     1     -41.007  42.144 -50.301  1.00  0.00     0.000 C 
BRANCH  10  11
ATOM     11  C   UNL     1     -41.171  42.723 -51.717  1.00  0.00     0.000 C 
BRANCH  11  12
ATOM     12  C   UNL     1     -42.506  42.319 -52.366  1.00  0.00     0.000 C 
BRANCH  12  13
ATOM     13  C   UNL     1     -42.843  43.164 -53.606  1.00  0.00     0.000 C 
BRANCH  13  14
ATOM     14  C   UNL     1     -42.334  44.613 -53.498  1.00  0.00     0.002 C 
BRANCH  14  15
ATOM     15  C   UNL     1     -43.392  45.692 -53.794  1.00  0.00     0.028 C 
BRANCH  15  16
ATOM     16  C   UNL     1     -44.824  45.223 -53.509  1.00  0.00     0.156 C 
BRANCH  16  17
ATOM     17  O   UNL     1     -45.276  45.764 -52.298  1.00  0.00    -0.396 OA
ATOM     18  H   UNL     1     -44.479  45.860 -51.714  1.00  0.00     0.210 HD
ENDBRANCH  16  17
ENDBRANCH  15  16
ENDBRANCH  14  15
ENDBRANCH  13  14
ENDBRANCH  12  13
ENDBRANCH  11  12
ENDBRANCH  10  11
ENDBRANCH   1  10
TORSDOF 15
ENDMDL
MODEL 5
REMARK VINA RESULT:    -4.292      9.352     12.159
REMARK INTER + INTRA:          -9.951
REMARK INTER:                  -9.285
REMARK INTRA:                  -0.665
REMARK UNBOUND:                -2.021
REMARK SMILES CCCCCCCCCCCCCCCCO
REMARK SMILES IDX 9 1 8 2 7 3 6 4 5 5 4 6 3 7 2 8 1 9 10 10 11 11 12 12 13 13
REMARK SMILES IDX 14 14 15 15 16 16 17 17
REMARK H PARENT 17 18
REMARK Flexibility Score: inf
ROOT
ATOM      1  C   UNL     1     -36.137  48.542 -52.235  1.00  0.00     0.000 C 
ENDROOT
BRANCH   1   2
ATOM      2  C   UNL     1     -37.652  48.816 -52.220  1.00  0.00    -0.000 C 
BRANCH   2   3
ATOM      3  C   UNL     1     -38.183  49.260 -53.593  1.00  0.00    -0.000 C 
BRANCH   3   4
ATOM      4  C   UNL     1     -39.131  48.226 -54.225  1.00  0.00    -0.000 C 
BRANCH   4   5
ATOM      5  C   UNL     1     -39.172  46.906 -53.439  1.00  0.00    -0.000 C 
BRANCH   5   6
ATOM      6  C   UNL     1     -40.121  45.871 -54.068  1.00  0.00    -0.000 C 
BRANCH   6   7
ATOM      7  C   UNL     1     -40.969  45.139 -53.007  1.00  0.00    -0.000 C 
BRANCH   7   8
ATOM      8  C   UNL     1     -42.260  44.520 -53.572  1.00  0.00    -0.003 C 
ATOM      9  C   UNL     1     -43.454  45.471 -53.516  1.00  0.00     0.004 C 
ENDBRANCH   7   8
ENDBRANCH   6   7
ENDBRANCH   5   6
ENDBRANCH   4   5
ENDBRANCH   3   4
ENDBRANCH   2   3
ENDBRANCH   1   2
BRANCH   1  10
ATOM     10  C   UNL     1     -35.379  49.472 -53.195  1.00  0.00     0.000 C 
BRANCH  10  11
ATOM     11  C   UNL     1     -34.529  50.520 -52.455  1.00  0.00     0.000 C 
BRANCH  11  12
ATOM     12  C   UNL     1     -33.122  50.000 -52.113  1.00  0.00     0.000 C 
BRANCH  12  13
ATOM     13  C   UNL     1     -32.466  50.778 -50.960  1.00  0.00     0.000 C 
BRANCH  13  14
ATOM     14  C   UNL     1     -32.618  52.303 -51.105  1.00  0.00     0.002 C 
BRANCH  14  15
ATOM     15  C   UNL     1     -31.556  52.976 -51.993  1.00  0.00     0.028 C 
BRANCH  15  16
ATOM     16  C   UNL     1     -31.053  54.309 -51.423  1.00  0.00     0.156 C 
BRANCH  16  17
ATOM     17  O   UNL     1     -31.981  54.820 -50.506  1.00  0.00    -0.396 OA
ATOM     18  H   UNL     1     -31.472  55.394 -49.875  1.00  0.00     0.210 HD
ENDBRANCH  16  17
ENDBRANCH  15  16
ENDBRANCH  14  15
ENDBRANCH  13  14
ENDBRANCH  12  13
ENDBRANCH  11  12
ENDBRANCH  10  11
ENDBRANCH   1  10
TORSDOF 15
ENDMDL
MODEL 6
REMARK VINA RESULT:    -4.250      7.272     10.129
REMARK INTER + INTRA:          -9.873
REMARK INTER:                  -8.900
REMARK INTRA:                  -0.973
REMARK UNBOUND:                -2.021
REMARK SMILES CCCCCCCCCCCCCCCCO
REMARK SMILES IDX 9 1 8 2 7 3 6 4 5 5 4 6 3 7 2 8 1 9 10 10 11 11 12 12 13 13
REMARK SMILES IDX 14 14 15 15 16 16 17 17
REMARK H PARENT 17 18
REMARK Flexibility Score: inf
ROOT
ATOM      1  C   UNL     1     -38.798  49.269 -53.314  1.00  0.00     0.000 C 
ENDROOT
BRANCH   1   2
ATOM      2  C   UNL     1     -37.812  49.041 -52.155  1.00  0.00    -0.000 C 
BRANCH   2   3
ATOM      3  C   UNL     1     -36.947  47.785 -52.356  1.00  0.00    -0.000 C 
BRANCH   3   4
ATOM      4  C   UNL     1     -35.441  48.100 -52.373  1.00  0.00    -0.000 C 
BRANCH   4   5
ATOM      5  C   UNL     1     -35.147  49.557 -52.762  1.00  0.00    -0.000 C 
BRANCH   5   6
ATOM      6  C   UNL     1     -33.679  49.950 -52.521  1.00  0.00    -0.000 C 
BRANCH   6   7
ATOM      7  C   UNL     1     -33.504  51.475 -52.357  1.00  0.00    -0.000 C 
BRANCH   7   8
ATOM      8  C   UNL     1     -33.035  51.892 -50.952  1.00  0.00    -0.003 C 
ATOM      9  C   UNL     1     -32.417  50.741 -50.161  1.00  0.00     0.004 C 
ENDBRANCH   7   8
ENDBRANCH   6   7
ENDBRANCH   5   6
ENDBRANCH   4   5
ENDBRANCH   3   4
ENDBRANCH   2   3
ENDBRANCH   1   2
BRANCH   1  10
ATOM     10  C   UNL     1     -38.698  48.181 -54.396  1.00  0.00     0.000 C 
BRANCH  10  11
ATOM     11  C   UNL     1     -40.048  47.902 -55.079  1.00  0.00     0.000 C 
BRANCH  11  12
ATOM     12  C   UNL     1     -40.528  46.457 -54.866  1.00  0.00     0.000 C 
BRANCH  12  13
ATOM     13  C   UNL     1     -39.936  45.816 -53.598  1.00  0.00     0.000 C 
BRANCH  13  14
ATOM     14  C   UNL     1     -40.934  44.895 -52.873  1.00  0.00     0.002 C 
BRANCH  14  15
ATOM     15  C   UNL     1     -40.290  43.736 -52.090  1.00  0.00     0.028 C 
BRANCH  15  16
ATOM     16  C   UNL     1     -41.321  42.762 -51.504  1.00  0.00     0.156 C 
BRANCH  16  17
ATOM     17  O   UNL     1     -41.468  42.986 -50.129  1.00  0.00    -0.396 OA
ATOM     18  H   UNL     1     -42.240  42.437 -49.831  1.00  0.00     0.210 HD
ENDBRANCH  16  17
ENDBRANCH  15  16
ENDBRANCH  14  15
ENDBRANCH  13  14
ENDBRANCH  12  13
ENDBRANCH  11  12
ENDBRANCH  10  11
ENDBRANCH   1  10
TORSDOF 15
ENDMDL
MODEL 7
REMARK VINA RESULT:    -4.209      8.046     10.751
REMARK INTER + INTRA:          -9.797
REMARK INTER:                  -9.138
REMARK INTRA:                  -0.659
REMARK UNBOUND:                -2.021
REMARK SMILES CCCCCCCCCCCCCCCCO
REMARK SMILES IDX 9 1 8 2 7 3 6 4 5 5 4 6 3 7 2 8 1 9 10 10 11 11 12 12 13 13
REMARK SMILES IDX 14 14 15 15 16 16 17 17
REMARK H PARENT 17 18
REMARK Flexibility Score: inf
ROOT
ATOM      1  C   UNL     1     -38.264  48.779 -52.589  1.00  0.00     0.000 C 
ENDROOT
BRANCH   1   2
ATOM      2  C   UNL     1     -36.791  48.470 -52.268  1.00  0.00    -0.000 C 
BRANCH   2   3
ATOM      3  C   UNL     1     -35.816  49.339 -53.081  1.00  0.00    -0.000 C 
BRANCH   3   4
ATOM      4  C   UNL     1     -34.863  50.153 -52.190  1.00  0.00    -0.000 C 
BRANCH   4   5
ATOM      5  C   UNL     1     -33.383  49.877 -52.502  1.00  0.00    -0.000 C 
BRANCH   5   6
ATOM      6  C   UNL     1     -32.435  50.467 -51.444  1.00  0.00    -0.000 C 
BRANCH   6   7
ATOM      7  C   UNL     1     -32.993  51.763 -50.820  1.00  0.00    -0.000 C 
BRANCH   7   8
ATOM      8  C   UNL     1     -32.125  53.003 -51.096  1.00  0.00    -0.003 C 
ATOM      9  C   UNL     1     -31.259  52.860 -52.346  1.00  0.00     0.004 C 
ENDBRANCH   7   8
ENDBRANCH   6   7
ENDBRANCH   5   6
ENDBRANCH   4   5
ENDBRANCH   3   4
ENDBRANCH   2   3
ENDBRANCH   1   2
BRANCH   1  10
ATOM     10  C   UNL     1     -38.539  48.833 -54.101  1.00  0.00     0.000 C 
BRANCH  10  11
ATOM     11  C   UNL     1     -39.547  47.764 -54.556  1.00  0.00     0.000 C 
BRANCH  11  12
ATOM     12  C   UNL     1     -39.638  46.585 -53.573  1.00  0.00     0.000 C 
BRANCH  12  13
ATOM     13  C   UNL     1     -40.560  45.461 -54.077  1.00  0.00     0.000 C 
BRANCH  13  14
ATOM     14  C   UNL     1     -42.034  45.895 -54.173  1.00  0.00     0.002 C 
BRANCH  14  15
ATOM     15  C   UNL     1     -43.016  45.028 -53.364  1.00  0.00     0.028 C 
BRANCH  15  16
ATOM     16  C   UNL     1     -44.484  45.410 -53.594  1.00  0.00     0.156 C 
BRANCH  16  17
ATOM     17  O   UNL     1     -45.080  45.784 -52.382  1.00  0.00    -0.396 OA
ATOM     18  H   UNL     1     -44.504  45.421 -51.658  1.00  0.00     0.210 HD
ENDBRANCH  16  17
ENDBRANCH  15  16
ENDBRANCH  14  15
ENDBRANCH  13  14
ENDBRANCH  12  13
ENDBRANCH  11  12
ENDBRANCH  10  11
ENDBRANCH   1  10
TORSDOF 15
ENDMDL
MODEL 8
REMARK VINA RESULT:    -4.092      2.576      5.124
REMARK INTER + INTRA:          -9.582
REMARK INTER:                  -7.743
REMARK INTRA:                  -1.839
REMARK UNBOUND:                -2.021
REMARK SMILES CCCCCCCCCCCCCCCCO
REMARK SMILES IDX 9 1 8 2 7 3 6 4 5 5 4 6 3 7 2 8 1 9 10 10 11 11 12 12 13 13
REMARK SMILES IDX 14 14 15 15 16 16 17 17
REMARK H PARENT 17 18
REMARK Flexibility Score: inf
ROOT
ATOM      1  C   UNL     1     -44.733  38.831 -51.676  1.00  0.00     0.000 C 
ENDROOT
BRANCH   1   2
ATOM      2  C   UNL     1     -44.502  40.103 -52.511  1.00  0.00    -0.000 C 
BRANCH   2   3
ATOM      3  C   UNL     1     -43.249  40.007 -53.397  1.00  0.00    -0.000 C 
BRANCH   3   4
ATOM      4  C   UNL     1     -42.937  41.324 -54.129  1.00  0.00    -0.000 C 
BRANCH   4   5
ATOM      5  C   UNL     1     -43.078  42.553 -53.217  1.00  0.00    -0.000 C 
BRANCH   5   6
ATOM      6  C   UNL     1     -41.788  42.866 -52.440  1.00  0.00    -0.000 C 
BRANCH   6   7
ATOM      7  C   UNL     1     -41.438  44.368 -52.473  1.00  0.00    -0.000 C 
BRANCH   7   8
ATOM      8  C   UNL     1     -40.737  44.808 -53.770  1.00  0.00    -0.003 C 
ATOM      9  C   UNL     1     -39.755  45.959 -53.559  1.00  0.00     0.004 C 
ENDBRANCH   7   8
ENDBRANCH   6   7
ENDBRANCH   5   6
ENDBRANCH   4   5
ENDBRANCH   3   4
ENDBRANCH   2   3
ENDBRANCH   1   2
BRANCH   1  10
ATOM     10  C   UNL     1     -43.858  37.654 -52.139  1.00  0.00     0.000 C 
BRANCH  10  11
ATOM     11  C   UNL     1     -43.246  36.875 -50.963  1.00  0.00     0.000 C 
BRANCH  11  12
ATOM     12  C   UNL     1     -42.276  37.732 -50.131  1.00  0.00     0.000 C 
BRANCH  12  13
ATOM     13  C   UNL     1     -41.030  38.159 -50.926  1.00  0.00     0.000 C 
BRANCH  13  14
ATOM     14  C   UNL     1     -40.719  39.661 -50.788  1.00  0.00     0.002 C 
BRANCH  14  15
ATOM     15  C   UNL     1     -41.552  40.397 -49.723  1.00  0.00     0.028 C 
BRANCH  15  16
ATOM     16  C   UNL     1     -40.719  40.842 -48.513  1.00  0.00     0.156 C 
BRANCH  16  17
ATOM     17  O   UNL     1     -40.623  39.797 -47.584  1.00  0.00    -0.396 OA
ATOM     18  H   UNL     1     -40.773  38.954 -48.087  1.00  0.00     0.210 HD
ENDBRANCH  16  17
ENDBRANCH  15  16
ENDBRANCH  14  15
ENDBRANCH  13  14
ENDBRANCH  12  13
ENDBRANCH  11  12
ENDBRANCH  10  11
ENDBRANCH   1  10
TORSDOF 15
ENDMDL
MODEL 9
REMARK VINA RESULT:    -4.029      1.989      2.578
REMARK INTER + INTRA:          -9.466
REMARK INTER:                  -7.716
REMARK INTRA:                  -1.750
REMARK UNBOUND:                -2.021
REMARK SMILES CCCCCCCCCCCCCCCCO
REMARK SMILES IDX 9 1 8 2 7 3 6 4 5 5 4 6 3 7 2 8 1 9 10 10 11 11 12 12 13 13
REMARK SMILES IDX 14 14 15 15 16 16 17 17
REMARK H PARENT 17 18
REMARK Flexibility Score: inf
ROOT
ATOM      1  C   UNL     1     -44.033  40.248 -52.534  1.00  0.00     0.000 C 
ENDROOT
BRANCH   1   2
ATOM      2  C   UNL     1     -44.458  38.777 -52.380  1.00  0.00    -0.000 C 
BRANCH   2   3
ATOM      3  C   UNL     1     -44.121  38.208 -50.991  1.00  0.00    -0.000 C 
BRANCH   3   4
ATOM      4  C   UNL     1     -43.034  37.121 -51.044  1.00  0.00    -0.000 C 
BRANCH   4   5
ATOM      5  C   UNL     1     -41.694  37.597 -50.462  1.00  0.00    -0.000 C 
BRANCH   5   6
ATOM      6  C   UNL     1     -40.887  38.451 -51.455  1.00  0.00    -0.000 C 
BRANCH   6   7
ATOM      7  C   UNL     1     -40.277  39.701 -50.787  1.00  0.00    -0.000 C 
BRANCH   7   8
ATOM      8  C   UNL     1     -41.282  40.495 -49.935  1.00  0.00    -0.003 C 
ATOM      9  C   UNL     1     -41.402  41.958 -50.358  1.00  0.00     0.004 C 
ENDBRANCH   7   8
ENDBRANCH   6   7
ENDBRANCH   5   6
ENDBRANCH   4   5
ENDBRANCH   3   4
ENDBRANCH   2   3
ENDBRANCH   1   2
BRANCH   1  10
ATOM     10  C   UNL     1     -43.112  40.472 -53.744  1.00  0.00     0.000 C 
BRANCH  10  11
ATOM     11  C   UNL     1     -43.293  41.864 -54.375  1.00  0.00     0.000 C 
BRANCH  11  12
ATOM     12  C   UNL     1     -43.194  42.996 -53.338  1.00  0.00     0.000 C 
BRANCH  12  13
ATOM     13  C   UNL     1     -43.351  44.391 -53.966  1.00  0.00     0.000 C 
BRANCH  13  14
ATOM     14  C   UNL     1     -42.027  45.177 -54.016  1.00  0.00     0.002 C 
BRANCH  14  15
ATOM     15  C   UNL     1     -41.129  45.007 -52.777  1.00  0.00     0.028 C 
BRANCH  15  16
ATOM     16  C   UNL     1     -39.635  44.960 -53.122  1.00  0.00     0.156 C 
BRANCH  16  17
ATOM     17  O   UNL     1     -38.941  44.223 -52.153  1.00  0.00    -0.396 OA
ATOM     18  H   UNL     1     -38.345  44.862 -51.681  1.00  0.00     0.210 HD
ENDBRANCH  16  17
ENDBRANCH  15  16
ENDBRANCH  14  15
ENDBRANCH  13  14
ENDBRANCH  12  13
ENDBRANCH  11  12
ENDBRANCH  10  11
ENDBRANCH   1  10
TORSDOF 15
ENDMDL
