MODEL 1
REMARK VINA RESULT:    -4.843      0.000      0.000
REMARK INTER + INTRA:         -10.633
REMARK INTER:                  -8.807
REMARK INTRA:                  -1.826
REMARK UNBOUND:                -1.826
REMARK SMILES CCCCCCCCCCCCCC[C@@H](C)C(=O)[O-]
REMARK SMILES IDX 9 1 10 2 11 3 12 4 13 5 14 6 15 7 16 8 17 9 18 10 19 11 8 12
REMARK SMILES IDX 7 13 6 14 5 15 4 16 3 17 2 18 1 19
REMARK H PARENT
REMARK Flexibility Score: inf
ROOT
ATOM      1  C   UNL     1      -8.218 -20.199  33.747  1.00  0.00     0.000 C 
ENDROOT
BRANCH   1   2
ATOM      2  C   UNL     1      -9.614 -20.686  33.318  1.00  0.00     0.000 C 
BRANCH   2   3
ATOM      3  C   UNL     1     -10.714 -19.656  33.624  1.00  0.00     0.000 C 
BRANCH   3   4
ATOM      4  C   UNL     1     -11.484 -19.222  32.365  1.00  0.00     0.000 C 
BRANCH   4   5
ATOM      5  C   UNL     1     -10.763 -18.117  31.577  1.00  0.00     0.001 C 
BRANCH   5   6
ATOM      6  C   UNL     1     -10.871 -18.216  30.037  1.00  0.00     0.009 C 
BRANCH   6   7
ATOM      7  C   UNL     1      -9.567 -18.546  29.262  1.00  0.00     0.032 C 
ATOM      8  C   UNL     1      -8.382 -18.860  30.188  1.00  0.00     0.014 C 
BRANCH   7   9
ATOM      9  C   UNL     1      -9.773 -19.610  28.213  1.00  0.00     0.044 C 
ATOM     10  O   UNL     1      -9.588 -19.334  26.998  1.00  0.00    -0.550 OA
ATOM     11  O   UNL     1     -10.140 -20.905  28.563  1.00  0.00    -0.550 OA
ENDBRANCH   7   9
ENDBRANCH   6   7
ENDBRANCH   5   6
ENDBRANCH   4   5
ENDBRANCH   3   4
ENDBRANCH   2   3
ENDBRANCH   1   2
BRANCH   1  12
ATOM     12  C   UNL     1      -8.188 -18.695  34.058  1.00  0.00     0.000 C 
BRANCH  12  13
ATOM     13  C   UNL     1      -7.008 -17.973  33.390  1.00  0.00    -0.000 C 
BRANCH  13  14
ATOM     14  C   UNL     1      -5.920 -18.970  32.972  1.00  0.00    -0.000 C 
BRANCH  14  15
ATOM     15  C   UNL     1      -4.519 -18.398  33.237  1.00  0.00    -0.000 C 
BRANCH  15  16
ATOM     16  C   UNL     1      -3.884 -18.956  34.520  1.00  0.00    -0.000 C 
BRANCH  16  17
ATOM     17  C   UNL     1      -4.868 -19.789  35.354  1.00  0.00    -0.000 C 
BRANCH  17  18
ATOM     18  C   UNL     1      -4.523 -21.281  35.279  1.00  0.00    -0.003 C 
ATOM     19  C   UNL     1      -5.646 -22.137  35.857  1.00  0.00     0.004 C 
ENDBRANCH  17  18
ENDBRANCH  16  17
ENDBRANCH  15  16
ENDBRANCH  14  15
ENDBRANCH  13  14
ENDBRANCH  12  13
ENDBRANCH   1  12
TORSDOF 14
ENDMDL
MODEL 2
REMARK VINA RESULT:    -4.773      0.981      2.151
REMARK INTER + INTRA:         -10.505
REMARK INTER:                  -8.910
REMARK INTRA:                  -1.594
REMARK UNBOUND:                -1.826
REMARK SMILES CCCCCCCCCCCCCC[C@@H](C)C(=O)[O-]
REMARK SMILES IDX 9 1 10 2 11 3 12 4 13 5 14 6 15 7 16 8 17 9 18 10 19 11 8 12
REMARK SMILES IDX 7 13 6 14 5 15 4 16 3 17 2 18 1 19
REMARK H PARENT
REMARK Flexibility Score: inf
ROOT
ATOM      1  C   UNL     1      -8.992 -21.427  33.451  1.00  0.00     0.000 C 
ENDROOT
BRANCH   1   2
ATOM      2  C   UNL     1     -10.351 -20.885  33.929  1.00  0.00     0.000 C 
BRANCH   2   3
ATOM      3  C   UNL     1     -11.147 -20.218  32.795  1.00  0.00     0.000 C 
BRANCH   3   4
ATOM      4  C   UNL     1     -11.309 -18.702  32.998  1.00  0.00     0.000 C 
BRANCH   4   5
ATOM      5  C   UNL     1     -10.600 -17.876  31.914  1.00  0.00     0.001 C 
BRANCH   5   6
ATOM      6  C   UNL     1     -10.833 -18.344  30.459  1.00  0.00     0.009 C 
BRANCH   6   7
ATOM      7  C   UNL     1      -9.571 -18.610  29.595  1.00  0.00     0.032 C 
ATOM      8  C   UNL     1      -8.336 -18.973  30.434  1.00  0.00     0.014 C 
BRANCH   7   9
ATOM      9  C   UNL     1      -9.826 -19.605  28.490  1.00  0.00     0.044 C 
ATOM     10  O   UNL     1      -9.703 -19.250  27.288  1.00  0.00    -0.550 OA
ATOM     11  O   UNL     1     -10.170 -20.923  28.773  1.00  0.00    -0.550 OA
ENDBRANCH   7   9
ENDBRANCH   6   7
ENDBRANCH   5   6
ENDBRANCH   4   5
ENDBRANCH   3   4
ENDBRANCH   2   3
ENDBRANCH   1   2
BRANCH   1  12
ATOM     12  C   UNL     1      -7.809 -20.594  33.969  1.00  0.00     0.000 C 
BRANCH  12  13
ATOM     13  C   UNL     1      -6.486 -21.375  33.965  1.00  0.00    -0.000 C 
BRANCH  13  14
ATOM     14  C   UNL     1      -6.064 -21.748  35.391  1.00  0.00    -0.000 C 
BRANCH  14  15
ATOM     15  C   UNL     1      -5.141 -20.677  35.989  1.00  0.00    -0.000 C 
BRANCH  15  16
ATOM     16  C   UNL     1      -3.688 -20.808  35.506  1.00  0.00    -0.000 C 
BRANCH  16  17
ATOM     17  C   UNL     1      -3.271 -19.664  34.569  1.00  0.00    -0.000 C 
BRANCH  17  18
ATOM     18  C   UNL     1      -4.328 -18.555  34.556  1.00  0.00    -0.003 C 
ATOM     19  C   UNL     1      -4.744 -18.205  33.130  1.00  0.00     0.004 C 
ENDBRANCH  17  18
ENDBRANCH  16  17
ENDBRANCH  15  16
ENDBRANCH  14  15
ENDBRANCH  13  14
ENDBRANCH  12  13
ENDBRANCH   1  12
TORSDOF 14
ENDMDL
MODEL 3
REMARK VINA RESULT:    -4.755      3.132      6.137
REMARK INTER + INTRA:         -10.473
REMARK INTER:                  -8.880
REMARK INTRA:                  -1.593
REMARK UNBOUND:                -1.826
REMARK SMILES CCCCCCCCCCCCCC[C@@H](C)C(=O)[O-]
REMARK SMILES IDX 9 1 10 2 11 3 12 4 13 5 14 6 15 7 16 8 17 9 18 10 19 11 8 12
REMARK SMILES IDX 7 13 6 14 5 15 4 16 3 17 2 18 1 19
REMARK H PARENT
REMARK Flexibility Score: inf
ROOT
ATOM      1  C   UNL     1     -10.729 -18.800  30.507  1.00  0.00     0.000 C 
ENDROOT
BRANCH   1   2
ATOM      2  C   UNL     1      -9.551 -18.878  29.519  1.00  0.00     0.000 C 
BRANCH   2   3
ATOM      3  C   UNL     1      -8.193 -18.658  30.207  1.00  0.00     0.000 C 
BRANCH   3   4
ATOM      4  C   UNL     1      -8.337 -18.269  31.688  1.00  0.00     0.000 C 
BRANCH   4   5
ATOM      5  C   UNL     1      -7.948 -19.408  32.643  1.00  0.00     0.001 C 
BRANCH   5   6
ATOM      6  C   UNL     1      -6.890 -19.051  33.714  1.00  0.00     0.009 C 
BRANCH   6   7
ATOM      7  C   UNL     1      -5.430 -19.498  33.436  1.00  0.00     0.032 C 
ATOM      8  C   UNL     1      -4.448 -18.320  33.356  1.00  0.00     0.014 C 
BRANCH   7   9
ATOM      9  C   UNL     1      -4.963 -20.571  34.389  1.00  0.00     0.044 C 
ATOM     10  O   UNL     1      -3.732 -20.717  34.609  1.00  0.00    -0.550 OA
ATOM     11  O   UNL     1      -5.871 -21.389  35.052  1.00  0.00    -0.550 OA
ENDBRANCH   7   9
ENDBRANCH   6   7
ENDBRANCH   5   6
ENDBRANCH   4   5
ENDBRANCH   3   4
ENDBRANCH   2   3
ENDBRANCH   1   2
BRANCH   1  12
ATOM     12  C   UNL     1     -11.272 -20.186  30.888  1.00  0.00     0.000 C 
BRANCH  12  13
ATOM     13  C   UNL     1     -12.219 -20.141  32.096  1.00  0.00    -0.000 C 
BRANCH  13  14
ATOM     14  C   UNL     1     -11.648 -19.254  33.209  1.00  0.00    -0.000 C 
BRANCH  14  15
ATOM     15  C   UNL     1     -12.111 -19.738  34.591  1.00  0.00    -0.000 C 
BRANCH  15  16
ATOM     16  C   UNL     1     -12.273 -21.265  34.660  1.00  0.00    -0.000 C 
BRANCH  16  17
ATOM     17  C   UNL     1     -11.622 -21.872  35.912  1.00  0.00    -0.000 C 
BRANCH  17  18
ATOM     18  C   UNL     1     -10.477 -22.818  35.530  1.00  0.00    -0.003 C 
ATOM     19  C   UNL     1      -9.496 -22.141  34.577  1.00  0.00     0.004 C 
ENDBRANCH  17  18
ENDBRANCH  16  17
ENDBRANCH  15  16
ENDBRANCH  14  15
ENDBRANCH  13  14
ENDBRANCH  12  13
ENDBRANCH   1  12
TORSDOF 14
ENDMDL
MODEL 4
REMARK VINA RESULT:    -4.682      3.460      6.598
REMARK INTER + INTRA:         -10.339
REMARK INTER:                  -8.483
REMARK INTRA:                  -1.856
REMARK UNBOUND:                -1.826
REMARK SMILES CCCCCCCCCCCCCC[C@@H](C)C(=O)[O-]
REMARK SMILES IDX 9 1 10 2 11 3 12 4 13 5 14 6 15 7 16 8 17 9 18 10 19 11 8 12
REMARK SMILES IDX 7 13 6 14 5 15 4 16 3 17 2 18 1 19
REMARK H PARENT
REMARK Flexibility Score: inf
ROOT
ATOM      1  C   UNL     1     -11.698 -21.690  35.785  1.00  0.00     0.000 C 
ENDROOT
BRANCH   1   2
ATOM      2  C   UNL     1     -10.770 -22.772  35.205  1.00  0.00     0.000 C 
BRANCH   2   3
ATOM      3  C   UNL     1      -9.302 -22.318  35.152  1.00  0.00     0.000 C 
BRANCH   3   4
ATOM      4  C   UNL     1      -8.897 -21.784  33.768  1.00  0.00     0.000 C 
BRANCH   4   5
ATOM      5  C   UNL     1      -7.722 -20.796  33.830  1.00  0.00     0.001 C 
BRANCH   5   6
ATOM      6  C   UNL     1      -6.366 -21.399  34.265  1.00  0.00     0.009 C 
BRANCH   6   7
ATOM      7  C   UNL     1      -5.085 -20.680  33.764  1.00  0.00     0.032 C 
ATOM      8  C   UNL     1      -5.380 -19.569  32.745  1.00  0.00     0.014 C 
BRANCH   7   9
ATOM      9  C   UNL     1      -4.210 -20.201  34.897  1.00  0.00     0.044 C 
ATOM     10  O   UNL     1      -4.738 -19.727  35.937  1.00  0.00    -0.550 OA
ATOM     11  O   UNL     1      -2.824 -20.296  34.825  1.00  0.00    -0.550 OA
ENDBRANCH   7   9
ENDBRANCH   6   7
ENDBRANCH   5   6
ENDBRANCH   4   5
ENDBRANCH   3   4
ENDBRANCH   2   3
ENDBRANCH   1   2
BRANCH   1  12
ATOM     12  C   UNL     1     -12.364 -20.837  34.694  1.00  0.00     0.000 C 
BRANCH  12  13
ATOM     13  C   UNL     1     -11.745 -19.436  34.575  1.00  0.00    -0.000 C 
BRANCH  13  14
ATOM     14  C   UNL     1     -11.391 -19.113  33.118  1.00  0.00    -0.000 C 
BRANCH  14  15
ATOM     15  C   UNL     1     -11.880 -20.223  32.176  1.00  0.00    -0.000 C 
BRANCH  15  16
ATOM     16  C   UNL     1     -11.172 -20.196  30.811  1.00  0.00    -0.000 C 
BRANCH  16  17
ATOM     17  C   UNL     1     -10.677 -18.793  30.430  1.00  0.00    -0.000 C 
BRANCH  17  18
ATOM     18  C   UNL     1      -9.330 -18.868  29.700  1.00  0.00    -0.003 C 
ATOM     19  C   UNL     1      -8.165 -18.726  30.676  1.00  0.00     0.004 C 
ENDBRANCH  17  18
ENDBRANCH  16  17
ENDBRANCH  15  16
ENDBRANCH  14  15
ENDBRANCH  13  14
ENDBRANCH  12  13
ENDBRANCH   1  12
TORSDOF 14
ENDMDL
MODEL 5
REMARK VINA RESULT:    -4.681      3.427      6.988
REMARK INTER + INTRA:         -10.338
REMARK INTER:                  -8.847
REMARK INTRA:                  -1.491
REMARK UNBOUND:                -1.826
REMARK SMILES CCCCCCCCCCCCCC[C@@H](C)C(=O)[O-]
REMARK SMILES IDX 9 1 10 2 11 3 12 4 13 5 14 6 15 7 16 8 17 9 18 10 19 11 8 12
REMARK SMILES IDX 7 13 6 14 5 15 4 16 3 17 2 18 1 19
REMARK H PARENT
REMARK Flexibility Score: inf
ROOT
ATOM      1  C   UNL     1      -9.260 -21.119  33.188  1.00  0.00     0.000 C 
ENDROOT
BRANCH   1   2
ATOM      2  C   UNL     1      -7.981 -20.501  33.780  1.00  0.00     0.000 C 
BRANCH   2   3
ATOM      3  C   UNL     1      -7.928 -18.975  33.597  1.00  0.00     0.000 C 
BRANCH   3   4
ATOM      4  C   UNL     1      -7.061 -18.553  32.399  1.00  0.00     0.000 C 
BRANCH   4   5
ATOM      5  C   UNL     1      -5.644 -18.123  32.810  1.00  0.00     0.001 C 
BRANCH   5   6
ATOM      6  C   UNL     1      -4.700 -19.266  33.249  1.00  0.00     0.009 C 
BRANCH   6   7
ATOM      7  C   UNL     1      -3.954 -19.082  34.598  1.00  0.00     0.032 C 
ATOM      8  C   UNL     1      -4.882 -18.642  35.741  1.00  0.00     0.014 C 
BRANCH   7   9
ATOM      9  C   UNL     1      -3.121 -20.285  34.967  1.00  0.00     0.044 C 
ATOM     10  O   UNL     1      -3.683 -21.325  35.402  1.00  0.00    -0.550 OA
ATOM     11  O   UNL     1      -1.739 -20.277  34.811  1.00  0.00    -0.550 OA
ENDBRANCH   7   9
ENDBRANCH   6   7
ENDBRANCH   5   6
ENDBRANCH   4   5
ENDBRANCH   3   4
ENDBRANCH   2   3
ENDBRANCH   1   2
BRANCH   1  12
ATOM     12  C   UNL     1     -10.422 -21.147  34.192  1.00  0.00     0.000 C 
BRANCH  12  13
ATOM     13  C   UNL     1     -11.333 -19.914  34.080  1.00  0.00    -0.000 C 
BRANCH  13  14
ATOM     14  C   UNL     1     -11.811 -19.714  32.637  1.00  0.00    -0.000 C 
BRANCH  14  15
ATOM     15  C   UNL     1     -11.646 -18.251  32.202  1.00  0.00    -0.000 C 
BRANCH  15  16
ATOM     16  C   UNL     1     -10.427 -18.037  31.290  1.00  0.00    -0.000 C 
BRANCH  16  17
ATOM     17  C   UNL     1     -10.757 -18.242  29.804  1.00  0.00    -0.000 C 
BRANCH  17  18
ATOM     18  C   UNL     1      -9.888 -19.350  29.198  1.00  0.00    -0.003 C 
ATOM     19  C   UNL     1      -9.633 -19.102  27.714  1.00  0.00     0.004 C 
ENDBRANCH  17  18
ENDBRANCH  16  17
ENDBRANCH  15  16
ENDBRANCH  14  15
ENDBRANCH  13  14
ENDBRANCH  12  13
ENDBRANCH   1  12
TORSDOF 14
ENDMDL
MODEL 6
REMARK VINA RESULT:    -4.655     21.692     23.689
REMARK INTER + INTRA:         -10.291
REMARK INTER:                  -8.688
REMARK INTRA:                  -1.603
REMARK UNBOUND:                -1.826
REMARK SMILES CCCCCCCCCCCCCC[C@@H](C)C(=O)[O-]
REMARK SMILES IDX 9 1 10 2 11 3 12 4 13 5 14 6 15 7 16 8 17 9 18 10 19 11 8 12
REMARK SMILES IDX 7 13 6 14 5 15 4 16 3 17 2 18 1 19
REMARK H PARENT
REMARK Flexibility Score: inf
ROOT
ATOM      1  C   UNL     1       0.115 -35.618  21.507  1.00  0.00     0.000 C 
ENDROOT
BRANCH   1   2
ATOM      2  C   UNL     1       0.231 -37.152  21.472  1.00  0.00     0.000 C 
BRANCH   2   3
ATOM      3  C   UNL     1       0.285 -37.704  20.038  1.00  0.00     0.000 C 
BRANCH   3   4
ATOM      4  C   UNL     1       1.725 -37.888  19.529  1.00  0.00     0.000 C 
BRANCH   4   5
ATOM      5  C   UNL     1       2.207 -36.710  18.667  1.00  0.00     0.001 C 
BRANCH   5   6
ATOM      6  C   UNL     1       3.636 -36.202  18.970  1.00  0.00     0.009 C 
BRANCH   6   7
ATOM      7  C   UNL     1       4.541 -37.122  19.832  1.00  0.00     0.032 C 
ATOM      8  C   UNL     1       5.883 -37.444  19.157  1.00  0.00     0.014 C 
BRANCH   7   9
ATOM      9  C   UNL     1       4.716 -36.608  21.239  1.00  0.00     0.044 C 
ATOM     10  O   UNL     1       5.862 -36.282  21.648  1.00  0.00    -0.550 OA
ATOM     11  O   UNL     1       3.627 -36.461  22.092  1.00  0.00    -0.550 OA
ENDBRANCH   7   9
ENDBRANCH   6   7
ENDBRANCH   5   6
ENDBRANCH   4   5
ENDBRANCH   3   4
ENDBRANCH   2   3
ENDBRANCH   1   2
BRANCH   1  12
ATOM     12  C   UNL     1      -1.267 -35.140  21.978  1.00  0.00     0.000 C 
BRANCH  12  13
ATOM     13  C   UNL     1      -2.393 -35.532  21.008  1.00  0.00    -0.000 C 
BRANCH  13  14
ATOM     14  C   UNL     1      -3.497 -36.311  21.735  1.00  0.00    -0.000 C 
BRANCH  14  15
ATOM     15  C   UNL     1      -3.403 -37.813  21.428  1.00  0.00    -0.000 C 
BRANCH  15  16
ATOM     16  C   UNL     1      -3.285 -38.104  19.923  1.00  0.00    -0.000 C 
BRANCH  16  17
ATOM     17  C   UNL     1      -4.649 -38.125  19.216  1.00  0.00    -0.000 C 
BRANCH  17  18
ATOM     18  C   UNL     1      -4.547 -37.519  17.812  1.00  0.00    -0.003 C 
ATOM     19  C   UNL     1      -4.831 -36.020  17.835  1.00  0.00     0.004 C 
ENDBRANCH  17  18
ENDBRANCH  16  17
ENDBRANCH  15  16
ENDBRANCH  14  15
ENDBRANCH  13  14
ENDBRANCH  12  13
ENDBRANCH   1  12
TORSDOF 14
ENDMDL
MODEL 7
REMARK VINA RESULT:    -4.599      3.176      6.173
REMARK INTER + INTRA:         -10.189
REMARK INTER:                  -8.480
REMARK INTRA:                  -1.709
REMARK UNBOUND:                -1.826
REMARK SMILES CCCCCCCCCCCCCC[C@@H](C)C(=O)[O-]
REMARK SMILES IDX 9 1 10 2 11 3 12 4 13 5 14 6 15 7 16 8 17 9 18 10 19 11 8 12
REMARK SMILES IDX 7 13 6 14 5 15 4 16 3 17 2 18 1 19
REMARK H PARENT
REMARK Flexibility Score: inf
ROOT
ATOM      1  C   UNL     1     -11.431 -20.043  31.440  1.00  0.00     0.000 C 
ENDROOT
BRANCH   1   2
ATOM      2  C   UNL     1     -10.374 -20.191  30.331  1.00  0.00     0.000 C 
BRANCH   2   3
ATOM      3  C   UNL     1      -9.803 -18.837  29.880  1.00  0.00     0.000 C 
BRANCH   3   4
ATOM      4  C   UNL     1      -8.286 -18.728  30.109  1.00  0.00     0.000 C 
BRANCH   4   5
ATOM      5  C   UNL     1      -7.930 -18.249  31.525  1.00  0.00     0.001 C 
BRANCH   5   6
ATOM      6  C   UNL     1      -6.756 -18.991  32.206  1.00  0.00     0.009 C 
BRANCH   6   7
ATOM      7  C   UNL     1      -7.061 -19.708  33.548  1.00  0.00     0.032 C 
ATOM      8  C   UNL     1      -8.447 -20.369  33.572  1.00  0.00     0.014 C 
BRANCH   7   9
ATOM      9  C   UNL     1      -5.964 -20.659  33.958  1.00  0.00     0.044 C 
ATOM     10  O   UNL     1      -6.260 -21.761  34.492  1.00  0.00    -0.550 OA
ATOM     11  O   UNL     1      -4.626 -20.354  33.733  1.00  0.00    -0.550 OA
ENDBRANCH   7   9
ENDBRANCH   6   7
ENDBRANCH   5   6
ENDBRANCH   4   5
ENDBRANCH   3   4
ENDBRANCH   2   3
ENDBRANCH   1   2
BRANCH   1  12
ATOM     12  C   UNL     1     -11.439 -18.639  32.064  1.00  0.00     0.000 C 
BRANCH  12  13
ATOM     13  C   UNL     1     -12.050 -18.617  33.473  1.00  0.00    -0.000 C 
BRANCH  13  14
ATOM     14  C   UNL     1     -13.241 -19.579  33.569  1.00  0.00    -0.000 C 
BRANCH  14  15
ATOM     15  C   UNL     1     -13.784 -19.640  35.004  1.00  0.00    -0.000 C 
BRANCH  15  16
ATOM     16  C   UNL     1     -13.618 -21.029  35.642  1.00  0.00    -0.000 C 
BRANCH  16  17
ATOM     17  C   UNL     1     -12.159 -21.339  36.010  1.00  0.00    -0.000 C 
BRANCH  17  18
ATOM     18  C   UNL     1     -11.775 -22.758  35.573  1.00  0.00    -0.003 C 
ATOM     19  C   UNL     1     -10.259 -22.928  35.520  1.00  0.00     0.004 C 
ENDBRANCH  17  18
ENDBRANCH  16  17
ENDBRANCH  15  16
ENDBRANCH  14  15
ENDBRANCH  13  14
ENDBRANCH  12  13
ENDBRANCH   1  12
TORSDOF 14
ENDMDL
MODEL 8
REMARK VINA RESULT:    -4.302      2.218      5.249
REMARK INTER + INTRA:          -9.649
REMARK INTER:                  -7.712
REMARK INTRA:                  -1.937
REMARK UNBOUND:                -1.826
REMARK SMILES CCCCCCCCCCCCCC[C@@H](C)C(=O)[O-]
REMARK SMILES IDX 9 1 10 2 11 3 12 4 13 5 14 6 15 7 16 8 17 9 18 10 19 11 8 12
REMARK SMILES IDX 7 13 6 14 5 15 4 16 3 17 2 18 1 19
REMARK H PARENT
REMARK Flexibility Score: inf
ROOT
ATOM      1  C   UNL     1      -4.310 -20.189  34.548  1.00  0.00     0.000 C 
ENDROOT
BRANCH   1   2
ATOM      2  C   UNL     1      -5.676 -20.599  35.126  1.00  0.00     0.000 C 
BRANCH   2   3
ATOM      3  C   UNL     1      -6.370 -21.680  34.281  1.00  0.00     0.000 C 
BRANCH   3   4
ATOM      4  C   UNL     1      -7.884 -21.754  34.543  1.00  0.00     0.000 C 
BRANCH   4   5
ATOM      5  C   UNL     1      -8.680 -20.720  33.733  1.00  0.00     0.001 C 
BRANCH   5   6
ATOM      6  C   UNL     1     -10.202 -20.978  33.631  1.00  0.00     0.009 C 
BRANCH   6   7
ATOM      7  C   UNL     1     -11.140 -19.876  34.191  1.00  0.00     0.032 C 
ATOM      8  C   UNL     1     -10.492 -18.483  34.198  1.00  0.00     0.014 C 
BRANCH   7   9
ATOM      9  C   UNL     1     -12.493 -19.874  33.524  1.00  0.00     0.044 C 
ATOM     10  O   UNL     1     -12.573 -19.997  32.273  1.00  0.00    -0.550 OA
ATOM     11  O   UNL     1     -13.663 -19.766  34.269  1.00  0.00    -0.550 OA
ENDBRANCH   7   9
ENDBRANCH   6   7
ENDBRANCH   5   6
ENDBRANCH   4   5
ENDBRANCH   3   4
ENDBRANCH   2   3
ENDBRANCH   1   2
BRANCH   1  12
ATOM     12  C   UNL     1      -4.278 -18.721  34.094  1.00  0.00     0.000 C 
BRANCH  12  13
ATOM     13  C   UNL     1      -5.675 -18.169  33.771  1.00  0.00    -0.000 C 
BRANCH  13  14
ATOM     14  C   UNL     1      -6.091 -18.529  32.339  1.00  0.00    -0.000 C 
BRANCH  14  15
ATOM     15  C   UNL     1      -7.442 -17.893  31.982  1.00  0.00    -0.000 C 
BRANCH  15  16
ATOM     16  C   UNL     1      -8.133 -18.593  30.801  1.00  0.00    -0.000 C 
BRANCH  16  17
ATOM     17  C   UNL     1      -9.646 -18.329  30.761  1.00  0.00    -0.000 C 
BRANCH  17  18
ATOM     18  C   UNL     1     -10.306 -19.098  29.611  1.00  0.00    -0.003 C 
ATOM     19  C   UNL     1     -10.184 -20.606  29.814  1.00  0.00     0.004 C 
ENDBRANCH  17  18
ENDBRANCH  16  17
ENDBRANCH  15  16
ENDBRANCH  14  15
ENDBRANCH  13  14
ENDBRANCH  12  13
ENDBRANCH   1  12
TORSDOF 14
ENDMDL
MODEL 9
REMARK VINA RESULT:    -2.843     21.780     23.239
REMARK INTER + INTRA:          -6.996
REMARK INTER:                  -5.368
REMARK INTRA:                  -1.628
REMARK UNBOUND:                -1.826
REMARK SMILES CCCCCCCCCCCCCC[C@@H](C)C(=O)[O-]
REMARK SMILES IDX 9 1 10 2 11 3 12 4 13 5 14 6 15 7 16 8 17 9 18 10 19 11 8 12
REMARK SMILES IDX 7 13 6 14 5 15 4 16 3 17 2 18 1 19
REMARK H PARENT
REMARK Flexibility Score: inf
ROOT
ATOM      1  C   UNL     1       2.322 -37.560  18.751  1.00  0.00     0.000 C 
ENDROOT
BRANCH   1   2
ATOM      2  C   UNL     1       1.880 -36.181  19.269  1.00  0.00     0.000 C 
BRANCH   2   3
ATOM      3  C   UNL     1       1.277 -36.250  20.682  1.00  0.00     0.000 C 
BRANCH   3   4
ATOM      4  C   UNL     1       1.007 -37.694  21.139  1.00  0.00     0.000 C 
BRANCH   4   5
ATOM      5  C   UNL     1      -0.452 -38.125  20.923  1.00  0.00     0.001 C 
BRANCH   5   6
ATOM      6  C   UNL     1      -1.490 -37.459  21.855  1.00  0.00     0.009 C 
BRANCH   6   7
ATOM      7  C   UNL     1      -2.449 -36.421  21.213  1.00  0.00     0.032 C 
ATOM      8  C   UNL     1      -3.463 -37.057  20.250  1.00  0.00     0.014 C 
BRANCH   7   9
ATOM      9  C   UNL     1      -3.110 -35.533  22.237  1.00  0.00     0.044 C 
ATOM     10  O   UNL     1      -4.276 -35.797  22.634  1.00  0.00    -0.550 OA
ATOM     11  O   UNL     1      -2.445 -34.436  22.774  1.00  0.00    -0.550 OA
ENDBRANCH   7   9
ENDBRANCH   6   7
ENDBRANCH   5   6
ENDBRANCH   4   5
ENDBRANCH   3   4
ENDBRANCH   2   3
ENDBRANCH   1   2
BRANCH   1  12
ATOM     12  C   UNL     1       3.556 -37.480  17.838  1.00  0.00     0.000 C 
BRANCH  12  13
ATOM     13  C   UNL     1       4.821 -38.048  18.499  1.00  0.00    -0.000 C 
BRANCH  13  14
ATOM     14  C   UNL     1       5.704 -36.923  19.051  1.00  0.00    -0.000 C 
BRANCH  14  15
ATOM     15  C   UNL     1       5.981 -37.126  20.548  1.00  0.00    -0.000 C 
BRANCH  15  16
ATOM     16  C   UNL     1       4.990 -38.099  21.207  1.00  0.00    -0.000 C 
BRANCH  16  17
ATOM     17  C   UNL     1       4.632 -37.694  22.645  1.00  0.00    -0.000 C 
BRANCH  17  18
ATOM     18  C   UNL     1       4.896 -36.202  22.876  1.00  0.00    -0.003 C 
ATOM     19  C   UNL     1       3.595 -35.404  22.878  1.00  0.00     0.004 C 
ENDBRANCH  17  18
ENDBRANCH  16  17
ENDBRANCH  15  16
ENDBRANCH  14  15
ENDBRANCH  13  14
ENDBRANCH  12  13
ENDBRANCH   1  12
TORSDOF 14
ENDMDL
