MODEL 1
REMARK VINA RESULT:    -3.366      0.000      0.000
REMARK INTER + INTRA:          -7.582
REMARK INTER:                  -5.727
REMARK INTRA:                  -1.854
REMARK UNBOUND:                -1.854
REMARK SMILES CC(=O)CCC[C@@H](C)CCC[C@H](C)CCCC(C)C
REMARK SMILES IDX 10 1 11 2 12 3 13 4 14 5 15 6 16 7 17 8 18 9 19 10 9 11 7 12
REMARK SMILES IDX 8 13 6 14 5 15 4 16 2 17 3 18 1 19
REMARK H PARENT
REMARK Flexibility Score: inf
ROOT
ATOM      1  C   UNL     1     232.065 234.538 234.646  1.00  0.00     0.001 C 
ENDROOT
BRANCH   1   2
ATOM      2  C   UNL     1     233.142 235.637 234.644  1.00  0.00     0.003 C 
BRANCH   2   3
ATOM      3  C   UNL     1     233.921 235.786 233.312  1.00  0.00    -0.014 C 
ATOM      4  C   UNL     1     235.373 236.242 233.528  1.00  0.00     0.007 C 
BRANCH   3   5
ATOM      5  C   UNL     1     233.162 236.594 232.223  1.00  0.00     0.003 C 
BRANCH   5   6
ATOM      6  C   UNL     1     232.034 237.510 232.745  1.00  0.00     0.001 C 
BRANCH   6   7
ATOM      7  C   UNL     1     232.493 238.966 232.950  1.00  0.00     0.003 C 
BRANCH   7   8
ATOM      8  C   UNL     1     231.490 239.864 233.715  1.00  0.00    -0.017 C 
ATOM      9  C   UNL     1     232.150 241.147 234.243  1.00  0.00     0.007 C 
ATOM     10  C   UNL     1     230.874 239.078 234.880  1.00  0.00     0.007 C 
ENDBRANCH   7   8
ENDBRANCH   6   7
ENDBRANCH   5   6
ENDBRANCH   3   5
ENDBRANCH   2   3
ENDBRANCH   1   2
BRANCH   1  11
ATOM     11  C   UNL     1     232.649 233.144 234.354  1.00  0.00     0.003 C 
BRANCH  11  12
ATOM     12  C   UNL     1     232.199 232.565 232.978  1.00  0.00    -0.014 C 
ATOM     13  C   UNL     1     233.425 232.242 232.106  1.00  0.00     0.007 C 
BRANCH  12  14
ATOM     14  C   UNL     1     231.238 233.546 232.261  1.00  0.00     0.004 C 
BRANCH  14  15
ATOM     15  C   UNL     1     229.779 233.040 232.167  1.00  0.00     0.008 C 
BRANCH  15  16
ATOM     16  C   UNL     1     229.475 231.863 233.111  1.00  0.00     0.075 C 
BRANCH  16  17
ATOM     17  C   UNL     1     228.324 232.160 234.038  1.00  0.00     0.129 C 
ATOM     18  O   UNL     1     227.187 231.857 233.711  1.00  0.00    -0.300 OA
ATOM     19  C   UNL     1     228.561 232.870 235.337  1.00  0.00     0.087 C 
ENDBRANCH  16  17
ENDBRANCH  15  16
ENDBRANCH  14  15
ENDBRANCH  12  14
ENDBRANCH  11  12
ENDBRANCH   1  11
TORSDOF 12
ENDMDL
MODEL 2
REMARK VINA RESULT:    -3.355      2.299      3.711
REMARK INTER + INTRA:          -7.563
REMARK INTER:                  -5.375
REMARK INTRA:                  -2.188
REMARK UNBOUND:                -1.854
REMARK SMILES CC(=O)CCC[C@@H](C)CCC[C@H](C)CCCC(C)C
REMARK SMILES IDX 10 1 11 2 12 3 13 4 14 5 15 6 16 7 17 8 18 9 19 10 9 11 7 12
REMARK SMILES IDX 8 13 6 14 5 15 4 16 2 17 3 18 1 19
REMARK H PARENT
REMARK Flexibility Score: inf
ROOT
ATOM      1  C   UNL     1     233.446 232.191 234.339  1.00  0.00     0.001 C 
ENDROOT
BRANCH   1   2
ATOM      2  C   UNL     1     234.970 232.138 234.132  1.00  0.00     0.003 C 
BRANCH   2   3
ATOM      3  C   UNL     1     235.428 232.101 232.652  1.00  0.00    -0.014 C 
ATOM      4  C   UNL     1     235.870 230.697 232.207  1.00  0.00     0.007 C 
BRANCH   3   5
ATOM      5  C   UNL     1     236.430 233.226 232.272  1.00  0.00     0.003 C 
BRANCH   5   6
ATOM      6  C   UNL     1     236.047 234.642 232.750  1.00  0.00     0.001 C 
BRANCH   6   7
ATOM      7  C   UNL     1     234.822 235.213 232.011  1.00  0.00     0.003 C 
BRANCH   7   8
ATOM      8  C   UNL     1     233.918 236.137 232.862  1.00  0.00    -0.017 C 
ATOM      9  C   UNL     1     233.999 235.803 234.360  1.00  0.00     0.007 C 
ATOM     10  C   UNL     1     232.465 236.026 232.382  1.00  0.00     0.007 C 
ENDBRANCH   7   8
ENDBRANCH   6   7
ENDBRANCH   5   6
ENDBRANCH   3   5
ENDBRANCH   2   3
ENDBRANCH   1   2
BRANCH   1  11
ATOM     11  C   UNL     1     232.682 232.386 233.017  1.00  0.00     0.003 C 
BRANCH  11  12
ATOM     12  C   UNL     1     231.133 232.328 233.189  1.00  0.00    -0.014 C 
ATOM     13  C   UNL     1     230.435 232.927 231.955  1.00  0.00     0.007 C 
BRANCH  12  14
ATOM     14  C   UNL     1     230.700 233.048 234.490  1.00  0.00     0.004 C 
BRANCH  14  15
ATOM     15  C   UNL     1     229.714 232.235 235.361  1.00  0.00     0.008 C 
BRANCH  15  16
ATOM     16  C   UNL     1     228.436 233.010 235.727  1.00  0.00     0.075 C 
BRANCH  16  17
ATOM     17  C   UNL     1     227.203 232.393 235.118  1.00  0.00     0.129 C 
ATOM     18  O   UNL     1     226.259 232.090 235.831  1.00  0.00    -0.300 OA
ATOM     19  C   UNL     1     227.149 232.101 233.648  1.00  0.00     0.087 C 
ENDBRANCH  16  17
ENDBRANCH  15  16
ENDBRANCH  14  15
ENDBRANCH  12  14
ENDBRANCH  11  12
ENDBRANCH   1  11
TORSDOF 12
ENDMDL
MODEL 3
REMARK VINA RESULT:    -3.350      4.193      6.892
REMARK INTER + INTRA:          -7.554
REMARK INTER:                  -5.752
REMARK INTRA:                  -1.802
REMARK UNBOUND:                -1.854
REMARK SMILES CC(=O)CCC[C@@H](C)CCC[C@H](C)CCCC(C)C
REMARK SMILES IDX 10 1 11 2 12 3 13 4 14 5 15 6 16 7 17 8 18 9 19 10 9 11 7 12
REMARK SMILES IDX 8 13 6 14 5 15 4 16 2 17 3 18 1 19
REMARK H PARENT
REMARK Flexibility Score: inf
ROOT
ATOM      1  C   UNL     1     234.590 236.751 234.543  1.00  0.00     0.001 C 
ENDROOT
BRANCH   1   2
ATOM      2  C   UNL     1     235.720 235.736 234.789  1.00  0.00     0.003 C 
BRANCH   2   3
ATOM      3  C   UNL     1     235.845 234.623 233.717  1.00  0.00    -0.014 C 
ATOM      4  C   UNL     1     236.176 233.252 234.327  1.00  0.00     0.007 C 
BRANCH   3   5
ATOM      5  C   UNL     1     236.743 235.008 232.508  1.00  0.00     0.003 C 
BRANCH   5   6
ATOM      6  C   UNL     1     237.645 236.243 232.721  1.00  0.00     0.001 C 
BRANCH   6   7
ATOM      7  C   UNL     1     239.132 235.875 232.883  1.00  0.00     0.003 C 
BRANCH   7   8
ATOM      8  C   UNL     1     239.833 236.519 234.103  1.00  0.00    -0.017 C 
ATOM      9  C   UNL     1     241.362 236.386 234.028  1.00  0.00     0.007 C 
ATOM     10  C   UNL     1     239.318 235.875 235.397  1.00  0.00     0.007 C 
ENDBRANCH   7   8
ENDBRANCH   6   7
ENDBRANCH   5   6
ENDBRANCH   3   5
ENDBRANCH   2   3
ENDBRANCH   1   2
BRANCH   1  11
ATOM     11  C   UNL     1     233.374 236.116 233.845  1.00  0.00     0.003 C 
BRANCH  11  12
ATOM     12  C   UNL     1     232.921 236.892 232.571  1.00  0.00    -0.014 C 
ATOM     13  C   UNL     1     234.135 237.533 231.875  1.00  0.00     0.007 C 
BRANCH  12  14
ATOM     14  C   UNL     1     231.850 237.952 232.929  1.00  0.00     0.004 C 
BRANCH  14  15
ATOM     15  C   UNL     1     232.406 239.389 233.061  1.00  0.00     0.008 C 
BRANCH  15  16
ATOM     16  C   UNL     1     231.598 240.274 234.027  1.00  0.00     0.075 C 
BRANCH  16  17
ATOM     17  C   UNL     1     232.428 240.752 235.190  1.00  0.00     0.129 C 
ATOM     18  O   UNL     1     232.560 241.950 235.392  1.00  0.00    -0.300 OA
ATOM     19  C   UNL     1     233.136 239.767 236.072  1.00  0.00     0.087 C 
ENDBRANCH  16  17
ENDBRANCH  15  16
ENDBRANCH  14  15
ENDBRANCH  12  14
ENDBRANCH  11  12
ENDBRANCH   1  11
TORSDOF 12
ENDMDL
MODEL 4
REMARK VINA RESULT:    -3.330      5.481      7.300
REMARK INTER + INTRA:          -7.520
REMARK INTER:                  -6.193
REMARK INTRA:                  -1.327
REMARK UNBOUND:                -1.854
REMARK SMILES CC(=O)CCC[C@@H](C)CCC[C@H](C)CCCC(C)C
REMARK SMILES IDX 10 1 11 2 12 3 13 4 14 5 15 6 16 7 17 8 18 9 19 10 9 11 7 12
REMARK SMILES IDX 8 13 6 14 5 15 4 16 2 17 3 18 1 19
REMARK H PARENT
REMARK Flexibility Score: inf
ROOT
ATOM      1  C   UNL     1     236.225 233.036 233.991  1.00  0.00     0.001 C 
ENDROOT
BRANCH   1   2
ATOM      2  C   UNL     1     236.058 233.857 232.700  1.00  0.00     0.003 C 
BRANCH   2   3
ATOM      3  C   UNL     1     236.562 235.319 232.786  1.00  0.00    -0.014 C 
ATOM      4  C   UNL     1     235.452 236.343 232.497  1.00  0.00     0.007 C 
BRANCH   3   5
ATOM      5  C   UNL     1     237.879 235.581 232.003  1.00  0.00     0.003 C 
BRANCH   5   6
ATOM      6  C   UNL     1     239.107 235.928 232.871  1.00  0.00     0.001 C 
BRANCH   6   7
ATOM      7  C   UNL     1     238.886 237.175 233.748  1.00  0.00     0.003 C 
BRANCH   7   8
ATOM      8  C   UNL     1     238.962 236.921 235.273  1.00  0.00    -0.017 C 
ATOM      9  C   UNL     1     239.316 235.462 235.599  1.00  0.00     0.007 C 
ATOM     10  C   UNL     1     237.624 237.290 235.928  1.00  0.00     0.007 C 
ENDBRANCH   7   8
ENDBRANCH   6   7
ENDBRANCH   5   6
ENDBRANCH   3   5
ENDBRANCH   2   3
ENDBRANCH   1   2
BRANCH   1  11
ATOM     11  C   UNL     1     235.591 231.638 233.883  1.00  0.00     0.003 C 
BRANCH  11  12
ATOM     12  C   UNL     1     236.299 230.721 232.840  1.00  0.00    -0.014 C 
ATOM     13  C   UNL     1     235.267 230.110 231.876  1.00  0.00     0.007 C 
BRANCH  12  14
ATOM     14  C   UNL     1     237.128 229.623 233.552  1.00  0.00     0.004 C 
BRANCH  14  15
ATOM     15  C   UNL     1     236.271 228.566 234.288  1.00  0.00     0.008 C 
BRANCH  15  16
ATOM     16  C   UNL     1     236.474 227.135 233.758  1.00  0.00     0.075 C 
BRANCH  16  17
ATOM     17  C   UNL     1     237.792 226.549 234.193  1.00  0.00     0.129 C 
ATOM     18  O   UNL     1     238.479 225.935 233.391  1.00  0.00    -0.300 OA
ATOM     19  C   UNL     1     238.243 226.672 235.618  1.00  0.00     0.087 C 
ENDBRANCH  16  17
ENDBRANCH  15  16
ENDBRANCH  14  15
ENDBRANCH  12  14
ENDBRANCH  11  12
ENDBRANCH   1  11
TORSDOF 12
ENDMDL
MODEL 5
REMARK VINA RESULT:    -3.255      4.623      8.782
REMARK INTER + INTRA:          -7.393
REMARK INTER:                  -5.297
REMARK INTRA:                  -2.096
REMARK UNBOUND:                -1.854
REMARK SMILES CC(=O)CCC[C@@H](C)CCC[C@H](C)CCCC(C)C
REMARK SMILES IDX 10 1 11 2 12 3 13 4 14 5 15 6 16 7 17 8 18 9 19 10 9 11 7 12
REMARK SMILES IDX 8 13 6 14 5 15 4 16 2 17 3 18 1 19
REMARK H PARENT
REMARK Flexibility Score: inf
ROOT
ATOM      1  C   UNL     1     236.214 234.228 235.076  1.00  0.00     0.001 C 
ENDROOT
BRANCH   1   2
ATOM      2  C   UNL     1     235.584 232.844 234.835  1.00  0.00     0.003 C 
BRANCH   2   3
ATOM      3  C   UNL     1     234.599 232.773 233.641  1.00  0.00    -0.014 C 
ATOM      4  C   UNL     1     233.248 232.149 234.028  1.00  0.00     0.007 C 
BRANCH   3   5
ATOM      5  C   UNL     1     235.219 232.179 232.345  1.00  0.00     0.003 C 
BRANCH   5   6
ATOM      6  C   UNL     1     236.310 231.110 232.564  1.00  0.00     0.001 C 
BRANCH   6   7
ATOM      7  C   UNL     1     235.731 229.692 232.737  1.00  0.00     0.003 C 
BRANCH   7   8
ATOM      8  C   UNL     1     236.251 228.923 233.975  1.00  0.00    -0.017 C 
ATOM      9  C   UNL     1     237.606 229.459 234.462  1.00  0.00     0.007 C 
ATOM     10  C   UNL     1     236.371 227.429 233.645  1.00  0.00     0.007 C 
ENDBRANCH   7   8
ENDBRANCH   6   7
ENDBRANCH   5   6
ENDBRANCH   3   5
ENDBRANCH   2   3
ENDBRANCH   1   2
BRANCH   1  11
ATOM     11  C   UNL     1     235.304 235.376 234.605  1.00  0.00     0.003 C 
BRANCH  11  12
ATOM     12  C   UNL     1     235.904 236.187 233.417  1.00  0.00    -0.014 C 
ATOM     13  C   UNL     1     234.912 236.228 232.241  1.00  0.00     0.007 C 
BRANCH  12  14
ATOM     14  C   UNL     1     237.269 235.596 232.985  1.00  0.00     0.004 C 
BRANCH  14  15
ATOM     15  C   UNL     1     238.417 236.632 232.942  1.00  0.00     0.008 C 
BRANCH  15  16
ATOM     16  C   UNL     1     239.668 236.195 233.725  1.00  0.00     0.075 C 
BRANCH  16  17
ATOM     17  C   UNL     1     239.423 236.156 235.211  1.00  0.00     0.129 C 
ATOM     18  O   UNL     1     239.751 235.172 235.856  1.00  0.00    -0.300 OA
ATOM     19  C   UNL     1     238.733 237.297 235.896  1.00  0.00     0.087 C 
ENDBRANCH  16  17
ENDBRANCH  15  16
ENDBRANCH  14  15
ENDBRANCH  12  14
ENDBRANCH  11  12
ENDBRANCH   1  11
TORSDOF 12
ENDMDL
MODEL 6
REMARK VINA RESULT:    -3.220      5.884      8.339
REMARK INTER + INTRA:          -7.334
REMARK INTER:                  -4.576
REMARK INTRA:                  -2.758
REMARK UNBOUND:                -1.854
REMARK SMILES CC(=O)CCC[C@@H](C)CCC[C@H](C)CCCC(C)C
REMARK SMILES IDX 10 1 11 2 12 3 13 4 14 5 15 6 16 7 17 8 18 9 19 10 9 11 7 12
REMARK SMILES IDX 8 13 6 14 5 15 4 16 2 17 3 18 1 19
REMARK H PARENT
REMARK Flexibility Score: inf
ROOT
ATOM      1  C   UNL     1     230.150 238.741 235.786  1.00  0.00     0.001 C 
ENDROOT
BRANCH   1   2
ATOM      2  C   UNL     1     230.897 239.110 234.492  1.00  0.00     0.003 C 
BRANCH   2   3
ATOM      3  C   UNL     1     232.194 239.933 234.699  1.00  0.00    -0.014 C 
ATOM      4  C   UNL     1     232.920 239.570 236.004  1.00  0.00     0.007 C 
BRANCH   3   5
ATOM      5  C   UNL     1     232.014 241.462 234.482  1.00  0.00     0.003 C 
BRANCH   5   6
ATOM      6  C   UNL     1     230.722 241.878 233.749  1.00  0.00     0.001 C 
BRANCH   6   7
ATOM      7  C   UNL     1     229.926 242.959 234.506  1.00  0.00     0.003 C 
BRANCH   7   8
ATOM      8  C   UNL     1     228.734 243.560 233.722  1.00  0.00    -0.017 C 
ATOM      9  C   UNL     1     227.625 242.527 233.476  1.00  0.00     0.007 C 
ATOM     10  C   UNL     1     229.226 244.125 232.382  1.00  0.00     0.007 C 
ENDBRANCH   7   8
ENDBRANCH   6   7
ENDBRANCH   5   6
ENDBRANCH   3   5
ENDBRANCH   2   3
ENDBRANCH   1   2
BRANCH   1  11
ATOM     11  C   UNL     1     228.775 239.426 235.886  1.00  0.00     0.003 C 
BRANCH  11  12
ATOM     12  C   UNL     1     228.541 240.140 237.252  1.00  0.00    -0.014 C 
ATOM     13  C   UNL     1     227.847 241.496 237.036  1.00  0.00     0.007 C 
BRANCH  12  14
ATOM     14  C   UNL     1     229.878 240.303 238.018  1.00  0.00     0.004 C 
BRANCH  14  15
ATOM     15  C   UNL     1     230.444 241.742 237.994  1.00  0.00     0.008 C 
BRANCH  15  16
ATOM     16  C   UNL     1     231.707 241.919 238.856  1.00  0.00     0.075 C 
BRANCH  16  17
ATOM     17  C   UNL     1     232.787 242.681 238.132  1.00  0.00     0.129 C 
ATOM     18  O   UNL     1     233.960 242.394 238.315  1.00  0.00    -0.300 OA
ATOM     19  C   UNL     1     232.432 243.823 237.228  1.00  0.00     0.087 C 
ENDBRANCH  16  17
ENDBRANCH  15  16
ENDBRANCH  14  15
ENDBRANCH  12  14
ENDBRANCH  11  12
ENDBRANCH   1  11
TORSDOF 12
ENDMDL
MODEL 7
REMARK VINA RESULT:    -3.218      5.519      8.013
REMARK INTER + INTRA:          -7.330
REMARK INTER:                  -5.637
REMARK INTRA:                  -1.693
REMARK UNBOUND:                -1.854
REMARK SMILES CC(=O)CCC[C@@H](C)CCC[C@H](C)CCCC(C)C
REMARK SMILES IDX 10 1 11 2 12 3 13 4 14 5 15 6 16 7 17 8 18 9 19 10 9 11 7 12
REMARK SMILES IDX 8 13 6 14 5 15 4 16 2 17 3 18 1 19
REMARK H PARENT
REMARK Flexibility Score: inf
ROOT
ATOM      1  C   UNL     1     236.250 231.183 232.567  1.00  0.00     0.001 C 
ENDROOT
BRANCH   1   2
ATOM      2  C   UNL     1     235.847 232.544 233.163  1.00  0.00     0.003 C 
BRANCH   2   3
ATOM      3  C   UNL     1     234.369 232.647 233.617  1.00  0.00    -0.014 C 
ATOM      4  C   UNL     1     234.176 232.255 235.091  1.00  0.00     0.007 C 
BRANCH   3   5
ATOM      5  C   UNL     1     233.361 231.967 232.647  1.00  0.00     0.003 C 
BRANCH   5   6
ATOM      6  C   UNL     1     232.373 232.922 231.945  1.00  0.00     0.001 C 
BRANCH   6   7
ATOM      7  C   UNL     1     230.900 232.564 232.218  1.00  0.00     0.003 C 
BRANCH   7   8
ATOM      8  C   UNL     1     230.605 232.068 233.654  1.00  0.00    -0.017 C 
ATOM      9  C   UNL     1     229.248 231.354 233.751  1.00  0.00     0.007 C 
ATOM     10  C   UNL     1     230.642 233.251 234.630  1.00  0.00     0.007 C 
ENDBRANCH   7   8
ENDBRANCH   6   7
ENDBRANCH   5   6
ENDBRANCH   3   5
ENDBRANCH   2   3
ENDBRANCH   1   2
BRANCH   1  11
ATOM     11  C   UNL     1     236.884 230.250 233.613  1.00  0.00     0.003 C 
BRANCH  11  12
ATOM     12  C   UNL     1     235.939 229.093 234.058  1.00  0.00    -0.014 C 
ATOM     13  C   UNL     1     235.951 228.952 235.591  1.00  0.00     0.007 C 
BRANCH  12  14
ATOM     14  C   UNL     1     236.334 227.766 233.364  1.00  0.00     0.004 C 
BRANCH  14  15
ATOM     15  C   UNL     1     237.064 226.765 234.290  1.00  0.00     0.008 C 
BRANCH  15  16
ATOM     16  C   UNL     1     238.537 226.535 233.906  1.00  0.00     0.075 C 
BRANCH  16  17
ATOM     17  C   UNL     1     239.483 226.972 234.995  1.00  0.00     0.129 C 
ATOM     18  O   UNL     1     240.067 226.134 235.666  1.00  0.00    -0.300 OA
ATOM     19  C   UNL     1     239.674 228.429 235.293  1.00  0.00     0.087 C 
ENDBRANCH  16  17
ENDBRANCH  15  16
ENDBRANCH  14  15
ENDBRANCH  12  14
ENDBRANCH  11  12
ENDBRANCH   1  11
TORSDOF 12
ENDMDL
MODEL 8
REMARK VINA RESULT:    -3.213      3.777      6.131
REMARK INTER + INTRA:          -7.321
REMARK INTER:                  -5.019
REMARK INTRA:                  -2.302
REMARK UNBOUND:                -1.854
REMARK SMILES CC(=O)CCC[C@@H](C)CCC[C@H](C)CCCC(C)C
REMARK SMILES IDX 10 1 11 2 12 3 13 4 14 5 15 6 16 7 17 8 18 9 19 10 9 11 7 12
REMARK SMILES IDX 8 13 6 14 5 15 4 16 2 17 3 18 1 19
REMARK H PARENT
REMARK Flexibility Score: inf
ROOT
ATOM      1  C   UNL     1     234.703 233.328 235.074  1.00  0.00     0.001 C 
ENDROOT
BRANCH   1   2
ATOM      2  C   UNL     1     233.490 232.623 234.441  1.00  0.00     0.003 C 
BRANCH   2   3
ATOM      3  C   UNL     1     232.358 233.570 233.968  1.00  0.00    -0.014 C 
ATOM      4  C   UNL     1     230.984 233.172 234.533  1.00  0.00     0.007 C 
BRANCH   3   5
ATOM      5  C   UNL     1     232.356 233.838 232.437  1.00  0.00     0.003 C 
BRANCH   5   6
ATOM      6  C   UNL     1     232.938 235.200 232.004  1.00  0.00     0.001 C 
BRANCH   6   7
ATOM      7  C   UNL     1     232.146 236.395 232.566  1.00  0.00     0.003 C 
BRANCH   7   8
ATOM      8  C   UNL     1     233.005 237.472 233.274  1.00  0.00    -0.017 C 
ATOM      9  C   UNL     1     234.029 236.852 234.237  1.00  0.00     0.007 C 
ATOM     10  C   UNL     1     232.094 238.443 234.038  1.00  0.00     0.007 C 
ENDBRANCH   7   8
ENDBRANCH   6   7
ENDBRANCH   5   6
ENDBRANCH   3   5
ENDBRANCH   2   3
ENDBRANCH   1   2
BRANCH   1  11
ATOM     11  C   UNL     1     236.016 233.012 234.335  1.00  0.00     0.003 C 
BRANCH  11  12
ATOM     12  C   UNL     1     235.796 232.545 232.864  1.00  0.00    -0.014 C 
ATOM     13  C   UNL     1     236.272 231.092 232.686  1.00  0.00     0.007 C 
BRANCH  12  14
ATOM     14  C   UNL     1     236.510 233.500 231.876  1.00  0.00     0.004 C 
BRANCH  14  15
ATOM     15  C   UNL     1     236.595 234.964 232.367  1.00  0.00     0.008 C 
BRANCH  15  16
ATOM     16  C   UNL     1     237.930 235.650 232.026  1.00  0.00     0.075 C 
BRANCH  16  17
ATOM     17  C   UNL     1     238.703 236.036 233.260  1.00  0.00     0.129 C 
ATOM     18  O   UNL     1     239.908 236.223 233.190  1.00  0.00    -0.300 OA
ATOM     19  C   UNL     1     238.009 236.143 234.586  1.00  0.00     0.087 C 
ENDBRANCH  16  17
ENDBRANCH  15  16
ENDBRANCH  14  15
ENDBRANCH  12  14
ENDBRANCH  11  12
ENDBRANCH   1  11
TORSDOF 12
ENDMDL
MODEL 9
REMARK VINA RESULT:    -3.165      6.657      9.497
REMARK INTER + INTRA:          -7.239
REMARK INTER:                  -4.612
REMARK INTRA:                  -2.628
REMARK UNBOUND:                -1.854
REMARK SMILES CC(=O)CCC[C@@H](C)CCC[C@H](C)CCCC(C)C
REMARK SMILES IDX 10 1 11 2 12 3 13 4 14 5 15 6 16 7 17 8 18 9 19 10 9 11 7 12
REMARK SMILES IDX 8 13 6 14 5 15 4 16 2 17 3 18 1 19
REMARK H PARENT
REMARK Flexibility Score: inf
ROOT
ATOM      1  C   UNL     1     236.337 226.983 236.486  1.00  0.00     0.001 C 
ENDROOT
BRANCH   1   2
ATOM      2  C   UNL     1     237.793 226.521 236.299  1.00  0.00     0.003 C 
BRANCH   2   3
ATOM      3  C   UNL     1     238.443 226.938 234.955  1.00  0.00    -0.014 C 
ATOM      4  C   UNL     1     238.495 225.782 233.943  1.00  0.00     0.007 C 
BRANCH   3   5
ATOM      5  C   UNL     1     239.791 227.697 235.114  1.00  0.00     0.003 C 
BRANCH   5   6
ATOM      6  C   UNL     1     239.981 228.432 236.457  1.00  0.00     0.001 C 
BRANCH   6   7
ATOM      7  C   UNL     1     239.496 229.894 236.412  1.00  0.00     0.003 C 
BRANCH   7   8
ATOM      8  C   UNL     1     239.095 230.490 237.783  1.00  0.00    -0.017 C 
ATOM      9  C   UNL     1     238.257 229.509 238.617  1.00  0.00     0.007 C 
ATOM     10  C   UNL     1     238.314 231.794 237.573  1.00  0.00     0.007 C 
ENDBRANCH   7   8
ENDBRANCH   6   7
ENDBRANCH   5   6
ENDBRANCH   3   5
ENDBRANCH   2   3
ENDBRANCH   1   2
BRANCH   1  11
ATOM     11  C   UNL     1     235.896 227.986 235.404  1.00  0.00     0.003 C 
BRANCH  11  12
ATOM     12  C   UNL     1     235.843 229.457 235.916  1.00  0.00    -0.014 C 
ATOM     13  C   UNL     1     234.476 229.751 236.559  1.00  0.00     0.007 C 
BRANCH  12  14
ATOM     14  C   UNL     1     236.152 230.447 234.765  1.00  0.00     0.004 C 
BRANCH  14  15
ATOM     15  C   UNL     1     236.557 229.763 233.439  1.00  0.00     0.008 C 
BRANCH  15  16
ATOM     16  C   UNL     1     235.501 229.902 232.328  1.00  0.00     0.075 C 
BRANCH  16  17
ATOM     17  C   UNL     1     235.084 231.335 232.117  1.00  0.00     0.129 C 
ATOM     18  O   UNL     1     235.927 232.185 231.876  1.00  0.00    -0.300 OA
ATOM     19  C   UNL     1     233.644 231.733 232.251  1.00  0.00     0.087 C 
ENDBRANCH  16  17
ENDBRANCH  15  16
ENDBRANCH  14  15
ENDBRANCH  12  14
ENDBRANCH  11  12
ENDBRANCH   1  11
TORSDOF 12
ENDMDL
