MODEL 1
REMARK VINA RESULT:    -6.211      0.000      0.000
REMARK INTER + INTRA:          -6.211
REMARK INTER:                  -6.211
REMARK INTRA:                   0.000
REMARK UNBOUND:                 0.000
REMARK SMILES CC1=CC(=O)[C@H]2C[C@@H]1C2(C)C
REMARK SMILES IDX 1 1 2 2 3 3 4 4 5 5 6 6 7 7 8 8 9 9 10 10 11 11
REMARK H PARENT
REMARK Flexibility Score: inf
ROOT
ATOM      1  C   UNL     1      71.300  64.459  27.359  1.00  0.00     0.040 C 
ATOM      2  C   UNL     1      71.121  62.979  27.235  1.00  0.00    -0.066 C 
ATOM      3  C   UNL     1      71.047  62.372  26.017  1.00  0.00     0.047 C 
ATOM      4  C   UNL     1      70.835  60.889  26.026  1.00  0.00     0.159 C 
ATOM      5  O   UNL     1      70.711  60.221  24.967  1.00  0.00    -0.295 OA
ATOM      6  C   UNL     1      70.777  60.244  27.412  1.00  0.00     0.067 C 
ATOM      7  C   UNL     1      71.965  60.875  28.171  1.00  0.00     0.021 C 
ATOM      8  C   UNL     1      71.027  62.065  28.475  1.00  0.00     0.022 C 
ATOM      9  C   UNL     1      69.828  61.087  28.311  1.00  0.00    -0.019 C 
ATOM     10  C   UNL     1      69.471  60.362  29.633  1.00  0.00     0.012 C 
ATOM     11  C   UNL     1      68.514  61.635  27.685  1.00  0.00     0.012 C 
ENDROOT
TORSDOF 0
ENDMDL
MODEL 2
REMARK VINA RESULT:    -6.184      2.132      3.602
REMARK INTER + INTRA:          -6.184
REMARK INTER:                  -6.184
REMARK INTRA:                   0.000
REMARK UNBOUND:                 0.000
REMARK SMILES CC1=CC(=O)[C@H]2C[C@@H]1C2(C)C
REMARK SMILES IDX 1 1 2 2 3 3 4 4 5 5 6 6 7 7 8 8 9 9 10 10 11 11
REMARK H PARENT
REMARK Flexibility Score: inf
ROOT
ATOM      1  C   UNL     1      67.682  60.651  26.279  1.00  0.00     0.040 C 
ATOM      2  C   UNL     1      68.753  60.807  27.311  1.00  0.00    -0.066 C 
ATOM      3  C   UNL     1      68.454  61.113  28.605  1.00  0.00     0.047 C 
ATOM      4  C   UNL     1      69.616  61.274  29.536  1.00  0.00     0.159 C 
ATOM      5  O   UNL     1      69.471  61.594  30.744  1.00  0.00    -0.295 OA
ATOM      6  C   UNL     1      70.992  61.023  28.914  1.00  0.00     0.067 C 
ATOM      7  C   UNL     1      70.807  59.724  28.102  1.00  0.00     0.021 C 
ATOM      8  C   UNL     1      70.246  60.614  26.970  1.00  0.00     0.022 C 
ATOM      9  C   UNL     1      71.072  61.791  27.564  1.00  0.00    -0.019 C 
ATOM     10  C   UNL     1      72.515  61.844  27.001  1.00  0.00     0.012 C 
ATOM     11  C   UNL     1      70.467  63.222  27.492  1.00  0.00     0.012 C 
ENDROOT
TORSDOF 0
ENDMDL
MODEL 3
REMARK VINA RESULT:    -6.016      1.653      2.345
REMARK INTER + INTRA:          -6.016
REMARK INTER:                  -6.016
REMARK INTRA:                   0.000
REMARK UNBOUND:                 0.000
REMARK SMILES CC1=CC(=O)[C@H]2C[C@@H]1C2(C)C
REMARK SMILES IDX 1 1 2 2 3 3 4 4 5 5 6 6 7 7 8 8 9 9 10 10 11 11
REMARK H PARENT
REMARK Flexibility Score: inf
ROOT
ATOM      1  C   UNL     1      71.082  64.712  27.251  1.00  0.00     0.040 C 
ATOM      2  C   UNL     1      71.257  63.258  27.557  1.00  0.00    -0.066 C 
ATOM      3  C   UNL     1      72.493  62.719  27.756  1.00  0.00     0.047 C 
ATOM      4  C   UNL     1      72.539  61.246  28.024  1.00  0.00     0.159 C 
ATOM      5  O   UNL     1      73.621  60.626  28.186  1.00  0.00    -0.295 OA
ATOM      6  C   UNL     1      71.178  60.549  28.084  1.00  0.00     0.067 C 
ATOM      7  C   UNL     1      70.315  61.482  28.961  1.00  0.00     0.021 C 
ATOM      8  C   UNL     1      70.052  62.302  27.678  1.00  0.00     0.022 C 
ATOM      9  C   UNL     1      70.333  61.007  26.862  1.00  0.00    -0.019 C 
ATOM     10  C   UNL     1      69.061  60.143  26.669  1.00  0.00     0.012 C 
ATOM     11  C   UNL     1      71.042  61.146  25.484  1.00  0.00     0.012 C 
ENDROOT
TORSDOF 0
ENDMDL
MODEL 4
REMARK VINA RESULT:    -5.838      1.785      3.491
REMARK INTER + INTRA:          -5.838
REMARK INTER:                  -5.838
REMARK INTRA:                   0.000
REMARK UNBOUND:                 0.000
REMARK SMILES CC1=CC(=O)[C@H]2C[C@@H]1C2(C)C
REMARK SMILES IDX 1 1 2 2 3 3 4 4 5 5 6 6 7 7 8 8 9 9 10 10 11 11
REMARK H PARENT
REMARK Flexibility Score: inf
ROOT
ATOM      1  C   UNL     1      73.817  60.699  28.545  1.00  0.00     0.040 C 
ATOM      2  C   UNL     1      72.545  61.369  28.129  1.00  0.00    -0.066 C 
ATOM      3  C   UNL     1      71.397  61.218  28.847  1.00  0.00     0.047 C 
ATOM      4  C   UNL     1      70.183  61.913  28.311  1.00  0.00     0.159 C 
ATOM      5  O   UNL     1      69.056  61.820  28.862  1.00  0.00    -0.295 OA
ATOM      6  C   UNL     1      70.409  62.743  27.045  1.00  0.00     0.067 C 
ATOM      7  C   UNL     1      71.703  63.532  27.338  1.00  0.00     0.021 C 
ATOM      8  C   UNL     1      72.472  62.272  26.880  1.00  0.00     0.022 C 
ATOM      9  C   UNL     1      71.224  61.889  26.033  1.00  0.00    -0.019 C 
ATOM     10  C   UNL     1      71.254  62.521  24.619  1.00  0.00     0.012 C 
ATOM     11  C   UNL     1      70.871  60.381  25.887  1.00  0.00     0.012 C 
ENDROOT
TORSDOF 0
ENDMDL
MODEL 5
REMARK VINA RESULT:    -5.836      1.796      2.778
REMARK INTER + INTRA:          -5.836
REMARK INTER:                  -5.836
REMARK INTRA:                   0.000
REMARK UNBOUND:                 0.000
REMARK SMILES CC1=CC(=O)[C@H]2C[C@@H]1C2(C)C
REMARK SMILES IDX 1 1 2 2 3 3 4 4 5 5 6 6 7 7 8 8 9 9 10 10 11 11
REMARK H PARENT
REMARK Flexibility Score: inf
ROOT
ATOM      1  C   UNL     1      73.863  60.626  28.487  1.00  0.00     0.040 C 
ATOM      2  C   UNL     1      72.619  61.302  28.006  1.00  0.00    -0.066 C 
ATOM      3  C   UNL     1      72.590  62.642  27.759  1.00  0.00     0.047 C 
ATOM      4  C   UNL     1      71.276  63.206  27.311  1.00  0.00     0.159 C 
ATOM      5  O   UNL     1      71.113  64.434  27.090  1.00  0.00    -0.295 OA
ATOM      6  C   UNL     1      70.148  62.187  27.145  1.00  0.00     0.067 C 
ATOM      7  C   UNL     1      70.806  61.019  26.378  1.00  0.00     0.021 C 
ATOM      8  C   UNL     1      71.314  60.519  27.749  1.00  0.00     0.022 C 
ATOM      9  C   UNL     1      70.119  61.272  28.403  1.00  0.00    -0.019 C 
ATOM     10  C   UNL     1      68.838  60.402  28.469  1.00  0.00     0.012 C 
ATOM     11  C   UNL     1      70.336  61.927  29.797  1.00  0.00     0.012 C 
ENDROOT
TORSDOF 0
ENDMDL
MODEL 6
REMARK VINA RESULT:    -5.567      1.975      3.244
REMARK INTER + INTRA:          -5.567
REMARK INTER:                  -5.567
REMARK INTRA:                   0.000
REMARK UNBOUND:                 0.000
REMARK SMILES CC1=CC(=O)[C@H]2C[C@@H]1C2(C)C
REMARK SMILES IDX 1 1 2 2 3 3 4 4 5 5 6 6 7 7 8 8 9 9 10 10 11 11
REMARK H PARENT
REMARK Flexibility Score: inf
ROOT
ATOM      1  C   UNL     1      73.638  61.373  28.517  1.00  0.00     0.040 C 
ATOM      2  C   UNL     1      72.162  61.440  28.277  1.00  0.00    -0.066 C 
ATOM      3  C   UNL     1      71.285  61.645  29.300  1.00  0.00     0.047 C 
ATOM      4  C   UNL     1      69.833  61.660  28.935  1.00  0.00     0.159 C 
ATOM      5  O   UNL     1      68.925  61.801  29.795  1.00  0.00    -0.295 OA
ATOM      6  C   UNL     1      69.530  61.489  27.445  1.00  0.00     0.067 C 
ATOM      7  C   UNL     1      70.526  62.439  26.747  1.00  0.00     0.021 C 
ATOM      8  C   UNL     1      71.562  61.297  26.863  1.00  0.00     0.022 C 
ATOM      9  C   UNL     1      70.369  60.298  26.903  1.00  0.00    -0.019 C 
ATOM     10  C   UNL     1      69.920  59.857  25.487  1.00  0.00     0.012 C 
ATOM     11  C   UNL     1      70.506  59.027  27.789  1.00  0.00     0.012 C 
ENDROOT
TORSDOF 0
ENDMDL
MODEL 7
REMARK VINA RESULT:    -5.468      1.540      3.003
REMARK INTER + INTRA:          -5.468
REMARK INTER:                  -5.468
REMARK INTRA:                   0.000
REMARK UNBOUND:                 0.000
REMARK SMILES CC1=CC(=O)[C@H]2C[C@@H]1C2(C)C
REMARK SMILES IDX 1 1 2 2 3 3 4 4 5 5 6 6 7 7 8 8 9 9 10 10 11 11
REMARK H PARENT
REMARK Flexibility Score: inf
ROOT
ATOM      1  C   UNL     1      70.251  59.488  25.126  1.00  0.00     0.040 C 
ATOM      2  C   UNL     1      70.233  60.599  26.127  1.00  0.00    -0.066 C 
ATOM      3  C   UNL     1      70.868  61.781  25.888  1.00  0.00     0.047 C 
ATOM      4  C   UNL     1      70.804  62.803  26.981  1.00  0.00     0.159 C 
ATOM      5  O   UNL     1      71.383  63.917  26.896  1.00  0.00    -0.295 OA
ATOM      6  C   UNL     1      69.987  62.397  28.210  1.00  0.00     0.067 C 
ATOM      7  C   UNL     1      68.695  61.792  27.620  1.00  0.00     0.021 C 
ATOM      8  C   UNL     1      69.484  60.472  27.470  1.00  0.00     0.022 C 
ATOM      9  C   UNL     1      70.405  60.958  28.627  1.00  0.00    -0.019 C 
ATOM     10  C   UNL     1      69.856  60.567  30.023  1.00  0.00     0.012 C 
ATOM     11  C   UNL     1      71.913  60.581  28.573  1.00  0.00     0.012 C 
ENDROOT
TORSDOF 0
ENDMDL
MODEL 8
REMARK VINA RESULT:    -5.457      1.152      2.578
REMARK INTER + INTRA:          -5.457
REMARK INTER:                  -5.457
REMARK INTRA:                   0.000
REMARK UNBOUND:                 0.000
REMARK SMILES CC1=CC(=O)[C@H]2C[C@@H]1C2(C)C
REMARK SMILES IDX 1 1 2 2 3 3 4 4 5 5 6 6 7 7 8 8 9 9 10 10 11 11
REMARK H PARENT
REMARK Flexibility Score: inf
ROOT
ATOM      1  C   UNL     1      67.978  61.726  28.250  1.00  0.00     0.040 C 
ATOM      2  C   UNL     1      69.232  61.568  27.451  1.00  0.00    -0.066 C 
ATOM      3  C   UNL     1      69.237  60.897  26.264  1.00  0.00     0.047 C 
ATOM      4  C   UNL     1      70.561  60.780  25.574  1.00  0.00     0.159 C 
ATOM      5  O   UNL     1      70.703  60.151  24.493  1.00  0.00    -0.295 OA
ATOM      6  C   UNL     1      71.729  61.475  26.276  1.00  0.00     0.067 C 
ATOM      7  C   UNL     1      71.165  62.858  26.667  1.00  0.00     0.021 C 
ATOM      8  C   UNL     1      70.575  62.167  27.917  1.00  0.00     0.022 C 
ATOM      9  C   UNL     1      71.696  61.096  27.784  1.00  0.00    -0.019 C 
ATOM     10  C   UNL     1      72.996  61.506  28.523  1.00  0.00     0.012 C 
ATOM     11  C   UNL     1      71.359  59.628  28.169  1.00  0.00     0.012 C 
ENDROOT
TORSDOF 0
ENDMDL
MODEL 9
REMARK VINA RESULT:    -5.363      1.644      2.992
REMARK INTER + INTRA:          -5.363
REMARK INTER:                  -5.363
REMARK INTRA:                   0.000
REMARK UNBOUND:                 0.000
REMARK SMILES CC1=CC(=O)[C@H]2C[C@@H]1C2(C)C
REMARK SMILES IDX 1 1 2 2 3 3 4 4 5 5 6 6 7 7 8 8 9 9 10 10 11 11
REMARK H PARENT
REMARK Flexibility Score: inf
ROOT
ATOM      1  C   UNL     1      69.504  60.680  30.483  1.00  0.00     0.040 C 
ATOM      2  C   UNL     1      70.109  61.150  29.197  1.00  0.00    -0.066 C 
ATOM      3  C   UNL     1      70.267  62.477  28.931  1.00  0.00     0.047 C 
ATOM      4  C   UNL     1      70.855  62.821  27.597  1.00  0.00     0.159 C 
ATOM      5  O   UNL     1      71.015  64.010  27.220  1.00  0.00    -0.295 OA
ATOM      6  C   UNL     1      71.245  61.625  26.726  1.00  0.00     0.067 C 
ATOM      7  C   UNL     1      71.989  60.680  27.694  1.00  0.00     0.021 C 
ATOM      8  C   UNL     1      70.597  60.160  28.118  1.00  0.00     0.022 C 
ATOM      9  C   UNL     1      70.068  60.609  26.725  1.00  0.00    -0.019 C 
ATOM     10  C   UNL     1      70.240  59.510  25.646  1.00  0.00     0.012 C 
ATOM     11  C   UNL     1      68.617  61.160  26.633  1.00  0.00     0.012 C 
ENDROOT
TORSDOF 0
ENDMDL
