MODEL 1
REMARK VINA RESULT:    -3.729      0.000      0.000
REMARK INTER + INTRA:          -8.237
REMARK INTER:                  -6.999
REMARK INTRA:                  -1.238
REMARK UNBOUND:                -1.238
REMARK SMILES CCCCCCCCC=CCCCCCCCC(=O)[O-]
REMARK SMILES IDX 10 1 9 2 11 3 12 4 13 5 14 6 15 7 16 8 17 9 18 10 19 11
REMARK SMILES IDX 20 12 8 13 7 14 6 15 5 16 4 17 3 18 2 19 1 20
REMARK H PARENT
REMARK Flexibility Score: inf
ROOT
ATOM      1  C   UNL     1     -10.422  -6.735  -7.499  1.00  0.00    -0.031 C 
ATOM      2  C   UNL     1     -10.460  -7.614  -8.512  1.00  0.00    -0.031 C 
ENDROOT
BRANCH   1   3
ATOM      3  C   UNL     1     -10.716  -7.151  -6.084  1.00  0.00     0.027 C 
BRANCH   3   4
ATOM      4  C   UNL     1     -11.125  -5.948  -5.228  1.00  0.00     0.004 C 
BRANCH   4   5
ATOM      5  C   UNL     1      -9.995  -4.912  -5.160  1.00  0.00     0.000 C 
BRANCH   5   6
ATOM      6  C   UNL     1     -10.559  -3.483  -5.165  1.00  0.00     0.000 C 
BRANCH   6   7
ATOM      7  C   UNL     1     -11.048  -3.033  -3.779  1.00  0.00     0.000 C 
BRANCH   7   8
ATOM      8  C   UNL     1     -10.996  -4.164  -2.736  1.00  0.00     0.006 C 
BRANCH   8   9
ATOM      9  C   UNL     1     -10.332  -3.714  -1.429  1.00  0.00     0.053 C 
BRANCH   9  10
ATOM     10  C   UNL     1      -8.837  -3.762  -1.518  1.00  0.00     0.041 C 
ATOM     11  O   UNL     1      -8.218  -4.823  -1.240  1.00  0.00    -0.550 OA
ATOM     12  O   UNL     1      -8.129  -2.643  -1.938  1.00  0.00    -0.550 OA
ENDBRANCH   9  10
ENDBRANCH   8   9
ENDBRANCH   7   8
ENDBRANCH   6   7
ENDBRANCH   5   6
ENDBRANCH   4   5
ENDBRANCH   3   4
ENDBRANCH   1   3
BRANCH   2  13
ATOM     13  C   UNL     1     -10.147  -7.200  -9.924  1.00  0.00     0.027 C 
BRANCH  13  14
ATOM     14  C   UNL     1      -9.331  -5.899  -9.949  1.00  0.00     0.004 C 
BRANCH  14  15
ATOM     15  C   UNL     1      -7.812  -6.147  -9.983  1.00  0.00     0.000 C 
BRANCH  15  16
ATOM     16  C   UNL     1      -6.994  -5.304  -8.987  1.00  0.00     0.000 C 
BRANCH  16  17
ATOM     17  C   UNL     1      -7.292  -5.650  -7.522  1.00  0.00    -0.000 C 
BRANCH  17  18
ATOM     18  C   UNL     1      -6.028  -5.534  -6.661  1.00  0.00    -0.000 C 
BRANCH  18  19
ATOM     19  C   UNL     1      -6.076  -6.507  -5.478  1.00  0.00    -0.003 C 
ATOM     20  C   UNL     1      -7.349  -7.349  -5.507  1.00  0.00     0.004 C 
ENDBRANCH  18  19
ENDBRANCH  17  18
ENDBRANCH  16  17
ENDBRANCH  15  16
ENDBRANCH  14  15
ENDBRANCH  13  14
ENDBRANCH   2  13
TORSDOF 15
ENDMDL
MODEL 2
REMARK VINA RESULT:    -3.652      2.506      5.879
REMARK INTER + INTRA:          -8.093
REMARK INTER:                  -6.631
REMARK INTRA:                  -1.462
REMARK UNBOUND:                -1.238
REMARK SMILES CCCCCCCCC=CCCCCCCCC(=O)[O-]
REMARK SMILES IDX 10 1 9 2 11 3 12 4 13 5 14 6 15 7 16 8 17 9 18 10 19 11
REMARK SMILES IDX 20 12 8 13 7 14 6 15 5 16 4 17 3 18 2 19 1 20
REMARK H PARENT
REMARK Flexibility Score: inf
ROOT
ATOM      1  C   UNL     1     -10.259  -5.248  -8.694  1.00  0.00    -0.031 C 
ATOM      2  C   UNL     1     -10.417  -4.198  -7.874  1.00  0.00    -0.031 C 
ENDROOT
BRANCH   1   3
ATOM      3  C   UNL     1      -9.751  -5.081 -10.099  1.00  0.00     0.027 C 
BRANCH   3   4
ATOM      4  C   UNL     1      -8.221  -4.982 -10.125  1.00  0.00     0.004 C 
BRANCH   4   5
ATOM      5  C   UNL     1      -7.587  -6.012  -9.182  1.00  0.00     0.000 C 
BRANCH   5   6
ATOM      6  C   UNL     1      -6.698  -5.325  -8.135  1.00  0.00     0.000 C 
BRANCH   6   7
ATOM      7  C   UNL     1      -6.766  -6.006  -6.759  1.00  0.00     0.000 C 
BRANCH   7   8
ATOM      8  C   UNL     1      -5.789  -5.389  -5.743  1.00  0.00     0.006 C 
BRANCH   8   9
ATOM      9  C   UNL     1      -4.332  -5.764  -6.040  1.00  0.00     0.053 C 
BRANCH   9  10
ATOM     10  C   UNL     1      -3.388  -4.658  -5.678  1.00  0.00     0.041 C 
ATOM     11  O   UNL     1      -3.786  -3.463  -5.665  1.00  0.00    -0.550 OA
ATOM     12  O   UNL     1      -2.076  -4.950  -5.327  1.00  0.00    -0.550 OA
ENDBRANCH   9  10
ENDBRANCH   8   9
ENDBRANCH   7   8
ENDBRANCH   6   7
ENDBRANCH   5   6
ENDBRANCH   4   5
ENDBRANCH   3   4
ENDBRANCH   1   3
BRANCH   2  13
ATOM     13  C   UNL     1     -10.907  -4.368  -6.463  1.00  0.00     0.027 C 
BRANCH  13  14
ATOM     14  C   UNL     1     -10.609  -5.782  -5.943  1.00  0.00     0.004 C 
BRANCH  14  15
ATOM     15  C   UNL     1     -10.918  -5.946  -4.444  1.00  0.00     0.000 C 
BRANCH  15  16
ATOM     16  C   UNL     1     -10.808  -4.655  -3.613  1.00  0.00     0.000 C 
BRANCH  16  17
ATOM     17  C   UNL     1      -9.373  -4.355  -3.156  1.00  0.00    -0.000 C 
BRANCH  17  18
ATOM     18  C   UNL     1      -9.357  -3.773  -1.738  1.00  0.00    -0.000 C 
BRANCH  18  19
ATOM     19  C   UNL     1     -10.776  -3.445  -1.261  1.00  0.00    -0.003 C 
ATOM     20  C   UNL     1     -10.985  -3.878   0.188  1.00  0.00     0.004 C 
ENDBRANCH  18  19
ENDBRANCH  17  18
ENDBRANCH  16  17
ENDBRANCH  15  16
ENDBRANCH  14  15
ENDBRANCH  13  14
ENDBRANCH   2  13
TORSDOF 15
ENDMDL
MODEL 3
REMARK VINA RESULT:    -3.339      1.285      3.328
REMARK INTER + INTRA:          -7.505
REMARK INTER:                  -5.773
REMARK INTRA:                  -1.732
REMARK UNBOUND:                -1.238
REMARK SMILES CCCCCCCCC=CCCCCCCCC(=O)[O-]
REMARK SMILES IDX 10 1 9 2 11 3 12 4 13 5 14 6 15 7 16 8 17 9 18 10 19 11
REMARK SMILES IDX 20 12 8 13 7 14 6 15 5 16 4 17 3 18 2 19 1 20
REMARK H PARENT
REMARK Flexibility Score: inf
ROOT
ATOM      1  C   UNL     1      -7.492  -6.265  -6.901  1.00  0.00    -0.031 C 
ATOM      2  C   UNL     1      -6.993  -5.405  -7.801  1.00  0.00    -0.031 C 
ENDROOT
BRANCH   1   3
ATOM      3  C   UNL     1      -7.150  -6.163  -5.440  1.00  0.00     0.027 C 
BRANCH   3   4
ATOM      4  C   UNL     1      -8.403  -5.893  -4.598  1.00  0.00     0.004 C 
BRANCH   4   5
ATOM      5  C   UNL     1      -9.636  -6.563  -5.217  1.00  0.00     0.000 C 
BRANCH   5   6
ATOM      6  C   UNL     1     -10.878  -5.670  -5.071  1.00  0.00     0.000 C 
BRANCH   6   7
ATOM      7  C   UNL     1     -11.125  -5.232  -3.619  1.00  0.00     0.000 C 
BRANCH   7   8
ATOM      8  C   UNL     1     -10.768  -3.755  -3.376  1.00  0.00     0.006 C 
BRANCH   8   9
ATOM      9  C   UNL     1     -10.565  -3.445  -1.888  1.00  0.00     0.053 C 
BRANCH   9  10
ATOM     10  C   UNL     1      -9.122  -3.204  -1.562  1.00  0.00     0.041 C 
ATOM     11  O   UNL     1      -8.316  -4.170  -1.500  1.00  0.00    -0.550 OA
ATOM     12  O   UNL     1      -8.662  -1.910  -1.356  1.00  0.00    -0.550 OA
ENDBRANCH   9  10
ENDBRANCH   8   9
ENDBRANCH   7   8
ENDBRANCH   6   7
ENDBRANCH   5   6
ENDBRANCH   4   5
ENDBRANCH   3   4
ENDBRANCH   1   3
BRANCH   2  13
ATOM     13  C   UNL     1      -7.350  -5.497  -9.259  1.00  0.00     0.027 C 
BRANCH  13  14
ATOM     14  C   UNL     1      -8.371  -4.416  -9.645  1.00  0.00     0.004 C 
BRANCH  14  15
ATOM     15  C   UNL     1      -9.528  -4.299  -8.637  1.00  0.00     0.000 C 
BRANCH  15  16
ATOM     16  C   UNL     1     -10.506  -5.487  -8.629  1.00  0.00     0.000 C 
BRANCH  16  17
ATOM     17  C   UNL     1     -10.946  -5.912 -10.037  1.00  0.00    -0.000 C 
BRANCH  17  18
ATOM     18  C   UNL     1     -11.119  -7.433 -10.125  1.00  0.00    -0.000 C 
BRANCH  18  19
ATOM     19  C   UNL     1     -10.090  -8.156  -9.250  1.00  0.00    -0.003 C 
ATOM     20  C   UNL     1      -9.316  -9.197 -10.054  1.00  0.00     0.004 C 
ENDBRANCH  18  19
ENDBRANCH  17  18
ENDBRANCH  16  17
ENDBRANCH  15  16
ENDBRANCH  14  15
ENDBRANCH  13  14
ENDBRANCH   2  13
TORSDOF 15
ENDMDL
MODEL 4
REMARK VINA RESULT:    -3.330      1.771      5.575
REMARK INTER + INTRA:          -7.489
REMARK INTER:                  -6.177
REMARK INTRA:                  -1.311
REMARK UNBOUND:                -1.238
REMARK SMILES CCCCCCCCC=CCCCCCCCC(=O)[O-]
REMARK SMILES IDX 10 1 9 2 11 3 12 4 13 5 14 6 15 7 16 8 17 9 18 10 19 11
REMARK SMILES IDX 20 12 8 13 7 14 6 15 5 16 4 17 3 18 2 19 1 20
REMARK H PARENT
REMARK Flexibility Score: inf
ROOT
ATOM      1  C   UNL     1     -10.267  -5.361  -7.719  1.00  0.00    -0.031 C 
ATOM      2  C   UNL     1     -11.042  -6.142  -6.951  1.00  0.00    -0.031 C 
ENDROOT
BRANCH   1   3
ATOM      3  C   UNL     1     -10.791  -4.723  -8.975  1.00  0.00     0.027 C 
BRANCH   3   4
ATOM      4  C   UNL     1      -9.787  -4.859 -10.125  1.00  0.00     0.004 C 
BRANCH   4   5
ATOM      5  C   UNL     1      -8.735  -5.931  -9.812  1.00  0.00     0.000 C 
BRANCH   5   6
ATOM      6  C   UNL     1      -7.315  -5.352  -9.904  1.00  0.00     0.000 C 
BRANCH   6   7
ATOM      7  C   UNL     1      -6.658  -5.171  -8.527  1.00  0.00     0.000 C 
BRANCH   7   8
ATOM      8  C   UNL     1      -7.216  -6.142  -7.471  1.00  0.00     0.006 C 
BRANCH   8   9
ATOM      9  C   UNL     1      -6.574  -5.932  -6.095  1.00  0.00     0.053 C 
BRANCH   9  10
ATOM     10  C   UNL     1      -6.920  -7.038  -5.144  1.00  0.00     0.041 C 
ATOM     11  O   UNL     1      -6.930  -6.827  -3.903  1.00  0.00    -0.550 OA
ATOM     12  O   UNL     1      -7.261  -8.293  -5.632  1.00  0.00    -0.550 OA
ENDBRANCH   9  10
ENDBRANCH   8   9
ENDBRANCH   7   8
ENDBRANCH   6   7
ENDBRANCH   5   6
ENDBRANCH   4   5
ENDBRANCH   3   4
ENDBRANCH   1   3
BRANCH   2  13
ATOM     13  C   UNL     1     -10.522  -6.764  -5.685  1.00  0.00     0.027 C 
BRANCH  13  14
ATOM     14  C   UNL     1     -10.976  -5.967  -4.452  1.00  0.00     0.004 C 
BRANCH  14  15
ATOM     15  C   UNL     1     -10.132  -4.702  -4.213  1.00  0.00     0.000 C 
BRANCH  15  16
ATOM     16  C   UNL     1     -10.937  -3.445  -3.837  1.00  0.00     0.000 C 
BRANCH  16  17
ATOM     17  C   UNL     1     -10.786  -3.057  -2.359  1.00  0.00    -0.000 C 
BRANCH  17  18
ATOM     18  C   UNL     1     -10.142  -4.192  -1.554  1.00  0.00    -0.000 C 
BRANCH  18  19
ATOM     19  C   UNL     1      -8.646  -3.935  -1.339  1.00  0.00    -0.003 C 
ATOM     20  C   UNL     1      -8.298  -2.468  -1.577  1.00  0.00     0.004 C 
ENDBRANCH  18  19
ENDBRANCH  17  18
ENDBRANCH  16  17
ENDBRANCH  15  16
ENDBRANCH  14  15
ENDBRANCH  13  14
ENDBRANCH   2  13
TORSDOF 15
ENDMDL
MODEL 5
REMARK VINA RESULT:    -3.165      1.255      1.495
REMARK INTER + INTRA:          -7.179
REMARK INTER:                  -5.835
REMARK INTRA:                  -1.344
REMARK UNBOUND:                -1.238
REMARK SMILES CCCCCCCCC=CCCCCCCCC(=O)[O-]
REMARK SMILES IDX 10 1 9 2 11 3 12 4 13 5 14 6 15 7 16 8 17 9 18 10 19 11
REMARK SMILES IDX 20 12 8 13 7 14 6 15 5 16 4 17 3 18 2 19 1 20
REMARK H PARENT
REMARK Flexibility Score: inf
ROOT
ATOM      1  C   UNL     1     -10.468  -6.445  -6.583  1.00  0.00    -0.031 C 
ATOM      2  C   UNL     1     -11.043  -6.658  -7.777  1.00  0.00    -0.031 C 
ENDROOT
BRANCH   1   3
ATOM      3  C   UNL     1     -10.978  -7.109  -5.334  1.00  0.00     0.027 C 
BRANCH   3   4
ATOM      4  C   UNL     1     -11.114  -6.099  -4.189  1.00  0.00     0.004 C 
BRANCH   4   5
ATOM      5  C   UNL     1     -10.130  -4.935  -4.362  1.00  0.00     0.000 C 
BRANCH   5   6
ATOM      6  C   UNL     1     -10.764  -3.608  -3.919  1.00  0.00     0.000 C 
BRANCH   6   7
ATOM      7  C   UNL     1     -10.972  -3.530  -2.398  1.00  0.00     0.000 C 
BRANCH   7   8
ATOM      8  C   UNL     1      -9.732  -3.979  -1.606  1.00  0.00     0.006 C 
BRANCH   8   9
ATOM      9  C   UNL     1      -8.447  -3.317  -2.118  1.00  0.00     0.053 C 
BRANCH   9  10
ATOM     10  C   UNL     1      -8.279  -1.931  -1.573  1.00  0.00     0.041 C 
ATOM     11  O   UNL     1      -9.169  -1.426  -0.839  1.00  0.00    -0.550 OA
ATOM     12  O   UNL     1      -7.126  -1.209  -1.851  1.00  0.00    -0.550 OA
ENDBRANCH   9  10
ENDBRANCH   8   9
ENDBRANCH   7   8
ENDBRANCH   6   7
ENDBRANCH   5   6
ENDBRANCH   4   5
ENDBRANCH   3   4
ENDBRANCH   1   3
BRANCH   2  13
ATOM     13  C   UNL     1     -10.520  -6.009  -9.029  1.00  0.00     0.027 C 
BRANCH  13  14
ATOM     14  C   UNL     1      -9.578  -4.844  -8.692  1.00  0.00     0.004 C 
BRANCH  14  15
ATOM     15  C   UNL     1      -8.445  -4.675  -9.721  1.00  0.00     0.000 C 
BRANCH  15  16
ATOM     16  C   UNL     1      -7.160  -5.463  -9.408  1.00  0.00     0.000 C 
BRANCH  16  17
ATOM     17  C   UNL     1      -7.164  -6.084  -8.003  1.00  0.00    -0.000 C 
BRANCH  17  18
ATOM     18  C   UNL     1      -6.278  -5.280  -7.044  1.00  0.00    -0.000 C 
BRANCH  18  19
ATOM     19  C   UNL     1      -5.855  -6.130  -5.841  1.00  0.00    -0.003 C 
ATOM     20  C   UNL     1      -7.038  -6.909  -5.273  1.00  0.00     0.004 C 
ENDBRANCH  18  19
ENDBRANCH  17  18
ENDBRANCH  16  17
ENDBRANCH  15  16
ENDBRANCH  14  15
ENDBRANCH  13  14
ENDBRANCH   2  13
TORSDOF 15
ENDMDL
MODEL 6
REMARK VINA RESULT:    -3.123      2.231      4.141
REMARK INTER + INTRA:          -7.100
REMARK INTER:                  -6.009
REMARK INTRA:                  -1.091
REMARK UNBOUND:                -1.238
REMARK SMILES CCCCCCCCC=CCCCCCCCC(=O)[O-]
REMARK SMILES IDX 10 1 9 2 11 3 12 4 13 5 14 6 15 7 16 8 17 9 18 10 19 11
REMARK SMILES IDX 20 12 8 13 7 14 6 15 5 16 4 17 3 18 2 19 1 20
REMARK H PARENT
REMARK Flexibility Score: inf
ROOT
ATOM      1  C   UNL     1      -7.859  -5.840  -7.880  1.00  0.00    -0.031 C 
ATOM      2  C   UNL     1      -8.352  -6.908  -7.234  1.00  0.00    -0.031 C 
ENDROOT
BRANCH   1   3
ATOM      3  C   UNL     1      -8.069  -5.647  -9.357  1.00  0.00     0.027 C 
BRANCH   3   4
ATOM      4  C   UNL     1      -8.695  -4.279  -9.651  1.00  0.00     0.004 C 
BRANCH   4   5
ATOM      5  C   UNL     1     -10.225  -4.371  -9.690  1.00  0.00     0.000 C 
BRANCH   5   6
ATOM      6  C   UNL     1     -10.848  -3.690  -8.462  1.00  0.00     0.000 C 
BRANCH   6   7
ATOM      7  C   UNL     1     -10.984  -4.641  -7.262  1.00  0.00     0.000 C 
BRANCH   7   8
ATOM      8  C   UNL     1     -11.018  -3.895  -5.916  1.00  0.00     0.006 C 
BRANCH   8   9
ATOM      9  C   UNL     1     -10.743  -4.828  -4.730  1.00  0.00     0.053 C 
BRANCH   9  10
ATOM     10  C   UNL     1      -9.927  -4.154  -3.669  1.00  0.00     0.041 C 
ATOM     11  O   UNL     1     -10.105  -2.934  -3.411  1.00  0.00    -0.550 OA
ATOM     12  O   UNL     1      -8.990  -4.881  -2.945  1.00  0.00    -0.550 OA
ENDBRANCH   9  10
ENDBRANCH   8   9
ENDBRANCH   7   8
ENDBRANCH   6   7
ENDBRANCH   5   6
ENDBRANCH   4   5
ENDBRANCH   3   4
ENDBRANCH   1   3
BRANCH   2  13
ATOM     13  C   UNL     1      -8.157  -7.091  -5.754  1.00  0.00     0.027 C 
BRANCH  13  14
ATOM     14  C   UNL     1      -6.665  -7.080  -5.389  1.00  0.00     0.004 C 
BRANCH  14  15
ATOM     15  C   UNL     1      -6.093  -5.658  -5.250  1.00  0.00     0.000 C 
BRANCH  15  16
ATOM     16  C   UNL     1      -4.941  -5.323  -6.215  1.00  0.00     0.000 C 
BRANCH  16  17
ATOM     17  C   UNL     1      -3.557  -5.636  -5.629  1.00  0.00    -0.000 C 
BRANCH  17  18
ATOM     18  C   UNL     1      -2.744  -4.353  -5.422  1.00  0.00    -0.000 C 
BRANCH  18  19
ATOM     19  C   UNL     1      -3.655  -3.121  -5.399  1.00  0.00    -0.003 C 
ATOM     20  C   UNL     1      -2.880  -1.854  -5.751  1.00  0.00     0.004 C 
ENDBRANCH  18  19
ENDBRANCH  17  18
ENDBRANCH  16  17
ENDBRANCH  15  16
ENDBRANCH  14  15
ENDBRANCH  13  14
ENDBRANCH   2  13
TORSDOF 15
ENDMDL
MODEL 7
REMARK VINA RESULT:    -2.845      1.436      3.429
REMARK INTER + INTRA:          -6.577
REMARK INTER:                  -4.375
REMARK INTRA:                  -2.202
REMARK UNBOUND:                -1.238
REMARK SMILES CCCCCCCCC=CCCCCCCCC(=O)[O-]
REMARK SMILES IDX 10 1 9 2 11 3 12 4 13 5 14 6 15 7 16 8 17 9 18 10 19 11
REMARK SMILES IDX 20 12 8 13 7 14 6 15 5 16 4 17 3 18 2 19 1 20
REMARK H PARENT
REMARK Flexibility Score: inf
ROOT
ATOM      1  C   UNL     1      -9.745  -6.525  -5.338  1.00  0.00    -0.031 C 
ATOM      2  C   UNL     1      -8.587  -6.017  -4.891  1.00  0.00    -0.031 C 
ENDROOT
BRANCH   1   3
ATOM      3  C   UNL     1     -11.035  -5.759  -5.233  1.00  0.00     0.027 C 
BRANCH   3   4
ATOM      4  C   UNL     1     -10.823  -4.275  -5.557  1.00  0.00     0.004 C 
BRANCH   4   5
ATOM      5  C   UNL     1     -10.943  -3.414  -4.294  1.00  0.00     0.000 C 
BRANCH   5   6
ATOM      6  C   UNL     1     -11.124  -4.291  -3.046  1.00  0.00     0.000 C 
BRANCH   6   7
ATOM      7  C   UNL     1     -10.209  -3.868  -1.886  1.00  0.00     0.000 C 
BRANCH   7   8
ATOM      8  C   UNL     1      -9.043  -2.976  -2.346  1.00  0.00     0.006 C 
BRANCH   8   9
ATOM      9  C   UNL     1      -8.200  -2.472  -1.168  1.00  0.00     0.053 C 
BRANCH   9  10
ATOM     10  C   UNL     1      -7.636  -1.108  -1.430  1.00  0.00     0.041 C 
ATOM     11  O   UNL     1      -6.730  -0.951  -2.289  1.00  0.00    -0.550 OA
ATOM     12  O   UNL     1      -8.134  -0.007  -0.745  1.00  0.00    -0.550 OA
ENDBRANCH   9  10
ENDBRANCH   8   9
ENDBRANCH   7   8
ENDBRANCH   6   7
ENDBRANCH   5   6
ENDBRANCH   4   5
ENDBRANCH   3   4
ENDBRANCH   1   3
BRANCH   2  13
ATOM     13  C   UNL     1      -7.295  -6.776  -5.013  1.00  0.00     0.027 C 
BRANCH  13  14
ATOM     14  C   UNL     1      -6.868  -6.903  -6.484  1.00  0.00     0.004 C 
BRANCH  14  15
ATOM     15  C   UNL     1      -6.573  -5.543  -7.141  1.00  0.00     0.000 C 
BRANCH  15  16
ATOM     16  C   UNL     1      -7.169  -5.358  -8.549  1.00  0.00     0.000 C 
BRANCH  16  17
ATOM     17  C   UNL     1      -8.425  -6.209  -8.785  1.00  0.00    -0.000 C 
BRANCH  17  18
ATOM     18  C   UNL     1      -9.683  -5.334  -8.820  1.00  0.00    -0.000 C 
BRANCH  18  19
ATOM     19  C   UNL     1     -10.895  -6.132  -9.315  1.00  0.00    -0.003 C 
ATOM     20  C   UNL     1     -10.978  -7.493  -8.628  1.00  0.00     0.004 C 
ENDBRANCH  18  19
ENDBRANCH  17  18
ENDBRANCH  16  17
ENDBRANCH  15  16
ENDBRANCH  14  15
ENDBRANCH  13  14
ENDBRANCH   2  13
TORSDOF 15
ENDMDL
