MODEL 1
REMARK VINA RESULT:    -5.168      0.000      0.000
REMARK INTER + INTRA:          -7.542
REMARK INTER:                  -6.980
REMARK INTRA:                  -0.561
REMARK UNBOUND:                -0.561
REMARK SMILES C=CC(C)=CCC=C(C)CCC=C(C)C
REMARK SMILES IDX 8 1 7 2 9 3 10 4 11 5 12 6 14 7 13 8 15 9 6 10 5 11 3 12
REMARK SMILES IDX 4 13 2 14 1 15
REMARK H PARENT
REMARK Flexibility Score: inf
ROOT
ATOM      1  C   UNL     1      20.090  63.490  15.173  1.00  0.00    -0.077 C 
ATOM      2  C   UNL     1      21.133  63.306  14.331  1.00  0.00    -0.024 C 
ATOM      3  C   UNL     1      20.274  63.541  16.671  1.00  0.00     0.039 C 
ENDROOT
BRANCH   1   4
ATOM      4  C   UNL     1      18.700  63.657  14.596  1.00  0.00     0.034 C 
BRANCH   4   5
ATOM      5  C   UNL     1      18.043  64.939  15.118  1.00  0.00     0.032 C 
BRANCH   5   6
ATOM      6  C   UNL     1      16.542  64.885  14.966  1.00  0.00    -0.028 C 
ATOM      7  C   UNL     1      14.215  64.775  15.755  1.00  0.00     0.039 C 
ATOM      8  C   UNL     1      15.697  64.825  16.018  1.00  0.00    -0.080 C 
ATOM      9  C   UNL     1      16.207  64.809  17.440  1.00  0.00     0.039 C 
ENDBRANCH   5   6
ENDBRANCH   4   5
ENDBRANCH   1   4
BRANCH   2  10
ATOM     10  C   UNL     1      22.568  63.143  14.768  1.00  0.00     0.055 C 
BRANCH  10  11
ATOM     11  C   UNL     1      23.379  62.380  13.754  1.00  0.00    -0.020 C 
ATOM     12  C   UNL     1      24.362  61.504  14.049  1.00  0.00    -0.055 C 
ATOM     13  C   UNL     1      24.736  61.168  15.475  1.00  0.00     0.044 C 
BRANCH  12  14
ATOM     14  C   UNL     1      25.024  60.801  12.919  1.00  0.00    -0.005 C 
ATOM     15  C   UNL     1      24.883  59.497  12.674  1.00  0.00     0.009 C 
ENDBRANCH  12  14
ENDBRANCH  10  11
ENDBRANCH   2  10
TORSDOF 6
ENDMDL
MODEL 2
REMARK VINA RESULT:    -4.982      1.789      7.941
REMARK INTER + INTRA:          -7.291
REMARK INTER:                  -6.335
REMARK INTRA:                  -0.956
REMARK UNBOUND:                -0.561
REMARK SMILES C=CC(C)=CCC=C(C)CCC=C(C)C
REMARK SMILES IDX 8 1 7 2 9 3 10 4 11 5 12 6 14 7 13 8 15 9 6 10 5 11 3 12
REMARK SMILES IDX 4 13 2 14 1 15
REMARK H PARENT
REMARK Flexibility Score: inf
ROOT
ATOM      1  C   UNL     1      20.003  63.898  17.058  1.00  0.00    -0.077 C 
ATOM      2  C   UNL     1      19.251  64.906  17.556  1.00  0.00    -0.024 C 
ATOM      3  C   UNL     1      19.996  63.549  15.588  1.00  0.00     0.039 C 
ENDROOT
BRANCH   1   4
ATOM      4  C   UNL     1      20.881  63.101  17.999  1.00  0.00     0.034 C 
BRANCH   4   5
ATOM      5  C   UNL     1      22.343  63.550  17.892  1.00  0.00     0.032 C 
BRANCH   5   6
ATOM      6  C   UNL     1      23.260  62.373  17.658  1.00  0.00    -0.028 C 
ATOM      7  C   UNL     1      24.773  60.938  16.355  1.00  0.00     0.039 C 
ATOM      8  C   UNL     1      23.877  62.142  16.480  1.00  0.00    -0.080 C 
ATOM      9  C   UNL     1      23.688  63.062  15.296  1.00  0.00     0.039 C 
ENDBRANCH   5   6
ENDBRANCH   4   5
ENDBRANCH   1   4
BRANCH   2  10
ATOM     10  C   UNL     1      18.346  65.789  16.731  1.00  0.00     0.055 C 
BRANCH  10  11
ATOM     11  C   UNL     1      16.892  65.474  16.965  1.00  0.00    -0.020 C 
ATOM     12  C   UNL     1      16.037  65.021  16.026  1.00  0.00    -0.055 C 
ATOM     13  C   UNL     1      16.477  64.747  14.605  1.00  0.00     0.044 C 
BRANCH  12  14
ATOM     14  C   UNL     1      14.645  64.715  16.448  1.00  0.00    -0.005 C 
ATOM     15  C   UNL     1      13.604  64.708  15.614  1.00  0.00     0.009 C 
ENDBRANCH  12  14
ENDBRANCH  10  11
ENDBRANCH   2  10
TORSDOF 6
ENDMDL
MODEL 3
REMARK VINA RESULT:    -4.971      0.997      7.897
REMARK INTER + INTRA:          -7.276
REMARK INTER:                  -6.535
REMARK INTRA:                  -0.741
REMARK UNBOUND:                -0.561
REMARK SMILES C=CC(C)=CCC=C(C)CCC=C(C)C
REMARK SMILES IDX 8 1 7 2 9 3 10 4 11 5 12 6 14 7 13 8 15 9 6 10 5 11 3 12
REMARK SMILES IDX 4 13 2 14 1 15
REMARK H PARENT
REMARK Flexibility Score: inf
ROOT
ATOM      1  C   UNL     1      19.985  63.734  15.317  1.00  0.00    -0.077 C 
ATOM      2  C   UNL     1      18.923  64.450  14.881  1.00  0.00    -0.024 C 
ATOM      3  C   UNL     1      20.410  63.738  16.767  1.00  0.00     0.039 C 
ENDROOT
BRANCH   1   4
ATOM      4  C   UNL     1      20.765  62.898  14.325  1.00  0.00     0.034 C 
BRANCH   4   5
ATOM      5  C   UNL     1      22.168  63.477  14.106  1.00  0.00     0.032 C 
BRANCH   5   6
ATOM      6  C   UNL     1      23.187  62.382  13.908  1.00  0.00    -0.028 C 
ATOM      7  C   UNL     1      24.962  60.825  14.595  1.00  0.00     0.039 C 
ATOM      8  C   UNL     1      23.979  61.923  14.901  1.00  0.00    -0.080 C 
ATOM      9  C   UNL     1      23.895  62.486  16.301  1.00  0.00     0.039 C 
ENDBRANCH   5   6
ENDBRANCH   4   5
ENDBRANCH   1   4
BRANCH   2  10
ATOM     10  C   UNL     1      18.050  65.309  15.762  1.00  0.00     0.055 C 
BRANCH  10  11
ATOM     11  C   UNL     1      16.597  64.928  15.653  1.00  0.00    -0.020 C 
ATOM     12  C   UNL     1      15.709  64.962  16.668  1.00  0.00    -0.055 C 
ATOM     13  C   UNL     1      16.092  65.430  18.054  1.00  0.00     0.044 C 
BRANCH  12  14
ATOM     14  C   UNL     1      14.300  64.598  16.366  1.00  0.00    -0.005 C 
ATOM     15  C   UNL     1      13.724  64.795  15.179  1.00  0.00     0.009 C 
ENDBRANCH  12  14
ENDBRANCH  10  11
ENDBRANCH   2  10
TORSDOF 6
ENDMDL
MODEL 4
REMARK VINA RESULT:    -4.969      2.719      3.857
REMARK INTER + INTRA:          -7.274
REMARK INTER:                  -6.061
REMARK INTRA:                  -1.212
REMARK UNBOUND:                -0.561
REMARK SMILES C=CC(C)=CCC=C(C)CCC=C(C)C
REMARK SMILES IDX 8 1 7 2 9 3 10 4 11 5 12 6 14 7 13 8 15 9 6 10 5 11 3 12
REMARK SMILES IDX 4 13 2 14 1 15
REMARK H PARENT
REMARK Flexibility Score: inf
ROOT
ATOM      1  C   UNL     1      23.052  63.100  17.663  1.00  0.00    -0.077 C 
ATOM      2  C   UNL     1      23.625  61.958  17.218  1.00  0.00    -0.024 C 
ATOM      3  C   UNL     1      23.773  64.427  17.613  1.00  0.00     0.039 C 
ENDROOT
BRANCH   1   4
ATOM      4  C   UNL     1      21.645  63.049  18.221  1.00  0.00     0.034 C 
BRANCH   4   5
ATOM      5  C   UNL     1      20.714  63.983  17.439  1.00  0.00     0.032 C 
BRANCH   5   6
ATOM      6  C   UNL     1      20.065  63.263  16.281  1.00  0.00    -0.028 C 
ATOM      7  C   UNL     1      19.691  62.716  13.913  1.00  0.00     0.039 C 
ATOM      8  C   UNL     1      20.400  63.490  14.992  1.00  0.00    -0.080 C 
ATOM      9  C   UNL     1      21.465  64.495  14.619  1.00  0.00     0.039 C 
ENDBRANCH   5   6
ENDBRANCH   4   5
ENDBRANCH   1   4
BRANCH   2  10
ATOM     10  C   UNL     1      25.009  61.869  16.625  1.00  0.00     0.055 C 
BRANCH  10  11
ATOM     11  C   UNL     1      25.118  60.750  15.623  1.00  0.00    -0.020 C 
ATOM     12  C   UNL     1      24.789  60.844  14.318  1.00  0.00    -0.055 C 
ATOM     13  C   UNL     1      24.291  62.135  13.707  1.00  0.00     0.044 C 
BRANCH  12  14
ATOM     14  C   UNL     1      25.009  59.650  13.462  1.00  0.00    -0.005 C 
ATOM     15  C   UNL     1      24.845  59.649  12.137  1.00  0.00     0.009 C 
ENDBRANCH  12  14
ENDBRANCH  10  11
ENDBRANCH   2  10
TORSDOF 6
ENDMDL
MODEL 5
REMARK VINA RESULT:    -4.938      1.106      1.946
REMARK INTER + INTRA:          -7.232
REMARK INTER:                  -6.683
REMARK INTRA:                  -0.549
REMARK UNBOUND:                -0.561
REMARK SMILES C=CC(C)=CCC=C(C)CCC=C(C)C
REMARK SMILES IDX 8 1 7 2 9 3 10 4 11 5 12 6 14 7 13 8 15 9 6 10 5 11 3 12
REMARK SMILES IDX 4 13 2 14 1 15
REMARK H PARENT
REMARK Flexibility Score: inf
ROOT
ATOM      1  C   UNL     1      20.086  64.091  14.190  1.00  0.00    -0.077 C 
ATOM      2  C   UNL     1      21.412  64.333  14.069  1.00  0.00    -0.024 C 
ATOM      3  C   UNL     1      19.489  62.740  13.877  1.00  0.00     0.039 C 
ENDROOT
BRANCH   1   4
ATOM      4  C   UNL     1      19.176  65.206  14.662  1.00  0.00     0.034 C 
BRANCH   4   5
ATOM      5  C   UNL     1      18.168  64.688  15.694  1.00  0.00     0.032 C 
BRANCH   5   6
ATOM      6  C   UNL     1      16.752  64.805  15.181  1.00  0.00    -0.028 C 
ATOM      7  C   UNL     1      14.310  65.013  15.379  1.00  0.00     0.039 C 
ATOM      8  C   UNL     1      15.679  64.900  15.995  1.00  0.00    -0.080 C 
ATOM      9  C   UNL     1      15.827  64.896  17.499  1.00  0.00     0.039 C 
ENDBRANCH   5   6
ENDBRANCH   4   5
ENDBRANCH   1   4
BRANCH   2  10
ATOM     10  C   UNL     1      22.431  63.311  13.627  1.00  0.00     0.055 C 
BRANCH  10  11
ATOM     11  C   UNL     1      23.177  62.724  14.796  1.00  0.00    -0.020 C 
ATOM     12  C   UNL     1      24.050  61.698  14.722  1.00  0.00    -0.055 C 
ATOM     13  C   UNL     1      24.400  61.037  13.407  1.00  0.00     0.044 C 
BRANCH  12  14
ATOM     14  C   UNL     1      24.734  61.280  15.973  1.00  0.00    -0.005 C 
ATOM     15  C   UNL     1      24.198  61.409  17.188  1.00  0.00     0.009 C 
ENDBRANCH  12  14
ENDBRANCH  10  11
ENDBRANCH   2  10
TORSDOF 6
ENDMDL
MODEL 6
REMARK VINA RESULT:    -4.832      2.037      6.039
REMARK INTER + INTRA:          -7.089
REMARK INTER:                  -5.112
REMARK INTRA:                  -1.976
REMARK UNBOUND:                -0.561
REMARK SMILES C=CC(C)=CCC=C(C)CCC=C(C)C
REMARK SMILES IDX 8 1 7 2 9 3 10 4 11 5 12 6 14 7 13 8 15 9 6 10 5 11 3 12
REMARK SMILES IDX 4 13 2 14 1 15
REMARK H PARENT
REMARK Flexibility Score: inf
ROOT
ATOM      1  C   UNL     1      22.292  63.338  14.368  1.00  0.00    -0.077 C 
ATOM      2  C   UNL     1      21.070  62.758  14.395  1.00  0.00    -0.024 C 
ATOM      3  C   UNL     1      22.589  64.529  13.487  1.00  0.00     0.039 C 
ENDROOT
BRANCH   1   4
ATOM      4  C   UNL     1      23.389  62.784  15.251  1.00  0.00     0.034 C 
BRANCH   4   5
ATOM      5  C   UNL     1      22.956  62.775  16.721  1.00  0.00     0.032 C 
BRANCH   5   6
ATOM      6  C   UNL     1      22.461  64.135  17.153  1.00  0.00    -0.028 C 
ATOM      7  C   UNL     1      20.865  65.729  18.131  1.00  0.00     0.039 C 
ATOM      8  C   UNL     1      21.261  64.330  17.738  1.00  0.00    -0.080 C 
ATOM      9  C   UNL     1      20.316  63.181  18.005  1.00  0.00     0.039 C 
ENDBRANCH   5   6
ENDBRANCH   4   5
ENDBRANCH   1   4
BRANCH   2  10
ATOM     10  C   UNL     1      19.885  63.217  13.582  1.00  0.00     0.055 C 
BRANCH  10  11
ATOM     11  C   UNL     1      18.723  63.608  14.458  1.00  0.00    -0.020 C 
ATOM     12  C   UNL     1      18.522  64.838  14.973  1.00  0.00    -0.055 C 
ATOM     13  C   UNL     1      19.458  65.991  14.688  1.00  0.00     0.044 C 
BRANCH  12  14
ATOM     14  C   UNL     1      17.291  65.058  15.777  1.00  0.00    -0.005 C 
ATOM     15  C   UNL     1      17.273  65.083  17.111  1.00  0.00     0.009 C 
ENDBRANCH  12  14
ENDBRANCH  10  11
ENDBRANCH   2  10
TORSDOF 6
ENDMDL
MODEL 7
REMARK VINA RESULT:    -4.818      2.718      4.027
REMARK INTER + INTRA:          -7.069
REMARK INTER:                  -6.009
REMARK INTRA:                  -1.060
REMARK UNBOUND:                -0.561
REMARK SMILES C=CC(C)=CCC=C(C)CCC=C(C)C
REMARK SMILES IDX 8 1 7 2 9 3 10 4 11 5 12 6 14 7 13 8 15 9 6 10 5 11 3 12
REMARK SMILES IDX 4 13 2 14 1 15
REMARK H PARENT
REMARK Flexibility Score: inf
ROOT
ATOM      1  C   UNL     1      19.566  64.161  15.500  1.00  0.00    -0.077 C 
ATOM      2  C   UNL     1      19.699  64.195  16.846  1.00  0.00    -0.024 C 
ATOM      3  C   UNL     1      19.910  62.929  14.696  1.00  0.00     0.039 C 
ENDROOT
BRANCH   1   4
ATOM      4  C   UNL     1      19.050  65.389  14.780  1.00  0.00     0.034 C 
BRANCH   4   5
ATOM      5  C   UNL     1      17.964  66.089  15.605  1.00  0.00     0.032 C 
BRANCH   5   6
ATOM      6  C   UNL     1      16.588  65.604  15.220  1.00  0.00    -0.028 C 
ATOM      7  C   UNL     1      14.377  64.601  15.612  1.00  0.00     0.039 C 
ATOM      8  C   UNL     1      15.728  65.051  16.102  1.00  0.00    -0.080 C 
ATOM      9  C   UNL     1      16.093  64.879  17.558  1.00  0.00     0.039 C 
ENDBRANCH   5   6
ENDBRANCH   4   5
ENDBRANCH   1   4
BRANCH   2  10
ATOM     10  C   UNL     1      20.183  63.041  17.689  1.00  0.00     0.055 C 
BRANCH  10  11
ATOM     11  C   UNL     1      21.224  63.475  18.687  1.00  0.00    -0.020 C 
ATOM     12  C   UNL     1      22.537  63.171  18.619  1.00  0.00    -0.055 C 
ATOM     13  C   UNL     1      23.115  62.364  17.478  1.00  0.00     0.044 C 
BRANCH  12  14
ATOM     14  C   UNL     1      23.431  63.729  19.667  1.00  0.00    -0.005 C 
ATOM     15  C   UNL     1      23.285  63.483  20.970  1.00  0.00     0.009 C 
ENDBRANCH  12  14
ENDBRANCH  10  11
ENDBRANCH   2  10
TORSDOF 6
ENDMDL
MODEL 8
REMARK VINA RESULT:    -4.808      2.301      6.817
REMARK INTER + INTRA:          -7.056
REMARK INTER:                  -5.810
REMARK INTRA:                  -1.246
REMARK UNBOUND:                -0.561
REMARK SMILES C=CC(C)=CCC=C(C)CCC=C(C)C
REMARK SMILES IDX 8 1 7 2 9 3 10 4 11 5 12 6 14 7 13 8 15 9 6 10 5 11 3 12
REMARK SMILES IDX 4 13 2 14 1 15
REMARK H PARENT
REMARK Flexibility Score: inf
ROOT
ATOM      1  C   UNL     1      20.926  64.181  17.236  1.00  0.00    -0.077 C 
ATOM      2  C   UNL     1      20.338  65.356  16.914  1.00  0.00    -0.024 C 
ATOM      3  C   UNL     1      20.193  63.106  18.003  1.00  0.00     0.039 C 
ENDROOT
BRANCH   1   4
ATOM      4  C   UNL     1      22.357  63.932  16.808  1.00  0.00     0.034 C 
BRANCH   4   5
ATOM      5  C   UNL     1      22.405  63.155  15.488  1.00  0.00     0.032 C 
BRANCH   5   6
ATOM      6  C   UNL     1      22.163  64.065  14.308  1.00  0.00    -0.028 C 
ATOM      7  C   UNL     1      20.888  64.993  12.421  1.00  0.00     0.039 C 
ATOM      8  C   UNL     1      21.027  64.040  13.579  1.00  0.00    -0.080 C 
ATOM      9  C   UNL     1      19.903  63.083  13.902  1.00  0.00     0.039 C 
ENDBRANCH   5   6
ENDBRANCH   4   5
ENDBRANCH   1   4
BRANCH   2  10
ATOM     10  C   UNL     1      18.917  65.727  17.262  1.00  0.00     0.055 C 
BRANCH  10  11
ATOM     11  C   UNL     1      17.976  65.470  16.115  1.00  0.00    -0.020 C 
ATOM     12  C   UNL     1      16.701  65.047  16.240  1.00  0.00    -0.055 C 
ATOM     13  C   UNL     1      16.063  64.809  17.590  1.00  0.00     0.044 C 
BRANCH  12  14
ATOM     14  C   UNL     1      15.898  64.894  14.998  1.00  0.00    -0.005 C 
ATOM     15  C   UNL     1      14.564  64.916  14.973  1.00  0.00     0.009 C 
ENDBRANCH  12  14
ENDBRANCH  10  11
ENDBRANCH   2  10
TORSDOF 6
ENDMDL
MODEL 9
REMARK VINA RESULT:    -4.762      1.928      3.490
REMARK INTER + INTRA:          -6.994
REMARK INTER:                  -5.755
REMARK INTRA:                  -1.239
REMARK UNBOUND:                -0.561
REMARK SMILES C=CC(C)=CCC=C(C)CCC=C(C)C
REMARK SMILES IDX 8 1 7 2 9 3 10 4 11 5 12 6 14 7 13 8 15 9 6 10 5 11 3 12
REMARK SMILES IDX 4 13 2 14 1 15
REMARK H PARENT
REMARK Flexibility Score: inf
ROOT
ATOM      1  C   UNL     1      19.995  64.046  14.430  1.00  0.00    -0.077 C 
ATOM      2  C   UNL     1      21.310  64.356  14.364  1.00  0.00    -0.024 C 
ATOM      3  C   UNL     1      19.455  62.741  13.894  1.00  0.00     0.039 C 
ENDROOT
BRANCH   1   4
ATOM      4  C   UNL     1      19.038  65.032  15.066  1.00  0.00     0.034 C 
BRANCH   4   5
ATOM      5  C   UNL     1      18.623  64.565  16.466  1.00  0.00     0.032 C 
BRANCH   5   6
ATOM      6  C   UNL     1      19.485  65.197  17.532  1.00  0.00    -0.028 C 
ATOM      7  C   UNL     1      21.235  65.245  19.259  1.00  0.00     0.039 C 
ATOM      8  C   UNL     1      20.429  64.516  18.216  1.00  0.00    -0.080 C 
ATOM      9  C   UNL     1      20.690  63.051  17.956  1.00  0.00     0.039 C 
ENDBRANCH   5   6
ENDBRANCH   4   5
ENDBRANCH   1   4
BRANCH   2  10
ATOM     10  C   UNL     1      22.373  63.461  13.773  1.00  0.00     0.055 C 
BRANCH  10  11
ATOM     11  C   UNL     1      23.144  62.729  14.840  1.00  0.00    -0.020 C 
ATOM     12  C   UNL     1      24.039  61.747  14.612  1.00  0.00    -0.055 C 
ATOM     13  C   UNL     1      24.391  61.291  13.213  1.00  0.00     0.044 C 
BRANCH  12  14
ATOM     14  C   UNL     1      24.746  61.169  15.784  1.00  0.00    -0.005 C 
ATOM     15  C   UNL     1      24.322  61.300  17.042  1.00  0.00     0.009 C 
ENDBRANCH  12  14
ENDBRANCH  10  11
ENDBRANCH   2  10
TORSDOF 6
ENDMDL
