MODEL 1
REMARK VINA RESULT:    -5.546      0.000      0.000
REMARK INTER + INTRA:          -6.330
REMARK INTER:                  -5.870
REMARK INTRA:                  -0.459
REMARK UNBOUND:                -0.459
REMARK SMILES CC1=CC[C@]23[C@@H]([C@@H](C(C)C)CC[C@H]2C)[C@@H]13
REMARK SMILES IDX 14 1 13 2 12 3 11 4 7 5 6 6 5 7 15 8 2 9 3 10 4 11 1 12 8 13
REMARK SMILES IDX 9 14 10 15
REMARK H PARENT
REMARK Flexibility Score: inf
ROOT
ATOM      1  C   UNL     1       2.046   5.586  13.767  1.00  0.00     0.008 C 
ATOM      2  C   UNL     1       0.614   5.842  13.263  1.00  0.00    -0.007 C 
ATOM      3  C   UNL     1      -0.353   6.322  14.393  1.00  0.00     0.004 C 
ATOM      4  C   UNL     1      -0.973   5.185  15.262  1.00  0.00     0.004 C 
ATOM      5  C   UNL     1      -1.405   3.931  14.439  1.00  0.00    -0.004 C 
ATOM      6  C   UNL     1      -0.173   3.547  13.612  1.00  0.00     0.007 C 
ATOM      7  C   UNL     1      -0.044   4.663  12.508  1.00  0.00    -0.013 C 
ATOM      8  C   UNL     1       0.179   3.184  12.204  1.00  0.00     0.025 C 
ATOM      9  C   UNL     1      -0.960   2.777  11.338  1.00  0.00    -0.073 C 
ATOM     10  C   UNL     1      -1.733   3.797  11.007  1.00  0.00    -0.027 C 
ATOM     11  C   UNL     1      -1.246   5.065  11.607  1.00  0.00     0.035 C 
ATOM     12  C   UNL     1      -1.197   1.372  10.880  1.00  0.00     0.039 C 
ENDROOT
BRANCH   5  13
ATOM     13  C   UNL     1      -1.897   2.733  15.307  1.00  0.00    -0.014 C 
ATOM     14  C   UNL     1      -0.879   1.582  15.301  1.00  0.00     0.007 C 
ATOM     15  C   UNL     1      -3.292   2.197  14.938  1.00  0.00     0.007 C 
ENDBRANCH   5  13
TORSDOF 1
ENDMDL
MODEL 2
REMARK VINA RESULT:    -5.360      1.086      3.673
REMARK INTER + INTRA:          -6.133
REMARK INTER:                  -5.615
REMARK INTRA:                  -0.517
REMARK UNBOUND:                -0.459
REMARK SMILES CC1=CC[C@]23[C@@H]([C@@H](C(C)C)CC[C@H]2C)[C@@H]13
REMARK SMILES IDX 14 1 13 2 12 3 11 4 7 5 6 6 5 7 15 8 2 9 3 10 4 11 1 12 8 13
REMARK SMILES IDX 9 14 10 15
REMARK H PARENT
REMARK Flexibility Score: inf
ROOT
ATOM      1  C   UNL     1      -2.066   6.815  14.214  1.00  0.00     0.008 C 
ATOM      2  C   UNL     1      -0.892   5.826  14.316  1.00  0.00    -0.007 C 
ATOM      3  C   UNL     1       0.132   5.973  13.144  1.00  0.00     0.004 C 
ATOM      4  C   UNL     1      -0.251   5.223  11.831  1.00  0.00     0.004 C 
ATOM      5  C   UNL     1      -0.859   3.806  12.072  1.00  0.00    -0.004 C 
ATOM      6  C   UNL     1      -1.996   4.021  13.078  1.00  0.00     0.007 C 
ATOM      7  C   UNL     1      -1.290   4.337  14.450  1.00  0.00    -0.013 C 
ATOM      8  C   UNL     1      -2.510   3.427  14.351  1.00  0.00     0.025 C 
ATOM      9  C   UNL     1      -2.019   2.060  14.670  1.00  0.00    -0.073 C 
ATOM     10  C   UNL     1      -0.751   2.053  15.042  1.00  0.00    -0.027 C 
ATOM     11  C   UNL     1      -0.171   3.421  15.024  1.00  0.00     0.035 C 
ATOM     12  C   UNL     1      -2.870   0.830  14.595  1.00  0.00     0.039 C 
ENDROOT
BRANCH   5  13
ATOM     13  C   UNL     1      -1.375   3.102  10.781  1.00  0.00    -0.014 C 
ATOM     14  C   UNL     1      -2.760   3.627  10.372  1.00  0.00     0.007 C 
ATOM     15  C   UNL     1      -1.399   1.564  10.848  1.00  0.00     0.007 C 
ENDBRANCH   5  13
TORSDOF 1
ENDMDL
MODEL 3
REMARK VINA RESULT:    -5.022      1.362      3.835
REMARK INTER + INTRA:          -5.775
REMARK INTER:                  -5.420
REMARK INTRA:                  -0.354
REMARK UNBOUND:                -0.459
REMARK SMILES CC1=CC[C@]23[C@@H]([C@@H](C(C)C)CC[C@H]2C)[C@@H]13
REMARK SMILES IDX 14 1 13 2 12 3 11 4 7 5 6 6 5 7 15 8 2 9 3 10 4 11 1 12 8 13
REMARK SMILES IDX 9 14 10 15
REMARK H PARENT
REMARK Flexibility Score: inf
ROOT
ATOM      1  C   UNL     1      -2.970   3.705  10.326  1.00  0.00     0.008 C 
ATOM      2  C   UNL     1      -1.513   3.414  10.728  1.00  0.00    -0.007 C 
ATOM      3  C   UNL     1      -1.148   1.897  10.636  1.00  0.00     0.004 C 
ATOM      4  C   UNL     1      -1.552   1.042  11.877  1.00  0.00     0.004 C 
ATOM      5  C   UNL     1      -1.297   1.755  13.241  1.00  0.00    -0.004 C 
ATOM      6  C   UNL     1      -1.981   3.121  13.117  1.00  0.00     0.007 C 
ATOM      7  C   UNL     1      -1.089   3.948  12.116  1.00  0.00    -0.013 C 
ATOM      8  C   UNL     1      -1.687   4.564  13.378  1.00  0.00     0.025 C 
ATOM      9  C   UNL     1      -0.533   4.836  14.277  1.00  0.00    -0.073 C 
ATOM     10  C   UNL     1       0.628   4.582  13.700  1.00  0.00    -0.027 C 
ATOM     11  C   UNL     1       0.448   4.084  12.312  1.00  0.00     0.035 C 
ATOM     12  C   UNL     1      -0.671   5.353  15.675  1.00  0.00     0.039 C 
ENDROOT
BRANCH   5  13
ATOM     13  C   UNL     1      -1.823   0.972  14.482  1.00  0.00    -0.014 C 
ATOM     14  C   UNL     1      -2.180  -0.478  14.119  1.00  0.00     0.007 C 
ATOM     15  C   UNL     1      -3.006   1.634  15.211  1.00  0.00     0.007 C 
ENDBRANCH   5  13
TORSDOF 1
ENDMDL
MODEL 4
REMARK VINA RESULT:    -5.013      1.942      3.864
REMARK INTER + INTRA:          -5.765
REMARK INTER:                  -5.322
REMARK INTRA:                  -0.443
REMARK UNBOUND:                -0.459
REMARK SMILES CC1=CC[C@]23[C@@H]([C@@H](C(C)C)CC[C@H]2C)[C@@H]13
REMARK SMILES IDX 14 1 13 2 12 3 11 4 7 5 6 6 5 7 15 8 2 9 3 10 4 11 1 12 8 13
REMARK SMILES IDX 9 14 10 15
REMARK H PARENT
REMARK Flexibility Score: inf
ROOT
ATOM      1  C   UNL     1      -0.950   1.152  12.049  1.00  0.00     0.008 C 
ATOM      2  C   UNL     1      -0.574   2.415  12.844  1.00  0.00    -0.007 C 
ATOM      3  C   UNL     1      -1.446   2.611  14.125  1.00  0.00     0.004 C 
ATOM      4  C   UNL     1      -2.828   3.296  13.889  1.00  0.00     0.004 C 
ATOM      5  C   UNL     1      -2.776   4.481  12.875  1.00  0.00    -0.004 C 
ATOM      6  C   UNL     1      -2.085   3.915  11.628  1.00  0.00     0.007 C 
ATOM      7  C   UNL     1      -0.573   3.732  12.032  1.00  0.00    -0.013 C 
ATOM      8  C   UNL     1      -0.994   4.282  10.672  1.00  0.00     0.025 C 
ATOM      9  C   UNL     1      -0.588   5.713  10.674  1.00  0.00    -0.073 C 
ATOM     10  C   UNL     1       0.091   6.043  11.759  1.00  0.00    -0.027 C 
ATOM     11  C   UNL     1       0.246   4.886  12.677  1.00  0.00     0.035 C 
ATOM     12  C   UNL     1      -0.899   6.669   9.565  1.00  0.00     0.039 C 
ENDROOT
BRANCH   5  13
ATOM     13  C   UNL     1      -4.168   5.085  12.522  1.00  0.00    -0.014 C 
ATOM     14  C   UNL     1      -4.541   4.815  11.055  1.00  0.00     0.007 C 
ATOM     15  C   UNL     1      -4.320   6.585  12.831  1.00  0.00     0.007 C 
ENDBRANCH   5  13
TORSDOF 1
ENDMDL
MODEL 5
REMARK VINA RESULT:    -4.999      1.140      3.905
REMARK INTER + INTRA:          -5.750
REMARK INTER:                  -5.333
REMARK INTRA:                  -0.417
REMARK UNBOUND:                -0.459
REMARK SMILES CC1=CC[C@]23[C@@H]([C@@H](C(C)C)CC[C@H]2C)[C@@H]13
REMARK SMILES IDX 14 1 13 2 12 3 11 4 7 5 6 6 5 7 15 8 2 9 3 10 4 11 1 12 8 13
REMARK SMILES IDX 9 14 10 15
REMARK H PARENT
REMARK Flexibility Score: inf
ROOT
ATOM      1  C   UNL     1      -2.898   2.464  15.125  1.00  0.00     0.008 C 
ATOM      2  C   UNL     1      -1.836   2.154  14.055  1.00  0.00    -0.007 C 
ATOM      3  C   UNL     1      -0.398   2.008  14.649  1.00  0.00     0.004 C 
ATOM      4  C   UNL     1       0.367   3.350  14.872  1.00  0.00     0.004 C 
ATOM      5  C   UNL     1       0.174   4.382  13.717  1.00  0.00    -0.004 C 
ATOM      6  C   UNL     1      -1.343   4.497  13.528  1.00  0.00     0.007 C 
ATOM      7  C   UNL     1      -1.788   3.140  12.864  1.00  0.00    -0.013 C 
ATOM      8  C   UNL     1      -2.351   4.488  12.423  1.00  0.00     0.025 C 
ATOM      9  C   UNL     1      -1.813   4.720  11.056  1.00  0.00    -0.073 C 
ATOM     10  C   UNL     1      -1.130   3.684  10.600  1.00  0.00    -0.027 C 
ATOM     11  C   UNL     1      -1.085   2.582  11.594  1.00  0.00     0.035 C 
ATOM     12  C   UNL     1      -2.033   5.979  10.277  1.00  0.00     0.039 C 
ENDROOT
BRANCH   5  13
ATOM     13  C   UNL     1       0.816   5.776  13.989  1.00  0.00    -0.014 C 
ATOM     14  C   UNL     1       0.985   6.577  12.688  1.00  0.00     0.007 C 
ATOM     15  C   UNL     1       2.151   5.736  14.754  1.00  0.00     0.007 C 
ENDBRANCH   5  13
TORSDOF 1
ENDMDL
MODEL 6
REMARK VINA RESULT:    -4.993      1.605      4.128
REMARK INTER + INTRA:          -5.744
REMARK INTER:                  -5.367
REMARK INTRA:                  -0.377
REMARK UNBOUND:                -0.459
REMARK SMILES CC1=CC[C@]23[C@@H]([C@@H](C(C)C)CC[C@H]2C)[C@@H]13
REMARK SMILES IDX 14 1 13 2 12 3 11 4 7 5 6 6 5 7 15 8 2 9 3 10 4 11 1 12 8 13
REMARK SMILES IDX 9 14 10 15
REMARK H PARENT
REMARK Flexibility Score: inf
ROOT
ATOM      1  C   UNL     1      -4.513   5.258  12.419  1.00  0.00     0.008 C 
ATOM      2  C   UNL     1      -3.280   5.680  11.601  1.00  0.00    -0.007 C 
ATOM      3  C   UNL     1      -3.022   4.755  10.368  1.00  0.00     0.004 C 
ATOM      4  C   UNL     1      -2.239   3.442  10.677  1.00  0.00     0.004 C 
ATOM      5  C   UNL     1      -1.061   3.635  11.682  1.00  0.00    -0.004 C 
ATOM      6  C   UNL     1      -1.675   4.350  12.891  1.00  0.00     0.007 C 
ATOM      7  C   UNL     1      -1.966   5.820  12.406  1.00  0.00    -0.013 C 
ATOM      8  C   UNL     1      -1.388   5.515  13.785  1.00  0.00     0.025 C 
ATOM      9  C   UNL     1       0.009   6.023  13.755  1.00  0.00    -0.073 C 
ATOM     10  C   UNL     1       0.290   6.663  12.634  1.00  0.00    -0.027 C 
ATOM     11  C   UNL     1      -0.875   6.684  11.713  1.00  0.00     0.035 C 
ATOM     12  C   UNL     1       0.985   5.842  14.876  1.00  0.00     0.039 C 
ENDROOT
BRANCH   5  13
ATOM     13  C   UNL     1      -0.358   2.310  12.108  1.00  0.00    -0.014 C 
ATOM     14  C   UNL     1      -1.022   1.088  11.454  1.00  0.00     0.007 C 
ATOM     15  C   UNL     1      -0.251   2.094  13.628  1.00  0.00     0.007 C 
ENDBRANCH   5  13
TORSDOF 1
ENDMDL
MODEL 7
REMARK VINA RESULT:    -4.983      2.088      3.969
REMARK INTER + INTRA:          -5.734
REMARK INTER:                  -5.443
REMARK INTRA:                  -0.291
REMARK UNBOUND:                -0.459
REMARK SMILES CC1=CC[C@]23[C@@H]([C@@H](C(C)C)CC[C@H]2C)[C@@H]13
REMARK SMILES IDX 14 1 13 2 12 3 11 4 7 5 6 6 5 7 15 8 2 9 3 10 4 11 1 12 8 13
REMARK SMILES IDX 9 14 10 15
REMARK H PARENT
REMARK Flexibility Score: inf
ROOT
ATOM      1  C   UNL     1      -0.157   7.084  12.390  1.00  0.00     0.008 C 
ATOM      2  C   UNL     1      -0.256   5.705  11.716  1.00  0.00    -0.007 C 
ATOM      3  C   UNL     1      -0.922   5.764  10.303  1.00  0.00     0.004 C 
ATOM      4  C   UNL     1      -2.482   5.761  10.304  1.00  0.00     0.004 C 
ATOM      5  C   UNL     1      -3.107   4.781  11.345  1.00  0.00    -0.004 C 
ATOM      6  C   UNL     1      -2.435   5.128  12.680  1.00  0.00     0.007 C 
ATOM      7  C   UNL     1      -0.954   4.606  12.552  1.00  0.00    -0.013 C 
ATOM      8  C   UNL     1      -1.773   4.436  13.829  1.00  0.00     0.025 C 
ATOM      9  C   UNL     1      -2.038   2.977  13.943  1.00  0.00    -0.073 C 
ATOM     10  C   UNL     1      -1.417   2.276  13.010  1.00  0.00    -0.027 C 
ATOM     11  C   UNL     1      -0.635   3.153  12.102  1.00  0.00     0.035 C 
ATOM     12  C   UNL     1      -2.899   2.367  15.005  1.00  0.00     0.039 C 
ENDROOT
BRANCH   5  13
ATOM     13  C   UNL     1      -4.659   4.868  11.457  1.00  0.00    -0.014 C 
ATOM     14  C   UNL     1      -5.302   5.164  10.092  1.00  0.00     0.007 C 
ATOM     15  C   UNL     1      -5.178   5.868  12.506  1.00  0.00     0.007 C 
ENDBRANCH   5  13
TORSDOF 1
ENDMDL
MODEL 8
REMARK VINA RESULT:    -4.920      1.516      2.966
REMARK INTER + INTRA:          -5.667
REMARK INTER:                  -5.337
REMARK INTRA:                  -0.330
REMARK UNBOUND:                -0.459
REMARK SMILES CC1=CC[C@]23[C@@H]([C@@H](C(C)C)CC[C@H]2C)[C@@H]13
REMARK SMILES IDX 14 1 13 2 12 3 11 4 7 5 6 6 5 7 15 8 2 9 3 10 4 11 1 12 8 13
REMARK SMILES IDX 9 14 10 15
REMARK H PARENT
REMARK Flexibility Score: inf
ROOT
ATOM      1  C   UNL     1       0.518   5.508  14.844  1.00  0.00     0.008 C 
ATOM      2  C   UNL     1      -0.906   4.929  14.913  1.00  0.00    -0.007 C 
ATOM      3  C   UNL     1      -0.953   3.505  15.556  1.00  0.00     0.004 C 
ATOM      4  C   UNL     1      -0.633   2.328  14.583  1.00  0.00     0.004 C 
ATOM      5  C   UNL     1      -1.269   2.492  13.168  1.00  0.00    -0.004 C 
ATOM      6  C   UNL     1      -0.846   3.888  12.694  1.00  0.00     0.007 C 
ATOM      7  C   UNL     1      -1.676   4.899  13.571  1.00  0.00    -0.013 C 
ATOM      8  C   UNL     1      -1.452   5.108  12.077  1.00  0.00     0.025 C 
ATOM      9  C   UNL     1      -2.783   4.916  11.441  1.00  0.00    -0.073 C 
ATOM     10  C   UNL     1      -3.747   4.743  12.329  1.00  0.00    -0.027 C 
ATOM     11  C   UNL     1      -3.220   4.779  13.717  1.00  0.00     0.035 C 
ATOM     12  C   UNL     1      -3.010   4.932   9.962  1.00  0.00     0.039 C 
ENDROOT
BRANCH   5  13
ATOM     13  C   UNL     1      -0.845   1.397  12.143  1.00  0.00    -0.014 C 
ATOM     14  C   UNL     1      -1.312   1.750  10.721  1.00  0.00     0.007 C 
ATOM     15  C   UNL     1      -1.293  -0.031  12.500  1.00  0.00     0.007 C 
ENDBRANCH   5  13
TORSDOF 1
ENDMDL
MODEL 9
REMARK VINA RESULT:    -4.813      1.602      2.411
REMARK INTER + INTRA:          -5.553
REMARK INTER:                  -5.042
REMARK INTRA:                  -0.512
REMARK UNBOUND:                -0.459
REMARK SMILES CC1=CC[C@]23[C@@H]([C@@H](C(C)C)CC[C@H]2C)[C@@H]13
REMARK SMILES IDX 14 1 13 2 12 3 11 4 7 5 6 6 5 7 15 8 2 9 3 10 4 11 1 12 8 13
REMARK SMILES IDX 9 14 10 15
REMARK H PARENT
REMARK Flexibility Score: inf
ROOT
ATOM      1  C   UNL     1       0.508   7.391  10.431  1.00  0.00     0.008 C 
ATOM      2  C   UNL     1      -0.971   7.021  10.643  1.00  0.00    -0.007 C 
ATOM      3  C   UNL     1      -1.591   7.694  11.910  1.00  0.00     0.004 C 
ATOM      4  C   UNL     1      -1.320   6.951  13.255  1.00  0.00     0.004 C 
ATOM      5  C   UNL     1      -1.428   5.398  13.148  1.00  0.00    -0.004 C 
ATOM      6  C   UNL     1      -0.523   5.010  11.972  1.00  0.00     0.007 C 
ATOM      7  C   UNL     1      -1.276   5.505  10.681  1.00  0.00    -0.013 C 
ATOM      8  C   UNL     1      -0.563   4.158  10.744  1.00  0.00     0.025 C 
ATOM      9  C   UNL     1      -1.639   3.131  10.705  1.00  0.00    -0.073 C 
ATOM     10  C   UNL     1      -2.836   3.661  10.519  1.00  0.00    -0.027 C 
ATOM     11  C   UNL     1      -2.764   5.141  10.412  1.00  0.00     0.035 C 
ATOM     12  C   UNL     1      -1.393   1.661  10.846  1.00  0.00     0.039 C 
ENDROOT
BRANCH   5  13
ATOM     13  C   UNL     1      -1.024   4.635  14.445  1.00  0.00    -0.014 C 
ATOM     14  C   UNL     1       0.473   4.289  14.448  1.00  0.00     0.007 C 
ATOM     15  C   UNL     1      -1.853   3.372  14.738  1.00  0.00     0.007 C 
ENDBRANCH   5  13
TORSDOF 1
ENDMDL
