MODEL 1
REMARK VINA RESULT:    -1.427      0.000      0.000
REMARK INTER + INTRA:          -4.342
REMARK INTER:                  -3.263
REMARK INTRA:                  -1.080
REMARK UNBOUND:                -1.080
REMARK SMILES CCCCCCCCCCCCCCCCCCCCCCCC(=O)[O-]
REMARK SMILES IDX 13 1 14 2 15 3 16 4 17 5 18 6 19 7 20 8 21 9 22 10 23 11
REMARK SMILES IDX 24 12 25 13 26 14 12 15 11 16 10 17 9 18 8 19 7 20 6 21 5 22
REMARK SMILES IDX 4 23 3 24 2 25 1 26
REMARK H PARENT
REMARK Flexibility Score: inf
ROOT
ATOM      1  C   UNL     1      35.142  29.007  17.109  1.00  0.00     0.000 C 
ENDROOT
BRANCH   1   2
ATOM      2  C   UNL     1      36.508  29.419  17.680  1.00  0.00     0.000 C 
BRANCH   2   3
ATOM      3  C   UNL     1      36.645  29.099  19.178  1.00  0.00     0.000 C 
BRANCH   3   4
ATOM      4  C   UNL     1      35.619  28.055  19.652  1.00  0.00     0.000 C 
BRANCH   4   5
ATOM      5  C   UNL     1      35.532  27.964  21.184  1.00  0.00     0.000 C 
BRANCH   5   6
ATOM      6  C   UNL     1      36.460  26.883  21.766  1.00  0.00     0.000 C 
BRANCH   6   7
ATOM      7  C   UNL     1      36.553  26.936  23.303  1.00  0.00     0.000 C 
BRANCH   7   8
ATOM      8  C   UNL     1      36.799  28.336  23.893  1.00  0.00     0.000 C 
BRANCH   8   9
ATOM      9  C   UNL     1      35.528  28.966  24.488  1.00  0.00     0.000 C 
BRANCH   9  10
ATOM     10  C   UNL     1      35.723  30.439  24.899  1.00  0.00     0.006 C 
BRANCH  10  11
ATOM     11  C   UNL     1      37.116  30.998  24.564  1.00  0.00     0.053 C 
BRANCH  11  12
ATOM     12  C   UNL     1      37.101  31.904  23.371  1.00  0.00     0.041 C 
ATOM     13  O   UNL     1      37.101  31.421  22.209  1.00  0.00    -0.550 OA
ATOM     14  O   UNL     1      37.064  33.282  23.542  1.00  0.00    -0.550 OA
ENDBRANCH  11  12
ENDBRANCH  10  11
ENDBRANCH   9  10
ENDBRANCH   8   9
ENDBRANCH   7   8
ENDBRANCH   6   7
ENDBRANCH   5   6
ENDBRANCH   4   5
ENDBRANCH   3   4
ENDBRANCH   2   3
ENDBRANCH   1   2
BRANCH   1  15
ATOM     15  C   UNL     1      35.213  27.620  16.460  1.00  0.00     0.000 C 
BRANCH  15  16
ATOM     16  C   UNL     1      36.665  27.128  16.370  1.00  0.00     0.000 C 
BRANCH  16  17
ATOM     17  C   UNL     1      37.116  26.875  14.923  1.00  0.00     0.000 C 
BRANCH  17  18
ATOM     18  C   UNL     1      36.486  27.863  13.926  1.00  0.00    -0.000 C 
BRANCH  18  19
ATOM     19  C   UNL     1      35.865  27.160  12.709  1.00  0.00    -0.000 C 
BRANCH  19  20
ATOM     20  C   UNL     1      35.052  28.117  11.823  1.00  0.00    -0.000 C 
BRANCH  20  21
ATOM     21  C   UNL     1      33.565  27.740  11.830  1.00  0.00    -0.000 C 
BRANCH  21  22
ATOM     22  C   UNL     1      33.069  27.476  13.260  1.00  0.00    -0.000 C 
BRANCH  22  23
ATOM     23  C   UNL     1      33.084  28.754  14.127  1.00  0.00    -0.000 C 
BRANCH  23  24
ATOM     24  C   UNL     1      33.076  30.055  13.308  1.00  0.00    -0.000 C 
BRANCH  24  25
ATOM     25  C   UNL     1      31.679  30.678  13.190  1.00  0.00    -0.003 C 
ATOM     26  C   UNL     1      31.752  32.093  12.622  1.00  0.00     0.004 C 
ENDBRANCH  24  25
ENDBRANCH  23  24
ENDBRANCH  22  23
ENDBRANCH  21  22
ENDBRANCH  20  21
ENDBRANCH  19  20
ENDBRANCH  18  19
ENDBRANCH  17  18
ENDBRANCH  16  17
ENDBRANCH  15  16
ENDBRANCH   1  15
TORSDOF 22
ENDMDL
MODEL 2
REMARK VINA RESULT:    -0.179      1.654      2.097
REMARK INTER + INTRA:          -1.490
REMARK INTER:                  -2.656
REMARK INTRA:                   1.166
REMARK UNBOUND:                -1.080
REMARK SMILES CCCCCCCCCCCCCCCCCCCCCCCC(=O)[O-]
REMARK SMILES IDX 13 1 14 2 15 3 16 4 17 5 18 6 19 7 20 8 21 9 22 10 23 11
REMARK SMILES IDX 24 12 25 13 26 14 12 15 11 16 10 17 9 18 8 19 7 20 6 21 5 22
REMARK SMILES IDX 4 23 3 24 2 25 1 26
REMARK H PARENT
REMARK Flexibility Score: inf
ROOT
ATOM      1  C   UNL     1      34.642  29.381  16.931  1.00  0.00     0.000 C 
ENDROOT
BRANCH   1   2
ATOM      2  C   UNL     1      35.758  29.439  17.985  1.00  0.00     0.000 C 
BRANCH   2   3
ATOM      3  C   UNL     1      35.316  28.881  19.348  1.00  0.00     0.000 C 
BRANCH   3   4
ATOM      4  C   UNL     1      35.556  27.366  19.469  1.00  0.00     0.000 C 
BRANCH   4   5
ATOM      5  C   UNL     1      35.730  26.908  20.926  1.00  0.00     0.000 C 
BRANCH   5   6
ATOM      6  C   UNL     1      37.121  27.248  21.491  1.00  0.00     0.000 C 
BRANCH   6   7
ATOM      7  C   UNL     1      37.061  28.193  22.706  1.00  0.00     0.000 C 
BRANCH   7   8
ATOM      8  C   UNL     1      36.493  29.594  22.414  1.00  0.00     0.000 C 
BRANCH   8   9
ATOM      9  C   UNL     1      36.376  30.466  23.677  1.00  0.00     0.000 C 
BRANCH   9  10
ATOM     10  C   UNL     1      36.434  29.646  24.980  1.00  0.00     0.006 C 
BRANCH  10  11
ATOM     11  C   UNL     1      35.348  28.561  25.081  1.00  0.00     0.053 C 
BRANCH  11  12
ATOM     12  C   UNL     1      34.082  28.947  24.381  1.00  0.00     0.041 C 
ATOM     13  O   UNL     1      34.081  29.146  23.138  1.00  0.00    -0.550 OA
ATOM     14  O   UNL     1      32.898  29.067  25.097  1.00  0.00    -0.550 OA
ENDBRANCH  11  12
ENDBRANCH  10  11
ENDBRANCH   9  10
ENDBRANCH   8   9
ENDBRANCH   7   8
ENDBRANCH   6   7
ENDBRANCH   5   6
ENDBRANCH   4   5
ENDBRANCH   3   4
ENDBRANCH   2   3
ENDBRANCH   1   2
BRANCH   1  15
ATOM     15  C   UNL     1      34.738  28.098  16.098  1.00  0.00     0.000 C 
BRANCH  15  16
ATOM     16  C   UNL     1      36.160  27.518  16.143  1.00  0.00     0.000 C 
BRANCH  16  17
ATOM     17  C   UNL     1      36.634  27.004  14.775  1.00  0.00     0.000 C 
BRANCH  17  18
ATOM     18  C   UNL     1      35.878  27.655  13.604  1.00  0.00    -0.000 C 
BRANCH  18  19
ATOM     19  C   UNL     1      36.081  26.905  12.278  1.00  0.00    -0.000 C 
BRANCH  19  20
ATOM     20  C   UNL     1      34.843  26.963  11.369  1.00  0.00    -0.000 C 
BRANCH  20  21
ATOM     21  C   UNL     1      33.754  27.851  11.983  1.00  0.00    -0.000 C 
BRANCH  21  22
ATOM     22  C   UNL     1      34.063  29.339  11.758  1.00  0.00    -0.000 C 
BRANCH  22  23
ATOM     23  C   UNL     1      33.337  30.246  12.775  1.00  0.00    -0.000 C 
BRANCH  23  24
ATOM     24  C   UNL     1      32.193  29.542  13.523  1.00  0.00    -0.000 C 
BRANCH  24  25
ATOM     25  C   UNL     1      30.921  30.396  13.609  1.00  0.00    -0.003 C 
ATOM     26  C   UNL     1      31.030  31.638  12.727  1.00  0.00     0.004 C 
ENDBRANCH  24  25
ENDBRANCH  23  24
ENDBRANCH  22  23
ENDBRANCH  21  22
ENDBRANCH  20  21
ENDBRANCH  19  20
ENDBRANCH  18  19
ENDBRANCH  17  18
ENDBRANCH  16  17
ENDBRANCH  15  16
ENDBRANCH   1  15
TORSDOF 22
ENDMDL
MODEL 3
REMARK VINA RESULT:    -0.162      1.346      2.080
REMARK INTER + INTRA:          -1.450
REMARK INTER:                  -1.144
REMARK INTRA:                  -0.305
REMARK UNBOUND:                -1.080
REMARK SMILES CCCCCCCCCCCCCCCCCCCCCCCC(=O)[O-]
REMARK SMILES IDX 13 1 14 2 15 3 16 4 17 5 18 6 19 7 20 8 21 9 22 10 23 11
REMARK SMILES IDX 24 12 25 13 26 14 12 15 11 16 10 17 9 18 8 19 7 20 6 21 5 22
REMARK SMILES IDX 4 23 3 24 2 25 1 26
REMARK H PARENT
REMARK Flexibility Score: inf
ROOT
ATOM      1  C   UNL     1      34.709  28.476  15.882  1.00  0.00     0.000 C 
ENDROOT
BRANCH   1   2
ATOM      2  C   UNL     1      34.967  27.720  17.194  1.00  0.00     0.000 C 
BRANCH   2   3
ATOM      3  C   UNL     1      36.251  26.875  17.149  1.00  0.00     0.000 C 
BRANCH   3   4
ATOM      4  C   UNL     1      37.115  27.050  18.411  1.00  0.00     0.000 C 
BRANCH   4   5
ATOM      5  C   UNL     1      36.513  28.055  19.406  1.00  0.00     0.000 C 
BRANCH   5   6
ATOM      6  C   UNL     1      36.597  27.568  20.864  1.00  0.00     0.000 C 
BRANCH   6   7
ATOM      7  C   UNL     1      36.559  28.721  21.885  1.00  0.00     0.000 C 
BRANCH   7   8
ATOM      8  C   UNL     1      35.152  29.127  22.359  1.00  0.00     0.000 C 
BRANCH   8   9
ATOM      9  C   UNL     1      35.002  29.082  23.890  1.00  0.00     0.000 C 
BRANCH   9  10
ATOM     10  C   UNL     1      36.332  28.802  24.616  1.00  0.00     0.006 C 
BRANCH  10  11
ATOM     11  C   UNL     1      37.041  30.069  25.125  1.00  0.00     0.053 C 
BRANCH  11  12
ATOM     12  C   UNL     1      36.502  31.319  24.501  1.00  0.00     0.041 C 
ATOM     13  O   UNL     1      37.012  31.769  23.442  1.00  0.00    -0.550 OA
ATOM     14  O   UNL     1      35.423  31.977  25.077  1.00  0.00    -0.550 OA
ENDBRANCH  11  12
ENDBRANCH  10  11
ENDBRANCH   9  10
ENDBRANCH   8   9
ENDBRANCH   7   8
ENDBRANCH   6   7
ENDBRANCH   5   6
ENDBRANCH   4   5
ENDBRANCH   3   4
ENDBRANCH   2   3
ENDBRANCH   1   2
BRANCH   1  15
ATOM     15  C   UNL     1      35.955  28.469  14.989  1.00  0.00     0.000 C 
BRANCH  15  16
ATOM     16  C   UNL     1      36.350  27.034  14.607  1.00  0.00     0.000 C 
BRANCH  16  17
ATOM     17  C   UNL     1      36.634  26.878  13.105  1.00  0.00     0.000 C 
BRANCH  17  18
ATOM     18  C   UNL     1      35.519  27.471  12.227  1.00  0.00    -0.000 C 
BRANCH  18  19
ATOM     19  C   UNL     1      34.138  26.875  12.541  1.00  0.00    -0.000 C 
BRANCH  19  20
ATOM     20  C   UNL     1      32.990  27.853  12.245  1.00  0.00    -0.000 C 
BRANCH  20  21
ATOM     21  C   UNL     1      33.435  29.304  12.467  1.00  0.00    -0.000 C 
BRANCH  21  22
ATOM     22  C   UNL     1      32.577  29.985  13.544  1.00  0.00    -0.000 C 
BRANCH  22  23
ATOM     23  C   UNL     1      32.515  31.517  13.357  1.00  0.00    -0.000 C 
BRANCH  23  24
ATOM     24  C   UNL     1      31.381  31.979  12.427  1.00  0.00    -0.000 C 
BRANCH  24  25
ATOM     25  C   UNL     1      30.011  31.419  12.831  1.00  0.00    -0.003 C 
ATOM     26  C   UNL     1      28.998  31.568  11.698  1.00  0.00     0.004 C 
ENDBRANCH  24  25
ENDBRANCH  23  24
ENDBRANCH  22  23
ENDBRANCH  21  22
ENDBRANCH  20  21
ENDBRANCH  19  20
ENDBRANCH  18  19
ENDBRANCH  17  18
ENDBRANCH  16  17
ENDBRANCH  15  16
ENDBRANCH   1  15
TORSDOF 22
ENDMDL
MODEL 4
REMARK VINA RESULT:     0.207      2.938     10.186
REMARK INTER + INTRA:          -0.606
REMARK INTER:                  -1.033
REMARK INTRA:                   0.428
REMARK UNBOUND:                -1.080
REMARK SMILES CCCCCCCCCCCCCCCCCCCCCCCC(=O)[O-]
REMARK SMILES IDX 13 1 14 2 15 3 16 4 17 5 18 6 19 7 20 8 21 9 22 10 23 11
REMARK SMILES IDX 24 12 25 13 26 14 12 15 11 16 10 17 9 18 8 19 7 20 6 21 5 22
REMARK SMILES IDX 4 23 3 24 2 25 1 26
REMARK H PARENT
REMARK Flexibility Score: inf
ROOT
ATOM      1  C   UNL     1      36.253  27.516  18.384  1.00  0.00     0.000 C 
ENDROOT
BRANCH   1   2
ATOM      2  C   UNL     1      36.968  27.034  17.112  1.00  0.00     0.000 C 
BRANCH   2   3
ATOM      3  C   UNL     1      36.497  27.776  15.850  1.00  0.00     0.000 C 
BRANCH   3   4
ATOM      4  C   UNL     1      36.513  26.879  14.600  1.00  0.00     0.000 C 
BRANCH   4   5
ATOM      5  C   UNL     1      36.893  27.648  13.324  1.00  0.00     0.000 C 
BRANCH   5   6
ATOM      6  C   UNL     1      35.663  28.165  12.557  1.00  0.00     0.000 C 
BRANCH   6   7
ATOM      7  C   UNL     1      34.897  27.045  11.827  1.00  0.00     0.000 C 
BRANCH   7   8
ATOM      8  C   UNL     1      33.473  27.415  11.376  1.00  0.00     0.000 C 
BRANCH   8   9
ATOM      9  C   UNL     1      33.338  28.894  10.972  1.00  0.00     0.000 C 
BRANCH   9  10
ATOM     10  C   UNL     1      33.894  29.860  12.037  1.00  0.00     0.006 C 
BRANCH  10  11
ATOM     11  C   UNL     1      32.828  30.388  13.013  1.00  0.00     0.053 C 
BRANCH  11  12
ATOM     12  C   UNL     1      32.492  29.400  14.087  1.00  0.00     0.041 C 
ATOM     13  O   UNL     1      33.271  29.235  15.062  1.00  0.00    -0.550 OA
ATOM     14  O   UNL     1      31.308  28.677  14.024  1.00  0.00    -0.550 OA
ENDBRANCH  11  12
ENDBRANCH  10  11
ENDBRANCH   9  10
ENDBRANCH   8   9
ENDBRANCH   7   8
ENDBRANCH   6   7
ENDBRANCH   5   6
ENDBRANCH   4   5
ENDBRANCH   3   4
ENDBRANCH   2   3
ENDBRANCH   1   2
BRANCH   1  15
ATOM     15  C   UNL     1      36.437  29.025  18.580  1.00  0.00     0.000 C 
BRANCH  15  16
ATOM     16  C   UNL     1      36.717  29.358  20.054  1.00  0.00     0.000 C 
BRANCH  16  17
ATOM     17  C   UNL     1      37.088  28.119  20.881  1.00  0.00     0.000 C 
BRANCH  17  18
ATOM     18  C   UNL     1      37.119  28.405  22.393  1.00  0.00    -0.000 C 
BRANCH  18  19
ATOM     19  C   UNL     1      35.902  27.824  23.130  1.00  0.00    -0.000 C 
BRANCH  19  20
ATOM     20  C   UNL     1      34.897  28.905  23.558  1.00  0.00    -0.000 C 
BRANCH  20  21
ATOM     21  C   UNL     1      35.321  29.555  24.880  1.00  0.00    -0.000 C 
BRANCH  21  22
ATOM     22  C   UNL     1      36.774  30.049  24.811  1.00  0.00    -0.000 C 
BRANCH  22  23
ATOM     23  C   UNL     1      36.891  31.422  24.114  1.00  0.00    -0.000 C 
BRANCH  23  24
ATOM     24  C   UNL     1      37.125  32.590  25.088  1.00  0.00    -0.000 C 
BRANCH  24  25
ATOM     25  C   UNL     1      36.249  33.810  24.778  1.00  0.00    -0.003 C 
ATOM     26  C   UNL     1      36.976  35.110  25.112  1.00  0.00     0.004 C 
ENDBRANCH  24  25
ENDBRANCH  23  24
ENDBRANCH  22  23
ENDBRANCH  21  22
ENDBRANCH  20  21
ENDBRANCH  19  20
ENDBRANCH  18  19
ENDBRANCH  17  18
ENDBRANCH  16  17
ENDBRANCH  15  16
ENDBRANCH   1  15
TORSDOF 22
ENDMDL
MODEL 5
REMARK VINA RESULT:     0.359      3.722     10.000
REMARK INTER + INTRA:          -0.259
REMARK INTER:                   1.139
REMARK INTRA:                  -1.399
REMARK UNBOUND:                -1.080
REMARK SMILES CCCCCCCCCCCCCCCCCCCCCCCC(=O)[O-]
REMARK SMILES IDX 13 1 14 2 15 3 16 4 17 5 18 6 19 7 20 8 21 9 22 10 23 11
REMARK SMILES IDX 24 12 25 13 26 14 12 15 11 16 10 17 9 18 8 19 7 20 6 21 5 22
REMARK SMILES IDX 4 23 3 24 2 25 1 26
REMARK H PARENT
REMARK Flexibility Score: inf
ROOT
ATOM      1  C   UNL     1      36.717  27.263  16.731  1.00  0.00     0.000 C 
ENDROOT
BRANCH   1   2
ATOM      2  C   UNL     1      37.120  26.877  15.299  1.00  0.00     0.000 C 
BRANCH   2   3
ATOM      3  C   UNL     1      35.966  27.035  14.296  1.00  0.00     0.000 C 
BRANCH   3   4
ATOM      4  C   UNL     1      36.459  27.099  12.839  1.00  0.00     0.000 C 
BRANCH   4   5
ATOM      5  C   UNL     1      35.319  26.944  11.820  1.00  0.00     0.000 C 
BRANCH   5   6
ATOM      6  C   UNL     1      33.930  26.929  12.484  1.00  0.00     0.000 C 
BRANCH   6   7
ATOM      7  C   UNL     1      33.185  28.271  12.344  1.00  0.00     0.000 C 
BRANCH   7   8
ATOM      8  C   UNL     1      34.085  29.493  12.084  1.00  0.00     0.000 C 
BRANCH   8   9
ATOM      9  C   UNL     1      33.285  30.770  11.777  1.00  0.00     0.000 C 
BRANCH   9  10
ATOM     10  C   UNL     1      32.361  31.194  12.935  1.00  0.00     0.006 C 
BRANCH  10  11
ATOM     11  C   UNL     1      31.317  32.253  12.541  1.00  0.00     0.053 C 
BRANCH  11  12
ATOM     12  C   UNL     1      29.919  31.714  12.552  1.00  0.00     0.041 C 
ATOM     13  O   UNL     1      29.709  30.501  12.814  1.00  0.00    -0.550 OA
ATOM     14  O   UNL     1      28.845  32.557  12.293  1.00  0.00    -0.550 OA
ENDBRANCH  11  12
ENDBRANCH  10  11
ENDBRANCH   9  10
ENDBRANCH   8   9
ENDBRANCH   7   8
ENDBRANCH   6   7
ENDBRANCH   5   6
ENDBRANCH   4   5
ENDBRANCH   3   4
ENDBRANCH   2   3
ENDBRANCH   1   2
BRANCH   1  15
ATOM     15  C   UNL     1      35.250  26.911  17.004  1.00  0.00     0.000 C 
BRANCH  15  16
ATOM     16  C   UNL     1      34.952  26.926  18.511  1.00  0.00     0.000 C 
BRANCH  16  17
ATOM     17  C   UNL     1      34.414  28.280  18.995  1.00  0.00     0.000 C 
BRANCH  17  18
ATOM     18  C   UNL     1      35.522  29.193  19.549  1.00  0.00    -0.000 C 
BRANCH  18  19
ATOM     19  C   UNL     1      36.683  28.402  20.173  1.00  0.00    -0.000 C 
BRANCH  19  20
ATOM     20  C   UNL     1      37.076  28.926  21.563  1.00  0.00    -0.000 C 
BRANCH  20  21
ATOM     21  C   UNL     1      36.099  30.007  22.038  1.00  0.00    -0.000 C 
BRANCH  21  22
ATOM     22  C   UNL     1      36.562  30.625  23.366  1.00  0.00    -0.000 C 
BRANCH  22  23
ATOM     23  C   UNL     1      35.667  30.202  24.551  1.00  0.00    -0.000 C 
BRANCH  23  24
ATOM     24  C   UNL     1      34.560  29.208  24.162  1.00  0.00    -0.000 C 
BRANCH  24  25
ATOM     25  C   UNL     1      34.790  27.804  24.735  1.00  0.00    -0.003 C 
ATOM     26  C   UNL     1      36.049  27.169  24.150  1.00  0.00     0.004 C 
ENDBRANCH  24  25
ENDBRANCH  23  24
ENDBRANCH  22  23
ENDBRANCH  21  22
ENDBRANCH  20  21
ENDBRANCH  19  20
ENDBRANCH  18  19
ENDBRANCH  17  18
ENDBRANCH  16  17
ENDBRANCH  15  16
ENDBRANCH   1  15
TORSDOF 22
ENDMDL
