MODEL 1
REMARK VINA RESULT:    -3.562      0.000      0.000
REMARK INTER + INTRA:          -5.979
REMARK INTER:                  -5.228
REMARK INTRA:                  -0.751
REMARK UNBOUND:                -0.751
REMARK SMILES O=C([O-])CCCCCCCC(=O)[O-]
REMARK SMILES IDX 7 1 6 2 5 3 4 4 2 5 1 6 3 7 8 8 9 9 10 10 11 11 12 12 13 13
REMARK H PARENT
REMARK Flexibility Score: inf
ROOT
ATOM      1  C   UNL     1      -8.661  -9.202  -7.962  1.00  0.00     0.000 C 
ENDROOT
BRANCH   1   2
ATOM      2  C   UNL     1      -7.283  -8.594  -8.298  1.00  0.00     0.000 C 
BRANCH   2   3
ATOM      3  C   UNL     1      -6.612  -7.890  -7.107  1.00  0.00     0.006 C 
BRANCH   3   4
ATOM      4  C   UNL     1      -5.729  -8.829  -6.278  1.00  0.00     0.053 C 
BRANCH   4   5
ATOM      5  C   UNL     1      -6.377  -9.135  -4.966  1.00  0.00     0.041 C 
ATOM      6  O   UNL     1      -5.874  -8.705  -3.894  1.00  0.00    -0.550 OA
ATOM      7  O   UNL     1      -7.511  -9.936  -4.920  1.00  0.00    -0.550 OA
ENDBRANCH   4   5
ENDBRANCH   3   4
ENDBRANCH   2   3
ENDBRANCH   1   2
BRANCH   1   8
ATOM      8  C   UNL     1      -9.733  -8.120  -7.740  1.00  0.00     0.000 C 
BRANCH   8   9
ATOM      9  C   UNL     1     -10.124  -7.967  -6.261  1.00  0.00     0.006 C 
BRANCH   9  10
ATOM     10  C   UNL     1      -9.960  -6.529  -5.753  1.00  0.00     0.053 C 
BRANCH  10  11
ATOM     11  C   UNL     1      -9.106  -6.504  -4.525  1.00  0.00     0.041 C 
ATOM     12  O   UNL     1      -9.445  -7.156  -3.504  1.00  0.00    -0.550 OA
ATOM     13  O   UNL     1      -7.960  -5.719  -4.493  1.00  0.00    -0.550 OA
ENDBRANCH  10  11
ENDBRANCH   9  10
ENDBRANCH   8   9
ENDBRANCH   1   8
TORSDOF 8
ENDMDL
MODEL 2
REMARK VINA RESULT:    -3.487      0.980      3.725
REMARK INTER + INTRA:          -5.868
REMARK INTER:                  -5.016
REMARK INTRA:                  -0.852
REMARK UNBOUND:                -0.751
REMARK SMILES O=C([O-])CCCCCCCC(=O)[O-]
REMARK SMILES IDX 7 1 6 2 5 3 4 4 2 5 1 6 3 7 8 8 9 9 10 10 11 11 12 12 13 13
REMARK H PARENT
REMARK Flexibility Score: inf
ROOT
ATOM      1  C   UNL     1      -8.824  -8.408  -8.015  1.00  0.00     0.000 C 
ENDROOT
BRANCH   1   2
ATOM      2  C   UNL     1      -9.772  -9.104  -7.016  1.00  0.00     0.000 C 
BRANCH   2   3
ATOM      3  C   UNL     1      -9.906  -8.363  -5.675  1.00  0.00     0.006 C 
BRANCH   3   4
ATOM      4  C   UNL     1      -9.518  -6.883  -5.769  1.00  0.00     0.053 C 
BRANCH   4   5
ATOM      5  C   UNL     1      -8.969  -6.401  -4.464  1.00  0.00     0.041 C 
ATOM      6  O   UNL     1      -8.116  -5.476  -4.437  1.00  0.00    -0.550 OA
ATOM      7  O   UNL     1      -9.363  -7.008  -3.278  1.00  0.00    -0.550 OA
ENDBRANCH   4   5
ENDBRANCH   3   4
ENDBRANCH   2   3
ENDBRANCH   1   2
BRANCH   1   8
ATOM      8  C   UNL     1      -7.714  -9.350  -8.513  1.00  0.00     0.000 C 
BRANCH   8   9
ATOM      9  C   UNL     1      -6.344  -9.031  -7.893  1.00  0.00     0.006 C 
BRANCH   9  10
ATOM     10  C   UNL     1      -6.172  -9.640  -6.496  1.00  0.00     0.053 C 
BRANCH  10  11
ATOM     11  C   UNL     1      -6.052  -8.561  -5.467  1.00  0.00     0.041 C 
ATOM     12  O   UNL     1      -5.814  -7.376  -5.817  1.00  0.00    -0.550 OA
ATOM     13  O   UNL     1      -6.154  -8.874  -4.118  1.00  0.00    -0.550 OA
ENDBRANCH  10  11
ENDBRANCH   9  10
ENDBRANCH   8   9
ENDBRANCH   1   8
TORSDOF 8
ENDMDL
MODEL 3
REMARK VINA RESULT:    -3.477      2.678      4.686
REMARK INTER + INTRA:          -5.854
REMARK INTER:                  -5.351
REMARK INTRA:                  -0.503
REMARK UNBOUND:                -0.751
REMARK SMILES O=C([O-])CCCCCCCC(=O)[O-]
REMARK SMILES IDX 7 1 6 2 5 3 4 4 2 5 1 6 3 7 8 8 9 9 10 10 11 11 12 12 13 13
REMARK H PARENT
REMARK Flexibility Score: inf
ROOT
ATOM      1  C   UNL     1      -7.831  -7.967  -7.845  1.00  0.00     0.000 C 
ENDROOT
BRANCH   1   2
ATOM      2  C   UNL     1      -9.353  -8.224  -7.838  1.00  0.00     0.000 C 
BRANCH   2   3
ATOM      3  C   UNL     1      -9.974  -8.207  -6.431  1.00  0.00     0.006 C 
BRANCH   3   4
ATOM      4  C   UNL     1      -9.657  -6.925  -5.654  1.00  0.00     0.053 C 
BRANCH   4   5
ATOM      5  C   UNL     1      -8.955  -7.249  -4.374  1.00  0.00     0.041 C 
ATOM      6  O   UNL     1      -7.893  -7.926  -4.386  1.00  0.00    -0.550 OA
ATOM      7  O   UNL     1      -9.499  -6.845  -3.160  1.00  0.00    -0.550 OA
ENDBRANCH   4   5
ENDBRANCH   3   4
ENDBRANCH   2   3
ENDBRANCH   1   2
BRANCH   1   8
ATOM      8  C   UNL     1      -7.024  -9.258  -7.620  1.00  0.00     0.000 C 
BRANCH   8   9
ATOM      9  C   UNL     1      -5.511  -9.002  -7.530  1.00  0.00     0.006 C 
BRANCH   9  10
ATOM     10  C   UNL     1      -5.157  -7.512  -7.614  1.00  0.00     0.053 C 
BRANCH  10  11
ATOM     11  C   UNL     1      -4.187  -7.267  -8.726  1.00  0.00     0.041 C 
ATOM     12  O   UNL     1      -3.841  -6.092  -9.017  1.00  0.00    -0.550 OA
ATOM     13  O   UNL     1      -3.702  -8.334  -9.472  1.00  0.00    -0.550 OA
ENDBRANCH  10  11
ENDBRANCH   9  10
ENDBRANCH   8   9
ENDBRANCH   1   8
TORSDOF 8
ENDMDL
MODEL 4
REMARK VINA RESULT:    -3.457      2.637      3.049
REMARK INTER + INTRA:          -5.825
REMARK INTER:                  -5.289
REMARK INTRA:                  -0.536
REMARK UNBOUND:                -0.751
REMARK SMILES O=C([O-])CCCCCCCC(=O)[O-]
REMARK SMILES IDX 7 1 6 2 5 3 4 4 2 5 1 6 3 7 8 8 9 9 10 10 11 11 12 12 13 13
REMARK H PARENT
REMARK Flexibility Score: inf
ROOT
ATOM      1  C   UNL     1      -8.033  -8.149  -7.971  1.00  0.00     0.000 C 
ENDROOT
BRANCH   1   2
ATOM      2  C   UNL     1      -7.077  -9.360  -7.934  1.00  0.00     0.000 C 
BRANCH   2   3
ATOM      3  C   UNL     1      -5.641  -8.999  -7.515  1.00  0.00     0.006 C 
BRANCH   3   4
ATOM      4  C   UNL     1      -5.335  -7.505  -7.660  1.00  0.00     0.053 C 
BRANCH   4   5
ATOM      5  C   UNL     1      -4.283  -7.285  -8.700  1.00  0.00     0.041 C 
ATOM      6  O   UNL     1      -3.776  -8.264  -9.307  1.00  0.00    -0.550 OA
ATOM      7  O   UNL     1      -3.824  -6.000  -8.964  1.00  0.00    -0.550 OA
ENDBRANCH   4   5
ENDBRANCH   3   4
ENDBRANCH   2   3
ENDBRANCH   1   2
BRANCH   1   8
ATOM      8  C   UNL     1      -9.504  -8.567  -7.803  1.00  0.00     0.000 C 
BRANCH   8   9
ATOM      9  C   UNL     1      -9.975  -8.503  -6.341  1.00  0.00     0.006 C 
BRANCH   9  10
ATOM     10  C   UNL     1      -9.700  -7.142  -5.691  1.00  0.00     0.053 C 
BRANCH  10  11
ATOM     11  C   UNL     1      -8.969  -7.319  -4.398  1.00  0.00     0.041 C 
ATOM     12  O   UNL     1      -7.827  -7.847  -4.383  1.00  0.00    -0.550 OA
ATOM     13  O   UNL     1      -9.571  -6.946  -3.203  1.00  0.00    -0.550 OA
ENDBRANCH  10  11
ENDBRANCH   9  10
ENDBRANCH   8   9
ENDBRANCH   1   8
TORSDOF 8
ENDMDL
MODEL 5
REMARK VINA RESULT:    -3.426      2.842      5.058
REMARK INTER + INTRA:          -5.779
REMARK INTER:                  -5.379
REMARK INTRA:                  -0.400
REMARK UNBOUND:                -0.751
REMARK SMILES O=C([O-])CCCCCCCC(=O)[O-]
REMARK SMILES IDX 7 1 6 2 5 3 4 4 2 5 1 6 3 7 8 8 9 9 10 10 11 11 12 12 13 13
REMARK H PARENT
REMARK Flexibility Score: inf
ROOT
ATOM      1  C   UNL     1      -5.804  -9.238  -5.760  1.00  0.00     0.000 C 
ENDROOT
BRANCH   1   2
ATOM      2  C   UNL     1      -7.225  -9.087  -5.177  1.00  0.00     0.000 C 
BRANCH   2   3
ATOM      3  C   UNL     1      -8.102  -8.082  -5.944  1.00  0.00     0.006 C 
BRANCH   3   4
ATOM      4  C   UNL     1      -9.349  -7.659  -5.160  1.00  0.00     0.053 C 
BRANCH   4   5
ATOM      5  C   UNL     1      -8.986  -6.678  -4.090  1.00  0.00     0.041 C 
ATOM      6  O   UNL     1      -9.377  -6.857  -2.907  1.00  0.00    -0.550 OA
ATOM      7  O   UNL     1      -8.258  -5.539  -4.409  1.00  0.00    -0.550 OA
ENDBRANCH   4   5
ENDBRANCH   3   4
ENDBRANCH   2   3
ENDBRANCH   1   2
BRANCH   1   8
ATOM      8  C   UNL     1      -5.809  -9.963  -7.118  1.00  0.00     0.000 C 
BRANCH   8   9
ATOM      9  C   UNL     1      -5.648  -8.999  -8.304  1.00  0.00     0.006 C 
BRANCH   9  10
ATOM     10  C   UNL     1      -5.014  -7.662  -7.898  1.00  0.00     0.053 C 
BRANCH  10  11
ATOM     11  C   UNL     1      -4.000  -7.236  -8.912  1.00  0.00     0.041 C 
ATOM     12  O   UNL     1      -3.743  -6.015  -9.076  1.00  0.00    -0.550 OA
ATOM     13  O   UNL     1      -3.375  -8.185  -9.711  1.00  0.00    -0.550 OA
ENDBRANCH  10  11
ENDBRANCH   9  10
ENDBRANCH   8   9
ENDBRANCH   1   8
TORSDOF 8
ENDMDL
MODEL 6
REMARK VINA RESULT:    -3.293      1.763      3.160
REMARK INTER + INTRA:          -5.583
REMARK INTER:                  -4.676
REMARK INTRA:                  -0.907
REMARK UNBOUND:                -0.751
REMARK SMILES O=C([O-])CCCCCCCC(=O)[O-]
REMARK SMILES IDX 7 1 6 2 5 3 4 4 2 5 1 6 3 7 8 8 9 9 10 10 11 11 12 12 13 13
REMARK H PARENT
REMARK Flexibility Score: inf
ROOT
ATOM      1  C   UNL     1      -5.293  -7.826  -6.697  1.00  0.00     0.000 C 
ENDROOT
BRANCH   1   2
ATOM      2  C   UNL     1      -5.624  -8.392  -8.094  1.00  0.00     0.000 C 
BRANCH   2   3
ATOM      3  C   UNL     1      -6.549  -9.620  -8.058  1.00  0.00     0.006 C 
BRANCH   3   4
ATOM      4  C   UNL     1      -7.878  -9.388  -8.785  1.00  0.00     0.053 C 
BRANCH   4   5
ATOM      5  C   UNL     1      -8.890  -8.804  -7.852  1.00  0.00     0.041 C 
ATOM      6  O   UNL     1      -9.339  -7.644  -8.048  1.00  0.00    -0.550 OA
ATOM      7  O   UNL     1      -9.302  -9.520  -6.735  1.00  0.00    -0.550 OA
ENDBRANCH   4   5
ENDBRANCH   3   4
ENDBRANCH   2   3
ENDBRANCH   1   2
BRANCH   1   8
ATOM      8  C   UNL     1      -5.761  -8.761  -5.568  1.00  0.00     0.000 C 
BRANCH   8   9
ATOM      9  C   UNL     1      -6.781  -8.094  -4.631  1.00  0.00     0.006 C 
BRANCH   9  10
ATOM     10  C   UNL     1      -7.361  -6.799  -5.215  1.00  0.00     0.053 C 
BRANCH  10  11
ATOM     11  C   UNL     1      -8.714  -6.527  -4.639  1.00  0.00     0.041 C 
ATOM     12  O   UNL     1      -9.125  -7.185  -3.647  1.00  0.00    -0.550 OA
ATOM     13  O   UNL     1      -9.542  -5.580  -5.228  1.00  0.00    -0.550 OA
ENDBRANCH  10  11
ENDBRANCH   9  10
ENDBRANCH   8   9
ENDBRANCH   1   8
TORSDOF 8
ENDMDL
MODEL 7
REMARK VINA RESULT:    -3.247      3.095      3.777
REMARK INTER + INTRA:          -5.516
REMARK INTER:                  -5.051
REMARK INTRA:                  -0.465
REMARK UNBOUND:                -0.751
REMARK SMILES O=C([O-])CCCCCCCC(=O)[O-]
REMARK SMILES IDX 7 1 6 2 5 3 4 4 2 5 1 6 3 7 8 8 9 9 10 10 11 11 12 12 13 13
REMARK H PARENT
REMARK Flexibility Score: inf
ROOT
ATOM      1  C   UNL     1      -6.051  -8.274  -5.040  1.00  0.00     0.000 C 
ENDROOT
BRANCH   1   2
ATOM      2  C   UNL     1      -4.940  -8.304  -6.110  1.00  0.00     0.000 C 
BRANCH   2   3
ATOM      3  C   UNL     1      -5.280  -7.496  -7.374  1.00  0.00     0.006 C 
BRANCH   3   4
ATOM      4  C   UNL     1      -4.782  -8.163  -8.661  1.00  0.00     0.053 C 
BRANCH   4   5
ATOM      5  C   UNL     1      -3.733  -7.321  -9.315  1.00  0.00     0.041 C 
ATOM      6  O   UNL     1      -3.765  -6.067  -9.203  1.00  0.00    -0.550 OA
ATOM      7  O   UNL     1      -2.746  -7.917 -10.091  1.00  0.00    -0.550 OA
ENDBRANCH   4   5
ENDBRANCH   3   4
ENDBRANCH   2   3
ENDBRANCH   1   2
BRANCH   1   8
ATOM      8  C   UNL     1      -7.060  -9.422  -5.219  1.00  0.00     0.000 C 
BRANCH   8   9
ATOM      9  C   UNL     1      -8.482  -8.921  -5.517  1.00  0.00     0.006 C 
BRANCH   9  10
ATOM     10  C   UNL     1      -8.527  -7.418  -5.819  1.00  0.00     0.053 C 
BRANCH  10  11
ATOM     11  C   UNL     1      -9.364  -6.706  -4.805  1.00  0.00     0.041 C 
ATOM     12  O   UNL     1      -9.418  -7.127  -3.620  1.00  0.00    -0.550 OA
ATOM     13  O   UNL     1     -10.125  -5.606  -5.180  1.00  0.00    -0.550 OA
ENDBRANCH  10  11
ENDBRANCH   9  10
ENDBRANCH   8   9
ENDBRANCH   1   8
TORSDOF 8
ENDMDL
MODEL 8
REMARK VINA RESULT:    -2.667     14.405     16.091
REMARK INTER + INTRA:          -4.665
REMARK INTER:                  -3.985
REMARK INTRA:                  -0.680
REMARK UNBOUND:                -0.751
REMARK SMILES O=C([O-])CCCCCCCC(=O)[O-]
REMARK SMILES IDX 7 1 6 2 5 3 4 4 2 5 1 6 3 7 8 8 9 9 10 10 11 11 12 12 13 13
REMARK H PARENT
REMARK Flexibility Score: inf
ROOT
ATOM      1  C   UNL     1       6.905  -9.904  -4.196  1.00  0.00     0.000 C 
ENDROOT
BRANCH   1   2
ATOM      2  C   UNL     1       6.806  -9.645  -5.714  1.00  0.00     0.000 C 
BRANCH   2   3
ATOM      3  C   UNL     1       6.204  -8.275  -6.068  1.00  0.00     0.006 C 
BRANCH   3   4
ATOM      4  C   UNL     1       7.077  -7.471  -7.038  1.00  0.00     0.053 C 
BRANCH   4   5
ATOM      5  C   UNL     1       6.395  -7.328  -8.361  1.00  0.00     0.041 C 
ATOM      6  O   UNL     1       5.447  -8.096  -8.673  1.00  0.00    -0.550 OA
ATOM      7  O   UNL     1       6.837  -6.377  -9.273  1.00  0.00    -0.550 OA
ENDBRANCH   4   5
ENDBRANCH   3   4
ENDBRANCH   2   3
ENDBRANCH   1   2
BRANCH   1   8
ATOM      8  C   UNL     1       6.923  -8.596  -3.386  1.00  0.00     0.000 C 
BRANCH   8   9
ATOM      9  C   UNL     1       8.272  -8.349  -2.690  1.00  0.00     0.006 C 
BRANCH   9  10
ATOM     10  C   UNL     1       9.351  -7.845  -3.656  1.00  0.00     0.053 C 
BRANCH  10  11
ATOM     11  C   UNL     1       9.174  -6.384  -3.921  1.00  0.00     0.041 C 
ATOM     12  O   UNL     1       9.528  -5.893  -5.025  1.00  0.00    -0.550 OA
ATOM     13  O   UNL     1       8.663  -5.555  -2.930  1.00  0.00    -0.550 OA
ENDBRANCH  10  11
ENDBRANCH   9  10
ENDBRANCH   8   9
ENDBRANCH   1   8
TORSDOF 8
ENDMDL
