MODEL 1
REMARK VINA RESULT:     1.519      0.000      0.000
REMARK INTER + INTRA:           2.256
REMARK INTER:                   1.874
REMARK INTRA:                   0.382
REMARK UNBOUND:                 0.382
REMARK SMILES COc1cc(-c2oc3cc(O)cc(O)c3c(=O)c2O)ccc1O
REMARK SMILES IDX 6 1 18 2 16 3 17 4 15 5 13 6 12 7 10 8 9 9 8 10 7 11 5 12
REMARK SMILES IDX 3 13 22 14 4 15 21 16 20 17 2 18 1 19 23 20 19 22 14 24
REMARK SMILES IDX 11 26
REMARK H PARENT 23 21 19 23 14 25 11 27
REMARK Flexibility Score: inf
ROOT
ATOM      1  C   UNL     1       9.468  68.236  -0.215  1.00  0.00     0.180 A 
ATOM      2  C   UNL     1       9.822  68.830  -1.443  1.00  0.00     0.208 A 
ATOM      3  C   UNL     1       9.940  70.227  -1.512  1.00  0.00     0.238 A 
ATOM      4  O   UNL     1      10.246  70.769  -2.608  1.00  0.00    -0.285 OA
ATOM      5  C   UNL     1       9.723  71.002  -0.355  1.00  0.00     0.111 A 
ATOM      6  C   UNL     1       9.826  72.415  -0.338  1.00  0.00     0.134 A 
ATOM      7  C   UNL     1       9.605  73.115   0.857  1.00  0.00     0.093 A 
ATOM      8  C   UNL     1       9.283  72.430   2.034  1.00  0.00     0.123 A 
ATOM      9  C   UNL     1       9.179  71.038   2.023  1.00  0.00     0.094 A 
ATOM     10  C   UNL     1       9.396  70.322   0.842  1.00  0.00     0.146 A 
ATOM     11  O   UNL     1       9.286  68.999   0.859  1.00  0.00    -0.452 OA
ENDROOT
BRANCH   1  12
ATOM     12  C   UNL     1       9.306  66.772  -0.067  1.00  0.00     0.025 A 
ATOM     13  C   UNL     1       8.618  64.863   1.298  1.00  0.00     0.161 A 
ATOM     14  C   UNL     1       8.925  64.002   0.237  1.00  0.00     0.157 A 
ATOM     15  C   UNL     1       8.803  66.252   1.137  1.00  0.00     0.062 A 
ATOM     16  C   UNL     1       9.408  64.520  -0.972  1.00  0.00     0.051 A 
ATOM     17  C   UNL     1       9.591  65.895  -1.126  1.00  0.00     0.016 A 
BRANCH  13  18
ATOM     18  O   UNL     1       8.129  64.308   2.491  1.00  0.00    -0.493 OA
ATOM     19  C   UNL     1       6.812  64.506   2.993  1.00  0.00     0.278 C 
ENDBRANCH  13  18
BRANCH  14  20
ATOM     20  O   UNL     1       8.745  62.628   0.389  1.00  0.00    -0.504 OA
ATOM     21  H   UNL     1       8.005  62.132  -0.094  1.00  0.00     0.293 HD
ENDBRANCH  14  20
ENDBRANCH   1  12
BRANCH   2  22
ATOM     22  O   UNL     1      10.080  68.035  -2.563  1.00  0.00    -0.502 OA
ATOM     23  H   UNL     1      10.883  68.185  -3.162  1.00  0.00     0.293 HD
ENDBRANCH   2  22
BRANCH   6  24
ATOM     24  O   UNL     1      10.147  73.125  -1.497  1.00  0.00    -0.507 OA
ATOM     25  H   UNL     1      11.075  73.096  -1.900  1.00  0.00     0.293 HD
ENDBRANCH   6  24
BRANCH   8  26
ATOM     26  O   UNL     1       9.064  73.125   3.221  1.00  0.00    -0.508 OA
ATOM     27  H   UNL     1       9.300  74.106   3.313  1.00  0.00     0.293 HD
ENDBRANCH   8  26
TORSDOF 6
ENDMDL
MODEL 2
REMARK VINA RESULT:     1.522      1.449      3.493
REMARK INTER + INTRA:           2.260
REMARK INTER:                   1.875
REMARK INTRA:                   0.385
REMARK UNBOUND:                 0.382
REMARK SMILES COc1cc(-c2oc3cc(O)cc(O)c3c(=O)c2O)ccc1O
REMARK SMILES IDX 6 1 18 2 16 3 17 4 15 5 13 6 12 7 10 8 9 9 8 10 7 11 5 12
REMARK SMILES IDX 3 13 22 14 4 15 21 16 20 17 2 18 1 19 23 20 19 22 14 24
REMARK SMILES IDX 11 26
REMARK H PARENT 23 21 19 23 14 25 11 27
REMARK Flexibility Score: inf
ROOT
ATOM      1  C   UNL     1       9.587  68.306   0.795  1.00  0.00     0.180 A 
ATOM      2  C   UNL     1       9.469  68.912   2.061  1.00  0.00     0.208 A 
ATOM      3  C   UNL     1       9.741  70.283   2.185  1.00  0.00     0.238 A 
ATOM      4  O   UNL     1       9.650  70.833   3.316  1.00  0.00    -0.285 OA
ATOM      5  C   UNL     1      10.107  71.026   1.044  1.00  0.00     0.111 A 
ATOM      6  C   UNL     1      10.394  72.413   1.083  1.00  0.00     0.134 A 
ATOM      7  C   UNL     1      10.740  73.085  -0.098  1.00  0.00     0.093 A 
ATOM      8  C   UNL     1      10.805  72.398  -1.316  1.00  0.00     0.123 A 
ATOM      9  C   UNL     1      10.524  71.031  -1.359  1.00  0.00     0.094 A 
ATOM     10  C   UNL     1      10.177  70.343  -0.192  1.00  0.00     0.146 A 
ATOM     11  O   UNL     1       9.919  69.043  -0.262  1.00  0.00    -0.452 OA
ENDROOT
BRANCH   1  12
ATOM     12  C   UNL     1       9.334  66.862   0.587  1.00  0.00     0.025 A 
ATOM     13  C   UNL     1       9.490  64.889  -0.849  1.00  0.00     0.161 A 
ATOM     14  C   UNL     1       8.928  64.110   0.171  1.00  0.00     0.157 A 
ATOM     15  C   UNL     1       9.698  66.266  -0.632  1.00  0.00     0.062 A 
ATOM     16  C   UNL     1       8.583  64.697   1.394  1.00  0.00     0.051 A 
ATOM     17  C   UNL     1       8.790  66.062   1.605  1.00  0.00     0.016 A 
BRANCH  13  18
ATOM     18  O   UNL     1       9.829  64.263  -2.059  1.00  0.00    -0.493 OA
ATOM     19  C   UNL     1      11.130  63.779  -2.380  1.00  0.00     0.278 C 
ENDBRANCH  13  18
BRANCH  14  20
ATOM     20  O   UNL     1       8.718  62.748  -0.037  1.00  0.00    -0.504 OA
ATOM     21  H   UNL     1       8.003  62.410  -0.671  1.00  0.00     0.293 HD
ENDBRANCH  14  20
ENDBRANCH   1  12
BRANCH   2  22
ATOM     22  O   UNL     1       9.058  68.163   3.166  1.00  0.00    -0.502 OA
ATOM     23  H   UNL     1       8.081  68.015   3.390  1.00  0.00     0.293 HD
ENDBRANCH   2  22
BRANCH   6  24
ATOM     24  O   UNL     1      10.337  73.125   2.282  1.00  0.00    -0.507 OA
ATOM     25  H   UNL     1      11.085  73.082   2.963  1.00  0.00     0.293 HD
ENDBRANCH   6  24
BRANCH   8  26
ATOM     26  O   UNL     1      11.149  73.065  -2.490  1.00  0.00    -0.508 OA
ATOM     27  H   UNL     1      11.967  73.660  -2.541  1.00  0.00     0.293 HD
ENDBRANCH   8  26
TORSDOF 6
ENDMDL
MODEL 3
REMARK VINA RESULT:     1.846      0.813      2.078
REMARK INTER + INTRA:           2.660
REMARK INTER:                   2.215
REMARK INTRA:                   0.445
REMARK UNBOUND:                 0.382
REMARK SMILES COc1cc(-c2oc3cc(O)cc(O)c3c(=O)c2O)ccc1O
REMARK SMILES IDX 6 1 18 2 16 3 17 4 15 5 13 6 12 7 10 8 9 9 8 10 7 11 5 12
REMARK SMILES IDX 3 13 22 14 4 15 21 16 20 17 2 18 1 19 23 20 19 22 14 24
REMARK SMILES IDX 11 26
REMARK H PARENT 23 21 19 23 14 25 11 27
REMARK Flexibility Score: inf
ROOT
ATOM      1  C   UNL     1       9.450  68.239  -0.219  1.00  0.00     0.180 A 
ATOM      2  C   UNL     1       9.796  68.832  -1.449  1.00  0.00     0.208 A 
ATOM      3  C   UNL     1       9.924  70.229  -1.517  1.00  0.00     0.238 A 
ATOM      4  O   UNL     1      10.222  70.771  -2.615  1.00  0.00    -0.285 OA
ATOM      5  C   UNL     1       9.724  71.003  -0.356  1.00  0.00     0.111 A 
ATOM      6  C   UNL     1       9.838  72.415  -0.338  1.00  0.00     0.134 A 
ATOM      7  C   UNL     1       9.634  73.115   0.860  1.00  0.00     0.093 A 
ATOM      8  C   UNL     1       9.319  72.430   2.040  1.00  0.00     0.123 A 
ATOM      9  C   UNL     1       9.205  71.039   2.027  1.00  0.00     0.094 A 
ATOM     10  C   UNL     1       9.404  70.324   0.842  1.00  0.00     0.146 A 
ATOM     11  O   UNL     1       9.284  69.001   0.858  1.00  0.00    -0.452 OA
ENDROOT
BRANCH   1  12
ATOM     12  C   UNL     1       9.278  66.776  -0.072  1.00  0.00     0.025 A 
ATOM     13  C   UNL     1       9.567  64.526  -0.984  1.00  0.00     0.161 A 
ATOM     14  C   UNL     1       9.027  63.987   0.191  1.00  0.00     0.157 A 
ATOM     15  C   UNL     1       9.697  65.924  -1.107  1.00  0.00     0.062 A 
ATOM     16  C   UNL     1       8.627  64.833   1.233  1.00  0.00     0.051 A 
ATOM     17  C   UNL     1       8.757  66.218   1.106  1.00  0.00     0.016 A 
BRANCH  13  18
ATOM     18  O   UNL     1       9.963  63.646  -2.004  1.00  0.00    -0.493 OA
ATOM     19  C   UNL     1      11.258  63.628  -2.596  1.00  0.00     0.278 C 
ENDBRANCH  13  18
BRANCH  14  20
ATOM     20  O   UNL     1       8.894  62.606   0.318  1.00  0.00    -0.504 OA
ATOM     21  H   UNL     1       9.012  61.984  -0.473  1.00  0.00     0.293 HD
ENDBRANCH  14  20
ENDBRANCH   1  12
BRANCH   2  22
ATOM     22  O   UNL     1      10.036  68.038  -2.573  1.00  0.00    -0.502 OA
ATOM     23  H   UNL     1      10.922  67.573  -2.730  1.00  0.00     0.293 HD
ENDBRANCH   2  22
BRANCH   6  24
ATOM     24  O   UNL     1      10.152  73.125  -1.499  1.00  0.00    -0.507 OA
ATOM     25  H   UNL     1      10.392  72.654  -2.363  1.00  0.00     0.293 HD
ENDBRANCH   6  24
BRANCH   8  26
ATOM     26  O   UNL     1       9.117  73.124   3.230  1.00  0.00    -0.508 OA
ATOM     27  H   UNL     1       9.879  73.307   3.873  1.00  0.00     0.293 HD
ENDBRANCH   8  26
TORSDOF 6
ENDMDL
MODEL 4
REMARK VINA RESULT:     1.970      1.235      2.861
REMARK INTER + INTRA:           2.813
REMARK INTER:                   2.397
REMARK INTRA:                   0.416
REMARK UNBOUND:                 0.382
REMARK SMILES COc1cc(-c2oc3cc(O)cc(O)c3c(=O)c2O)ccc1O
REMARK SMILES IDX 6 1 18 2 16 3 17 4 15 5 13 6 12 7 10 8 9 9 8 10 7 11 5 12
REMARK SMILES IDX 3 13 22 14 4 15 21 16 20 17 2 18 1 19 23 20 19 22 14 24
REMARK SMILES IDX 11 26
REMARK H PARENT 23 21 19 23 14 25 11 27
REMARK Flexibility Score: inf
ROOT
ATOM      1  C   UNL     1       9.609  68.227   0.745  1.00  0.00     0.180 A 
ATOM      2  C   UNL     1       9.522  68.917   1.970  1.00  0.00     0.208 A 
ATOM      3  C   UNL     1       9.812  70.290   1.998  1.00  0.00     0.238 A 
ATOM      4  O   UNL     1       9.748  70.915   3.091  1.00  0.00    -0.285 OA
ATOM      5  C   UNL     1      10.164  70.952   0.804  1.00  0.00     0.111 A 
ATOM      6  C   UNL     1      10.467  72.334   0.744  1.00  0.00     0.134 A 
ATOM      7  C   UNL     1      10.799  72.922  -0.485  1.00  0.00     0.093 A 
ATOM      8  C   UNL     1      10.833  72.155  -1.655  1.00  0.00     0.123 A 
ATOM      9  C   UNL     1      10.536  70.792  -1.602  1.00  0.00     0.094 A 
ATOM     10  C   UNL     1      10.203  70.187  -0.386  1.00  0.00     0.146 A 
ATOM     11  O   UNL     1       9.930  68.888  -0.364  1.00  0.00    -0.452 OA
ENDROOT
BRANCH   1  12
ATOM     12  C   UNL     1       9.337  66.776   0.638  1.00  0.00     0.025 A 
ATOM     13  C   UNL     1       8.377  64.743   1.601  1.00  0.00     0.161 A 
ATOM     14  C   UNL     1       8.745  64.033   0.451  1.00  0.00     0.157 A 
ATOM     15  C   UNL     1       8.669  66.120   1.686  1.00  0.00     0.062 A 
ATOM     16  C   UNL     1       9.393  64.688  -0.603  1.00  0.00     0.051 A 
ATOM     17  C   UNL     1       9.682  66.052  -0.514  1.00  0.00     0.016 A 
BRANCH  13  18
ATOM     18  O   UNL     1       7.722  64.053   2.633  1.00  0.00    -0.493 OA
ATOM     19  C   UNL     1       6.467  64.433   3.188  1.00  0.00     0.278 C 
ENDBRANCH  13  18
BRANCH  14  20
ATOM     20  O   UNL     1       8.460  62.671   0.361  1.00  0.00    -0.504 OA
ATOM     21  H   UNL     1       7.924  62.290  -0.410  1.00  0.00     0.293 HD
ENDBRANCH  14  20
ENDBRANCH   1  12
BRANCH   2  22
ATOM     22  O   UNL     1       9.123  68.248   3.130  1.00  0.00    -0.502 OA
ATOM     23  H   UNL     1       8.412  67.527   3.124  1.00  0.00     0.293 HD
ENDBRANCH   2  22
BRANCH   6  24
ATOM     24  O   UNL     1      10.441  73.125   1.894  1.00  0.00    -0.507 OA
ATOM     25  H   UNL     1       9.569  73.420   2.319  1.00  0.00     0.293 HD
ENDBRANCH   6  24
BRANCH   8  26
ATOM     26  O   UNL     1      11.162  72.738  -2.877  1.00  0.00    -0.508 OA
ATOM     27  H   UNL     1      10.815  73.653  -3.138  1.00  0.00     0.293 HD
ENDBRANCH   8  26
TORSDOF 6
ENDMDL
MODEL 5
REMARK VINA RESULT:     3.942      1.476      3.634
REMARK INTER + INTRA:           5.245
REMARK INTER:                   4.876
REMARK INTRA:                   0.370
REMARK UNBOUND:                 0.382
REMARK SMILES COc1cc(-c2oc3cc(O)cc(O)c3c(=O)c2O)ccc1O
REMARK SMILES IDX 6 1 18 2 16 3 17 4 15 5 13 6 12 7 10 8 9 9 8 10 7 11 5 12
REMARK SMILES IDX 3 13 22 14 4 15 21 16 20 17 2 18 1 19 23 20 19 22 14 24
REMARK SMILES IDX 11 26
REMARK H PARENT 23 21 19 23 14 25 11 27
REMARK Flexibility Score: inf
ROOT
ATOM      1  C   UNL     1       9.527  68.441   0.755  1.00  0.00     0.180 A 
ATOM      2  C   UNL     1       9.761  69.540   1.605  1.00  0.00     0.208 A 
ATOM      3  C   UNL     1      10.257  70.731   1.052  1.00  0.00     0.238 A 
ATOM      4  O   UNL     1      10.480  71.717   1.805  1.00  0.00    -0.285 OA
ATOM      5  C   UNL     1      10.492  70.811  -0.335  1.00  0.00     0.111 A 
ATOM      6  C   UNL     1      10.987  71.975  -0.972  1.00  0.00     0.134 A 
ATOM      7  C   UNL     1      11.185  71.979  -2.360  1.00  0.00     0.093 A 
ATOM      8  C   UNL     1      10.897  70.842  -3.124  1.00  0.00     0.123 A 
ATOM      9  C   UNL     1      10.410  69.691  -2.502  1.00  0.00     0.094 A 
ATOM     10  C   UNL     1      10.206  69.667  -1.118  1.00  0.00     0.146 A 
ATOM     11  O   UNL     1       9.746  68.558  -0.552  1.00  0.00    -0.452 OA
ENDROOT
BRANCH   1  12
ATOM     12  C   UNL     1       9.023  67.145   1.264  1.00  0.00     0.025 A 
ATOM     13  C   UNL     1       8.673  64.749   0.927  1.00  0.00     0.161 A 
ATOM     14  C   UNL     1       8.132  64.653   2.216  1.00  0.00     0.157 A 
ATOM     15  C   UNL     1       9.125  66.000   0.458  1.00  0.00     0.062 A 
ATOM     16  C   UNL     1       8.048  65.790   3.029  1.00  0.00     0.051 A 
ATOM     17  C   UNL     1       8.495  67.027   2.560  1.00  0.00     0.016 A 
BRANCH  13  18
ATOM     18  O   UNL     1       8.748  63.586   0.144  1.00  0.00    -0.493 OA
ATOM     19  C   UNL     1       9.332  63.523  -1.153  1.00  0.00     0.278 C 
ENDBRANCH  13  18
BRANCH  14  20
ATOM     20  O   UNL     1       7.683  63.420   2.685  1.00  0.00    -0.504 OA
ATOM     21  H   UNL     1       8.105  62.550   2.383  1.00  0.00     0.293 HD
ENDBRANCH  14  20
ENDBRANCH   1  12
BRANCH   2  22
ATOM     22  O   UNL     1       9.474  69.451   2.969  1.00  0.00    -0.502 OA
ATOM     23  H   UNL     1      10.110  69.023   3.631  1.00  0.00     0.293 HD
ENDBRANCH   2  22
BRANCH   6  24
ATOM     24  O   UNL     1      11.282  73.125  -0.237  1.00  0.00    -0.507 OA
ATOM     25  H   UNL     1      11.869  73.860  -0.611  1.00  0.00     0.293 HD
ENDBRANCH   6  24
BRANCH   8  26
ATOM     26  O   UNL     1      11.093  70.845  -4.503  1.00  0.00    -0.508 OA
ATOM     27  H   UNL     1      10.330  71.024  -5.146  1.00  0.00     0.293 HD
ENDBRANCH   8  26
TORSDOF 6
ENDMDL
