MODEL 1
REMARK VINA RESULT:    -4.437      0.000      0.000
REMARK INTER + INTRA:          -6.466
REMARK INTER:                  -6.252
REMARK INTRA:                  -0.214
REMARK UNBOUND:                -0.214
REMARK SMILES CCCCCCCCC(=O)[O-]
REMARK SMILES IDX 6 1 7 2 8 3 9 4 10 5 11 6 5 7 4 8 3 9 2 10 1 11
REMARK H PARENT
REMARK Flexibility Score: inf
ROOT
ATOM      1  C   UNL     1      39.020  57.096  18.076  1.00  0.00     0.000 C 
ENDROOT
BRANCH   1   2
ATOM      2  C   UNL     1      37.994  56.634  17.031  1.00  0.00     0.006 C 
BRANCH   2   3
ATOM      3  C   UNL     1      36.646  57.356  17.168  1.00  0.00     0.053 C 
BRANCH   3   4
ATOM      4  C   UNL     1      35.834  57.188  15.923  1.00  0.00     0.041 C 
ATOM      5  O   UNL     1      36.283  57.584  14.815  1.00  0.00    -0.550 OA
ATOM      6  O   UNL     1      34.559  56.641  15.993  1.00  0.00    -0.550 OA
ENDBRANCH   3   4
ENDBRANCH   2   3
ENDBRANCH   1   2
BRANCH   1   7
ATOM      7  C   UNL     1      40.117  56.047  18.333  1.00  0.00     0.000 C 
BRANCH   7   8
ATOM      8  C   UNL     1      41.098  55.919  17.157  1.00  0.00    -0.000 C 
BRANCH   8   9
ATOM      9  C   UNL     1      42.511  55.517  17.609  1.00  0.00    -0.000 C 
BRANCH   9  10
ATOM     10  C   UNL     1      42.949  54.210  16.938  1.00  0.00    -0.003 C 
ATOM     11  C   UNL     1      42.359  54.086  15.536  1.00  0.00     0.004 C 
ENDBRANCH   9  10
ENDBRANCH   8   9
ENDBRANCH   7   8
ENDBRANCH   1   7
TORSDOF 7
ENDMDL
MODEL 2
REMARK VINA RESULT:    -4.427      3.610      6.207
REMARK INTER + INTRA:          -6.452
REMARK INTER:                  -6.212
REMARK INTRA:                  -0.240
REMARK UNBOUND:                -0.214
REMARK SMILES CCCCCCCCC(=O)[O-]
REMARK SMILES IDX 6 1 7 2 8 3 9 4 10 5 11 6 5 7 4 8 3 9 2 10 1 11
REMARK H PARENT
REMARK Flexibility Score: inf
ROOT
ATOM      1  C   UNL     1      40.198  56.013  18.337  1.00  0.00     0.000 C 
ENDROOT
BRANCH   1   2
ATOM      2  C   UNL     1      41.171  55.843  17.161  1.00  0.00     0.006 C 
BRANCH   2   3
ATOM      3  C   UNL     1      42.624  55.660  17.620  1.00  0.00     0.053 C 
BRANCH   3   4
ATOM      4  C   UNL     1      43.368  54.782  16.665  1.00  0.00     0.041 C 
ATOM      5  O   UNL     1      42.889  53.668  16.324  1.00  0.00    -0.550 OA
ATOM      6  O   UNL     1      44.614  55.170  16.189  1.00  0.00    -0.550 OA
ENDBRANCH   3   4
ENDBRANCH   2   3
ENDBRANCH   1   2
BRANCH   1   7
ATOM      7  C   UNL     1      39.114  57.071  18.059  1.00  0.00     0.000 C 
BRANCH   7   8
ATOM      8  C   UNL     1      38.135  56.638  16.956  1.00  0.00    -0.000 C 
BRANCH   8   9
ATOM      9  C   UNL     1      36.788  57.371  17.042  1.00  0.00    -0.000 C 
BRANCH   9  10
ATOM     10  C   UNL     1      36.143  57.497  15.657  1.00  0.00    -0.003 C 
ATOM     11  C   UNL     1      36.963  56.762  14.599  1.00  0.00     0.004 C 
ENDBRANCH   9  10
ENDBRANCH   8   9
ENDBRANCH   7   8
ENDBRANCH   1   7
TORSDOF 7
ENDMDL
MODEL 3
REMARK VINA RESULT:    -4.126      4.681      6.794
REMARK INTER + INTRA:          -6.029
REMARK INTER:                  -5.678
REMARK INTRA:                  -0.350
REMARK UNBOUND:                -0.214
REMARK SMILES CCCCCCCCC(=O)[O-]
REMARK SMILES IDX 6 1 7 2 8 3 9 4 10 5 11 6 5 7 4 8 3 9 2 10 1 11
REMARK H PARENT
REMARK Flexibility Score: inf
ROOT
ATOM      1  C   UNL     1      42.955  54.138  17.042  1.00  0.00     0.000 C 
ENDROOT
BRANCH   1   2
ATOM      2  C   UNL     1      42.530  53.742  15.620  1.00  0.00     0.006 C 
BRANCH   2   3
ATOM      3  C   UNL     1      43.489  54.278  14.548  1.00  0.00     0.053 C 
BRANCH   3   4
ATOM      4  C   UNL     1      44.888  53.822  14.823  1.00  0.00     0.041 C 
ATOM      5  O   UNL     1      45.795  54.665  15.051  1.00  0.00    -0.550 OA
ATOM      6  O   UNL     1      45.200  52.469  14.778  1.00  0.00    -0.550 OA
ENDBRANCH   3   4
ENDBRANCH   2   3
ENDBRANCH   1   2
BRANCH   1   7
ATOM      7  C   UNL     1      42.591  55.595  17.384  1.00  0.00     0.000 C 
BRANCH   7   8
ATOM      8  C   UNL     1      41.114  55.916  17.107  1.00  0.00    -0.000 C 
BRANCH   8   9
ATOM      9  C   UNL     1      40.293  56.077  18.396  1.00  0.00    -0.000 C 
BRANCH   9  10
ATOM     10  C   UNL     1      39.121  57.041  18.181  1.00  0.00    -0.003 C 
ATOM     11  C   UNL     1      38.250  56.597  17.009  1.00  0.00     0.004 C 
ENDBRANCH   9  10
ENDBRANCH   8   9
ENDBRANCH   7   8
ENDBRANCH   1   7
TORSDOF 7
ENDMDL
MODEL 4
REMARK VINA RESULT:    -4.065      3.986      6.557
REMARK INTER + INTRA:          -5.943
REMARK INTER:                  -5.756
REMARK INTRA:                  -0.187
REMARK UNBOUND:                -0.214
REMARK SMILES CCCCCCCCC(=O)[O-]
REMARK SMILES IDX 6 1 7 2 8 3 9 4 10 5 11 6 5 7 4 8 3 9 2 10 1 11
REMARK H PARENT
REMARK Flexibility Score: inf
ROOT
ATOM      1  C   UNL     1      41.623  55.734  17.116  1.00  0.00     0.000 C 
ENDROOT
BRANCH   1   2
ATOM      2  C   UNL     1      42.720  54.691  17.376  1.00  0.00     0.006 C 
BRANCH   2   3
ATOM      3  C   UNL     1      43.289  54.098  16.080  1.00  0.00     0.053 C 
BRANCH   3   4
ATOM      4  C   UNL     1      44.353  54.989  15.521  1.00  0.00     0.041 C 
ATOM      5  O   UNL     1      44.340  55.304  14.302  1.00  0.00    -0.550 OA
ATOM      6  O   UNL     1      45.388  55.431  16.336  1.00  0.00    -0.550 OA
ENDBRANCH   3   4
ENDBRANCH   2   3
ENDBRANCH   1   2
BRANCH   1   7
ATOM      7  C   UNL     1      40.572  55.781  18.241  1.00  0.00     0.000 C 
BRANCH   7   8
ATOM      8  C   UNL     1      39.537  56.898  18.037  1.00  0.00    -0.000 C 
BRANCH   8   9
ATOM      9  C   UNL     1      38.380  56.470  17.121  1.00  0.00    -0.000 C 
BRANCH   9  10
ATOM     10  C   UNL     1      37.166  57.388  17.308  1.00  0.00    -0.003 C 
ATOM     11  C   UNL     1      36.298  57.415  16.052  1.00  0.00     0.004 C 
ENDBRANCH   9  10
ENDBRANCH   8   9
ENDBRANCH   7   8
ENDBRANCH   1   7
TORSDOF 7
ENDMDL
MODEL 5
REMARK VINA RESULT:    -4.065      2.775      4.683
REMARK INTER + INTRA:          -5.942
REMARK INTER:                  -5.720
REMARK INTRA:                  -0.223
REMARK UNBOUND:                -0.214
REMARK SMILES CCCCCCCCC(=O)[O-]
REMARK SMILES IDX 6 1 7 2 8 3 9 4 10 5 11 6 5 7 4 8 3 9 2 10 1 11
REMARK H PARENT
REMARK Flexibility Score: inf
ROOT
ATOM      1  C   UNL     1      35.008  56.867  15.115  1.00  0.00     0.000 C 
ENDROOT
BRANCH   1   2
ATOM      2  C   UNL     1      34.109  56.264  16.205  1.00  0.00     0.006 C 
BRANCH   2   3
ATOM      3  C   UNL     1      32.615  56.432  15.895  1.00  0.00     0.053 C 
BRANCH   3   4
ATOM      4  C   UNL     1      31.784  55.856  16.998  1.00  0.00     0.041 C 
ATOM      5  O   UNL     1      30.789  56.489  17.438  1.00  0.00    -0.550 OA
ATOM      6  O   UNL     1      32.140  54.643  17.576  1.00  0.00    -0.550 OA
ENDBRANCH   3   4
ENDBRANCH   2   3
ENDBRANCH   1   2
BRANCH   1   7
ATOM      7  C   UNL     1      36.091  57.798  15.690  1.00  0.00     0.000 C 
BRANCH   7   8
ATOM      8  C   UNL     1      36.640  57.304  17.038  1.00  0.00    -0.000 C 
BRANCH   8   9
ATOM      9  C   UNL     1      38.015  56.632  16.904  1.00  0.00    -0.000 C 
BRANCH   9  10
ATOM     10  C   UNL     1      38.950  57.068  18.039  1.00  0.00    -0.003 C 
ATOM     11  C   UNL     1      40.089  56.069  18.228  1.00  0.00     0.004 C 
ENDBRANCH   9  10
ENDBRANCH   8   9
ENDBRANCH   7   8
ENDBRANCH   1   7
TORSDOF 7
ENDMDL
MODEL 6
REMARK VINA RESULT:    -3.988      5.693      8.073
REMARK INTER + INTRA:          -5.834
REMARK INTER:                  -5.552
REMARK INTRA:                  -0.282
REMARK UNBOUND:                -0.214
REMARK SMILES CCCCCCCCC(=O)[O-]
REMARK SMILES IDX 6 1 7 2 8 3 9 4 10 5 11 6 5 7 4 8 3 9 2 10 1 11
REMARK H PARENT
REMARK Flexibility Score: inf
ROOT
ATOM      1  C   UNL     1      44.703  54.598  15.689  1.00  0.00     0.000 C 
ENDROOT
BRANCH   1   2
ATOM      2  C   UNL     1      45.167  55.601  16.756  1.00  0.00     0.006 C 
BRANCH   2   3
ATOM      3  C   UNL     1      46.333  56.475  16.275  1.00  0.00     0.053 C 
BRANCH   3   4
ATOM      4  C   UNL     1      47.429  56.491  17.293  1.00  0.00     0.041 C 
ATOM      5  O   UNL     1      47.769  55.427  17.875  1.00  0.00    -0.550 OA
ATOM      6  O   UNL     1      48.040  57.691  17.638  1.00  0.00    -0.550 OA
ENDBRANCH   3   4
ENDBRANCH   2   3
ENDBRANCH   1   2
BRANCH   1   7
ATOM      7  C   UNL     1      43.205  54.260  15.807  1.00  0.00     0.000 C 
BRANCH   7   8
ATOM      8  C   UNL     1      42.591  54.746  17.129  1.00  0.00    -0.000 C 
BRANCH   8   9
ATOM      9  C   UNL     1      41.404  55.696  16.914  1.00  0.00    -0.000 C 
BRANCH   9  10
ATOM     10  C   UNL     1      40.646  55.931  18.226  1.00  0.00    -0.003 C 
ATOM     11  C   UNL     1      39.363  56.722  17.987  1.00  0.00     0.004 C 
ENDBRANCH   9  10
ENDBRANCH   8   9
ENDBRANCH   7   8
ENDBRANCH   1   7
TORSDOF 7
ENDMDL
MODEL 7
REMARK VINA RESULT:    -3.962      5.821      8.255
REMARK INTER + INTRA:          -5.798
REMARK INTER:                  -5.656
REMARK INTRA:                  -0.142
REMARK UNBOUND:                -0.214
REMARK SMILES CCCCCCCCC(=O)[O-]
REMARK SMILES IDX 6 1 7 2 8 3 9 4 10 5 11 6 5 7 4 8 3 9 2 10 1 11
REMARK H PARENT
REMARK Flexibility Score: inf
ROOT
ATOM      1  C   UNL     1      44.208  55.819  16.631  1.00  0.00     0.000 C 
ENDROOT
BRANCH   1   2
ATOM      2  C   UNL     1      45.458  55.201  15.987  1.00  0.00     0.006 C 
BRANCH   2   3
ATOM      3  C   UNL     1      46.690  56.109  16.101  1.00  0.00     0.053 C 
BRANCH   3   4
ATOM      4  C   UNL     1      47.846  55.352  16.675  1.00  0.00     0.041 C 
ATOM      5  O   UNL     1      48.556  54.622  15.935  1.00  0.00    -0.550 OA
ATOM      6  O   UNL     1      48.108  55.413  18.038  1.00  0.00    -0.550 OA
ENDBRANCH   3   4
ENDBRANCH   2   3
ENDBRANCH   1   2
BRANCH   1   7
ATOM      7  C   UNL     1      43.173  54.760  17.052  1.00  0.00     0.000 C 
BRANCH   7   8
ATOM      8  C   UNL     1      42.079  55.333  17.967  1.00  0.00    -0.000 C 
BRANCH   8   9
ATOM      9  C   UNL     1      40.919  55.959  17.179  1.00  0.00    -0.000 C 
BRANCH   9  10
ATOM     10  C   UNL     1      39.777  56.368  18.118  1.00  0.00    -0.003 C 
ATOM     11  C   UNL     1      38.497  56.653  17.336  1.00  0.00     0.004 C 
ENDBRANCH   9  10
ENDBRANCH   8   9
ENDBRANCH   7   8
ENDBRANCH   1   7
TORSDOF 7
ENDMDL
MODEL 8
REMARK VINA RESULT:    -3.944      2.999      6.485
REMARK INTER + INTRA:          -5.772
REMARK INTER:                  -5.484
REMARK INTRA:                  -0.288
REMARK UNBOUND:                -0.214
REMARK SMILES CCCCCCCCC(=O)[O-]
REMARK SMILES IDX 6 1 7 2 8 3 9 4 10 5 11 6 5 7 4 8 3 9 2 10 1 11
REMARK H PARENT
REMARK Flexibility Score: inf
ROOT
ATOM      1  C   UNL     1      36.898  57.169  17.290  1.00  0.00     0.000 C 
ENDROOT
BRANCH   1   2
ATOM      2  C   UNL     1      38.259  56.559  16.924  1.00  0.00     0.006 C 
BRANCH   2   3
ATOM      3  C   UNL     1      39.328  56.815  17.996  1.00  0.00     0.053 C 
BRANCH   3   4
ATOM      4  C   UNL     1      40.545  55.987  17.728  1.00  0.00     0.041 C 
ATOM      5  O   UNL     1      41.263  55.589  18.684  1.00  0.00    -0.550 OA
ATOM      6  O   UNL     1      40.916  55.698  16.421  1.00  0.00    -0.550 OA
ENDBRANCH   3   4
ENDBRANCH   2   3
ENDBRANCH   1   2
BRANCH   1   7
ATOM      7  C   UNL     1      36.188  57.801  16.079  1.00  0.00     0.000 C 
BRANCH   7   8
ATOM      8  C   UNL     1      35.677  56.752  15.080  1.00  0.00    -0.000 C 
BRANCH   8   9
ATOM      9  C   UNL     1      34.144  56.726  14.983  1.00  0.00    -0.000 C 
BRANCH   9  10
ATOM     10  C   UNL     1      33.543  55.810  16.055  1.00  0.00    -0.003 C 
ATOM     11  C   UNL     1      32.233  56.379  16.594  1.00  0.00     0.004 C 
ENDBRANCH   9  10
ENDBRANCH   8   9
ENDBRANCH   7   8
ENDBRANCH   1   7
TORSDOF 7
ENDMDL
MODEL 9
REMARK VINA RESULT:    -3.918      2.991      5.168
REMARK INTER + INTRA:          -5.736
REMARK INTER:                  -5.479
REMARK INTRA:                  -0.257
REMARK UNBOUND:                -0.214
REMARK SMILES CCCCCCCCC(=O)[O-]
REMARK SMILES IDX 6 1 7 2 8 3 9 4 10 5 11 6 5 7 4 8 3 9 2 10 1 11
REMARK H PARENT
REMARK Flexibility Score: inf
ROOT
ATOM      1  C   UNL     1      34.421  56.576  15.064  1.00  0.00     0.000 C 
ENDROOT
BRANCH   1   2
ATOM      2  C   UNL     1      33.050  55.891  15.163  1.00  0.00     0.006 C 
BRANCH   2   3
ATOM      3  C   UNL     1      32.611  55.661  16.616  1.00  0.00     0.053 C 
BRANCH   3   4
ATOM      4  C   UNL     1      31.304  56.340  16.881  1.00  0.00     0.041 C 
ATOM      5  O   UNL     1      30.732  56.201  17.994  1.00  0.00    -0.550 OA
ATOM      6  O   UNL     1      30.692  57.084  15.880  1.00  0.00    -0.550 OA
ENDBRANCH   3   4
ENDBRANCH   2   3
ENDBRANCH   1   2
BRANCH   1   7
ATOM      7  C   UNL     1      34.937  57.068  16.429  1.00  0.00     0.000 C 
BRANCH   7   8
ATOM      8  C   UNL     1      36.330  57.711  16.337  1.00  0.00    -0.000 C 
BRANCH   8   9
ATOM      9  C   UNL     1      37.461  56.713  16.631  1.00  0.00    -0.000 C 
BRANCH   9  10
ATOM     10  C   UNL     1      38.374  57.234  17.748  1.00  0.00    -0.003 C 
ATOM     11  C   UNL     1      39.592  56.333  17.929  1.00  0.00     0.004 C 
ENDBRANCH   9  10
ENDBRANCH   8   9
ENDBRANCH   7   8
ENDBRANCH   1   7
TORSDOF 7
ENDMDL
