MODEL 1
REMARK VINA RESULT:    -5.707      0.000      0.000
REMARK INTER + INTRA:          -6.335
REMARK INTER:                  -6.207
REMARK INTRA:                  -0.128
REMARK UNBOUND:                -0.128
REMARK SMILES Cc1ccc(C(C)C)cc1O
REMARK SMILES IDX 1 1 2 2 10 3 9 4 5 5 4 6 3 7 11 8 6 10 7 11 8 12
REMARK H PARENT 11 9
REMARK Flexibility Score: inf
ROOT
ATOM      1  C   UNL     1       0.961  34.721  77.476  1.00  0.00     0.048 C 
ATOM      2  C   UNL     1       1.258  33.249  77.533  1.00  0.00    -0.009 A 
ATOM      3  C   UNL     1       0.762  32.387  76.539  1.00  0.00     0.118 A 
ATOM      4  C   UNL     1       1.043  31.014  76.598  1.00  0.00     0.050 A 
ATOM      5  C   UNL     1       1.819  30.486  77.646  1.00  0.00    -0.042 A 
ATOM      6  C   UNL     1       2.309  31.355  78.635  1.00  0.00     0.004 A 
ATOM      7  C   UNL     1       2.031  32.722  78.578  1.00  0.00     0.007 A 
ENDROOT
BRANCH   3   8
ATOM      8  O   UNL     1      -0.008  32.897  75.494  1.00  0.00    -0.508 OA
ATOM      9  H   UNL     1      -1.020  32.848  75.507  1.00  0.00     0.293 HD
ENDBRANCH   3   8
BRANCH   5  10
ATOM     10  C   UNL     1       2.128  29.002  77.721  1.00  0.00     0.013 C 
ATOM     11  C   UNL     1       2.137  28.512  79.174  1.00  0.00     0.012 C 
ATOM     12  C   UNL     1       3.455  28.678  77.021  1.00  0.00     0.012 C 
ENDBRANCH   5  10
TORSDOF 2
ENDMDL
MODEL 2
REMARK VINA RESULT:    -5.622      2.284      4.587
REMARK INTER + INTRA:          -6.242
REMARK INTER:                  -6.115
REMARK INTRA:                  -0.128
REMARK UNBOUND:                -0.128
REMARK SMILES Cc1ccc(C(C)C)cc1O
REMARK SMILES IDX 1 1 2 2 10 3 9 4 5 5 4 6 3 7 11 8 6 10 7 11 8 12
REMARK H PARENT 11 9
REMARK Flexibility Score: inf
ROOT
ATOM      1  C   UNL     1       2.096  28.125  80.248  1.00  0.00     0.048 C 
ATOM      2  C   UNL     1       1.930  29.398  79.468  1.00  0.00    -0.009 A 
ATOM      3  C   UNL     1       2.939  29.827  78.588  1.00  0.00     0.118 A 
ATOM      4  C   UNL     1       2.778  31.017  77.864  1.00  0.00     0.050 A 
ATOM      5  C   UNL     1       1.612  31.791  78.007  1.00  0.00    -0.042 A 
ATOM      6  C   UNL     1       0.609  31.354  78.888  1.00  0.00     0.004 A 
ATOM      7  C   UNL     1       0.767  30.170  79.611  1.00  0.00     0.007 A 
ENDROOT
BRANCH   3   8
ATOM      8  O   UNL     1       4.101  29.070  78.436  1.00  0.00    -0.508 OA
ATOM      9  H   UNL     1       4.910  29.431  77.945  1.00  0.00     0.293 HD
ENDBRANCH   3   8
BRANCH   5  10
ATOM     10  C   UNL     1       1.427  33.080  77.228  1.00  0.00     0.013 C 
ATOM     11  C   UNL     1       1.974  34.281  78.009  1.00  0.00     0.012 C 
ATOM     12  C   UNL     1      -0.045  33.292  76.850  1.00  0.00     0.012 C 
ENDBRANCH   5  10
TORSDOF 2
ENDMDL
MODEL 3
REMARK VINA RESULT:    -5.604     14.717     15.729
REMARK INTER + INTRA:          -6.224
REMARK INTER:                  -6.103
REMARK INTRA:                  -0.121
REMARK UNBOUND:                -0.128
REMARK SMILES Cc1ccc(C(C)C)cc1O
REMARK SMILES IDX 1 1 2 2 10 3 9 4 5 5 4 6 3 7 11 8 6 10 7 11 8 12
REMARK H PARENT 11 9
REMARK Flexibility Score: inf
ROOT
ATOM      1  C   UNL     1      13.150  37.975  89.737  1.00  0.00     0.048 C 
ATOM      2  C   UNL     1      13.077  37.142  88.488  1.00  0.00    -0.009 A 
ATOM      3  C   UNL     1      12.940  37.758  87.232  1.00  0.00     0.118 A 
ATOM      4  C   UNL     1      12.872  36.975  86.071  1.00  0.00     0.050 A 
ATOM      5  C   UNL     1      12.940  35.572  86.148  1.00  0.00    -0.042 A 
ATOM      6  C   UNL     1      13.077  34.966  87.408  1.00  0.00     0.004 A 
ATOM      7  C   UNL     1      13.145  35.743  88.565  1.00  0.00     0.007 A 
ENDROOT
BRANCH   3   8
ATOM      8  O   UNL     1      12.870  39.148  87.141  1.00  0.00    -0.508 OA
ATOM      9  H   UNL     1      13.411  39.749  87.752  1.00  0.00     0.293 HD
ENDBRANCH   3   8
BRANCH   5  10
ATOM     10  C   UNL     1      12.868  34.714  84.898  1.00  0.00     0.013 C 
ATOM     11  C   UNL     1      14.017  33.700  84.857  1.00  0.00     0.012 C 
ATOM     12  C   UNL     1      12.851  35.581  83.632  1.00  0.00     0.012 C 
ENDBRANCH   5  10
TORSDOF 2
ENDMDL
MODEL 4
REMARK VINA RESULT:    -5.473      6.097      8.351
REMARK INTER + INTRA:          -6.081
REMARK INTER:                  -5.953
REMARK INTRA:                  -0.128
REMARK UNBOUND:                -0.128
REMARK SMILES Cc1ccc(C(C)C)cc1O
REMARK SMILES IDX 1 1 2 2 10 3 9 4 5 5 4 6 3 7 11 8 6 10 7 11 8 12
REMARK H PARENT 11 9
REMARK Flexibility Score: inf
ROOT
ATOM      1  C   UNL     1       7.955  25.372  82.251  1.00  0.00     0.048 C 
ATOM      2  C   UNL     1       6.605  25.388  81.592  1.00  0.00    -0.009 A 
ATOM      3  C   UNL     1       6.501  25.420  80.191  1.00  0.00     0.118 A 
ATOM      4  C   UNL     1       5.237  25.436  79.583  1.00  0.00     0.050 A 
ATOM      5  C   UNL     1       4.066  25.419  80.362  1.00  0.00    -0.042 A 
ATOM      6  C   UNL     1       4.181  25.388  81.761  1.00  0.00     0.004 A 
ATOM      7  C   UNL     1       5.437  25.372  82.370  1.00  0.00     0.007 A 
ENDROOT
BRANCH   3   8
ATOM      8  O   UNL     1       7.653  25.437  79.405  1.00  0.00    -0.508 OA
ATOM      9  H   UNL     1       7.607  25.458  78.394  1.00  0.00     0.293 HD
ENDBRANCH   3   8
BRANCH   5  10
ATOM     10  C   UNL     1       2.694  25.436  79.714  1.00  0.00     0.013 C 
ATOM     11  C   UNL     1       2.148  26.866  79.612  1.00  0.00     0.012 C 
ATOM     12  C   UNL     1       1.715  24.525  80.467  1.00  0.00     0.012 C 
ENDBRANCH   5  10
TORSDOF 2
ENDMDL
MODEL 5
REMARK VINA RESULT:    -5.438     14.575     15.606
REMARK INTER + INTRA:          -6.042
REMARK INTER:                  -5.914
REMARK INTRA:                  -0.128
REMARK UNBOUND:                -0.128
REMARK SMILES Cc1ccc(C(C)C)cc1O
REMARK SMILES IDX 1 1 2 2 10 3 9 4 5 5 4 6 3 7 11 8 6 10 7 11 8 12
REMARK H PARENT 11 9
REMARK Flexibility Score: inf
ROOT
ATOM      1  C   UNL     1      12.878  37.997  89.391  1.00  0.00     0.048 C 
ATOM      2  C   UNL     1      12.889  37.180  88.130  1.00  0.00    -0.009 A 
ATOM      3  C   UNL     1      12.852  35.776  88.194  1.00  0.00     0.118 A 
ATOM      4  C   UNL     1      12.864  35.020  87.013  1.00  0.00     0.050 A 
ATOM      5  C   UNL     1      12.912  35.652  85.757  1.00  0.00    -0.042 A 
ATOM      6  C   UNL     1      12.949  37.056  85.703  1.00  0.00     0.004 A 
ATOM      7  C   UNL     1      12.937  37.811  86.877  1.00  0.00     0.007 A 
ENDROOT
BRANCH   3   8
ATOM      8  O   UNL     1      12.805  35.136  89.432  1.00  0.00    -0.508 OA
ATOM      9  H   UNL     1      13.031  34.153  89.531  1.00  0.00     0.293 HD
ENDBRANCH   3   8
BRANCH   5  10
ATOM     10  C   UNL     1      12.925  34.844  84.473  1.00  0.00     0.013 C 
ATOM     11  C   UNL     1      14.040  33.790  84.495  1.00  0.00     0.012 C 
ATOM     12  C   UNL     1      13.053  35.756  83.246  1.00  0.00     0.012 C 
ENDBRANCH   5  10
TORSDOF 2
ENDMDL
MODEL 6
REMARK VINA RESULT:    -5.377      2.758      5.233
REMARK INTER + INTRA:          -5.976
REMARK INTER:                  -5.849
REMARK INTRA:                  -0.128
REMARK UNBOUND:                -0.128
REMARK SMILES Cc1ccc(C(C)C)cc1O
REMARK SMILES IDX 1 1 2 2 10 3 9 4 5 5 4 6 3 7 11 8 6 10 7 11 8 12
REMARK H PARENT 11 9
REMARK Flexibility Score: inf
ROOT
ATOM      1  C   UNL     1       2.484  26.470  80.660  1.00  0.00     0.048 C 
ATOM      2  C   UNL     1       2.102  27.766  80.002  1.00  0.00    -0.009 A 
ATOM      3  C   UNL     1       1.712  28.869  80.783  1.00  0.00     0.118 A 
ATOM      4  C   UNL     1       1.355  30.075  80.162  1.00  0.00     0.050 A 
ATOM      5  C   UNL     1       1.384  30.196  78.761  1.00  0.00    -0.042 A 
ATOM      6  C   UNL     1       1.775  29.089  77.990  1.00  0.00     0.004 A 
ATOM      7  C   UNL     1       2.130  27.887  78.605  1.00  0.00     0.007 A 
ENDROOT
BRANCH   3   8
ATOM      8  O   UNL     1       1.678  28.763  82.173  1.00  0.00    -0.508 OA
ATOM      9  H   UNL     1       0.882  29.083  82.712  1.00  0.00     0.293 HD
ENDBRANCH   3   8
BRANCH   5  10
ATOM     10  C   UNL     1       1.000  31.497  78.080  1.00  0.00     0.013 C 
ATOM     11  C   UNL     1       0.896  31.314  76.560  1.00  0.00     0.012 C 
ATOM     12  C   UNL     1       1.984  32.619  78.434  1.00  0.00     0.012 C 
ENDBRANCH   5  10
TORSDOF 2
ENDMDL
MODEL 7
REMARK VINA RESULT:    -5.308      2.921      4.202
REMARK INTER + INTRA:          -5.901
REMARK INTER:                  -5.773
REMARK INTRA:                  -0.128
REMARK UNBOUND:                -0.128
REMARK SMILES Cc1ccc(C(C)C)cc1O
REMARK SMILES IDX 1 1 2 2 10 3 9 4 5 5 4 6 3 7 11 8 6 10 7 11 8 12
REMARK H PARENT 11 9
REMARK Flexibility Score: inf
ROOT
ATOM      1  C   UNL     1       1.094  30.325  79.803  1.00  0.00     0.048 C 
ATOM      2  C   UNL     1       2.102  29.367  79.233  1.00  0.00    -0.009 A 
ATOM      3  C   UNL     1       2.978  29.782  78.215  1.00  0.00     0.118 A 
ATOM      4  C   UNL     1       3.915  28.881  77.688  1.00  0.00     0.050 A 
ATOM      5  C   UNL     1       3.990  27.561  78.167  1.00  0.00    -0.042 A 
ATOM      6  C   UNL     1       3.110  27.156  79.184  1.00  0.00     0.004 A 
ATOM      7  C   UNL     1       2.176  28.050  79.711  1.00  0.00     0.007 A 
ENDROOT
BRANCH   3   8
ATOM      8  O   UNL     1       2.915  31.088  77.730  1.00  0.00    -0.508 OA
ATOM      9  H   UNL     1       2.186  31.383  77.091  1.00  0.00     0.293 HD
ENDBRANCH   3   8
BRANCH   5  10
ATOM     10  C   UNL     1       5.000  26.579  77.603  1.00  0.00     0.013 C 
ATOM     11  C   UNL     1       4.353  25.659  76.560  1.00  0.00     0.012 C 
ATOM     12  C   UNL     1       5.663  25.764  78.721  1.00  0.00     0.012 C 
ENDBRANCH   5  10
TORSDOF 2
ENDMDL
MODEL 8
REMARK VINA RESULT:    -5.300      1.969      3.225
REMARK INTER + INTRA:          -5.893
REMARK INTER:                  -5.765
REMARK INTRA:                  -0.128
REMARK UNBOUND:                -0.128
REMARK SMILES Cc1ccc(C(C)C)cc1O
REMARK SMILES IDX 1 1 2 2 10 3 9 4 5 5 4 6 3 7 11 8 6 10 7 11 8 12
REMARK H PARENT 11 9
REMARK Flexibility Score: inf
ROOT
ATOM      1  C   UNL     1       0.888  31.995  78.259  1.00  0.00     0.048 C 
ATOM      2  C   UNL     1       1.325  30.596  78.592  1.00  0.00    -0.009 A 
ATOM      3  C   UNL     1       1.654  29.693  77.566  1.00  0.00     0.118 A 
ATOM      4  C   UNL     1       2.061  28.389  77.885  1.00  0.00     0.050 A 
ATOM      5  C   UNL     1       2.143  27.971  79.225  1.00  0.00    -0.042 A 
ATOM      6  C   UNL     1       1.812  28.881  80.243  1.00  0.00     0.004 A 
ATOM      7  C   UNL     1       1.407  30.180  79.929  1.00  0.00     0.007 A 
ENDROOT
BRANCH   3   8
ATOM      8  O   UNL     1       1.577  30.094  76.232  1.00  0.00    -0.508 OA
ATOM      9  H   UNL     1       0.686  30.213  75.764  1.00  0.00     0.293 HD
ENDBRANCH   3   8
BRANCH   5  10
ATOM     10  C   UNL     1       2.582  26.562  79.581  1.00  0.00     0.013 C 
ATOM     11  C   UNL     1       1.806  25.520  78.766  1.00  0.00     0.012 C 
ATOM     12  C   UNL     1       2.441  26.302  81.086  1.00  0.00     0.012 C 
ENDBRANCH   5  10
TORSDOF 2
ENDMDL
MODEL 9
REMARK VINA RESULT:    -5.228      7.611      8.533
REMARK INTER + INTRA:          -5.815
REMARK INTER:                  -5.699
REMARK INTRA:                  -0.115
REMARK UNBOUND:                -0.128
REMARK SMILES Cc1ccc(C(C)C)cc1O
REMARK SMILES IDX 1 1 2 2 10 3 9 4 5 5 4 6 3 7 11 8 6 10 7 11 8 12
REMARK H PARENT 11 9
REMARK Flexibility Score: inf
ROOT
ATOM      1  C   UNL     1       1.309  24.261  80.078  1.00  0.00     0.048 C 
ATOM      2  C   UNL     1       2.797  24.338  80.273  1.00  0.00    -0.009 A 
ATOM      3  C   UNL     1       3.349  25.292  81.146  1.00  0.00     0.118 A 
ATOM      4  C   UNL     1       4.739  25.358  81.322  1.00  0.00     0.050 A 
ATOM      5  C   UNL     1       5.592  24.476  80.634  1.00  0.00    -0.042 A 
ATOM      6  C   UNL     1       5.030  23.527  79.764  1.00  0.00     0.004 A 
ATOM      7  C   UNL     1       3.647  23.459  79.586  1.00  0.00     0.007 A 
ENDROOT
BRANCH   3   8
ATOM      8  O   UNL     1       2.516  26.172  81.835  1.00  0.00    -0.508 OA
ATOM      9  H   UNL     1       1.507  26.127  81.749  1.00  0.00     0.293 HD
ENDBRANCH   3   8
BRANCH   5  10
ATOM     10  C   UNL     1       7.097  24.539  80.818  1.00  0.00     0.013 C 
ATOM     11  C   UNL     1       7.477  25.524  81.931  1.00  0.00     0.012 C 
ATOM     12  C   UNL     1       7.801  24.895  79.502  1.00  0.00     0.012 C 
ENDBRANCH   5  10
TORSDOF 2
ENDMDL
