MODEL 1
REMARK VINA RESULT:    -6.232      0.000      0.000
REMARK INTER + INTRA:          -6.799
REMARK INTER:                  -6.961
REMARK INTRA:                   0.162
REMARK UNBOUND:                 0.162
REMARK SMILES COc1cc2ccc(=O)oc2c(O)c1O
REMARK SMILES IDX 3 1 14 2 12 3 11 4 5 5 4 6 6 7 7 8 8 9 9 10 10 11 2 12 1 13
REMARK SMILES IDX 15 14 13 16
REMARK H PARENT 15 15 13 17
REMARK Flexibility Score: inf
ROOT
ATOM      1  C   UNL     1     -33.183  12.172 -34.636  1.00  0.00     0.165 A 
ATOM      2  C   UNL     1     -32.569  10.913 -34.540  1.00  0.00     0.204 A 
ATOM      3  C   UNL     1     -32.378  10.124 -35.689  1.00  0.00     0.205 A 
ATOM      4  C   UNL     1     -32.804  10.598 -36.941  1.00  0.00     0.184 A 
ATOM      5  C   UNL     1     -33.421  11.864 -37.039  1.00  0.00     0.025 A 
ATOM      6  C   UNL     1     -33.609  12.644 -35.892  1.00  0.00     0.062 A 
ATOM      7  C   UNL     1     -33.834  12.310 -38.299  1.00  0.00     0.020 A 
ATOM      8  C   UNL     1     -33.628  11.501 -39.415  1.00  0.00     0.094 A 
ATOM      9  C   UNL     1     -33.010  10.259 -39.244  1.00  0.00     0.336 A 
ATOM     10  O   UNL     1     -32.814   9.512 -40.239  1.00  0.00    -0.246 OA
ATOM     11  O   UNL     1     -32.627   9.858 -38.034  1.00  0.00    -0.419 OA
ENDROOT
BRANCH   1  12
ATOM     12  O   UNL     1     -33.352  12.921 -33.461  1.00  0.00    -0.493 OA
ATOM     13  C   UNL     1     -32.288  13.502 -32.714  1.00  0.00     0.278 C 
ENDBRANCH   1  12
BRANCH   2  14
ATOM     14  O   UNL     1     -32.153  10.459 -33.288  1.00  0.00    -0.502 OA
ATOM     15  H   UNL     1     -31.176  10.406 -33.029  1.00  0.00     0.293 HD
ENDBRANCH   2  14
BRANCH   3  16
ATOM     16  O   UNL     1     -31.766   8.875 -35.573  1.00  0.00    -0.502 OA
ATOM     17  H   UNL     1     -32.254   8.013 -35.782  1.00  0.00     0.293 HD
ENDBRANCH   3  16
TORSDOF 3
ENDMDL
MODEL 2
REMARK VINA RESULT:    -5.800      1.572      5.507
REMARK INTER + INTRA:          -6.316
REMARK INTER:                  -6.298
REMARK INTRA:                  -0.018
REMARK UNBOUND:                 0.162
REMARK SMILES COc1cc2ccc(=O)oc2c(O)c1O
REMARK SMILES IDX 3 1 14 2 12 3 11 4 5 5 4 6 6 7 7 8 8 9 9 10 10 11 2 12 1 13
REMARK SMILES IDX 15 14 13 16
REMARK H PARENT 15 15 13 17
REMARK Flexibility Score: inf
ROOT
ATOM      1  C   UNL     1     -33.159   9.719 -39.009  1.00  0.00     0.165 A 
ATOM      2  C   UNL     1     -33.734  10.993 -39.142  1.00  0.00     0.204 A 
ATOM      3  C   UNL     1     -33.776  11.874 -38.046  1.00  0.00     0.205 A 
ATOM      4  C   UNL     1     -33.240  11.478 -36.810  1.00  0.00     0.184 A 
ATOM      5  C   UNL     1     -32.660  10.198 -36.674  1.00  0.00     0.025 A 
ATOM      6  C   UNL     1     -32.622   9.325 -37.768  1.00  0.00     0.062 A 
ATOM      7  C   UNL     1     -32.134   9.830 -35.432  1.00  0.00     0.020 A 
ATOM      8  C   UNL     1     -32.194  10.730 -34.369  1.00  0.00     0.094 A 
ATOM      9  C   UNL     1     -32.782  11.982 -34.574  1.00  0.00     0.336 A 
ATOM     10  O   UNL     1     -32.846  12.809 -33.627  1.00  0.00    -0.246 OA
ATOM     11  O   UNL     1     -33.276  12.305 -35.767  1.00  0.00    -0.419 OA
ENDROOT
BRANCH   1  12
ATOM     12  O   UNL     1     -33.140   8.876 -40.131  1.00  0.00    -0.493 OA
ATOM     13  C   UNL     1     -32.119   8.875 -41.124  1.00  0.00     0.278 C 
ENDBRANCH   1  12
BRANCH   2  14
ATOM     14  O   UNL     1     -34.262  11.368 -40.378  1.00  0.00    -0.502 OA
ATOM     15  H   UNL     1     -34.894  10.773 -40.900  1.00  0.00     0.293 HD
ENDBRANCH   2  14
BRANCH   3  16
ATOM     16  O   UNL     1     -34.353  13.136 -38.199  1.00  0.00    -0.502 OA
ATOM     17  H   UNL     1     -33.889  13.885 -38.698  1.00  0.00     0.293 HD
ENDBRANCH   3  16
TORSDOF 3
ENDMDL
MODEL 3
REMARK VINA RESULT:    -5.326      2.849      4.755
REMARK INTER + INTRA:          -5.786
REMARK INTER:                  -5.732
REMARK INTRA:                  -0.054
REMARK UNBOUND:                 0.162
REMARK SMILES COc1cc2ccc(=O)oc2c(O)c1O
REMARK SMILES IDX 3 1 14 2 12 3 11 4 5 5 4 6 6 7 7 8 8 9 9 10 10 11 2 12 1 13
REMARK SMILES IDX 15 14 13 16
REMARK H PARENT 15 15 13 17
REMARK Flexibility Score: inf
ROOT
ATOM      1  C   UNL     1     -33.203  10.371 -38.222  1.00  0.00     0.165 A 
ATOM      2  C   UNL     1     -33.596  11.710 -38.376  1.00  0.00     0.204 A 
ATOM      3  C   UNL     1     -34.374  12.103 -39.481  1.00  0.00     0.205 A 
ATOM      4  C   UNL     1     -34.760  11.150 -40.438  1.00  0.00     0.184 A 
ATOM      5  C   UNL     1     -34.366   9.803 -40.285  1.00  0.00     0.025 A 
ATOM      6  C   UNL     1     -33.591   9.418 -39.183  1.00  0.00     0.062 A 
ATOM      7  C   UNL     1     -34.765   8.875 -41.252  1.00  0.00     0.020 A 
ATOM      8  C   UNL     1     -35.535   9.301 -42.333  1.00  0.00     0.094 A 
ATOM      9  C   UNL     1     -35.890  10.650 -42.421  1.00  0.00     0.336 A 
ATOM     10  O   UNL     1     -36.585  11.056 -43.389  1.00  0.00    -0.246 OA
ATOM     11  O   UNL     1     -35.496  11.512 -41.487  1.00  0.00    -0.419 OA
ENDROOT
BRANCH   1  12
ATOM     12  O   UNL     1     -32.427  10.029 -37.104  1.00  0.00    -0.493 OA
ATOM     13  C   UNL     1     -31.004   9.974 -37.095  1.00  0.00     0.278 C 
ENDBRANCH   1  12
BRANCH   2  14
ATOM     14  O   UNL     1     -33.203  12.643 -37.415  1.00  0.00    -0.502 OA
ATOM     15  H   UNL     1     -32.399  13.246 -37.544  1.00  0.00     0.293 HD
ENDBRANCH   2  14
BRANCH   3  16
ATOM     16  O   UNL     1     -34.754  13.439 -39.615  1.00  0.00    -0.502 OA
ATOM     17  H   UNL     1     -35.713  13.712 -39.798  1.00  0.00     0.293 HD
ENDBRANCH   3  16
TORSDOF 3
ENDMDL
MODEL 4
REMARK VINA RESULT:    -5.323      1.204      4.785
REMARK INTER + INTRA:          -5.784
REMARK INTER:                  -5.717
REMARK INTRA:                  -0.067
REMARK UNBOUND:                 0.162
REMARK SMILES COc1cc2ccc(=O)oc2c(O)c1O
REMARK SMILES IDX 3 1 14 2 12 3 11 4 5 5 4 6 6 7 7 8 8 9 9 10 10 11 2 12 1 13
REMARK SMILES IDX 15 14 13 16
REMARK H PARENT 15 15 13 17
REMARK Flexibility Score: inf
ROOT
ATOM      1  C   UNL     1     -33.185  10.925 -38.494  1.00  0.00     0.165 A 
ATOM      2  C   UNL     1     -32.384   9.899 -37.970  1.00  0.00     0.204 A 
ATOM      3  C   UNL     1     -32.017   9.905 -36.611  1.00  0.00     0.205 A 
ATOM      4  C   UNL     1     -32.455  10.944 -35.774  1.00  0.00     0.184 A 
ATOM      5  C   UNL     1     -33.261  11.977 -36.300  1.00  0.00     0.025 A 
ATOM      6  C   UNL     1     -33.622  11.966 -37.652  1.00  0.00     0.062 A 
ATOM      7  C   UNL     1     -33.682  12.998 -35.443  1.00  0.00     0.020 A 
ATOM      8  C   UNL     1     -33.299  12.970 -34.102  1.00  0.00     0.094 A 
ATOM      9  C   UNL     1     -32.500  11.917 -33.649  1.00  0.00     0.336 A 
ATOM     10  O   UNL     1     -32.142  11.873 -32.443  1.00  0.00    -0.246 OA
ATOM     11  O   UNL     1     -32.113  10.958 -34.487  1.00  0.00    -0.419 OA
ENDROOT
BRANCH   1  12
ATOM     12  O   UNL     1     -33.524  10.875 -39.855  1.00  0.00    -0.493 OA
ATOM     13  C   UNL     1     -34.768  10.401 -40.361  1.00  0.00     0.278 C 
ENDBRANCH   1  12
BRANCH   2  14
ATOM     14  O   UNL     1     -31.959   8.875 -38.817  1.00  0.00    -0.502 OA
ATOM     15  H   UNL     1     -30.988   8.591 -38.878  1.00  0.00     0.293 HD
ENDBRANCH   2  14
BRANCH   3  16
ATOM     16  O   UNL     1     -31.220   8.875 -36.109  1.00  0.00    -0.502 OA
ATOM     17  H   UNL     1     -31.525   7.909 -36.103  1.00  0.00     0.293 HD
ENDBRANCH   3  16
TORSDOF 3
ENDMDL
MODEL 5
REMARK VINA RESULT:    -3.346      1.858      3.083
REMARK INTER + INTRA:          -3.575
REMARK INTER:                  -4.625
REMARK INTRA:                   1.050
REMARK UNBOUND:                 0.162
REMARK SMILES COc1cc2ccc(=O)oc2c(O)c1O
REMARK SMILES IDX 3 1 14 2 12 3 11 4 5 5 4 6 6 7 7 8 8 9 9 10 10 11 2 12 1 13
REMARK SMILES IDX 15 14 13 16
REMARK H PARENT 15 15 13 17
REMARK Flexibility Score: inf
ROOT
ATOM      1  C   UNL     1     -32.575  10.337 -36.108  1.00  0.00     0.165 A 
ATOM      2  C   UNL     1     -33.143  11.614 -36.244  1.00  0.00     0.204 A 
ATOM      3  C   UNL     1     -33.794  11.981 -37.436  1.00  0.00     0.205 A 
ATOM      4  C   UNL     1     -33.876  11.066 -38.498  1.00  0.00     0.184 A 
ATOM      5  C   UNL     1     -33.306   9.781 -38.363  1.00  0.00     0.025 A 
ATOM      6  C   UNL     1     -32.660   9.422 -37.174  1.00  0.00     0.062 A 
ATOM      7  C   UNL     1     -33.404   8.890 -39.436  1.00  0.00     0.020 A 
ATOM      8  C   UNL     1     -34.056   9.290 -40.601  1.00  0.00     0.094 A 
ATOM      9  C   UNL     1     -34.598  10.577 -40.666  1.00  0.00     0.336 A 
ATOM     10  O   UNL     1     -35.191  10.958 -41.709  1.00  0.00    -0.246 OA
ATOM     11  O   UNL     1     -34.490  11.405 -39.630  1.00  0.00    -0.419 OA
ENDROOT
BRANCH   1  12
ATOM     12  O   UNL     1     -31.937  10.018 -34.899  1.00  0.00    -0.493 OA
ATOM     13  C   UNL     1     -31.862  10.884 -33.771  1.00  0.00     0.278 C 
ENDBRANCH   1  12
BRANCH   2  14
ATOM     14  O   UNL     1     -33.051  12.510 -35.178  1.00  0.00    -0.502 OA
ATOM     15  H   UNL     1     -32.912  12.203 -34.223  1.00  0.00     0.293 HD
ENDBRANCH   2  14
BRANCH   3  16
ATOM     16  O   UNL     1     -34.352  13.256 -37.551  1.00  0.00    -0.502 OA
ATOM     17  H   UNL     1     -34.348  13.770 -38.424  1.00  0.00     0.293 HD
ENDBRANCH   3  16
TORSDOF 3
ENDMDL
