MODEL 1
REMARK VINA RESULT:    -6.925      0.000      0.000
REMARK INTER + INTRA:         -11.485
REMARK INTER:                  -9.556
REMARK INTRA:                  -1.929
REMARK UNBOUND:                -1.929
REMARK SMILES CC[C@@H](CC[C@@H](C)[C@@H]1CC[C@@H]2[C@H]3CC=C4C[C@H](O)CC[C@]4(C)[C@H]3CC[C@]21C)C(C)C
REMARK SMILES IDX 5 1 4 2 3 3 2 4 1 5 28 6 29 7 30 8 6 9 7 10 8 11 9 12 26 13
REMARK SMILES IDX 10 14 11 15 25 16 27 17 12 18 24 19 23 20 13 21 21 22 14 23
REMARK SMILES IDX 15 24 20 25 22 26 16 27 19 28 17 29 18 30
REMARK H PARENT 18 31
REMARK Flexibility Score: inf
ROOT
ATOM      1  C   UNL     1     150.079 131.484 153.886  1.00  0.00     0.004 C 
ENDROOT
BRANCH   1   2
ATOM      2  C   UNL     1     149.157 131.566 155.121  1.00  0.00     0.004 C 
BRANCH   2   3
ATOM      3  C   UNL     1     148.098 132.702 155.040  1.00  0.00    -0.009 C 
BRANCH   3   4
ATOM      4  C   UNL     1     148.334 133.742 156.172  1.00  0.00     0.000 C 
ATOM      5  C   UNL     1     148.731 135.124 155.647  1.00  0.00     0.004 C 
ENDBRANCH   3   4
BRANCH   3   6
ATOM      6  C   UNL     1     146.627 132.162 155.025  1.00  0.00    -0.014 C 
ATOM      7  C   UNL     1     146.358 131.165 156.166  1.00  0.00     0.007 C 
ATOM      8  C   UNL     1     146.212 131.548 153.677  1.00  0.00     0.007 C 
ENDBRANCH   3   6
ENDBRANCH   2   3
ENDBRANCH   1   2
BRANCH   1   9
ATOM      9  C   UNL     1     150.717 132.846 153.507  1.00  0.00    -0.011 C 
ATOM     10  C   UNL     1     152.125 132.966 154.133  1.00  0.00     0.008 C 
BRANCH   9  11
ATOM     11  C   UNL     1     150.673 133.051 151.949  1.00  0.00    -0.002 C 
ATOM     12  C   UNL     1     152.020 133.316 151.231  1.00  0.00     0.005 C 
ATOM     13  C   UNL     1     149.715 134.145 151.406  1.00  0.00    -0.026 C 
ATOM     14  C   UNL     1     151.679 134.116 149.960  1.00  0.00     0.005 C 
ATOM     15  C   UNL     1     150.152 134.169 149.930  1.00  0.00    -0.001 C 
ATOM     16  C   UNL     1     148.201 133.780 151.490  1.00  0.00     0.007 C 
ATOM     17  C   UNL     1     149.960 135.510 152.121  1.00  0.00     0.012 C 
ATOM     18  C   UNL     1     149.477 135.306 149.131  1.00  0.00     0.000 C 
ATOM     19  C   UNL     1     147.415 134.087 150.187  1.00  0.00     0.005 C 
ATOM     20  C   UNL     1     147.919 135.355 149.419  1.00  0.00     0.003 C 
ATOM     21  C   UNL     1     149.806 135.196 147.635  1.00  0.00     0.031 C 
ATOM     22  C   UNL     1     147.013 135.727 148.166  1.00  0.00    -0.008 C 
ATOM     23  C   UNL     1     149.095 136.286 146.894  1.00  0.00    -0.027 C 
ATOM     24  C   UNL     1     147.820 136.609 147.184  1.00  0.00    -0.065 C 
ATOM     25  C   UNL     1     145.703 136.436 148.671  1.00  0.00     0.014 C 
ATOM     26  C   UNL     1     146.567 134.465 147.376  1.00  0.00     0.016 C 
ATOM     27  C   UNL     1     147.296 137.906 146.585  1.00  0.00     0.063 C 
ATOM     28  C   UNL     1     145.736 137.956 148.548  1.00  0.00     0.033 C 
ATOM     29  C   UNL     1     145.908 138.325 147.076  1.00  0.00     0.118 C 
BRANCH  29  30
ATOM     30  O   UNL     1     145.758 139.710 146.908  1.00  0.00    -0.393 OA
ATOM     31  H   UNL     1     144.818 139.867 146.628  1.00  0.00     0.210 HD
ENDBRANCH  29  30
ENDBRANCH   9  11
ENDBRANCH   1   9
TORSDOF 7
ENDMDL
MODEL 2
REMARK VINA RESULT:    -6.637      4.553      7.093
REMARK INTER + INTRA:         -11.088
REMARK INTER:                  -9.873
REMARK INTRA:                  -1.215
REMARK UNBOUND:                -1.929
REMARK SMILES CC[C@@H](CC[C@@H](C)[C@@H]1CC[C@@H]2[C@H]3CC=C4C[C@H](O)CC[C@]4(C)[C@H]3CC[C@]21C)C(C)C
REMARK SMILES IDX 5 1 4 2 3 3 2 4 1 5 28 6 29 7 30 8 6 9 7 10 8 11 9 12 26 13
REMARK SMILES IDX 10 14 11 15 25 16 27 17 12 18 24 19 23 20 13 21 21 22 14 23
REMARK SMILES IDX 15 24 20 25 22 26 16 27 19 28 17 29 18 30
REMARK H PARENT 18 31
REMARK Flexibility Score: inf
ROOT
ATOM      1  C   UNL     1     148.621 134.875 149.253  1.00  0.00     0.004 C 
ENDROOT
BRANCH   1   2
ATOM      2  C   UNL     1     148.615 134.215 150.647  1.00  0.00     0.004 C 
BRANCH   2   3
ATOM      3  C   UNL     1     149.911 134.472 151.469  1.00  0.00    -0.009 C 
BRANCH   3   4
ATOM      4  C   UNL     1     150.544 135.834 151.066  1.00  0.00     0.000 C 
ATOM      5  C   UNL     1     151.084 136.624 152.261  1.00  0.00     0.004 C 
ENDBRANCH   3   4
BRANCH   3   6
ATOM      6  C   UNL     1     150.934 133.289 151.377  1.00  0.00    -0.014 C 
ATOM      7  C   UNL     1     151.661 133.039 152.710  1.00  0.00     0.007 C 
ATOM      8  C   UNL     1     151.955 133.447 150.238  1.00  0.00     0.007 C 
ENDBRANCH   3   6
ENDBRANCH   2   3
ENDBRANCH   1   2
BRANCH   1   9
ATOM      9  C   UNL     1     147.437 135.852 149.033  1.00  0.00    -0.011 C 
ATOM     10  C   UNL     1     147.946 137.180 148.428  1.00  0.00     0.008 C 
BRANCH   9  11
ATOM     11  C   UNL     1     146.300 135.149 148.206  1.00  0.00    -0.002 C 
ATOM     12  C   UNL     1     145.949 135.757 146.824  1.00  0.00     0.005 C 
ATOM     13  C   UNL     1     144.930 134.954 148.909  1.00  0.00    -0.026 C 
ATOM     14  C   UNL     1     144.481 135.383 146.551  1.00  0.00     0.005 C 
ATOM     15  C   UNL     1     144.086 134.474 147.714  1.00  0.00    -0.001 C 
ATOM     16  C   UNL     1     144.923 133.858 150.019  1.00  0.00     0.007 C 
ATOM     17  C   UNL     1     144.408 136.298 149.505  1.00  0.00     0.012 C 
ATOM     18  C   UNL     1     142.586 134.345 148.063  1.00  0.00     0.000 C 
ATOM     19  C   UNL     1     143.706 132.898 149.936  1.00  0.00     0.005 C 
ATOM     20  C   UNL     1     142.386 133.578 149.436  1.00  0.00     0.003 C 
ATOM     21  C   UNL     1     141.806 133.708 146.903  1.00  0.00     0.031 C 
ATOM     22  C   UNL     1     141.125 132.611 149.490  1.00  0.00    -0.008 C 
ATOM     23  C   UNL     1     140.371 133.558 147.300  1.00  0.00    -0.027 C 
ATOM     24  C   UNL     1     140.029 133.131 148.531  1.00  0.00    -0.065 C 
ATOM     25  C   UNL     1     140.621 132.507 150.977  1.00  0.00     0.014 C 
ATOM     26  C   UNL     1     141.478 131.168 149.033  1.00  0.00     0.016 C 
ATOM     27  C   UNL     1     138.568 133.292 148.923  1.00  0.00     0.063 C 
ATOM     28  C   UNL     1     139.413 133.387 151.283  1.00  0.00     0.033 C 
ATOM     29  C   UNL     1     138.255 132.958 150.384  1.00  0.00     0.118 C 
BRANCH  29  30
ATOM     30  O   UNL     1     137.079 133.622 150.768  1.00  0.00    -0.393 OA
ATOM     31  H   UNL     1     136.769 134.138 149.978  1.00  0.00     0.210 HD
ENDBRANCH  29  30
ENDBRANCH   9  11
ENDBRANCH   1   9
TORSDOF 7
ENDMDL
MODEL 3
REMARK VINA RESULT:    -6.437      5.927      9.663
REMARK INTER + INTRA:         -10.812
REMARK INTER:                  -8.432
REMARK INTRA:                  -2.380
REMARK UNBOUND:                -1.929
REMARK SMILES CC[C@@H](CC[C@@H](C)[C@@H]1CC[C@@H]2[C@H]3CC=C4C[C@H](O)CC[C@]4(C)[C@H]3CC[C@]21C)C(C)C
REMARK SMILES IDX 5 1 4 2 3 3 2 4 1 5 28 6 29 7 30 8 6 9 7 10 8 11 9 12 26 13
REMARK SMILES IDX 10 14 11 15 25 16 27 17 12 18 24 19 23 20 13 21 21 22 14 23
REMARK SMILES IDX 15 24 20 25 22 26 16 27 19 28 17 29 18 30
REMARK H PARENT 18 31
REMARK Flexibility Score: inf
ROOT
ATOM      1  C   UNL     1     137.478 133.016 147.863  1.00  0.00     0.004 C 
ENDROOT
BRANCH   1   2
ATOM      2  C   UNL     1     138.302 131.948 147.115  1.00  0.00     0.004 C 
BRANCH   2   3
ATOM      3  C   UNL     1     138.476 132.238 145.596  1.00  0.00    -0.009 C 
BRANCH   3   4
ATOM      4  C   UNL     1     139.957 132.026 145.172  1.00  0.00     0.000 C 
ATOM      5  C   UNL     1     140.732 131.117 146.130  1.00  0.00     0.004 C 
ENDBRANCH   3   4
BRANCH   3   6
ATOM      6  C   UNL     1     137.934 133.650 145.182  1.00  0.00    -0.014 C 
ATOM      7  C   UNL     1     136.676 133.559 144.302  1.00  0.00     0.007 C 
ATOM      8  C   UNL     1     138.991 134.538 144.503  1.00  0.00     0.007 C 
ENDBRANCH   3   6
ENDBRANCH   2   3
ENDBRANCH   1   2
BRANCH   1   9
ATOM      9  C   UNL     1     138.126 133.464 149.199  1.00  0.00    -0.011 C 
ATOM     10  C   UNL     1     137.241 133.034 150.391  1.00  0.00     0.008 C 
BRANCH   9  11
ATOM     11  C   UNL     1     139.615 132.965 149.275  1.00  0.00    -0.002 C 
ATOM     12  C   UNL     1     140.040 132.193 150.550  1.00  0.00     0.005 C 
ATOM     13  C   UNL     1     140.729 134.025 149.067  1.00  0.00    -0.026 C 
ATOM     14  C   UNL     1     141.556 132.414 150.700  1.00  0.00     0.005 C 
ATOM     15  C   UNL     1     141.964 133.189 149.447  1.00  0.00    -0.001 C 
ATOM     16  C   UNL     1     140.878 134.527 147.597  1.00  0.00     0.007 C 
ATOM     17  C   UNL     1     140.524 135.248 150.014  1.00  0.00     0.012 C 
ATOM     18  C   UNL     1     143.257 134.032 149.500  1.00  0.00     0.000 C 
ATOM     19  C   UNL     1     142.350 134.579 147.106  1.00  0.00     0.005 C 
ATOM     20  C   UNL     1     143.385 134.957 148.219  1.00  0.00     0.003 C 
ATOM     21  C   UNL     1     144.487 133.139 149.717  1.00  0.00     0.031 C 
ATOM     22  C   UNL     1     144.863 135.138 147.663  1.00  0.00    -0.008 C 
ATOM     23  C   UNL     1     145.719 133.989 149.714  1.00  0.00    -0.027 C 
ATOM     24  C   UNL     1     145.877 134.984 148.820  1.00  0.00    -0.065 C 
ATOM     25  C   UNL     1     144.976 136.535 146.949  1.00  0.00     0.014 C 
ATOM     26  C   UNL     1     145.221 134.060 146.602  1.00  0.00     0.016 C 
ATOM     27  C   UNL     1     147.013 135.961 149.086  1.00  0.00     0.063 C 
ATOM     28  C   UNL     1     145.632 137.615 147.803  1.00  0.00     0.033 C 
ATOM     29  C   UNL     1     147.051 137.171 148.149  1.00  0.00     0.118 C 
BRANCH  29  30
ATOM     30  O   UNL     1     147.743 138.219 148.777  1.00  0.00    -0.393 OA
ATOM     31  H   UNL     1     148.548 137.820 149.200  1.00  0.00     0.210 HD
ENDBRANCH  29  30
ENDBRANCH   9  11
ENDBRANCH   1   9
TORSDOF 7
ENDMDL
MODEL 4
REMARK VINA RESULT:    -6.408      6.468      9.284
REMARK INTER + INTRA:         -10.772
REMARK INTER:                  -8.707
REMARK INTRA:                  -2.065
REMARK UNBOUND:                -1.929
REMARK SMILES CC[C@@H](CC[C@@H](C)[C@@H]1CC[C@@H]2[C@H]3CC=C4C[C@H](O)CC[C@]4(C)[C@H]3CC[C@]21C)C(C)C
REMARK SMILES IDX 5 1 4 2 3 3 2 4 1 5 28 6 29 7 30 8 6 9 7 10 8 11 9 12 26 13
REMARK SMILES IDX 10 14 11 15 25 16 27 17 12 18 24 19 23 20 13 21 21 22 14 23
REMARK SMILES IDX 15 24 20 25 22 26 16 27 19 28 17 29 18 30
REMARK H PARENT 18 31
REMARK Flexibility Score: inf
ROOT
ATOM      1  C   UNL     1     137.506 132.438 148.223  1.00  0.00     0.004 C 
ENDROOT
BRANCH   1   2
ATOM      2  C   UNL     1     138.192 131.084 147.947  1.00  0.00     0.004 C 
BRANCH   2   3
ATOM      3  C   UNL     1     137.391 129.857 148.470  1.00  0.00    -0.009 C 
BRANCH   3   4
ATOM      4  C   UNL     1     136.005 130.309 149.014  1.00  0.00     0.000 C 
ATOM      5  C   UNL     1     134.892 129.295 148.740  1.00  0.00     0.004 C 
ENDBRANCH   3   4
BRANCH   3   6
ATOM      6  C   UNL     1     138.193 129.009 149.516  1.00  0.00    -0.014 C 
ATOM      7  C   UNL     1     137.872 129.412 150.966  1.00  0.00     0.007 C 
ATOM      8  C   UNL     1     139.714 129.028 149.286  1.00  0.00     0.007 C 
ENDBRANCH   3   6
ENDBRANCH   2   3
ENDBRANCH   1   2
BRANCH   1   9
ATOM      9  C   UNL     1     138.205 133.262 149.336  1.00  0.00    -0.011 C 
ATOM     10  C   UNL     1     137.398 133.173 150.651  1.00  0.00     0.008 C 
BRANCH   9  11
ATOM     11  C   UNL     1     139.713 132.836 149.462  1.00  0.00    -0.002 C 
ATOM     12  C   UNL     1     140.165 132.221 150.811  1.00  0.00     0.005 C 
ATOM     13  C   UNL     1     140.783 133.913 149.142  1.00  0.00    -0.026 C 
ATOM     14  C   UNL     1     141.671 132.519 150.935  1.00  0.00     0.005 C 
ATOM     15  C   UNL     1     142.050 133.173 149.607  1.00  0.00    -0.001 C 
ATOM     16  C   UNL     1     140.916 134.263 147.627  1.00  0.00     0.007 C 
ATOM     17  C   UNL     1     140.525 135.220 149.954  1.00  0.00     0.012 C 
ATOM     18  C   UNL     1     143.307 134.070 149.568  1.00  0.00     0.000 C 
ATOM     19  C   UNL     1     142.386 134.322 147.131  1.00  0.00     0.005 C 
ATOM     20  C   UNL     1     143.401 134.859 148.197  1.00  0.00     0.003 C 
ATOM     21  C   UNL     1     144.573 133.256 149.877  1.00  0.00     0.031 C 
ATOM     22  C   UNL     1     144.872 135.041 147.622  1.00  0.00    -0.008 C 
ATOM     23  C   UNL     1     145.769 134.152 149.783  1.00  0.00    -0.027 C 
ATOM     24  C   UNL     1     145.888 135.052 148.788  1.00  0.00    -0.065 C 
ATOM     25  C   UNL     1     144.930 136.358 146.764  1.00  0.00     0.014 C 
ATOM     26  C   UNL     1     145.278 133.872 146.681  1.00  0.00     0.016 C 
ATOM     27  C   UNL     1     146.982 136.097 148.948  1.00  0.00     0.063 C 
ATOM     28  C   UNL     1     145.538 137.548 147.499  1.00  0.00     0.033 C 
ATOM     29  C   UNL     1     146.974 137.202 147.888  1.00  0.00     0.118 C 
BRANCH  29  30
ATOM     30  O   UNL     1     147.619 138.338 148.400  1.00  0.00    -0.393 OA
ATOM     31  H   UNL     1     148.524 138.364 147.992  1.00  0.00     0.210 HD
ENDBRANCH  29  30
ENDBRANCH   9  11
ENDBRANCH   1   9
TORSDOF 7
ENDMDL
MODEL 5
REMARK VINA RESULT:    -6.200      5.168      8.833
REMARK INTER + INTRA:         -10.485
REMARK INTER:                  -8.945
REMARK INTRA:                  -1.540
REMARK UNBOUND:                -1.929
REMARK SMILES CC[C@@H](CC[C@@H](C)[C@@H]1CC[C@@H]2[C@H]3CC=C4C[C@H](O)CC[C@]4(C)[C@H]3CC[C@]21C)C(C)C
REMARK SMILES IDX 5 1 4 2 3 3 2 4 1 5 28 6 29 7 30 8 6 9 7 10 8 11 9 12 26 13
REMARK SMILES IDX 10 14 11 15 25 16 27 17 12 18 24 19 23 20 13 21 21 22 14 23
REMARK SMILES IDX 15 24 20 25 22 26 16 27 19 28 17 29 18 30
REMARK H PARENT 18 31
REMARK Flexibility Score: inf
ROOT
ATOM      1  C   UNL     1     146.092 137.422 147.712  1.00  0.00     0.004 C 
ENDROOT
BRANCH   1   2
ATOM      2  C   UNL     1     147.153 137.846 148.749  1.00  0.00     0.004 C 
BRANCH   2   3
ATOM      3  C   UNL     1     148.200 138.858 148.199  1.00  0.00    -0.009 C 
BRANCH   3   4
ATOM      4  C   UNL     1     147.998 139.065 146.671  1.00  0.00     0.000 C 
ATOM      5  C   UNL     1     149.144 138.496 145.830  1.00  0.00     0.004 C 
ENDBRANCH   3   4
BRANCH   3   6
ATOM      6  C   UNL     1     149.673 138.463 148.557  1.00  0.00    -0.014 C 
ATOM      7  C   UNL     1     149.745 137.192 149.421  1.00  0.00     0.007 C 
ATOM      8  C   UNL     1     150.471 139.599 149.220  1.00  0.00     0.007 C 
ENDBRANCH   3   6
ENDBRANCH   2   3
ENDBRANCH   1   2
BRANCH   1   9
ATOM      9  C   UNL     1     146.026 135.888 147.497  1.00  0.00    -0.011 C 
ATOM     10  C   UNL     1     147.418 135.344 147.105  1.00  0.00     0.008 C 
BRANCH   9  11
ATOM     11  C   UNL     1     145.380 135.191 148.750  1.00  0.00    -0.002 C 
ATOM     12  C   UNL     1     146.278 134.231 149.569  1.00  0.00     0.005 C 
ATOM     13  C   UNL     1     144.064 134.401 148.521  1.00  0.00    -0.026 C 
ATOM     14  C   UNL     1     145.328 133.224 150.242  1.00  0.00     0.005 C 
ATOM     15  C   UNL     1     143.924 133.717 149.892  1.00  0.00    -0.001 C 
ATOM     16  C   UNL     1     142.811 135.292 148.258  1.00  0.00     0.007 C 
ATOM     17  C   UNL     1     144.222 133.373 147.357  1.00  0.00     0.012 C 
ATOM     18  C   UNL     1     142.762 132.699 149.932  1.00  0.00     0.000 C 
ATOM     19  C   UNL     1     141.562 134.862 149.074  1.00  0.00     0.005 C 
ATOM     20  C   UNL     1     141.446 133.316 149.301  1.00  0.00     0.003 C 
ATOM     21  C   UNL     1     142.549 132.164 151.355  1.00  0.00     0.031 C 
ATOM     22  C   UNL     1     140.091 132.890 150.017  1.00  0.00    -0.008 C 
ATOM     23  C   UNL     1     141.387 131.220 151.356  1.00  0.00    -0.027 C 
ATOM     24  C   UNL     1     140.263 131.498 150.668  1.00  0.00    -0.065 C 
ATOM     25  C   UNL     1     138.922 132.920 148.964  1.00  0.00     0.014 C 
ATOM     26  C   UNL     1     139.699 133.875 151.153  1.00  0.00     0.016 C 
ATOM     27  C   UNL     1     139.272 130.357 150.499  1.00  0.00     0.063 C 
ATOM     28  C   UNL     1     138.553 131.547 148.412  1.00  0.00     0.033 C 
ATOM     29  C   UNL     1     138.095 130.661 149.568  1.00  0.00     0.118 C 
BRANCH  29  30
ATOM     30  O   UNL     1     137.575 129.455 149.072  1.00  0.00    -0.393 OA
ATOM     31  H   UNL     1     137.307 129.622 148.130  1.00  0.00     0.210 HD
ENDBRANCH  29  30
ENDBRANCH   9  11
ENDBRANCH   1   9
TORSDOF 7
ENDMDL
MODEL 6
REMARK VINA RESULT:    -6.166      5.182      8.120
REMARK INTER + INTRA:         -10.439
REMARK INTER:                  -8.813
REMARK INTRA:                  -1.626
REMARK UNBOUND:                -1.929
REMARK SMILES CC[C@@H](CC[C@@H](C)[C@@H]1CC[C@@H]2[C@H]3CC=C4C[C@H](O)CC[C@]4(C)[C@H]3CC[C@]21C)C(C)C
REMARK SMILES IDX 5 1 4 2 3 3 2 4 1 5 28 6 29 7 30 8 6 9 7 10 8 11 9 12 26 13
REMARK SMILES IDX 10 14 11 15 25 16 27 17 12 18 24 19 23 20 13 21 21 22 14 23
REMARK SMILES IDX 15 24 20 25 22 26 16 27 19 28 17 29 18 30
REMARK H PARENT 18 31
REMARK Flexibility Score: inf
ROOT
ATOM      1  C   UNL     1     139.911 134.153 149.881  1.00  0.00     0.004 C 
ENDROOT
BRANCH   1   2
ATOM      2  C   UNL     1     138.648 133.355 150.268  1.00  0.00     0.004 C 
BRANCH   2   3
ATOM      3  C   UNL     1     137.633 133.182 149.101  1.00  0.00    -0.009 C 
BRANCH   3   4
ATOM      4  C   UNL     1     136.695 131.973 149.378  1.00  0.00     0.000 C 
ATOM      5  C   UNL     1     137.187 131.078 150.518  1.00  0.00     0.004 C 
ENDBRANCH   3   4
BRANCH   3   6
ATOM      6  C   UNL     1     138.328 133.089 147.700  1.00  0.00    -0.014 C 
ATOM      7  C   UNL     1     137.514 133.784 146.596  1.00  0.00     0.007 C 
ATOM      8  C   UNL     1     138.671 131.650 147.279  1.00  0.00     0.007 C 
ENDBRANCH   3   6
ENDBRANCH   2   3
ENDBRANCH   1   2
BRANCH   1   9
ATOM      9  C   UNL     1     141.225 133.353 150.080  1.00  0.00    -0.011 C 
ATOM     10  C   UNL     1     140.906 131.876 150.402  1.00  0.00     0.008 C 
BRANCH   9  11
ATOM     11  C   UNL     1     142.180 133.563 148.850  1.00  0.00    -0.002 C 
ATOM     12  C   UNL     1     142.476 132.328 147.962  1.00  0.00     0.005 C 
ATOM     13  C   UNL     1     143.573 134.186 149.133  1.00  0.00    -0.026 C 
ATOM     14  C   UNL     1     143.852 132.580 147.319  1.00  0.00     0.005 C 
ATOM     15  C   UNL     1     144.234 133.994 147.756  1.00  0.00    -0.001 C 
ATOM     16  C   UNL     1     143.543 135.706 149.483  1.00  0.00     0.007 C 
ATOM     17  C   UNL     1     144.317 133.409 150.263  1.00  0.00     0.012 C 
ATOM     18  C   UNL     1     145.730 134.378 147.758  1.00  0.00     0.000 C 
ATOM     19  C   UNL     1     144.614 136.538 148.727  1.00  0.00     0.005 C 
ATOM     20  C   UNL     1     145.957 135.774 148.473  1.00  0.00     0.003 C 
ATOM     21  C   UNL     1     146.311 134.332 146.336  1.00  0.00     0.031 C 
ATOM     22  C   UNL     1     147.083 136.689 147.822  1.00  0.00    -0.008 C 
ATOM     23  C   UNL     1     147.746 134.756 146.378  1.00  0.00    -0.027 C 
ATOM     24  C   UNL     1     148.143 135.799 147.132  1.00  0.00    -0.065 C 
ATOM     25  C   UNL     1     147.706 137.608 148.937  1.00  0.00     0.014 C 
ATOM     26  C   UNL     1     146.507 137.634 146.731  1.00  0.00     0.016 C 
ATOM     27  C   UNL     1     149.643 135.960 147.330  1.00  0.00     0.063 C 
ATOM     28  C   UNL     1     149.040 137.105 149.479  1.00  0.00     0.033 C 
ATOM     29  C   UNL     1     150.045 137.047 148.330  1.00  0.00     0.118 C 
BRANCH  29  30
ATOM     30  O   UNL     1     151.327 136.766 148.828  1.00  0.00    -0.393 OA
ATOM     31  H   UNL     1     151.511 135.811 148.625  1.00  0.00     0.210 HD
ENDBRANCH  29  30
ENDBRANCH   9  11
ENDBRANCH   1   9
TORSDOF 7
ENDMDL
MODEL 7
REMARK VINA RESULT:    -6.117      4.751      8.104
REMARK INTER + INTRA:         -10.372
REMARK INTER:                  -9.235
REMARK INTRA:                  -1.137
REMARK UNBOUND:                -1.929
REMARK SMILES CC[C@@H](CC[C@@H](C)[C@@H]1CC[C@@H]2[C@H]3CC=C4C[C@H](O)CC[C@]4(C)[C@H]3CC[C@]21C)C(C)C
REMARK SMILES IDX 5 1 4 2 3 3 2 4 1 5 28 6 29 7 30 8 6 9 7 10 8 11 9 12 26 13
REMARK SMILES IDX 10 14 11 15 25 16 27 17 12 18 24 19 23 20 13 21 21 22 14 23
REMARK SMILES IDX 15 24 20 25 22 26 16 27 19 28 17 29 18 30
REMARK H PARENT 18 31
REMARK Flexibility Score: inf
ROOT
ATOM      1  C   UNL     1     141.053 134.413 147.250  1.00  0.00     0.004 C 
ENDROOT
BRANCH   1   2
ATOM      2  C   UNL     1     140.283 133.190 147.788  1.00  0.00     0.004 C 
BRANCH   2   3
ATOM      3  C   UNL     1     138.959 132.896 147.026  1.00  0.00    -0.009 C 
BRANCH   3   4
ATOM      4  C   UNL     1     138.699 133.992 145.953  1.00  0.00     0.000 C 
ATOM      5  C   UNL     1     137.211 134.224 145.678  1.00  0.00     0.004 C 
ENDBRANCH   3   4
BRANCH   3   6
ATOM      6  C   UNL     1     137.736 132.700 147.986  1.00  0.00    -0.014 C 
ATOM      7  C   UNL     1     137.958 133.357 149.358  1.00  0.00     0.007 C 
ATOM      8  C   UNL     1     137.323 131.229 148.163  1.00  0.00     0.007 C 
ENDBRANCH   3   6
ENDBRANCH   2   3
ENDBRANCH   1   2
BRANCH   1   9
ATOM      9  C   UNL     1     141.853 135.164 148.346  1.00  0.00    -0.011 C 
ATOM     10  C   UNL     1     141.062 135.170 149.674  1.00  0.00     0.008 C 
BRANCH   9  11
ATOM     11  C   UNL     1     143.308 134.576 148.455  1.00  0.00    -0.002 C 
ATOM     12  C   UNL     1     143.606 133.637 149.650  1.00  0.00     0.005 C 
ATOM     13  C   UNL     1     144.483 135.590 148.447  1.00  0.00    -0.026 C 
ATOM     14  C   UNL     1     145.117 133.753 149.921  1.00  0.00     0.005 C 
ATOM     15  C   UNL     1     145.647 134.647 148.800  1.00  0.00    -0.001 C 
ATOM     16  C   UNL     1     144.758 136.253 147.062  1.00  0.00     0.007 C 
ATOM     17  C   UNL     1     144.272 136.702 149.521  1.00  0.00     0.012 C 
ATOM     18  C   UNL     1     146.973 135.405 149.036  1.00  0.00     0.000 C 
ATOM     19  C   UNL     1     146.260 136.279 146.674  1.00  0.00     0.005 C 
ATOM     20  C   UNL     1     147.233 136.466 147.888  1.00  0.00     0.003 C 
ATOM     21  C   UNL     1     148.141 134.424 149.219  1.00  0.00     0.031 C 
ATOM     22  C   UNL     1     148.753 136.628 147.451  1.00  0.00    -0.008 C 
ATOM     23  C   UNL     1     149.409 135.199 149.397  1.00  0.00    -0.027 C 
ATOM     24  C   UNL     1     149.677 136.282 148.642  1.00  0.00    -0.065 C 
ATOM     25  C   UNL     1     148.982 138.091 146.921  1.00  0.00     0.014 C 
ATOM     26  C   UNL     1     149.131 135.664 146.291  1.00  0.00     0.016 C 
ATOM     27  C   UNL     1     150.836 137.155 149.096  1.00  0.00     0.063 C 
ATOM     28  C   UNL     1     149.628 139.024 147.939  1.00  0.00     0.033 C 
ATOM     29  C   UNL     1     150.998 138.464 148.317  1.00  0.00     0.118 C 
BRANCH  29  30
ATOM     30  O   UNL     1     151.693 139.390 149.110  1.00  0.00    -0.393 OA
ATOM     31  H   UNL     1     152.379 138.879 149.616  1.00  0.00     0.210 HD
ENDBRANCH  29  30
ENDBRANCH   9  11
ENDBRANCH   1   9
TORSDOF 7
ENDMDL
MODEL 8
REMARK VINA RESULT:    -6.058      5.815      8.655
REMARK INTER + INTRA:         -10.289
REMARK INTER:                  -7.947
REMARK INTRA:                  -2.342
REMARK UNBOUND:                -1.929
REMARK SMILES CC[C@@H](CC[C@@H](C)[C@@H]1CC[C@@H]2[C@H]3CC=C4C[C@H](O)CC[C@]4(C)[C@H]3CC[C@]21C)C(C)C
REMARK SMILES IDX 5 1 4 2 3 3 2 4 1 5 28 6 29 7 30 8 6 9 7 10 8 11 9 12 26 13
REMARK SMILES IDX 10 14 11 15 25 16 27 17 12 18 24 19 23 20 13 21 21 22 14 23
REMARK SMILES IDX 15 24 20 25 22 26 16 27 19 28 17 29 18 30
REMARK H PARENT 18 31
REMARK Flexibility Score: inf
ROOT
ATOM      1  C   UNL     1     139.835 129.732 149.806  1.00  0.00     0.004 C 
ENDROOT
BRANCH   1   2
ATOM      2  C   UNL     1     139.708 131.014 150.654  1.00  0.00     0.004 C 
BRANCH   2   3
ATOM      3  C   UNL     1     138.250 131.543 150.779  1.00  0.00    -0.009 C 
BRANCH   3   4
ATOM      4  C   UNL     1     137.295 130.709 149.878  1.00  0.00     0.000 C 
ATOM      5  C   UNL     1     136.147 130.060 150.657  1.00  0.00     0.004 C 
ENDBRANCH   3   4
BRANCH   3   6
ATOM      6  C   UNL     1     138.136 133.081 150.504  1.00  0.00    -0.014 C 
ATOM      7  C   UNL     1     137.380 133.387 149.199  1.00  0.00     0.007 C 
ATOM      8  C   UNL     1     139.491 133.809 150.515  1.00  0.00     0.007 C 
ENDBRANCH   3   6
ENDBRANCH   2   3
ENDBRANCH   1   2
BRANCH   1   9
ATOM      9  C   UNL     1     140.714 129.918 148.542  1.00  0.00    -0.011 C 
ATOM     10  C   UNL     1     140.187 129.032 147.391  1.00  0.00     0.008 C 
BRANCH   9  11
ATOM     11  C   UNL     1     140.839 131.445 148.188  1.00  0.00    -0.002 C 
ATOM     12  C   UNL     1     140.091 131.944 146.925  1.00  0.00     0.005 C 
ATOM     13  C   UNL     1     142.272 132.026 148.052  1.00  0.00    -0.026 C 
ATOM     14  C   UNL     1     140.864 133.179 146.429  1.00  0.00     0.005 C 
ATOM     15  C   UNL     1     141.940 133.418 147.487  1.00  0.00    -0.001 C 
ATOM     16  C   UNL     1     143.037 132.185 149.402  1.00  0.00     0.007 C 
ATOM     17  C   UNL     1     143.131 131.174 147.067  1.00  0.00     0.012 C 
ATOM     18  C   UNL     1     143.203 134.208 147.078  1.00  0.00     0.000 C 
ATOM     19  C   UNL     1     143.749 133.555 149.554  1.00  0.00     0.005 C 
ATOM     20  C   UNL     1     144.309 134.139 148.212  1.00  0.00     0.003 C 
ATOM     21  C   UNL     1     142.846 135.648 146.679  1.00  0.00     0.031 C 
ATOM     22  C   UNL     1     145.152 135.472 148.414  1.00  0.00    -0.008 C 
ATOM     23  C   UNL     1     144.101 136.389 146.336  1.00  0.00    -0.027 C 
ATOM     24  C   UNL     1     145.215 136.255 147.082  1.00  0.00    -0.065 C 
ATOM     25  C   UNL     1     146.580 135.099 148.958  1.00  0.00     0.014 C 
ATOM     26  C   UNL     1     144.503 136.417 149.464  1.00  0.00     0.016 C 
ATOM     27  C   UNL     1     146.499 136.813 146.488  1.00  0.00     0.063 C 
ATOM     28  C   UNL     1     147.667 135.090 147.888  1.00  0.00     0.033 C 
ATOM     29  C   UNL     1     147.768 136.488 147.282  1.00  0.00     0.118 C 
BRANCH  29  30
ATOM     30  O   UNL     1     148.879 136.562 146.427  1.00  0.00    -0.393 OA
ATOM     31  H   UNL     1     149.478 135.808 146.668  1.00  0.00     0.210 HD
ENDBRANCH  29  30
ENDBRANCH   9  11
ENDBRANCH   1   9
TORSDOF 7
ENDMDL
MODEL 9
REMARK VINA RESULT:    -5.936      5.682      9.410
REMARK INTER + INTRA:         -10.120
REMARK INTER:                  -8.268
REMARK INTRA:                  -1.852
REMARK UNBOUND:                -1.929
REMARK SMILES CC[C@@H](CC[C@@H](C)[C@@H]1CC[C@@H]2[C@H]3CC=C4C[C@H](O)CC[C@]4(C)[C@H]3CC[C@]21C)C(C)C
REMARK SMILES IDX 5 1 4 2 3 3 2 4 1 5 28 6 29 7 30 8 6 9 7 10 8 11 9 12 26 13
REMARK SMILES IDX 10 14 11 15 25 16 27 17 12 18 24 19 23 20 13 21 21 22 14 23
REMARK SMILES IDX 15 24 20 25 22 26 16 27 19 28 17 29 18 30
REMARK H PARENT 18 31
REMARK Flexibility Score: inf
ROOT
ATOM      1  C   UNL     1     138.041 134.149 146.092  1.00  0.00     0.004 C 
ENDROOT
BRANCH   1   2
ATOM      2  C   UNL     1     137.553 133.034 147.040  1.00  0.00     0.004 C 
BRANCH   2   3
ATOM      3  C   UNL     1     138.493 132.785 148.254  1.00  0.00    -0.009 C 
BRANCH   3   4
ATOM      4  C   UNL     1     138.847 131.274 148.362  1.00  0.00     0.000 C 
ATOM      5  C   UNL     1     140.251 130.947 147.848  1.00  0.00     0.004 C 
ENDBRANCH   3   4
BRANCH   3   6
ATOM      6  C   UNL     1     137.920 133.360 149.595  1.00  0.00    -0.014 C 
ATOM      7  C   UNL     1     139.019 133.609 150.642  1.00  0.00     0.007 C 
ATOM      8  C   UNL     1     136.797 132.500 150.201  1.00  0.00     0.007 C 
ENDBRANCH   3   6
ENDBRANCH   2   3
ENDBRANCH   1   2
BRANCH   1   9
ATOM      9  C   UNL     1     139.343 133.781 145.334  1.00  0.00    -0.011 C 
ATOM     10  C   UNL     1     139.016 133.375 143.880  1.00  0.00     0.008 C 
BRANCH   9  11
ATOM     11  C   UNL     1     140.396 134.941 145.469  1.00  0.00    -0.002 C 
ATOM     12  C   UNL     1     140.846 135.646 144.165  1.00  0.00     0.005 C 
ATOM     13  C   UNL     1     141.718 134.614 146.216  1.00  0.00    -0.026 C 
ATOM     14  C   UNL     1     142.260 136.192 144.437  1.00  0.00     0.005 C 
ATOM     15  C   UNL     1     142.515 135.896 145.915  1.00  0.00    -0.001 C 
ATOM     16  C   UNL     1     141.565 134.452 147.760  1.00  0.00     0.007 C 
ATOM     17  C   UNL     1     142.396 133.339 145.625  1.00  0.00     0.012 C 
ATOM     18  C   UNL     1     143.979 135.810 146.399  1.00  0.00     0.000 C 
ATOM     19  C   UNL     1     142.652 135.205 148.573  1.00  0.00     0.005 C 
ATOM     20  C   UNL     1     144.056 135.249 147.880  1.00  0.00     0.003 C 
ATOM     21  C   UNL     1     144.693 137.160 146.234  1.00  0.00     0.031 C 
ATOM     22  C   UNL     1     145.182 135.904 148.791  1.00  0.00    -0.008 C 
ATOM     23  C   UNL     1     146.090 137.045 146.758  1.00  0.00    -0.027 C 
ATOM     24  C   UNL     1     146.353 136.389 147.905  1.00  0.00    -0.065 C 
ATOM     25  C   UNL     1     145.642 134.857 149.872  1.00  0.00     0.014 C 
ATOM     26  C   UNL     1     144.657 137.146 149.564  1.00  0.00     0.016 C 
ATOM     27  C   UNL     1     147.815 136.082 148.191  1.00  0.00     0.063 C 
ATOM     28  C   UNL     1     146.946 134.146 149.527  1.00  0.00     0.033 C 
ATOM     29  C   UNL     1     148.057 135.188 149.409  1.00  0.00     0.118 C 
BRANCH  29  30
ATOM     30  O   UNL     1     149.300 134.551 149.275  1.00  0.00    -0.393 OA
ATOM     31  H   UNL     1     149.996 135.234 149.468  1.00  0.00     0.210 HD
ENDBRANCH  29  30
ENDBRANCH   9  11
ENDBRANCH   1   9
TORSDOF 7
ENDMDL
