MODEL 1
REMARK VINA RESULT:    -5.671      0.000      0.000
REMARK INTER + INTRA:          -9.181
REMARK INTER:                  -8.655
REMARK INTRA:                  -0.526
REMARK UNBOUND:                -0.526
REMARK SMILES CCCCCCCCCCC(=O)[O-]
REMARK SMILES IDX 7 1 8 2 9 3 10 4 11 5 12 6 13 7 6 8 5 9 4 10 3 11 2 12 1 13
REMARK H PARENT
REMARK Flexibility Score: inf
ROOT
ATOM      1  C   UNL     1     -11.916   0.714 -10.009  1.00  0.00     0.000 C 
ENDROOT
BRANCH   1   2
ATOM      2  C   UNL     1     -11.350  -0.472 -10.812  1.00  0.00     0.000 C 
BRANCH   2   3
ATOM      3  C   UNL     1     -10.270  -1.297 -10.080  1.00  0.00     0.006 C 
BRANCH   3   4
ATOM      4  C   UNL     1     -10.760  -2.647  -9.532  1.00  0.00     0.053 C 
BRANCH   4   5
ATOM      5  C   UNL     1      -9.733  -3.303  -8.663  1.00  0.00     0.041 C 
ATOM      6  O   UNL     1      -8.518  -3.287  -8.994  1.00  0.00    -0.550 OA
ATOM      7  O   UNL     1     -10.113  -3.905  -7.470  1.00  0.00    -0.550 OA
ENDBRANCH   4   5
ENDBRANCH   3   4
ENDBRANCH   2   3
ENDBRANCH   1   2
BRANCH   1   8
ATOM      8  C   UNL     1     -13.442   0.846 -10.136  1.00  0.00     0.000 C 
BRANCH   8   9
ATOM      9  C   UNL     1     -13.925   2.296  -9.974  1.00  0.00    -0.000 C 
BRANCH   9  10
ATOM     10  C   UNL     1     -13.794   2.804  -8.530  1.00  0.00    -0.000 C 
BRANCH  10  11
ATOM     11  C   UNL     1     -13.127   4.183  -8.491  1.00  0.00    -0.000 C 
BRANCH  11  12
ATOM     12  C   UNL     1     -11.766   4.156  -9.196  1.00  0.00    -0.003 C 
ATOM     13  C   UNL     1     -10.664   3.690  -8.250  1.00  0.00     0.004 C 
ENDBRANCH  11  12
ENDBRANCH  10  11
ENDBRANCH   9  10
ENDBRANCH   8   9
ENDBRANCH   1   8
TORSDOF 9
ENDMDL
MODEL 2
REMARK VINA RESULT:    -5.615      3.285      6.192
REMARK INTER + INTRA:          -9.095
REMARK INTER:                  -8.534
REMARK INTRA:                  -0.562
REMARK UNBOUND:                -0.526
REMARK SMILES CCCCCCCCCCC(=O)[O-]
REMARK SMILES IDX 7 1 8 2 9 3 10 4 11 5 12 6 13 7 6 8 5 9 4 10 3 11 2 12 1 13
REMARK H PARENT
REMARK Flexibility Score: inf
ROOT
ATOM      1  C   UNL     1     -11.399   0.863  -9.980  1.00  0.00     0.000 C 
ENDROOT
BRANCH   1   2
ATOM      2  C   UNL     1     -12.924   1.049  -9.884  1.00  0.00     0.000 C 
BRANCH   2   3
ATOM      3  C   UNL     1     -13.382   2.449  -9.425  1.00  0.00     0.006 C 
BRANCH   3   4
ATOM      4  C   UNL     1     -12.296   3.534  -9.508  1.00  0.00     0.053 C 
BRANCH   4   5
ATOM      5  C   UNL     1     -11.788   3.921  -8.154  1.00  0.00     0.041 C 
ATOM      6  O   UNL     1     -10.570   3.772  -7.866  1.00  0.00    -0.550 OA
ATOM      7  O   UNL     1     -12.652   4.476  -7.219  1.00  0.00    -0.550 OA
ENDBRANCH   4   5
ENDBRANCH   3   4
ENDBRANCH   2   3
ENDBRANCH   1   2
BRANCH   1   8
ATOM      8  C   UNL     1     -10.997  -0.339 -10.850  1.00  0.00     0.000 C 
BRANCH   8   9
ATOM      9  C   UNL     1     -12.085  -1.425 -10.895  1.00  0.00    -0.000 C 
BRANCH   9  10
ATOM     10  C   UNL     1     -11.720  -2.660 -10.058  1.00  0.00    -0.000 C 
BRANCH  10  11
ATOM     11  C   UNL     1     -10.209  -2.726  -9.807  1.00  0.00    -0.000 C 
BRANCH  11  12
ATOM     12  C   UNL     1      -9.907  -2.897  -8.314  1.00  0.00    -0.003 C 
ATOM     13  C   UNL     1      -9.176  -4.209  -8.046  1.00  0.00     0.004 C 
ENDBRANCH  11  12
ENDBRANCH  10  11
ENDBRANCH   9  10
ENDBRANCH   8   9
ENDBRANCH   1   8
TORSDOF 9
ENDMDL
MODEL 3
REMARK VINA RESULT:    -5.539      3.366      5.815
REMARK INTER + INTRA:          -8.979
REMARK INTER:                  -8.240
REMARK INTRA:                  -0.739
REMARK UNBOUND:                -0.526
REMARK SMILES CCCCCCCCCCC(=O)[O-]
REMARK SMILES IDX 7 1 8 2 9 3 10 4 11 5 12 6 13 7 6 8 5 9 4 10 3 11 2 12 1 13
REMARK H PARENT
REMARK Flexibility Score: inf
ROOT
ATOM      1  C   UNL     1     -14.669   0.067  -9.616  1.00  0.00     0.000 C 
ENDROOT
BRANCH   1   2
ATOM      2  C   UNL     1     -14.673   1.545  -9.186  1.00  0.00     0.000 C 
BRANCH   2   3
ATOM      3  C   UNL     1     -13.575   2.414  -9.833  1.00  0.00     0.006 C 
BRANCH   3   4
ATOM      4  C   UNL     1     -12.200   2.317  -9.151  1.00  0.00     0.053 C 
BRANCH   4   5
ATOM      5  C   UNL     1     -11.773   3.628  -8.567  1.00  0.00     0.041 C 
ATOM      6  O   UNL     1     -12.597   4.577  -8.466  1.00  0.00    -0.550 OA
ATOM      7  O   UNL     1     -10.474   3.793  -8.103  1.00  0.00    -0.550 OA
ENDBRANCH   4   5
ENDBRANCH   3   4
ENDBRANCH   2   3
ENDBRANCH   1   2
BRANCH   1   8
ATOM      8  C   UNL     1     -14.036  -0.150 -11.000  1.00  0.00     0.000 C 
BRANCH   8   9
ATOM      9  C   UNL     1     -12.897  -1.182 -10.973  1.00  0.00    -0.000 C 
BRANCH   9  10
ATOM     10  C   UNL     1     -11.511  -0.535 -11.122  1.00  0.00    -0.000 C 
BRANCH  10  11
ATOM     11  C   UNL     1     -10.549  -1.046 -10.045  1.00  0.00    -0.000 C 
BRANCH  11  12
ATOM     12  C   UNL     1     -10.787  -2.532  -9.754  1.00  0.00    -0.003 C 
ATOM     13  C   UNL     1      -9.532  -3.191  -9.189  1.00  0.00     0.004 C 
ENDBRANCH  11  12
ENDBRANCH  10  11
ENDBRANCH   9  10
ENDBRANCH   8   9
ENDBRANCH   1   8
TORSDOF 9
ENDMDL
MODEL 4
REMARK VINA RESULT:    -4.456      1.084      2.397
REMARK INTER + INTRA:          -7.327
REMARK INTER:                  -6.817
REMARK INTRA:                  -0.510
REMARK UNBOUND:                -0.526
REMARK SMILES CCCCCCCCCCC(=O)[O-]
REMARK SMILES IDX 7 1 8 2 9 3 10 4 11 5 12 6 13 7 6 8 5 9 4 10 3 11 2 12 1 13
REMARK H PARENT
REMARK Flexibility Score: inf
ROOT
ATOM      1  C   UNL     1     -10.766  -0.057 -11.035  1.00  0.00     0.000 C 
ENDROOT
BRANCH   1   2
ATOM      2  C   UNL     1     -10.060  -1.373 -10.660  1.00  0.00     0.000 C 
BRANCH   2   3
ATOM      3  C   UNL     1     -10.824  -2.256  -9.652  1.00  0.00     0.006 C 
BRANCH   3   4
ATOM      4  C   UNL     1     -10.270  -3.683  -9.505  1.00  0.00     0.053 C 
BRANCH   4   5
ATOM      5  C   UNL     1      -9.217  -3.767  -8.443  1.00  0.00     0.041 C 
ATOM      6  O   UNL     1      -9.443  -4.397  -7.375  1.00  0.00    -0.550 OA
ATOM      7  O   UNL     1      -7.976  -3.178  -8.646  1.00  0.00    -0.550 OA
ENDBRANCH   4   5
ENDBRANCH   3   4
ENDBRANCH   2   3
ENDBRANCH   1   2
BRANCH   1   8
ATOM      8  C   UNL     1     -11.759   0.415  -9.961  1.00  0.00     0.000 C 
BRANCH   8   9
ATOM      9  C   UNL     1     -11.165   1.495  -9.042  1.00  0.00    -0.000 C 
BRANCH   9  10
ATOM     10  C   UNL     1     -11.846   2.860  -9.220  1.00  0.00    -0.000 C 
BRANCH  10  11
ATOM     11  C   UNL     1     -13.289   2.695  -9.709  1.00  0.00    -0.000 C 
BRANCH  11  12
ATOM     12  C   UNL     1     -14.262   2.603  -8.528  1.00  0.00    -0.003 C 
ATOM     13  C   UNL     1     -15.121   1.346  -8.618  1.00  0.00     0.004 C 
ENDBRANCH  11  12
ENDBRANCH  10  11
ENDBRANCH   9  10
ENDBRANCH   8   9
ENDBRANCH   1   8
TORSDOF 9
ENDMDL
MODEL 5
REMARK VINA RESULT:    -4.426     16.961     18.367
REMARK INTER + INTRA:          -7.281
REMARK INTER:                  -6.699
REMARK INTRA:                  -0.583
REMARK UNBOUND:                -0.526
REMARK SMILES CCCCCCCCCCC(=O)[O-]
REMARK SMILES IDX 7 1 8 2 9 3 10 4 11 5 12 6 13 7 6 8 5 9 4 10 3 11 2 12 1 13
REMARK H PARENT
REMARK Flexibility Score: inf
ROOT
ATOM      1  C   UNL     1      -9.527   7.199   5.897  1.00  0.00     0.000 C 
ENDROOT
BRANCH   1   2
ATOM      2  C   UNL     1      -8.254   7.943   5.453  1.00  0.00     0.000 C 
BRANCH   2   3
ATOM      3  C   UNL     1      -8.376   9.481   5.424  1.00  0.00     0.006 C 
BRANCH   3   4
ATOM      4  C   UNL     1      -7.043  10.223   5.236  1.00  0.00     0.053 C 
BRANCH   4   5
ATOM      5  C   UNL     1      -6.315  10.402   6.533  1.00  0.00     0.041 C 
ATOM      6  O   UNL     1      -6.958  10.591   7.600  1.00  0.00    -0.550 OA
ATOM      7  O   UNL     1      -4.929  10.329   6.567  1.00  0.00    -0.550 OA
ENDBRANCH   4   5
ENDBRANCH   3   4
ENDBRANCH   2   3
ENDBRANCH   1   2
BRANCH   1   8
ATOM      8  C   UNL     1      -9.229   5.819   6.507  1.00  0.00     0.000 C 
BRANCH   8   9
ATOM      9  C   UNL     1      -9.862   5.639   7.896  1.00  0.00    -0.000 C 
BRANCH   9  10
ATOM     10  C   UNL     1     -10.578   4.288   8.047  1.00  0.00    -0.000 C 
BRANCH  10  11
ATOM     11  C   UNL     1     -11.392   3.956   6.792  1.00  0.00    -0.000 C 
BRANCH  11  12
ATOM     12  C   UNL     1     -12.797   4.565   6.870  1.00  0.00    -0.003 C 
ATOM     13  C   UNL     1     -13.027   5.567   5.743  1.00  0.00     0.004 C 
ENDBRANCH  11  12
ENDBRANCH  10  11
ENDBRANCH   9  10
ENDBRANCH   8   9
ENDBRANCH   1   8
TORSDOF 9
ENDMDL
MODEL 6
REMARK VINA RESULT:    -4.377     16.595     17.989
REMARK INTER + INTRA:          -7.207
REMARK INTER:                  -6.415
REMARK INTRA:                  -0.792
REMARK UNBOUND:                -0.526
REMARK SMILES CCCCCCCCCCC(=O)[O-]
REMARK SMILES IDX 7 1 8 2 9 3 10 4 11 5 12 6 13 7 6 8 5 9 4 10 3 11 2 12 1 13
REMARK H PARENT
REMARK Flexibility Score: inf
ROOT
ATOM      1  C   UNL     1      -9.146   5.724   6.535  1.00  0.00     0.000 C 
ENDROOT
BRANCH   1   2
ATOM      2  C   UNL     1      -9.254   7.035   5.736  1.00  0.00     0.000 C 
BRANCH   2   3
ATOM      3  C   UNL     1      -8.342   8.176   6.232  1.00  0.00     0.006 C 
BRANCH   3   4
ATOM      4  C   UNL     1      -7.911   9.169   5.141  1.00  0.00     0.053 C 
BRANCH   4   5
ATOM      5  C   UNL     1      -6.966  10.204   5.668  1.00  0.00     0.041 C 
ATOM      6  O   UNL     1      -6.707  11.233   4.987  1.00  0.00    -0.550 OA
ATOM      7  O   UNL     1      -6.396  10.050   6.925  1.00  0.00    -0.550 OA
ENDBRANCH   4   5
ENDBRANCH   3   4
ENDBRANCH   2   3
ENDBRANCH   1   2
BRANCH   1   8
ATOM      8  C   UNL     1      -9.905   5.775   7.871  1.00  0.00     0.000 C 
BRANCH   8   9
ATOM      9  C   UNL     1     -10.589   4.442   8.214  1.00  0.00    -0.000 C 
BRANCH   9  10
ATOM     10  C   UNL     1     -11.398   3.875   7.038  1.00  0.00    -0.000 C 
BRANCH  10  11
ATOM     11  C   UNL     1     -12.741   4.600   6.895  1.00  0.00    -0.000 C 
BRANCH  11  12
ATOM     12  C   UNL     1     -12.851   5.291   5.531  1.00  0.00    -0.003 C 
ATOM     13  C   UNL     1     -12.919   6.807   5.685  1.00  0.00     0.004 C 
ENDBRANCH  11  12
ENDBRANCH  10  11
ENDBRANCH   9  10
ENDBRANCH   8   9
ENDBRANCH   1   8
TORSDOF 9
ENDMDL
MODEL 7
REMARK VINA RESULT:    -4.359     14.849     16.530
REMARK INTER + INTRA:          -7.179
REMARK INTER:                  -6.400
REMARK INTRA:                  -0.779
REMARK UNBOUND:                -0.526
REMARK SMILES CCCCCCCCCCC(=O)[O-]
REMARK SMILES IDX 7 1 8 2 9 3 10 4 11 5 12 6 13 7 6 8 5 9 4 10 3 11 2 12 1 13
REMARK H PARENT
REMARK Flexibility Score: inf
ROOT
ATOM      1  C   UNL     1     -11.772   3.723   6.835  1.00  0.00     0.000 C 
ENDROOT
BRANCH   1   2
ATOM      2  C   UNL     1     -10.677   3.994   7.883  1.00  0.00     0.000 C 
BRANCH   2   3
ATOM      3  C   UNL     1     -10.450   5.482   8.218  1.00  0.00     0.006 C 
BRANCH   3   4
ATOM      4  C   UNL     1      -9.224   6.111   7.536  1.00  0.00     0.053 C 
BRANCH   4   5
ATOM      5  C   UNL     1      -9.498   6.460   6.106  1.00  0.00     0.041 C 
ATOM      6  O   UNL     1      -9.194   5.654   5.186  1.00  0.00    -0.550 OA
ATOM      7  O   UNL     1     -10.119   7.662   5.790  1.00  0.00    -0.550 OA
ENDBRANCH   4   5
ENDBRANCH   3   4
ENDBRANCH   2   3
ENDBRANCH   1   2
BRANCH   1   8
ATOM      8  C   UNL     1     -12.816   4.849   6.760  1.00  0.00     0.000 C 
BRANCH   8   9
ATOM      9  C   UNL     1     -12.949   5.439   5.346  1.00  0.00    -0.000 C 
BRANCH   9  10
ATOM     10  C   UNL     1     -13.537   6.858   5.351  1.00  0.00    -0.000 C 
BRANCH  10  11
ATOM     11  C   UNL     1     -14.826   6.920   4.524  1.00  0.00    -0.000 C 
BRANCH  11  12
ATOM     12  C   UNL     1     -14.764   5.953   3.336  1.00  0.00    -0.003 C 
ATOM     13  C   UNL     1     -14.113   6.611   2.123  1.00  0.00     0.004 C 
ENDBRANCH  11  12
ENDBRANCH  10  11
ENDBRANCH   9  10
ENDBRANCH   8   9
ENDBRANCH   1   8
TORSDOF 9
ENDMDL
MODEL 8
REMARK VINA RESULT:    -4.198      3.047      6.089
REMARK INTER + INTRA:          -6.933
REMARK INTER:                  -6.416
REMARK INTRA:                  -0.517
REMARK UNBOUND:                -0.526
REMARK SMILES CCCCCCCCCCC(=O)[O-]
REMARK SMILES IDX 7 1 8 2 9 3 10 4 11 5 12 6 13 7 6 8 5 9 4 10 3 11 2 12 1 13
REMARK H PARENT
REMARK Flexibility Score: inf
ROOT
ATOM      1  C   UNL     1     -13.694  -2.043 -10.355  1.00  0.00     0.000 C 
ENDROOT
BRANCH   1   2
ATOM      2  C   UNL     1     -14.600  -0.807 -10.508  1.00  0.00     0.000 C 
BRANCH   2   3
ATOM      3  C   UNL     1     -13.852   0.532 -10.672  1.00  0.00     0.006 C 
BRANCH   3   4
ATOM      4  C   UNL     1     -13.738   1.361  -9.382  1.00  0.00     0.053 C 
BRANCH   4   5
ATOM      5  C   UNL     1     -12.475   2.165  -9.344  1.00  0.00     0.041 C 
ATOM      6  O   UNL     1     -11.369   1.598  -9.135  1.00  0.00    -0.550 OA
ATOM      7  O   UNL     1     -12.515   3.534  -9.571  1.00  0.00    -0.550 OA
ENDBRANCH   4   5
ENDBRANCH   3   4
ENDBRANCH   2   3
ENDBRANCH   1   2
BRANCH   1   8
ATOM      8  C   UNL     1     -12.274  -1.812 -10.899  1.00  0.00     0.000 C 
BRANCH   8   9
ATOM      9  C   UNL     1     -11.217  -1.757  -9.785  1.00  0.00    -0.000 C 
BRANCH   9  10
ATOM     10  C   UNL     1      -9.821  -2.173 -10.275  1.00  0.00    -0.000 C 
BRANCH  10  11
ATOM     11  C   UNL     1      -9.494  -3.607  -9.844  1.00  0.00    -0.000 C 
BRANCH  11  12
ATOM     12  C   UNL     1      -8.843  -3.630  -8.457  1.00  0.00    -0.003 C 
ATOM     13  C   UNL     1      -9.838  -4.070  -7.388  1.00  0.00     0.004 C 
ENDBRANCH  11  12
ENDBRANCH  10  11
ENDBRANCH   9  10
ENDBRANCH   8   9
ENDBRANCH   1   8
TORSDOF 9
ENDMDL
MODEL 9
REMARK VINA RESULT:    -4.089     16.735     17.937
REMARK INTER + INTRA:          -6.767
REMARK INTER:                  -6.322
REMARK INTRA:                  -0.445
REMARK UNBOUND:                -0.526
REMARK SMILES CCCCCCCCCCC(=O)[O-]
REMARK SMILES IDX 7 1 8 2 9 3 10 4 11 5 12 6 13 7 6 8 5 9 4 10 3 11 2 12 1 13
REMARK H PARENT
REMARK Flexibility Score: inf
ROOT
ATOM      1  C   UNL     1      -9.326   7.037   5.762  1.00  0.00     0.000 C 
ENDROOT
BRANCH   1   2
ATOM      2  C   UNL     1      -9.152   5.777   6.630  1.00  0.00     0.000 C 
BRANCH   2   3
ATOM      3  C   UNL     1      -9.875   5.821   7.992  1.00  0.00     0.006 C 
BRANCH   3   4
ATOM      4  C   UNL     1     -10.717   4.574   8.308  1.00  0.00     0.053 C 
BRANCH   4   5
ATOM      5  C   UNL     1     -11.640   4.222   7.182  1.00  0.00     0.041 C 
ATOM      6  O   UNL     1     -11.399   3.224   6.452  1.00  0.00    -0.550 OA
ATOM      7  O   UNL     1     -12.783   4.978   6.959  1.00  0.00    -0.550 OA
ENDBRANCH   4   5
ENDBRANCH   3   4
ENDBRANCH   2   3
ENDBRANCH   1   2
BRANCH   1   8
ATOM      8  C   UNL     1      -8.394   8.186   6.184  1.00  0.00     0.000 C 
BRANCH   8   9
ATOM      9  C   UNL     1      -8.033   9.114   5.014  1.00  0.00    -0.000 C 
BRANCH   9  10
ATOM     10  C   UNL     1      -7.738  10.551   5.471  1.00  0.00    -0.000 C 
BRANCH  10  11
ATOM     11  C   UNL     1      -6.241  10.861   5.372  1.00  0.00    -0.000 C 
BRANCH  11  12
ATOM     12  C   UNL     1      -5.572  10.789   6.749  1.00  0.00    -0.003 C 
ATOM     13  C   UNL     1      -6.571  11.082   7.864  1.00  0.00     0.004 C 
ENDBRANCH  11  12
ENDBRANCH  10  11
ENDBRANCH   9  10
ENDBRANCH   8   9
ENDBRANCH   1   8
TORSDOF 9
ENDMDL
