MODEL 1
REMARK VINA RESULT:    -2.985      0.000      0.000
REMARK INTER + INTRA:          -4.887
REMARK INTER:                  -4.381
REMARK INTRA:                  -0.506
REMARK UNBOUND:                -0.506
REMARK SMILES O=C([O-])CCCCCCCC(=O)[O-]
REMARK SMILES IDX 7 1 6 2 5 3 4 4 2 5 1 6 3 7 8 8 9 9 10 10 11 11 12 12 13 13
REMARK H PARENT
REMARK Flexibility Score: inf
ROOT
ATOM      1  C   UNL     1      -9.254 -22.192  23.323  1.00  0.00     0.000 C 
ENDROOT
BRANCH   1   2
ATOM      2  C   UNL     1      -9.350 -20.676  23.081  1.00  0.00     0.000 C 
BRANCH   2   3
ATOM      3  C   UNL     1     -10.784 -20.206  22.772  1.00  0.00     0.006 C 
BRANCH   3   4
ATOM      4  C   UNL     1     -10.996 -18.693  22.954  1.00  0.00     0.053 C 
BRANCH   4   5
ATOM      5  C   UNL     1      -9.874 -17.878  22.384  1.00  0.00     0.041 C 
ATOM      6  O   UNL     1      -9.744 -17.761  21.137  1.00  0.00    -0.550 OA
ATOM      7  O   UNL     1      -8.953 -17.274  23.230  1.00  0.00    -0.550 OA
ENDBRANCH   4   5
ENDBRANCH   3   4
ENDBRANCH   2   3
ENDBRANCH   1   2
BRANCH   1   8
ATOM      8  C   UNL     1      -8.489 -22.922  22.207  1.00  0.00     0.000 C 
BRANCH   8   9
ATOM      9  C   UNL     1      -9.330 -23.098  20.933  1.00  0.00     0.006 C 
BRANCH   9  10
ATOM     10  C   UNL     1      -8.541 -22.744  19.664  1.00  0.00     0.053 C 
BRANCH  10  11
ATOM     11  C   UNL     1      -9.256 -21.724  18.832  1.00  0.00     0.041 C 
ATOM     12  O   UNL     1      -9.722 -20.684  19.364  1.00  0.00    -0.550 OA
ATOM     13  O   UNL     1      -9.433 -21.938  17.470  1.00  0.00    -0.550 OA
ENDBRANCH  10  11
ENDBRANCH   9  10
ENDBRANCH   8   9
ENDBRANCH   1   8
TORSDOF 8
ENDMDL
MODEL 2
REMARK VINA RESULT:    -2.960      2.114      5.827
REMARK INTER + INTRA:          -4.850
REMARK INTER:                  -4.497
REMARK INTRA:                  -0.353
REMARK UNBOUND:                -0.506
REMARK SMILES O=C([O-])CCCCCCCC(=O)[O-]
REMARK SMILES IDX 7 1 6 2 5 3 4 4 2 5 1 6 3 7 8 8 9 9 10 10 11 11 12 12 13 13
REMARK H PARENT
REMARK Flexibility Score: inf
ROOT
ATOM      1  C   UNL     1      -9.996 -20.544  19.283  1.00  0.00     0.000 C 
ENDROOT
BRANCH   1   2
ATOM      2  C   UNL     1     -10.391 -21.522  18.163  1.00  0.00     0.000 C 
BRANCH   2   3
ATOM      3  C   UNL     1      -9.178 -22.207  17.506  1.00  0.00     0.006 C 
BRANCH   3   4
ATOM      4  C   UNL     1      -7.852 -21.974  18.252  1.00  0.00     0.053 C 
BRANCH   4   5
ATOM      5  C   UNL     1      -6.651 -22.233  17.393  1.00  0.00     0.041 C 
ATOM      6  O   UNL     1      -6.701 -22.025  16.152  1.00  0.00    -0.550 OA
ATOM      7  O   UNL     1      -5.487 -22.736  17.959  1.00  0.00    -0.550 OA
ENDBRANCH   4   5
ENDBRANCH   3   4
ENDBRANCH   2   3
ENDBRANCH   1   2
BRANCH   1   8
ATOM      8  C   UNL     1     -10.461 -21.014  20.671  1.00  0.00     0.000 C 
BRANCH   8   9
ATOM      9  C   UNL     1     -11.077 -19.877  21.503  1.00  0.00     0.006 C 
BRANCH   9  10
ATOM     10  C   UNL     1     -10.122 -19.376  22.594  1.00  0.00     0.053 C 
BRANCH  10  11
ATOM     11  C   UNL     1      -9.662 -17.974  22.329  1.00  0.00     0.041 C 
ATOM     12  O   UNL     1      -9.881 -17.434  21.214  1.00  0.00    -0.550 OA
ATOM     13  O   UNL     1      -8.964 -17.275  23.307  1.00  0.00    -0.550 OA
ENDBRANCH  10  11
ENDBRANCH   9  10
ENDBRANCH   8   9
ENDBRANCH   1   8
TORSDOF 8
ENDMDL
MODEL 3
REMARK VINA RESULT:    -2.930      1.337      5.175
REMARK INTER + INTRA:          -4.806
REMARK INTER:                  -4.451
REMARK INTRA:                  -0.356
REMARK UNBOUND:                -0.506
REMARK SMILES O=C([O-])CCCCCCCC(=O)[O-]
REMARK SMILES IDX 7 1 6 2 5 3 4 4 2 5 1 6 3 7 8 8 9 9 10 10 11 11 12 12 13 13
REMARK H PARENT
REMARK Flexibility Score: inf
ROOT
ATOM      1  C   UNL     1      -8.977 -21.718  23.160  1.00  0.00     0.000 C 
ENDROOT
BRANCH   1   2
ATOM      2  C   UNL     1      -8.774 -23.106  22.529  1.00  0.00     0.000 C 
BRANCH   2   3
ATOM      3  C   UNL     1      -7.738 -23.104  21.389  1.00  0.00     0.006 C 
BRANCH   3   4
ATOM      4  C   UNL     1      -8.361 -23.043  19.983  1.00  0.00     0.053 C 
BRANCH   4   5
ATOM      5  C   UNL     1      -7.361 -22.700  18.921  1.00  0.00     0.041 C 
ATOM      6  O   UNL     1      -6.127 -22.792  19.156  1.00  0.00    -0.550 OA
ATOM      7  O   UNL     1      -7.791 -22.248  17.680  1.00  0.00    -0.550 OA
ENDBRANCH   4   5
ENDBRANCH   3   4
ENDBRANCH   2   3
ENDBRANCH   1   2
BRANCH   1   8
ATOM      8  C   UNL     1     -10.462 -21.344  23.301  1.00  0.00     0.000 C 
BRANCH   8   9
ATOM      9  C   UNL     1     -10.883 -20.223  22.336  1.00  0.00     0.006 C 
BRANCH   9  10
ATOM     10  C   UNL     1     -10.870 -18.845  23.010  1.00  0.00     0.053 C 
BRANCH  10  11
ATOM     11  C   UNL     1      -9.837 -17.941  22.408  1.00  0.00     0.041 C 
ATOM     12  O   UNL     1      -9.765 -17.803  21.159  1.00  0.00    -0.550 OA
ATOM     13  O   UNL     1      -8.934 -17.274  23.228  1.00  0.00    -0.550 OA
ENDBRANCH  10  11
ENDBRANCH   9  10
ENDBRANCH   8   9
ENDBRANCH   1   8
TORSDOF 8
ENDMDL
MODEL 4
REMARK VINA RESULT:    -2.838      2.645      3.347
REMARK INTER + INTRA:          -4.672
REMARK INTER:                  -4.362
REMARK INTRA:                  -0.310
REMARK UNBOUND:                -0.506
REMARK SMILES O=C([O-])CCCCCCCC(=O)[O-]
REMARK SMILES IDX 7 1 6 2 5 3 4 4 2 5 1 6 3 7 8 8 9 9 10 10 11 11 12 12 13 13
REMARK H PARENT
REMARK Flexibility Score: inf
ROOT
ATOM      1  C   UNL     1     -10.887 -20.479  18.291  1.00  0.00     0.000 C 
ENDROOT
BRANCH   1   2
ATOM      2  C   UNL     1     -10.025 -20.056  19.493  1.00  0.00     0.000 C 
BRANCH   2   3
ATOM      3  C   UNL     1     -10.813 -19.253  20.545  1.00  0.00     0.006 C 
BRANCH   3   4
ATOM      4  C   UNL     1     -10.056 -18.027  21.087  1.00  0.00     0.053 C 
BRANCH   4   5
ATOM      5  C   UNL     1      -9.997 -17.999  22.585  1.00  0.00     0.041 C 
ATOM      6  O   UNL     1      -8.981 -17.541  23.172  1.00  0.00    -0.550 OA
ATOM      7  O   UNL     1     -11.051 -18.507  23.332  1.00  0.00    -0.550 OA
ENDBRANCH   4   5
ENDBRANCH   3   4
ENDBRANCH   2   3
ENDBRANCH   1   2
BRANCH   1   8
ATOM      8  C   UNL     1     -10.546 -21.891  17.786  1.00  0.00     0.000 C 
BRANCH   8   9
ATOM      9  C   UNL     1      -9.205 -22.405  18.334  1.00  0.00     0.006 C 
BRANCH   9  10
ATOM     10  C   UNL     1      -8.115 -22.444  17.254  1.00  0.00     0.053 C 
BRANCH  10  11
ATOM     11  C   UNL     1      -6.744 -22.309  17.844  1.00  0.00     0.041 C 
ATOM     12  O   UNL     1      -5.791 -21.876  17.145  1.00  0.00    -0.550 OA
ATOM     13  O   UNL     1      -6.513 -22.689  19.161  1.00  0.00    -0.550 OA
ENDBRANCH  10  11
ENDBRANCH   9  10
ENDBRANCH   8   9
ENDBRANCH   1   8
TORSDOF 8
ENDMDL
MODEL 5
REMARK VINA RESULT:    -2.738     17.871     19.947
REMARK INTER + INTRA:          -4.524
REMARK INTER:                  -4.014
REMARK INTRA:                  -0.510
REMARK UNBOUND:                -0.506
REMARK SMILES O=C([O-])CCCCCCCC(=O)[O-]
REMARK SMILES IDX 7 1 6 2 5 3 4 4 2 5 1 6 3 7 8 8 9 9 10 10 11 11 12 12 13 13
REMARK H PARENT
REMARK Flexibility Score: inf
ROOT
ATOM      1  C   UNL     1       6.564 -21.960  12.227  1.00  0.00     0.000 C 
ENDROOT
BRANCH   1   2
ATOM      2  C   UNL     1       7.550 -20.819  11.922  1.00  0.00     0.000 C 
BRANCH   2   3
ATOM      3  C   UNL     1       8.429 -21.098  10.688  1.00  0.00     0.006 C 
BRANCH   3   4
ATOM      4  C   UNL     1       8.394 -22.563  10.217  1.00  0.00     0.053 C 
BRANCH   4   5
ATOM      5  C   UNL     1       7.879 -22.709   8.817  1.00  0.00     0.041 C 
ATOM      6  O   UNL     1       6.640 -22.731   8.594  1.00  0.00    -0.550 OA
ATOM      7  O   UNL     1       8.770 -22.852   7.760  1.00  0.00    -0.550 OA
ENDBRANCH   4   5
ENDBRANCH   3   4
ENDBRANCH   2   3
ENDBRANCH   1   2
BRANCH   1   8
ATOM      8  C   UNL     1       6.648 -22.440  13.686  1.00  0.00     0.000 C 
BRANCH   8   9
ATOM      9  C   UNL     1       7.984 -22.072  14.351  1.00  0.00     0.006 C 
BRANCH   9  10
ATOM     10  C   UNL     1       7.791 -21.176  15.582  1.00  0.00     0.053 C 
BRANCH  10  11
ATOM     11  C   UNL     1       7.196 -21.931  16.731  1.00  0.00     0.041 C 
ATOM     12  O   UNL     1       7.618 -23.080  17.023  1.00  0.00    -0.550 OA
ATOM     13  O   UNL     1       6.153 -21.375  17.463  1.00  0.00    -0.550 OA
ENDBRANCH  10  11
ENDBRANCH   9  10
ENDBRANCH   8   9
ENDBRANCH   1   8
TORSDOF 8
ENDMDL
MODEL 6
REMARK VINA RESULT:    -2.718      2.418      5.303
REMARK INTER + INTRA:          -4.496
REMARK INTER:                  -3.987
REMARK INTRA:                  -0.509
REMARK UNBOUND:                -0.506
REMARK SMILES O=C([O-])CCCCCCCC(=O)[O-]
REMARK SMILES IDX 7 1 6 2 5 3 4 4 2 5 1 6 3 7 8 8 9 9 10 10 11 11 12 12 13 13
REMARK H PARENT
REMARK Flexibility Score: inf
ROOT
ATOM      1  C   UNL     1     -10.199 -18.798  20.151  1.00  0.00     0.000 C 
ENDROOT
BRANCH   1   2
ATOM      2  C   UNL     1     -10.845 -19.951  19.363  1.00  0.00     0.000 C 
BRANCH   2   3
ATOM      3  C   UNL     1      -9.977 -21.223  19.338  1.00  0.00     0.006 C 
BRANCH   3   4
ATOM      4  C   UNL     1      -9.676 -21.744  17.921  1.00  0.00     0.053 C 
BRANCH   4   5
ATOM      5  C   UNL     1      -8.231 -22.095  17.728  1.00  0.00     0.041 C 
ATOM      6  O   UNL     1      -7.719 -22.068  16.578  1.00  0.00    -0.550 OA
ATOM      7  O   UNL     1      -7.459 -22.483  18.816  1.00  0.00    -0.550 OA
ENDBRANCH   4   5
ENDBRANCH   3   4
ENDBRANCH   2   3
ENDBRANCH   1   2
BRANCH   1   8
ATOM      8  C   UNL     1     -11.125 -18.237  21.243  1.00  0.00     0.000 C 
BRANCH   8   9
ATOM      9  C   UNL     1     -11.020 -19.017  22.564  1.00  0.00     0.006 C 
BRANCH   9  10
ATOM     10  C   UNL     1      -9.621 -19.614  22.773  1.00  0.00     0.053 C 
BRANCH  10  11
ATOM     11  C   UNL     1      -9.684 -21.077  23.091  1.00  0.00     0.041 C 
ATOM     12  O   UNL     1      -8.661 -21.681  23.508  1.00  0.00    -0.550 OA
ATOM     13  O   UNL     1     -10.867 -21.780  22.900  1.00  0.00    -0.550 OA
ENDBRANCH  10  11
ENDBRANCH   9  10
ENDBRANCH   8   9
ENDBRANCH   1   8
TORSDOF 8
ENDMDL
MODEL 7
REMARK VINA RESULT:    -2.693      1.662      2.008
REMARK INTER + INTRA:          -4.459
REMARK INTER:                  -4.098
REMARK INTRA:                  -0.361
REMARK UNBOUND:                -0.506
REMARK SMILES O=C([O-])CCCCCCCC(=O)[O-]
REMARK SMILES IDX 7 1 6 2 5 3 4 4 2 5 1 6 3 7 8 8 9 9 10 10 11 11 12 12 13 13
REMARK H PARENT
REMARK Flexibility Score: inf
ROOT
ATOM      1  C   UNL     1      -9.464 -22.558  21.851  1.00  0.00     0.000 C 
ENDROOT
BRANCH   1   2
ATOM      2  C   UNL     1      -9.116 -21.605  23.007  1.00  0.00     0.000 C 
BRANCH   2   3
ATOM      3  C   UNL     1      -9.892 -20.276  22.945  1.00  0.00     0.006 C 
BRANCH   3   4
ATOM      4  C   UNL     1     -10.374 -19.901  21.532  1.00  0.00     0.053 C 
BRANCH   4   5
ATOM      5  C   UNL     1     -10.250 -18.435  21.248  1.00  0.00     0.041 C 
ATOM      6  O   UNL     1     -10.659 -17.963  20.154  1.00  0.00    -0.550 OA
ATOM      7  O   UNL     1      -9.654 -17.594  22.179  1.00  0.00    -0.550 OA
ENDBRANCH   4   5
ENDBRANCH   3   4
ENDBRANCH   2   3
ENDBRANCH   1   2
BRANCH   1   8
ATOM      8  C   UNL     1      -8.216 -23.105  21.140  1.00  0.00     0.000 C 
BRANCH   8   9
ATOM      9  C   UNL     1      -8.314 -22.998  19.609  1.00  0.00     0.006 C 
BRANCH   9  10
ATOM     10  C   UNL     1      -6.949 -22.735  18.958  1.00  0.00     0.053 C 
BRANCH  10  11
ATOM     11  C   UNL     1      -7.053 -22.647  17.466  1.00  0.00     0.041 C 
ATOM     12  O   UNL     1      -8.085 -22.167  16.929  1.00  0.00    -0.550 OA
ATOM     13  O   UNL     1      -6.020 -23.122  16.668  1.00  0.00    -0.550 OA
ENDBRANCH  10  11
ENDBRANCH   9  10
ENDBRANCH   8   9
ENDBRANCH   1   8
TORSDOF 8
ENDMDL
MODEL 8
REMARK VINA RESULT:    -2.614      2.620      3.852
REMARK INTER + INTRA:          -4.342
REMARK INTER:                  -3.761
REMARK INTRA:                  -0.581
REMARK UNBOUND:                -0.506
REMARK SMILES O=C([O-])CCCCCCCC(=O)[O-]
REMARK SMILES IDX 7 1 6 2 5 3 4 4 2 5 1 6 3 7 8 8 9 9 10 10 11 11 12 12 13 13
REMARK H PARENT
REMARK Flexibility Score: inf
ROOT
ATOM      1  C   UNL     1      -9.989 -18.273  21.312  1.00  0.00     0.000 C 
ENDROOT
BRANCH   1   2
ATOM      2  C   UNL     1     -10.557 -18.409  22.735  1.00  0.00     0.000 C 
BRANCH   2   3
ATOM      3  C   UNL     1     -10.981 -19.850  23.078  1.00  0.00     0.006 C 
BRANCH   3   4
ATOM      4  C   UNL     1      -9.818 -20.858  23.078  1.00  0.00     0.053 C 
BRANCH   4   5
ATOM      5  C   UNL     1     -10.279 -22.274  23.245  1.00  0.00     0.041 C 
ATOM      6  O   UNL     1     -10.564 -22.973  22.236  1.00  0.00    -0.550 OA
ATOM      7  O   UNL     1     -10.425 -22.813  24.517  1.00  0.00    -0.550 OA
ENDBRANCH   4   5
ENDBRANCH   3   4
ENDBRANCH   2   3
ENDBRANCH   1   2
BRANCH   1   8
ATOM      8  C   UNL     1     -11.081 -18.007  20.262  1.00  0.00     0.000 C 
BRANCH   8   9
ATOM      9  C   UNL     1     -11.125 -19.089  19.171  1.00  0.00     0.006 C 
BRANCH   9  10
ATOM     10  C   UNL     1     -10.059 -20.173  19.386  1.00  0.00     0.053 C 
BRANCH  10  11
ATOM     11  C   UNL     1     -10.225 -21.313  18.429  1.00  0.00     0.041 C 
ATOM     12  O   UNL     1     -10.037 -21.141  17.197  1.00  0.00    -0.550 OA
ATOM     13  O   UNL     1     -10.617 -22.562  18.897  1.00  0.00    -0.550 OA
ENDBRANCH  10  11
ENDBRANCH   9  10
ENDBRANCH   8   9
ENDBRANCH   1   8
TORSDOF 8
ENDMDL
MODEL 9
REMARK VINA RESULT:    -2.597     18.282     19.807
REMARK INTER + INTRA:          -4.317
REMARK INTER:                  -4.039
REMARK INTRA:                  -0.279
REMARK UNBOUND:                -0.506
REMARK SMILES O=C([O-])CCCCCCCC(=O)[O-]
REMARK SMILES IDX 7 1 6 2 5 3 4 4 2 5 1 6 3 7 8 8 9 9 10 10 11 11 12 12 13 13
REMARK H PARENT
REMARK Flexibility Score: inf
ROOT
ATOM      1  C   UNL     1       8.113 -19.950  12.989  1.00  0.00     0.000 C 
ENDROOT
BRANCH   1   2
ATOM      2  C   UNL     1       8.827 -20.233  14.323  1.00  0.00     0.000 C 
BRANCH   2   3
ATOM      3  C   UNL     1       8.639 -21.682  14.809  1.00  0.00     0.006 C 
BRANCH   3   4
ATOM      4  C   UNL     1       8.174 -21.792  16.272  1.00  0.00     0.053 C 
BRANCH   4   5
ATOM      5  C   UNL     1       6.694 -21.993  16.396  1.00  0.00     0.041 C 
ATOM      6  O   UNL     1       6.084 -21.605  17.427  1.00  0.00    -0.550 OA
ATOM      7  O   UNL     1       5.993 -22.639  15.385  1.00  0.00    -0.550 OA
ENDBRANCH   4   5
ENDBRANCH   3   4
ENDBRANCH   2   3
ENDBRANCH   1   2
BRANCH   1   8
ATOM      8  C   UNL     1       8.964 -20.338  11.769  1.00  0.00     0.000 C 
BRANCH   8   9
ATOM      9  C   UNL     1       8.215 -21.267  10.799  1.00  0.00     0.006 C 
BRANCH   9  10
ATOM     10  C   UNL     1       9.034 -21.566   9.536  1.00  0.00     0.053 C 
BRANCH  10  11
ATOM     11  C   UNL     1       8.258 -22.387   8.552  1.00  0.00     0.041 C 
ATOM     12  O   UNL     1       7.018 -22.549   8.699  1.00  0.00    -0.550 OA
ATOM     13  O   UNL     1       8.910 -22.998   7.488  1.00  0.00    -0.550 OA
ENDBRANCH  10  11
ENDBRANCH   9  10
ENDBRANCH   8   9
ENDBRANCH   1   8
TORSDOF 8
ENDMDL
