MODEL 1
REMARK VINA RESULT:    -2.809      0.000      0.000
REMARK INTER + INTRA:          -3.143
REMARK INTER:                  -3.138
REMARK INTRA:                  -0.005
REMARK UNBOUND:                -0.005
REMARK SMILES CCCC(=O)[O-]
REMARK SMILES IDX 3 1 4 2 5 3 6 4 2 5 1 6
REMARK H PARENT
REMARK Flexibility Score: inf
ROOT
ATOM      1  C   UNL     1       8.202  -5.373  -8.180  1.00  0.00     0.052 C 
ENDROOT
BRANCH   1   2
ATOM      2  C   UNL     1       8.871  -5.606  -6.864  1.00  0.00     0.041 C 
ATOM      3  O   UNL     1       9.892  -4.940  -6.544  1.00  0.00    -0.550 OA
ATOM      4  O   UNL     1       8.398  -6.593  -6.009  1.00  0.00    -0.550 OA
ENDBRANCH   1   2
BRANCH   1   5
ATOM      5  C   UNL     1       6.967  -4.484  -8.003  1.00  0.00     0.003 C 
ATOM      6  C   UNL     1       6.247  -4.272  -9.332  1.00  0.00     0.004 C 
ENDBRANCH   1   5
TORSDOF 2
ENDMDL
MODEL 2
REMARK VINA RESULT:    -2.774      0.157      1.327
REMARK INTER + INTRA:          -3.103
REMARK INTER:                  -3.097
REMARK INTRA:                  -0.006
REMARK UNBOUND:                -0.005
REMARK SMILES CCCC(=O)[O-]
REMARK SMILES IDX 3 1 4 2 5 3 6 4 2 5 1 6
REMARK H PARENT
REMARK Flexibility Score: inf
ROOT
ATOM      1  C   UNL     1       8.292  -5.375  -8.088  1.00  0.00     0.052 C 
ENDROOT
BRANCH   1   2
ATOM      2  C   UNL     1       8.905  -5.693  -6.762  1.00  0.00     0.041 C 
ATOM      3  O   UNL     1       8.413  -6.597  -6.036  1.00  0.00    -0.550 OA
ATOM      4  O   UNL     1       9.992  -4.958  -6.304  1.00  0.00    -0.550 OA
ENDBRANCH   1   2
BRANCH   1   5
ATOM      5  C   UNL     1       7.086  -4.447  -7.911  1.00  0.00     0.003 C 
ATOM      6  C   UNL     1       6.294  -4.322  -9.210  1.00  0.00     0.004 C 
ENDBRANCH   1   5
TORSDOF 2
ENDMDL
MODEL 3
REMARK VINA RESULT:    -2.629      3.076      4.551
REMARK INTER + INTRA:          -2.941
REMARK INTER:                  -2.899
REMARK INTRA:                  -0.042
REMARK UNBOUND:                -0.005
REMARK SMILES CCCC(=O)[O-]
REMARK SMILES IDX 3 1 4 2 5 3 6 4 2 5 1 6
REMARK H PARENT
REMARK Flexibility Score: inf
ROOT
ATOM      1  C   UNL     1      11.481  -5.265  -5.278  1.00  0.00     0.052 C 
ENDROOT
BRANCH   1   2
ATOM      2  C   UNL     1      10.169  -5.527  -5.946  1.00  0.00     0.041 C 
ATOM      3  O   UNL     1       9.767  -4.774  -6.872  1.00  0.00    -0.550 OA
ATOM      4  O   UNL     1       9.365  -6.574  -5.512  1.00  0.00    -0.550 OA
ENDBRANCH   1   2
BRANCH   1   5
ATOM      5  C   UNL     1      11.304  -4.284  -4.115  1.00  0.00     0.003 C 
ATOM      6  C   UNL     1      11.134  -5.026  -2.792  1.00  0.00     0.004 C 
ENDBRANCH   1   5
TORSDOF 2
ENDMDL
MODEL 4
REMARK VINA RESULT:    -2.627      4.166      4.946
REMARK INTER + INTRA:          -2.940
REMARK INTER:                  -2.873
REMARK INTRA:                  -0.066
REMARK UNBOUND:                -0.005
REMARK SMILES CCCC(=O)[O-]
REMARK SMILES IDX 3 1 4 2 5 3 6 4 2 5 1 6
REMARK H PARENT
REMARK Flexibility Score: inf
ROOT
ATOM      1  C   UNL     1       5.555  -3.146  -9.878  1.00  0.00     0.052 C 
ENDROOT
BRANCH   1   2
ATOM      2  C   UNL     1       4.157  -3.242  -9.356  1.00  0.00     0.041 C 
ATOM      3  O   UNL     1       3.741  -2.415  -8.501  1.00  0.00    -0.550 OA
ATOM      4  O   UNL     1       3.327  -4.274  -9.776  1.00  0.00    -0.550 OA
ENDBRANCH   1   2
BRANCH   1   5
ATOM      5  C   UNL     1       6.353  -4.399  -9.503  1.00  0.00     0.003 C 
ATOM      6  C   UNL     1       6.709  -4.400  -8.018  1.00  0.00     0.004 C 
ENDBRANCH   1   5
TORSDOF 2
ENDMDL
MODEL 5
REMARK VINA RESULT:    -2.601      4.879      5.990
REMARK INTER + INTRA:          -2.910
REMARK INTER:                  -2.872
REMARK INTRA:                  -0.038
REMARK UNBOUND:                -0.005
REMARK SMILES CCCC(=O)[O-]
REMARK SMILES IDX 3 1 4 2 5 3 6 4 2 5 1 6
REMARK H PARENT
REMARK Flexibility Score: inf
ROOT
ATOM      1  C   UNL     1      11.144  -4.752  -2.988  1.00  0.00     0.052 C 
ENDROOT
BRANCH   1   2
ATOM      2  C   UNL     1      11.378  -4.010  -4.265  1.00  0.00     0.041 C 
ATOM      3  O   UNL     1      10.951  -4.472  -5.356  1.00  0.00    -0.550 OA
ATOM      4  O   UNL     1      12.112  -2.830  -4.258  1.00  0.00    -0.550 OA
ENDBRANCH   1   2
BRANCH   1   5
ATOM      5  C   UNL     1      12.125  -5.922  -2.861  1.00  0.00     0.003 C 
ATOM      6  C   UNL     1      11.418  -7.258  -3.075  1.00  0.00     0.004 C 
ENDBRANCH   1   5
TORSDOF 2
ENDMDL
MODEL 6
REMARK VINA RESULT:    -2.438      3.014      3.724
REMARK INTER + INTRA:          -2.728
REMARK INTER:                  -2.689
REMARK INTRA:                  -0.039
REMARK UNBOUND:                -0.005
REMARK SMILES CCCC(=O)[O-]
REMARK SMILES IDX 3 1 4 2 5 3 6 4 2 5 1 6
REMARK H PARENT
REMARK Flexibility Score: inf
ROOT
ATOM      1  C   UNL     1      11.002  -5.682  -5.816  1.00  0.00     0.052 C 
ENDROOT
BRANCH   1   2
ATOM      2  C   UNL     1      10.933  -4.856  -4.571  1.00  0.00     0.041 C 
ATOM      3  O   UNL     1      10.498  -5.357  -3.500  1.00  0.00    -0.550 OA
ATOM      4  O   UNL     1      11.303  -3.517  -4.603  1.00  0.00    -0.550 OA
ENDBRANCH   1   2
BRANCH   1   5
ATOM      5  C   UNL     1       9.765  -5.442  -6.686  1.00  0.00     0.003 C 
ATOM      6  C   UNL     1       8.745  -6.565  -6.515  1.00  0.00     0.004 C 
ENDBRANCH   1   5
TORSDOF 2
ENDMDL
MODEL 7
REMARK VINA RESULT:    -2.368      1.882      2.440
REMARK INTER + INTRA:          -2.650
REMARK INTER:                  -2.639
REMARK INTRA:                  -0.011
REMARK UNBOUND:                -0.005
REMARK SMILES CCCC(=O)[O-]
REMARK SMILES IDX 3 1 4 2 5 3 6 4 2 5 1 6
REMARK H PARENT
REMARK Flexibility Score: inf
ROOT
ATOM      1  C   UNL     1       6.337  -4.301  -8.190  1.00  0.00     0.052 C 
ENDROOT
BRANCH   1   2
ATOM      2  C   UNL     1       7.729  -4.790  -8.435  1.00  0.00     0.041 C 
ATOM      3  O   UNL     1       8.071  -5.184  -9.582  1.00  0.00    -0.550 OA
ATOM      4  O   UNL     1       8.638  -4.857  -7.386  1.00  0.00    -0.550 OA
ENDBRANCH   1   2
BRANCH   1   5
ATOM      5  C   UNL     1       5.647  -3.963  -9.515  1.00  0.00     0.003 C 
ATOM      6  C   UNL     1       4.315  -3.257  -9.276  1.00  0.00     0.004 C 
ENDBRANCH   1   5
TORSDOF 2
ENDMDL
MODEL 8
REMARK VINA RESULT:    -2.202     15.351     16.009
REMARK INTER + INTRA:          -2.465
REMARK INTER:                  -2.435
REMARK INTRA:                  -0.030
REMARK UNBOUND:                -0.005
REMARK SMILES CCCC(=O)[O-]
REMARK SMILES IDX 3 1 4 2 5 3 6 4 2 5 1 6
REMARK H PARENT
REMARK Flexibility Score: inf
ROOT
ATOM      1  C   UNL     1      -7.793  -3.848  -6.446  1.00  0.00     0.052 C 
ENDROOT
BRANCH   1   2
ATOM      2  C   UNL     1      -7.292  -2.552  -6.999  1.00  0.00     0.041 C 
ATOM      3  O   UNL     1      -7.839  -1.467  -6.667  1.00  0.00    -0.550 OA
ATOM      4  O   UNL     1      -6.253  -2.544  -7.921  1.00  0.00    -0.550 OA
ENDBRANCH   1   2
BRANCH   1   5
ATOM      5  C   UNL     1      -7.182  -4.112  -5.066  1.00  0.00     0.003 C 
ATOM      6  C   UNL     1      -8.125  -3.662  -3.953  1.00  0.00     0.004 C 
ENDBRANCH   1   5
TORSDOF 2
ENDMDL
