MODEL 1
REMARK VINA RESULT:    -4.188      0.000      0.000
REMARK INTER + INTRA:          -4.310
REMARK INTER:                  -4.310
REMARK INTRA:                   0.000
REMARK UNBOUND:                 0.000
REMARK SMILES Oc1ccc2[nH]ccc2c1
REMARK SMILES IDX 3 1 4 2 5 3 9 4 8 5 7 6 6 7 10 8 2 9 1 11
REMARK H PARENT 6 10 1 12
REMARK Flexibility Score: inf
ROOT
ATOM      1  C   UNL     1     103.908 106.299 102.111  1.00  0.00     0.048 A 
ATOM      2  C   UNL     1     104.847 107.344 102.032  1.00  0.00     0.030 A 
ATOM      3  C   UNL     1     106.198 107.002 101.988  1.00  0.00     0.046 A 
ATOM      4  C   UNL     1     106.612 105.697 102.017  1.00  0.00     0.003 A 
ATOM      5  C   UNL     1     107.989 105.700 101.959  1.00  0.00     0.028 A 
ATOM      6  C   UNL     1     108.347 107.044 101.894  1.00  0.00     0.083 A 
ATOM      7  N   UNL     1     107.249 107.834 101.912  1.00  0.00    -0.361 N 
ATOM      8  C   UNL     1     105.709 104.639 102.096  1.00  0.00     0.056 A 
ATOM      9  C   UNL     1     104.335 104.948 102.143  1.00  0.00     0.116 A 
ATOM     10  H   UNL     1     107.228 108.878 101.874  1.00  0.00     0.166 HD
ENDROOT
BRANCH   9  11
ATOM     11  O   UNL     1     103.405 103.914 102.221  1.00  0.00    -0.508 OA
ATOM     12  H   UNL     1     102.898 103.724 103.077  1.00  0.00     0.293 HD
ENDBRANCH   9  11
TORSDOF 1
ENDMDL
MODEL 2
REMARK VINA RESULT:    -4.131      1.965      2.877
REMARK INTER + INTRA:          -4.252
REMARK INTER:                  -4.252
REMARK INTRA:                   0.000
REMARK UNBOUND:                 0.000
REMARK SMILES Oc1ccc2[nH]ccc2c1
REMARK SMILES IDX 3 1 4 2 5 3 9 4 8 5 7 6 6 7 10 8 2 9 1 11
REMARK H PARENT 6 10 1 12
REMARK Flexibility Score: inf
ROOT
ATOM      1  C   UNL     1     106.300 108.048 102.023  1.00  0.00     0.048 A 
ATOM      2  C   UNL     1     107.349 107.113 101.941  1.00  0.00     0.030 A 
ATOM      3  C   UNL     1     107.015 105.760 101.945  1.00  0.00     0.046 A 
ATOM      4  C   UNL     1     105.714 105.340 102.024  1.00  0.00     0.003 A 
ATOM      5  C   UNL     1     105.724 103.962 102.005  1.00  0.00     0.028 A 
ATOM      6  C   UNL     1     107.068 103.609 101.912  1.00  0.00     0.083 A 
ATOM      7  N   UNL     1     107.851 104.712 101.875  1.00  0.00    -0.361 N 
ATOM      8  C   UNL     1     104.653 106.239 102.107  1.00  0.00     0.056 A 
ATOM      9  C   UNL     1     104.954 107.615 102.106  1.00  0.00     0.116 A 
ATOM     10  H   UNL     1     108.893 104.737 101.807  1.00  0.00     0.166 HD
ENDROOT
BRANCH   9  11
ATOM     11  O   UNL     1     103.917 108.541 102.188  1.00  0.00    -0.508 OA
ATOM     12  H   UNL     1     103.354 108.778 101.379  1.00  0.00     0.293 HD
ENDBRANCH   9  11
TORSDOF 1
ENDMDL
MODEL 3
REMARK VINA RESULT:    -4.104      2.611      4.081
REMARK INTER + INTRA:          -4.224
REMARK INTER:                  -4.224
REMARK INTRA:                   0.000
REMARK UNBOUND:                 0.000
REMARK SMILES Oc1ccc2[nH]ccc2c1
REMARK SMILES IDX 3 1 4 2 5 3 9 4 8 5 7 6 6 7 10 8 2 9 1 11
REMARK H PARENT 6 10 1 12
REMARK Flexibility Score: inf
ROOT
ATOM      1  C   UNL     1     108.163 105.795 101.978  1.00  0.00     0.048 A 
ATOM      2  C   UNL     1     107.257 104.723 101.875  1.00  0.00     0.030 A 
ATOM      3  C   UNL     1     105.895 105.012 101.950  1.00  0.00     0.046 A 
ATOM      4  C   UNL     1     105.440 106.293 102.117  1.00  0.00     0.003 A 
ATOM      5  C   UNL     1     104.063 106.240 102.151  1.00  0.00     0.028 A 
ATOM      6  C   UNL     1     103.748 104.892 101.998  1.00  0.00     0.083 A 
ATOM      7  N   UNL     1     104.871 104.148 101.875  1.00  0.00    -0.361 N 
ATOM      8  C   UNL     1     106.310 107.376 102.223  1.00  0.00     0.056 A 
ATOM      9  C   UNL     1     107.693 107.120 102.152  1.00  0.00     0.116 A 
ATOM     10  H   UNL     1     104.924 103.113 101.749  1.00  0.00     0.166 HD
ENDROOT
BRANCH   9  11
ATOM     11  O   UNL     1     108.590 108.180 102.254  1.00  0.00    -0.508 OA
ATOM     12  H   UNL     1     108.341 109.115 101.953  1.00  0.00     0.293 HD
ENDBRANCH   9  11
TORSDOF 1
ENDMDL
MODEL 4
REMARK VINA RESULT:    -4.088      1.998      2.900
REMARK INTER + INTRA:          -4.207
REMARK INTER:                  -4.207
REMARK INTRA:                   0.000
REMARK UNBOUND:                 0.000
REMARK SMILES Oc1ccc2[nH]ccc2c1
REMARK SMILES IDX 3 1 4 2 5 3 9 4 8 5 7 6 6 7 10 8 2 9 1 11
REMARK H PARENT 6 10 1 12
REMARK Flexibility Score: inf
ROOT
ATOM      1  C   UNL     1     105.809 103.843 102.044  1.00  0.00     0.048 A 
ATOM      2  C   UNL     1     104.760 104.781 102.012  1.00  0.00     0.030 A 
ATOM      3  C   UNL     1     105.097 106.134 102.015  1.00  0.00     0.046 A 
ATOM      4  C   UNL     1     106.401 106.551 102.048  1.00  0.00     0.003 A 
ATOM      5  C   UNL     1     106.393 107.929 102.042  1.00  0.00     0.028 A 
ATOM      6  C   UNL     1     105.047 108.284 102.004  1.00  0.00     0.083 A 
ATOM      7  N   UNL     1     104.261 107.184 101.987  1.00  0.00    -0.361 N 
ATOM      8  C   UNL     1     107.462 105.649 102.081  1.00  0.00     0.056 A 
ATOM      9  C   UNL     1     107.158 104.274 102.079  1.00  0.00     0.116 A 
ATOM     10  H   UNL     1     103.217 107.161 101.959  1.00  0.00     0.166 HD
ENDROOT
BRANCH   9  11
ATOM     11  O   UNL     1     108.196 103.345 102.112  1.00  0.00    -0.508 OA
ATOM     12  H   UNL     1     108.386 102.794 102.941  1.00  0.00     0.293 HD
ENDBRANCH   9  11
TORSDOF 1
ENDMDL
MODEL 5
REMARK VINA RESULT:    -4.067      2.935      3.606
REMARK INTER + INTRA:          -4.186
REMARK INTER:                  -4.186
REMARK INTRA:                   0.000
REMARK UNBOUND:                 0.000
REMARK SMILES Oc1ccc2[nH]ccc2c1
REMARK SMILES IDX 3 1 4 2 5 3 9 4 8 5 7 6 6 7 10 8 2 9 1 11
REMARK H PARENT 6 10 1 12
REMARK Flexibility Score: inf
ROOT
ATOM      1  C   UNL     1     106.601 107.573 101.901  1.00  0.00     0.048 A 
ATOM      2  C   UNL     1     107.753 107.167 102.601  1.00  0.00     0.030 A 
ATOM      3  C   UNL     1     107.697 107.153 103.994  1.00  0.00     0.046 A 
ATOM      4  C   UNL     1     106.565 107.519 104.672  1.00  0.00     0.003 A 
ATOM      5  C   UNL     1     106.833 107.396 106.018  1.00  0.00     0.028 A 
ATOM      6  C   UNL     1     108.150 106.949 106.087  1.00  0.00     0.083 A 
ATOM      7  N   UNL     1     108.672 106.802 104.847  1.00  0.00    -0.361 N 
ATOM      8  C   UNL     1     105.408 107.927 104.010  1.00  0.00     0.056 A 
ATOM      9  C   UNL     1     105.430 107.953 102.602  1.00  0.00     0.116 A 
ATOM     10  H   UNL     1     109.636 106.481 104.608  1.00  0.00     0.166 HD
ENDROOT
BRANCH   9  11
ATOM     11  O   UNL     1     104.291 108.356 101.909  1.00  0.00    -0.508 OA
ATOM     12  H   UNL     1     104.162 109.318 101.618  1.00  0.00     0.293 HD
ENDBRANCH   9  11
TORSDOF 1
ENDMDL
MODEL 6
REMARK VINA RESULT:    -4.065      3.158      4.088
REMARK INTER + INTRA:          -4.183
REMARK INTER:                  -4.183
REMARK INTRA:                   0.000
REMARK UNBOUND:                 0.000
REMARK SMILES Oc1ccc2[nH]ccc2c1
REMARK SMILES IDX 3 1 4 2 5 3 9 4 8 5 7 6 6 7 10 8 2 9 1 11
REMARK H PARENT 6 10 1 12
REMARK Flexibility Score: inf
ROOT
ATOM      1  C   UNL     1     105.494 104.281 101.875  1.00  0.00     0.048 A 
ATOM      2  C   UNL     1     104.308 104.582 102.570  1.00  0.00     0.030 A 
ATOM      3  C   UNL     1     104.370 104.656 103.960  1.00  0.00     0.046 A 
ATOM      4  C   UNL     1     105.539 104.446 104.641  1.00  0.00     0.003 A 
ATOM      5  C   UNL     1     105.266 104.590 105.984  1.00  0.00     0.028 A 
ATOM      6  C   UNL     1     103.908 104.889 106.049  1.00  0.00     0.083 A 
ATOM      7  N   UNL     1     103.366 104.928 104.810  1.00  0.00    -0.361 N 
ATOM      8  C   UNL     1     106.731 104.146 103.984  1.00  0.00     0.056 A 
ATOM      9  C   UNL     1     106.705 104.063 102.579  1.00  0.00     0.116 A 
ATOM     10  H   UNL     1     102.370 105.129 104.568  1.00  0.00     0.166 HD
ENDROOT
BRANCH   9  11
ATOM     11  O   UNL     1     107.878 103.764 101.890  1.00  0.00    -0.508 OA
ATOM     12  H   UNL     1     108.116 104.231 101.023  1.00  0.00     0.293 HD
ENDBRANCH   9  11
TORSDOF 1
ENDMDL
MODEL 7
REMARK VINA RESULT:    -4.053      3.302      4.069
REMARK INTER + INTRA:          -4.171
REMARK INTER:                  -4.171
REMARK INTRA:                   0.000
REMARK UNBOUND:                 0.000
REMARK SMILES Oc1ccc2[nH]ccc2c1
REMARK SMILES IDX 3 1 4 2 5 3 9 4 8 5 7 6 6 7 10 8 2 9 1 11
REMARK H PARENT 6 10 1 12
REMARK Flexibility Score: inf
ROOT
ATOM      1  C   UNL     1     106.393 107.502 105.888  1.00  0.00     0.048 A 
ATOM      2  C   UNL     1     105.265 108.176 105.385  1.00  0.00     0.030 A 
ATOM      3  C   UNL     1     105.179 108.360 104.006  1.00  0.00     0.046 A 
ATOM      4  C   UNL     1     106.151 107.903 103.157  1.00  0.00     0.003 A 
ATOM      5  C   UNL     1     105.771 108.240 101.875  1.00  0.00     0.028 A 
ATOM      6  C   UNL     1     104.554 108.901 102.019  1.00  0.00     0.083 A 
ATOM      7  N   UNL     1     104.197 108.970 103.322  1.00  0.00    -0.361 N 
ATOM      8  C   UNL     1     107.280 107.232 103.622  1.00  0.00     0.056 A 
ATOM      9  C   UNL     1     107.400 107.030 105.011  1.00  0.00     0.116 A 
ATOM     10  H   UNL     1     103.334 109.410 103.712  1.00  0.00     0.166 HD
ENDROOT
BRANCH   9  11
ATOM     11  O   UNL     1     108.516 106.363 105.510  1.00  0.00    -0.508 OA
ATOM     12  H   UNL     1     109.412 106.404 105.038  1.00  0.00     0.293 HD
ENDBRANCH   9  11
TORSDOF 1
ENDMDL
MODEL 8
REMARK VINA RESULT:    -4.032      3.521      4.365
REMARK INTER + INTRA:          -4.150
REMARK INTER:                  -4.150
REMARK INTRA:                   0.000
REMARK UNBOUND:                 0.000
REMARK SMILES Oc1ccc2[nH]ccc2c1
REMARK SMILES IDX 3 1 4 2 5 3 9 4 8 5 7 6 6 7 10 8 2 9 1 11
REMARK H PARENT 6 10 1 12
REMARK Flexibility Score: inf
ROOT
ATOM      1  C   UNL     1     107.592 105.511 101.877  1.00  0.00     0.048 A 
ATOM      2  C   UNL     1     107.296 104.312 102.552  1.00  0.00     0.030 A 
ATOM      3  C   UNL     1     107.278 104.338 103.946  1.00  0.00     0.046 A 
ATOM      4  C   UNL     1     107.535 105.485 104.647  1.00  0.00     0.003 A 
ATOM      5  C   UNL     1     107.439 105.179 105.988  1.00  0.00     0.028 A 
ATOM      6  C   UNL     1     107.118 103.825 106.029  1.00  0.00     0.083 A 
ATOM      7  N   UNL     1     107.020 103.317 104.779  1.00  0.00    -0.361 N 
ATOM      8  C   UNL     1     107.832 106.688 104.010  1.00  0.00     0.056 A 
ATOM      9  C   UNL     1     107.860 106.698 102.602  1.00  0.00     0.116 A 
ATOM     10  H   UNL     1     106.792 102.332 104.519  1.00  0.00     0.166 HD
ENDROOT
BRANCH   9  11
ATOM     11  O   UNL     1     108.153 107.884 101.933  1.00  0.00    -0.508 OA
ATOM     12  H   UNL     1     108.908 108.489 102.236  1.00  0.00     0.293 HD
ENDBRANCH   9  11
TORSDOF 1
ENDMDL
MODEL 9
REMARK VINA RESULT:    -4.004      2.526      3.201
REMARK INTER + INTRA:          -4.121
REMARK INTER:                  -4.121
REMARK INTRA:                   0.000
REMARK UNBOUND:                 0.000
REMARK SMILES Oc1ccc2[nH]ccc2c1
REMARK SMILES IDX 3 1 4 2 5 3 9 4 8 5 7 6 6 7 10 8 2 9 1 11
REMARK H PARENT 6 10 1 12
REMARK Flexibility Score: inf
ROOT
ATOM      1  C   UNL     1     104.454 106.518 101.896  1.00  0.00     0.048 A 
ATOM      2  C   UNL     1     104.691 107.724 102.580  1.00  0.00     0.030 A 
ATOM      3  C   UNL     1     104.695 107.693 103.973  1.00  0.00     0.046 A 
ATOM      4  C   UNL     1     104.477 106.532 104.667  1.00  0.00     0.003 A 
ATOM      5  C   UNL     1     104.545 106.835 106.010  1.00  0.00     0.028 A 
ATOM      6  C   UNL     1     104.808 108.202 106.060  1.00  0.00     0.083 A 
ATOM      7  N   UNL     1     104.899 108.720 104.813  1.00  0.00    -0.361 N 
ATOM      8  C   UNL     1     104.239 105.321 104.021  1.00  0.00     0.056 A 
ATOM      9  C   UNL     1     104.228 105.316 102.613  1.00  0.00     0.116 A 
ATOM     10  H   UNL     1     105.088 109.715 104.561  1.00  0.00     0.166 HD
ENDROOT
BRANCH   9  11
ATOM     11  O   UNL     1     103.993 104.122 101.935  1.00  0.00    -0.508 OA
ATOM     12  H   UNL     1     104.621 103.332 102.022  1.00  0.00     0.293 HD
ENDBRANCH   9  11
TORSDOF 1
ENDMDL
