MODEL 1
REMARK VINA RESULT:   112.827      0.000      0.000
REMARK INTER + INTRA:         166.113
REMARK INTER:                 165.594
REMARK INTRA:                   0.519
REMARK UNBOUND:                 0.519
REMARK SMILES Cc1cc2c(C(C)C)c(O)c(O)c(C=O)c2c(O)c1-c1c(C)cc2c(C(C)C)c(O)c(O)c(C=O)c2c1O
REMARK SMILES IDX 1 1 2 2 3 3 4 4 16 5 13 6 11 7 9 8 5 9 17 10 19 11 20 12
REMARK SMILES IDX 37 13 21 14 36 15 23 16 22 17 24 18 33 19 25 20 31 21 29 22
REMARK SMILES IDX 38 23 34 25 35 26 26 27 27 28 28 29 32 30 30 32 18 34 6 36
REMARK SMILES IDX 7 37 8 38 14 39 15 40 10 41 12 43
REMARK H PARENT 38 24 32 31 30 33 18 35 10 42 12 44
REMARK Flexibility Score: inf
ROOT
ATOM      1  C   UNL     1      -7.603 -13.634  12.801  1.00  0.00     0.045 C 
ATOM      2  C   UNL     1      -8.429 -13.629  14.063  1.00  0.00    -0.039 A 
ATOM      3  C   UNL     1      -7.874 -14.102  15.256  1.00  0.00     0.013 A 
ATOM      4  C   UNL     1      -8.605 -14.112  16.461  1.00  0.00    -0.006 A 
ATOM      5  C   UNL     1      -9.881 -13.480  16.477  1.00  0.00     0.039 A 
ATOM      6  C   UNL     1     -10.467 -13.147  17.729  1.00  0.00     0.072 A 
ATOM      7  C   UNL     1      -9.887 -13.620  18.916  1.00  0.00     0.169 A 
ATOM      8  C   UNL     1      -8.714 -14.385  18.887  1.00  0.00     0.162 A 
ATOM      9  C   UNL     1      -8.089 -14.706  17.654  1.00  0.00     0.008 A 
ATOM     10  C   UNL     1     -10.518 -13.205  15.234  1.00  0.00     0.132 A 
ATOM     11  C   UNL     1      -9.776 -13.231  14.042  1.00  0.00     0.031 A 
ENDROOT
BRANCH  11  12
ATOM     12  C   UNL     1     -10.437 -12.872  12.763  1.00  0.00     0.031 A 
ATOM     13  C   UNL     1     -11.036 -13.882  11.997  1.00  0.00     0.132 A 
ATOM     14  C   UNL     1     -10.383 -11.558  12.273  1.00  0.00    -0.039 A 
ATOM     15  C   UNL     1     -11.750 -13.558  10.806  1.00  0.00     0.039 A 
ATOM     16  C   UNL     1     -10.906 -11.275  11.008  1.00  0.00     0.013 A 
ATOM     17  C   UNL     1      -9.661 -10.471  13.031  1.00  0.00     0.045 C 
ATOM     18  C   UNL     1     -11.627 -12.241  10.269  1.00  0.00    -0.006 A 
ATOM     19  C   UNL     1     -12.562 -14.508  10.127  1.00  0.00     0.072 A 
ATOM     20  C   UNL     1     -12.204 -11.935   8.996  1.00  0.00     0.008 A 
ATOM     21  C   UNL     1     -12.956 -14.253   8.798  1.00  0.00     0.169 A 
ATOM     22  C   UNL     1     -12.723 -12.997   8.223  1.00  0.00     0.162 A 
BRANCH  13  23
ATOM     23  O   UNL     1     -10.826 -15.204  12.408  1.00  0.00    -0.507 OA
ATOM     24  H   UNL     1     -11.442 -15.965  12.153  1.00  0.00     0.293 HD
ENDBRANCH  13  23
BRANCH  19  25
ATOM     25  C   UNL     1     -13.136 -15.679  10.831  1.00  0.00     0.264 C 
ATOM     26  O   UNL     1     -12.488 -16.758  10.904  1.00  0.00    -0.298 OA
ENDBRANCH  19  25
BRANCH  20  27
ATOM     27  C   UNL     1     -12.223 -10.502   8.434  1.00  0.00     0.017 C 
ATOM     28  C   UNL     1     -11.422  -9.556   9.332  1.00  0.00     0.012 C 
ATOM     29  C   UNL     1     -11.767 -10.397   6.966  1.00  0.00     0.012 C 
ENDBRANCH  20  27
BRANCH  21  30
ATOM     30  O   UNL     1     -13.619 -15.214   8.025  1.00  0.00    -0.504 OA
ATOM     31  H   UNL     1     -13.761 -16.173   8.306  1.00  0.00     0.293 HD
ENDBRANCH  21  30
BRANCH  22  32
ATOM     32  O   UNL     1     -13.030 -12.796   6.875  1.00  0.00    -0.504 OA
ATOM     33  H   UNL     1     -13.870 -13.158   6.441  1.00  0.00     0.293 HD
ENDBRANCH  22  32
ENDBRANCH  11  12
BRANCH  10  34
ATOM     34  O   UNL     1     -11.896 -12.985  15.135  1.00  0.00    -0.507 OA
ATOM     35  H   UNL     1     -12.305 -12.059  15.157  1.00  0.00     0.293 HD
ENDBRANCH  10  34
BRANCH   9  36
ATOM     36  C   UNL     1      -6.959 -15.754  17.649  1.00  0.00     0.017 C 
ATOM     37  C   UNL     1      -5.631 -15.172  17.150  1.00  0.00     0.012 C 
ATOM     38  C   UNL     1      -7.320 -17.085  16.959  1.00  0.00     0.012 C 
ENDBRANCH   9  36
BRANCH   6  39
ATOM     39  C   UNL     1     -11.551 -12.145  17.866  1.00  0.00     0.264 C 
ATOM     40  O   UNL     1     -11.416 -10.978  17.414  1.00  0.00    -0.298 OA
ENDBRANCH   6  39
BRANCH   8  41
ATOM     41  O   UNL     1      -8.173 -14.775  20.119  1.00  0.00    -0.504 OA
ATOM     42  H   UNL     1      -8.497 -15.566  20.659  1.00  0.00     0.293 HD
ENDBRANCH   8  41
BRANCH   7  43
ATOM     43  O   UNL     1     -10.478 -13.292  20.141  1.00  0.00    -0.504 OA
ATOM     44  H   UNL     1     -10.261 -12.441  20.645  1.00  0.00     0.293 HD
ENDBRANCH   7  43
TORSDOF 11
ENDMDL
MODEL 2
REMARK VINA RESULT:   113.160      1.156      1.695
REMARK INTER + INTRA:         166.602
REMARK INTER:                 163.113
REMARK INTRA:                   3.489
REMARK UNBOUND:                 0.519
REMARK SMILES Cc1cc2c(C(C)C)c(O)c(O)c(C=O)c2c(O)c1-c1c(C)cc2c(C(C)C)c(O)c(O)c(C=O)c2c1O
REMARK SMILES IDX 1 1 2 2 3 3 4 4 16 5 13 6 11 7 9 8 5 9 17 10 19 11 20 12
REMARK SMILES IDX 37 13 21 14 36 15 23 16 22 17 24 18 33 19 25 20 31 21 29 22
REMARK SMILES IDX 38 23 34 25 35 26 26 27 27 28 28 29 32 30 30 32 18 34 6 36
REMARK SMILES IDX 7 37 8 38 14 39 15 40 10 41 12 43
REMARK H PARENT 38 24 32 31 30 33 18 35 10 42 12 44
REMARK Flexibility Score: inf
ROOT
ATOM      1  C   UNL     1      -8.029 -13.925  12.758  1.00  0.00     0.045 C 
ATOM      2  C   UNL     1      -8.719 -13.622  14.064  1.00  0.00    -0.039 A 
ATOM      3  C   UNL     1      -8.428 -14.390  15.195  1.00  0.00     0.013 A 
ATOM      4  C   UNL     1      -9.042 -14.141  16.439  1.00  0.00    -0.006 A 
ATOM      5  C   UNL     1      -9.859 -12.981  16.563  1.00  0.00     0.039 A 
ATOM      6  C   UNL     1     -10.181 -12.505  17.864  1.00  0.00     0.072 A 
ATOM      7  C   UNL     1      -9.869 -13.284  18.987  1.00  0.00     0.169 A 
ATOM      8  C   UNL     1      -9.207 -14.511  18.849  1.00  0.00     0.162 A 
ATOM      9  C   UNL     1      -8.844 -14.997  17.566  1.00  0.00     0.008 A 
ATOM     10  C   UNL     1     -10.318 -12.344  15.376  1.00  0.00     0.132 A 
ATOM     11  C   UNL     1      -9.710 -12.630  14.143  1.00  0.00     0.031 A 
ENDROOT
BRANCH  11  12
ATOM     12  C   UNL     1     -10.150 -11.905  12.926  1.00  0.00     0.031 A 
ATOM     13  C   UNL     1     -10.702 -12.631  11.860  1.00  0.00     0.132 A 
ATOM     14  C   UNL     1      -9.933 -10.524  12.797  1.00  0.00    -0.039 A 
ATOM     15  C   UNL     1     -11.210 -11.955  10.712  1.00  0.00     0.039 A 
ATOM     16  C   UNL     1     -10.245  -9.890  11.591  1.00  0.00     0.013 A 
ATOM     17  C   UNL     1      -9.254  -9.735  13.890  1.00  0.00     0.045 C 
ATOM     18  C   UNL     1     -10.917 -10.567  10.547  1.00  0.00    -0.006 A 
ATOM     19  C   UNL     1     -11.979 -12.621   9.719  1.00  0.00     0.072 A 
ATOM     20  C   UNL     1     -11.279  -9.903   9.333  1.00  0.00     0.008 A 
ATOM     21  C   UNL     1     -12.157 -12.013   8.461  1.00  0.00     0.169 A 
ATOM     22  C   UNL     1     -11.754 -10.687   8.257  1.00  0.00     0.162 A 
BRANCH  13  23
ATOM     23  O   UNL     1     -10.647 -14.027  11.945  1.00  0.00    -0.507 OA
ATOM     24  H   UNL     1     -10.736 -14.531  12.818  1.00  0.00     0.293 HD
ENDBRANCH  13  23
BRANCH  19  25
ATOM     25  C   UNL     1     -12.731 -13.862  10.025  1.00  0.00     0.264 C 
ATOM     26  O   UNL     1     -13.329 -14.486   9.108  1.00  0.00    -0.298 OA
ENDBRANCH  19  25
BRANCH  20  27
ATOM     27  C   UNL     1     -11.115  -8.384   9.155  1.00  0.00     0.017 C 
ATOM     28  C   UNL     1      -9.897  -7.875   9.931  1.00  0.00     0.012 C 
ATOM     29  C   UNL     1     -11.072  -7.924   7.685  1.00  0.00     0.012 C 
ENDBRANCH  20  27
BRANCH  21  30
ATOM     30  O   UNL     1     -12.765 -12.683   7.393  1.00  0.00    -0.504 OA
ATOM     31  H   UNL     1     -13.426 -12.261   6.756  1.00  0.00     0.293 HD
ENDBRANCH  21  30
BRANCH  22  32
ATOM     32  O   UNL     1     -11.846 -10.135   6.977  1.00  0.00    -0.504 OA
ATOM     33  H   UNL     1     -11.421  -9.250   6.727  1.00  0.00     0.293 HD
ENDBRANCH  22  32
ENDBRANCH  11  12
BRANCH  10  34
ATOM     34  O   UNL     1     -11.424 -11.487  15.369  1.00  0.00    -0.507 OA
ATOM     35  H   UNL     1     -11.608 -10.837  14.615  1.00  0.00     0.293 HD
ENDBRANCH  10  34
BRANCH   9  36
ATOM     36  C   UNL     1      -8.355 -16.452  17.439  1.00  0.00     0.017 C 
ATOM     37  C   UNL     1      -7.420 -16.648  16.238  1.00  0.00     0.012 C 
ATOM     38  C   UNL     1      -9.472 -17.514  17.499  1.00  0.00     0.012 C 
ENDBRANCH   9  36
BRANCH   6  39
ATOM     39  C   UNL     1     -10.649 -11.120  18.117  1.00  0.00     0.264 C 
ATOM     40  O   UNL     1     -11.816 -10.763  17.808  1.00  0.00    -0.298 OA
ENDBRANCH   6  39
BRANCH   8  41
ATOM     41  O   UNL     1      -8.888 -15.202  20.024  1.00  0.00    -0.504 OA
ATOM     42  H   UNL     1      -8.373 -16.072  20.052  1.00  0.00     0.293 HD
ENDBRANCH   8  41
BRANCH   7  43
ATOM     43  O   UNL     1     -10.198 -12.807  20.260  1.00  0.00    -0.504 OA
ATOM     44  H   UNL     1     -10.212 -13.399  21.082  1.00  0.00     0.293 HD
ENDBRANCH   7  43
TORSDOF 11
ENDMDL
