MODEL 1
REMARK VINA RESULT:    -5.195      0.000      0.000
REMARK INTER + INTRA:          -7.181
REMARK INTER:                  -6.713
REMARK INTRA:                  -0.468
REMARK UNBOUND:                -0.468
REMARK SMILES CCO[C@H]1O[C@@H](CO)[C@H](O)[C@@H](O)[C@@H]1O
REMARK SMILES IDX 4 1 13 2 11 3 9 4 6 5 5 6 3 7 2 8 1 9 14 10 12 12 7 14 8 15
REMARK SMILES IDX 10 17
REMARK H PARENT 14 11 12 13 8 16 10 18
REMARK Flexibility Score: inf
ROOT
ATOM      1  C   UNL     1      22.658  19.434  86.313  1.00  0.00     0.281 C 
ATOM      2  C   UNL     1      23.155  19.921  87.694  1.00  0.00     0.202 C 
ATOM      3  C   UNL     1      24.171  21.084  87.582  1.00  0.00     0.179 C 
ATOM      4  C   UNL     1      25.211  20.846  86.469  1.00  0.00     0.177 C 
ATOM      5  C   UNL     1      24.599  20.246  85.176  1.00  0.00     0.178 C 
ATOM      6  O   UNL     1      23.726  19.149  85.421  1.00  0.00    -0.341 OA
ENDROOT
BRANCH   1   7
ATOM      7  O   UNL     1      21.752  20.355  85.722  1.00  0.00    -0.350 OA
BRANCH   7   8
ATOM      8  C   UNL     1      20.602  19.714  85.200  1.00  0.00     0.160 C 
ATOM      9  C   UNL     1      20.667  19.673  83.677  1.00  0.00     0.035 C 
ENDBRANCH   7   8
ENDBRANCH   1   7
BRANCH   2  10
ATOM     10  O   UNL     1      23.743  18.836  88.368  1.00  0.00    -0.385 OA
ATOM     11  H   UNL     1      24.239  19.209  89.143  1.00  0.00     0.211 HD
ENDBRANCH   2  10
BRANCH   3  12
ATOM     12  O   UNL     1      23.556  22.343  87.433  1.00  0.00    -0.387 OA
ATOM     13  H   UNL     1      23.173  22.630  88.298  1.00  0.00     0.211 HD
ENDBRANCH   3  12
BRANCH   5  14
ATOM     14  C   UNL     1      24.008  21.301  84.221  1.00  0.00     0.191 C 
BRANCH  14  15
ATOM     15  O   UNL     1      24.454  22.578  84.587  1.00  0.00    -0.394 OA
ATOM     16  H   UNL     1      24.564  23.085  83.741  1.00  0.00     0.210 HD
ENDBRANCH  14  15
ENDBRANCH   5  14
BRANCH   4  17
ATOM     17  O   UNL     1      26.255  20.031  86.944  1.00  0.00    -0.387 OA
ATOM     18  H   UNL     1      26.113  19.884  87.915  1.00  0.00     0.211 HD
ENDBRANCH   4  17
TORSDOF 7
ENDMDL
MODEL 2
REMARK VINA RESULT:    -5.194      1.826      2.759
REMARK INTER + INTRA:          -7.180
REMARK INTER:                  -6.799
REMARK INTRA:                  -0.381
REMARK UNBOUND:                -0.468
REMARK SMILES CCO[C@H]1O[C@@H](CO)[C@H](O)[C@@H](O)[C@@H]1O
REMARK SMILES IDX 4 1 13 2 11 3 9 4 6 5 5 6 3 7 2 8 1 9 14 10 12 12 7 14 8 15
REMARK SMILES IDX 10 17
REMARK H PARENT 14 11 12 13 8 16 10 18
REMARK Flexibility Score: inf
ROOT
ATOM      1  C   UNL     1      23.034  19.330  85.219  1.00  0.00     0.281 C 
ATOM      2  C   UNL     1      24.548  19.142  85.474  1.00  0.00     0.202 C 
ATOM      3  C   UNL     1      25.113  20.178  86.476  1.00  0.00     0.179 C 
ATOM      4  C   UNL     1      24.585  21.601  86.207  1.00  0.00     0.177 C 
ATOM      5  C   UNL     1      23.076  21.638  85.847  1.00  0.00     0.178 C 
ATOM      6  O   UNL     1      22.704  20.668  84.875  1.00  0.00    -0.341 OA
ENDROOT
BRANCH   1   7
ATOM      7  O   UNL     1      22.253  18.896  86.324  1.00  0.00    -0.350 OA
BRANCH   7   8
ATOM      8  C   UNL     1      21.900  17.529  86.225  1.00  0.00     0.160 C 
ATOM      9  C   UNL     1      20.567  17.379  85.499  1.00  0.00     0.035 C 
ENDBRANCH   7   8
ENDBRANCH   1   7
BRANCH   2  10
ATOM     10  O   UNL     1      25.226  19.244  84.247  1.00  0.00    -0.385 OA
ATOM     11  H   UNL     1      26.198  19.252  84.452  1.00  0.00     0.211 HD
ENDBRANCH   2  10
BRANCH   3  12
ATOM     12  O   UNL     1      24.907  19.814  87.823  1.00  0.00    -0.387 OA
ATOM     13  H   UNL     1      24.602  18.875  87.870  1.00  0.00     0.211 HD
ENDBRANCH   3  12
BRANCH   5  14
ATOM     14  C   UNL     1      22.146  21.664  87.076  1.00  0.00     0.191 C 
BRANCH  14  15
ATOM     15  O   UNL     1      20.808  21.680  86.660  1.00  0.00    -0.394 OA
ATOM     16  H   UNL     1      20.498  22.618  86.764  1.00  0.00     0.210 HD
ENDBRANCH  14  15
ENDBRANCH   5  14
BRANCH   4  17
ATOM     17  O   UNL     1      25.346  22.220  85.197  1.00  0.00    -0.387 OA
ATOM     18  H   UNL     1      24.912  23.082  84.969  1.00  0.00     0.211 HD
ENDBRANCH   4  17
TORSDOF 7
ENDMDL
MODEL 3
REMARK VINA RESULT:    -5.141      1.234      3.315
REMARK INTER + INTRA:          -7.112
REMARK INTER:                  -6.916
REMARK INTRA:                  -0.196
REMARK UNBOUND:                -0.468
REMARK SMILES CCO[C@H]1O[C@@H](CO)[C@H](O)[C@@H](O)[C@@H]1O
REMARK SMILES IDX 4 1 13 2 11 3 9 4 6 5 5 6 3 7 2 8 1 9 14 10 12 12 7 14 8 15
REMARK SMILES IDX 10 17
REMARK H PARENT 14 11 12 13 8 16 10 18
REMARK Flexibility Score: inf
ROOT
ATOM      1  C   UNL     1      22.294  20.844  85.181  1.00  0.00     0.281 C 
ATOM      2  C   UNL     1      23.455  21.861  85.074  1.00  0.00     0.202 C 
ATOM      3  C   UNL     1      24.503  21.685  86.200  1.00  0.00     0.179 C 
ATOM      4  C   UNL     1      23.850  21.457  87.577  1.00  0.00     0.177 C 
ATOM      5  C   UNL     1      22.624  20.507  87.525  1.00  0.00     0.178 C 
ATOM      6  O   UNL     1      21.714  20.817  86.476  1.00  0.00    -0.341 OA
ENDROOT
BRANCH   1   7
ATOM      7  O   UNL     1      22.698  19.539  84.791  1.00  0.00    -0.350 OA
BRANCH   7   8
ATOM      8  C   UNL     1      22.234  19.199  83.497  1.00  0.00     0.160 C 
ATOM      9  C   UNL     1      20.846  19.785  83.264  1.00  0.00     0.035 C 
ENDBRANCH   7   8
ENDBRANCH   1   7
BRANCH   2  10
ATOM     10  O   UNL     1      22.918  23.160  85.120  1.00  0.00    -0.385 OA
ATOM     11  H   UNL     1      21.938  23.075  84.987  1.00  0.00     0.211 HD
ENDBRANCH   2  10
BRANCH   3  12
ATOM     12  O   UNL     1      25.448  20.676  85.921  1.00  0.00    -0.387 OA
ATOM     13  H   UNL     1      25.852  20.836  85.032  1.00  0.00     0.211 HD
ENDBRANCH   3  12
BRANCH   5  14
ATOM     14  C   UNL     1      22.994  19.013  87.598  1.00  0.00     0.191 C 
BRANCH  14  15
ATOM     15  O   UNL     1      23.278  18.656  88.923  1.00  0.00    -0.394 OA
ATOM     16  H   UNL     1      22.410  18.674  89.405  1.00  0.00     0.210 HD
ENDBRANCH  14  15
ENDBRANCH   5  14
BRANCH   4  17
ATOM     17  O   UNL     1      23.494  22.689  88.156  1.00  0.00    -0.387 OA
ATOM     18  H   UNL     1      22.637  22.984  87.750  1.00  0.00     0.211 HD
ENDBRANCH   4  17
TORSDOF 7
ENDMDL
MODEL 4
REMARK VINA RESULT:    -5.124      1.592      3.174
REMARK INTER + INTRA:          -7.090
REMARK INTER:                  -6.809
REMARK INTRA:                  -0.281
REMARK UNBOUND:                -0.468
REMARK SMILES CCO[C@H]1O[C@@H](CO)[C@H](O)[C@@H](O)[C@@H]1O
REMARK SMILES IDX 4 1 13 2 11 3 9 4 6 5 5 6 3 7 2 8 1 9 14 10 12 12 7 14 8 15
REMARK SMILES IDX 10 17
REMARK H PARENT 14 11 12 13 8 16 10 18
REMARK Flexibility Score: inf
ROOT
ATOM      1  C   UNL     1      22.515  19.975  87.009  1.00  0.00     0.281 C 
ATOM      2  C   UNL     1      21.495  20.490  85.966  1.00  0.00     0.202 C 
ATOM      3  C   UNL     1      22.177  21.002  84.673  1.00  0.00     0.179 C 
ATOM      4  C   UNL     1      23.423  21.861  84.969  1.00  0.00     0.177 C 
ATOM      5  C   UNL     1      24.300  21.294  86.116  1.00  0.00     0.178 C 
ATOM      6  O   UNL     1      23.550  20.913  87.265  1.00  0.00    -0.341 OA
ENDROOT
BRANCH   1   7
ATOM      7  O   UNL     1      23.066  18.720  86.635  1.00  0.00    -0.350 OA
BRANCH   7   8
ATOM      8  C   UNL     1      22.077  17.712  86.529  1.00  0.00     0.160 C 
ATOM      9  C   UNL     1      22.284  16.901  85.255  1.00  0.00     0.035 C 
ENDBRANCH   7   8
ENDBRANCH   1   7
BRANCH   2  10
ATOM     10  O   UNL     1      20.740  21.522  86.549  1.00  0.00    -0.385 OA
ATOM     11  H   UNL     1      20.206  21.115  87.280  1.00  0.00     0.211 HD
ENDBRANCH   2  10
BRANCH   3  12
ATOM     12  O   UNL     1      22.485  19.969  83.765  1.00  0.00    -0.387 OA
ATOM     13  H   UNL     1      22.943  19.233  84.242  1.00  0.00     0.211 HD
ENDBRANCH   3  12
BRANCH   5  14
ATOM     14  C   UNL     1      25.307  20.222  85.656  1.00  0.00     0.191 C 
BRANCH  14  15
ATOM     15  O   UNL     1      26.458  20.277  86.453  1.00  0.00    -0.394 OA
ATOM     16  H   UNL     1      26.981  21.058  86.130  1.00  0.00     0.210 HD
ENDBRANCH  14  15
ENDBRANCH   5  14
BRANCH   4  17
ATOM     17  O   UNL     1      23.044  23.187  85.248  1.00  0.00    -0.387 OA
ATOM     18  H   UNL     1      22.181  23.364  84.790  1.00  0.00     0.211 HD
ENDBRANCH   4  17
TORSDOF 7
ENDMDL
MODEL 5
REMARK VINA RESULT:    -5.078      1.528      2.583
REMARK INTER + INTRA:          -7.031
REMARK INTER:                  -6.604
REMARK INTRA:                  -0.427
REMARK UNBOUND:                -0.468
REMARK SMILES CCO[C@H]1O[C@@H](CO)[C@H](O)[C@@H](O)[C@@H]1O
REMARK SMILES IDX 4 1 13 2 11 3 9 4 6 5 5 6 3 7 2 8 1 9 14 10 12 12 7 14 8 15
REMARK SMILES IDX 10 17
REMARK H PARENT 14 11 12 13 8 16 10 18
REMARK Flexibility Score: inf
ROOT
ATOM      1  C   UNL     1      22.368  19.836  86.041  1.00  0.00     0.281 C 
ATOM      2  C   UNL     1      21.713  21.226  86.217  1.00  0.00     0.202 C 
ATOM      3  C   UNL     1      22.757  22.351  86.419  1.00  0.00     0.179 C 
ATOM      4  C   UNL     1      23.881  21.939  87.391  1.00  0.00     0.177 C 
ATOM      5  C   UNL     1      24.367  20.481  87.184  1.00  0.00     0.178 C 
ATOM      6  O   UNL     1      23.304  19.542  87.067  1.00  0.00    -0.341 OA
ENDROOT
BRANCH   1   7
ATOM      7  O   UNL     1      22.974  19.695  84.763  1.00  0.00    -0.350 OA
BRANCH   7   8
ATOM      8  C   UNL     1      22.031  19.790  83.710  1.00  0.00     0.160 C 
ATOM      9  C   UNL     1      22.670  19.366  82.392  1.00  0.00     0.035 C 
ENDBRANCH   7   8
ENDBRANCH   1   7
BRANCH   2  10
ATOM     10  O   UNL     1      20.844  21.176  87.321  1.00  0.00    -0.385 OA
ATOM     11  H   UNL     1      20.813  22.090  87.708  1.00  0.00     0.211 HD
ENDBRANCH   2  10
BRANCH   3  12
ATOM     12  O   UNL     1      23.295  22.831  85.207  1.00  0.00    -0.387 OA
ATOM     13  H   UNL     1      23.493  22.069  84.608  1.00  0.00     0.211 HD
ENDBRANCH   3  12
BRANCH   5  14
ATOM     14  C   UNL     1      25.439  20.334  86.087  1.00  0.00     0.191 C 
BRANCH  14  15
ATOM     15  O   UNL     1      25.718  18.978  85.872  1.00  0.00    -0.394 OA
ATOM     16  H   UNL     1      25.451  18.506  86.704  1.00  0.00     0.210 HD
ENDBRANCH  14  15
ENDBRANCH   5  14
BRANCH   4  17
ATOM     17  O   UNL     1      23.468  22.136  88.722  1.00  0.00    -0.387 OA
ATOM     18  H   UNL     1      24.262  22.035  89.309  1.00  0.00     0.211 HD
ENDBRANCH   4  17
TORSDOF 7
ENDMDL
MODEL 6
REMARK VINA RESULT:    -5.037      1.012      3.164
REMARK INTER + INTRA:          -6.978
REMARK INTER:                  -6.471
REMARK INTRA:                  -0.507
REMARK UNBOUND:                -0.468
REMARK SMILES CCO[C@H]1O[C@@H](CO)[C@H](O)[C@@H](O)[C@@H]1O
REMARK SMILES IDX 4 1 13 2 11 3 9 4 6 5 5 6 3 7 2 8 1 9 14 10 12 12 7 14 8 15
REMARK SMILES IDX 10 17
REMARK H PARENT 14 11 12 13 8 16 10 18
REMARK Flexibility Score: inf
ROOT
ATOM      1  C   UNL     1      22.896  21.287  85.431  1.00  0.00     0.281 C 
ATOM      2  C   UNL     1      23.796  20.465  84.479  1.00  0.00     0.202 C 
ATOM      3  C   UNL     1      24.652  19.417  85.231  1.00  0.00     0.179 C 
ATOM      4  C   UNL     1      25.275  19.987  86.521  1.00  0.00     0.177 C 
ATOM      5  C   UNL     1      24.302  20.890  87.324  1.00  0.00     0.178 C 
ATOM      6  O   UNL     1      23.620  21.844  86.517  1.00  0.00    -0.341 OA
ENDROOT
BRANCH   1   7
ATOM      7  O   UNL     1      21.796  20.525  85.908  1.00  0.00    -0.350 OA
BRANCH   7   8
ATOM      8  C   UNL     1      20.996  20.021  84.854  1.00  0.00     0.160 C 
ATOM      9  C   UNL     1      20.496  18.621  85.194  1.00  0.00     0.035 C 
ENDBRANCH   7   8
ENDBRANCH   1   7
BRANCH   2  10
ATOM     10  O   UNL     1      24.632  21.350  83.776  1.00  0.00    -0.385 OA
ATOM     11  H   UNL     1      24.199  21.526  82.900  1.00  0.00     0.211 HD
ENDBRANCH   2  10
BRANCH   3  12
ATOM     12  O   UNL     1      23.954  18.221  85.498  1.00  0.00    -0.387 OA
ATOM     13  H   UNL     1      24.387  17.746  86.249  1.00  0.00     0.211 HD
ENDBRANCH   3  12
BRANCH   5  14
ATOM     14  C   UNL     1      23.370  20.110  88.272  1.00  0.00     0.191 C 
BRANCH  14  15
ATOM     15  O   UNL     1      23.901  18.836  88.519  1.00  0.00    -0.394 OA
ATOM     16  H   UNL     1      24.814  18.837  88.128  1.00  0.00     0.210 HD
ENDBRANCH  14  15
ENDBRANCH   5  14
BRANCH   4  17
ATOM     17  O   UNL     1      26.460  20.684  86.222  1.00  0.00    -0.387 OA
ATOM     18  H   UNL     1      26.219  21.490  85.695  1.00  0.00     0.211 HD
ENDBRANCH   4  17
TORSDOF 7
ENDMDL
MODEL 7
REMARK VINA RESULT:    -5.022      1.326      1.909
REMARK INTER + INTRA:          -6.958
REMARK INTER:                  -6.452
REMARK INTRA:                  -0.506
REMARK UNBOUND:                -0.468
REMARK SMILES CCO[C@H]1O[C@@H](CO)[C@H](O)[C@@H](O)[C@@H]1O
REMARK SMILES IDX 4 1 13 2 11 3 9 4 6 5 5 6 3 7 2 8 1 9 14 10 12 12 7 14 8 15
REMARK SMILES IDX 10 17
REMARK H PARENT 14 11 12 13 8 16 10 18
REMARK Flexibility Score: inf
ROOT
ATOM      1  C   UNL     1      23.781  19.107  85.450  1.00  0.00     0.281 C 
ATOM      2  C   UNL     1      22.621  19.206  86.469  1.00  0.00     0.202 C 
ATOM      3  C   UNL     1      22.267  20.672  86.823  1.00  0.00     0.179 C 
ATOM      4  C   UNL     1      23.522  21.538  87.051  1.00  0.00     0.177 C 
ATOM      5  C   UNL     1      24.655  21.256  86.030  1.00  0.00     0.178 C 
ATOM      6  O   UNL     1      24.913  19.870  85.841  1.00  0.00    -0.341 OA
ENDROOT
BRANCH   1   7
ATOM      7  O   UNL     1      23.367  19.471  84.140  1.00  0.00    -0.350 OA
BRANCH   7   8
ATOM      8  C   UNL     1      22.320  18.646  83.662  1.00  0.00     0.160 C 
ATOM      9  C   UNL     1      21.500  19.391  82.613  1.00  0.00     0.035 C 
ENDBRANCH   7   8
ENDBRANCH   1   7
BRANCH   2  10
ATOM     10  O   UNL     1      22.985  18.508  87.633  1.00  0.00    -0.385 OA
ATOM     11  H   UNL     1      22.827  17.544  87.456  1.00  0.00     0.211 HD
ENDBRANCH   2  10
BRANCH   3  12
ATOM     12  O   UNL     1      21.406  21.275  85.883  1.00  0.00    -0.387 OA
ATOM     13  H   UNL     1      21.924  21.887  85.304  1.00  0.00     0.211 HD
ENDBRANCH   3  12
BRANCH   5  14
ATOM     14  C   UNL     1      24.512  22.041  84.711  1.00  0.00     0.191 C 
BRANCH  14  15
ATOM     15  O   UNL     1      23.618  23.106  84.886  1.00  0.00    -0.394 OA
ATOM     16  H   UNL     1      22.775  22.706  85.224  1.00  0.00     0.210 HD
ENDBRANCH  14  15
ENDBRANCH   5  14
BRANCH   4  17
ATOM     17  O   UNL     1      23.992  21.375  88.367  1.00  0.00    -0.387 OA
ATOM     18  H   UNL     1      23.206  21.275  88.965  1.00  0.00     0.211 HD
ENDBRANCH   4  17
TORSDOF 7
ENDMDL
MODEL 8
REMARK VINA RESULT:    -4.984      1.591      3.779
REMARK INTER + INTRA:          -6.909
REMARK INTER:                  -6.456
REMARK INTRA:                  -0.453
REMARK UNBOUND:                -0.468
REMARK SMILES CCO[C@H]1O[C@@H](CO)[C@H](O)[C@@H](O)[C@@H]1O
REMARK SMILES IDX 4 1 13 2 11 3 9 4 6 5 5 6 3 7 2 8 1 9 14 10 12 12 7 14 8 15
REMARK SMILES IDX 10 17
REMARK H PARENT 14 11 12 13 8 16 10 18
REMARK Flexibility Score: inf
ROOT
ATOM      1  C   UNL     1      22.990  19.460  85.276  1.00  0.00     0.281 C 
ATOM      2  C   UNL     1      22.436  20.655  84.465  1.00  0.00     0.202 C 
ATOM      3  C   UNL     1      22.675  22.012  85.170  1.00  0.00     0.179 C 
ATOM      4  C   UNL     1      22.375  21.948  86.681  1.00  0.00     0.177 C 
ATOM      5  C   UNL     1      22.881  20.644  87.352  1.00  0.00     0.178 C 
ATOM      6  O   UNL     1      22.546  19.467  86.625  1.00  0.00    -0.341 OA
ENDROOT
BRANCH   1   7
ATOM      7  O   UNL     1      24.409  19.397  85.223  1.00  0.00    -0.350 OA
BRANCH   7   8
ATOM      8  C   UNL     1      24.882  19.080  83.927  1.00  0.00     0.160 C 
ATOM      9  C   UNL     1      25.922  20.103  83.481  1.00  0.00     0.035 C 
ENDBRANCH   7   8
ENDBRANCH   1   7
BRANCH   2  10
ATOM     10  O   UNL     1      21.059  20.459  84.261  1.00  0.00    -0.385 OA
ATOM     11  H   UNL     1      20.593  21.243  84.652  1.00  0.00     0.211 HD
ENDBRANCH   2  10
BRANCH   3  12
ATOM     12  O   UNL     1      23.964  22.536  84.938  1.00  0.00    -0.387 OA
ATOM     13  H   UNL     1      24.642  21.839  85.113  1.00  0.00     0.211 HD
ENDBRANCH   3  12
BRANCH   5  14
ATOM     14  C   UNL     1      24.361  20.700  87.780  1.00  0.00     0.191 C 
BRANCH  14  15
ATOM     15  O   UNL     1      24.754  19.459  88.299  1.00  0.00    -0.394 OA
ATOM     16  H   UNL     1      24.006  19.151  88.875  1.00  0.00     0.210 HD
ENDBRANCH  14  15
ENDBRANCH   5  14
BRANCH   4  17
ATOM     17  O   UNL     1      20.996  22.116  86.910  1.00  0.00    -0.387 OA
ATOM     18  H   UNL     1      20.885  22.693  87.710  1.00  0.00     0.211 HD
ENDBRANCH   4  17
TORSDOF 7
ENDMDL
MODEL 9
REMARK VINA RESULT:    -4.912      1.528      2.628
REMARK INTER + INTRA:          -6.816
REMARK INTER:                  -6.393
REMARK INTRA:                  -0.423
REMARK UNBOUND:                -0.468
REMARK SMILES CCO[C@H]1O[C@@H](CO)[C@H](O)[C@@H](O)[C@@H]1O
REMARK SMILES IDX 4 1 13 2 11 3 9 4 6 5 5 6 3 7 2 8 1 9 14 10 12 12 7 14 8 15
REMARK SMILES IDX 10 17
REMARK H PARENT 14 11 12 13 8 16 10 18
REMARK Flexibility Score: inf
ROOT
ATOM      1  C   UNL     1      23.640  20.461  83.874  1.00  0.00     0.281 C 
ATOM      2  C   UNL     1      24.311  19.156  84.360  1.00  0.00     0.202 C 
ATOM      3  C   UNL     1      24.505  19.125  85.896  1.00  0.00     0.179 C 
ATOM      4  C   UNL     1      25.024  20.469  86.447  1.00  0.00     0.177 C 
ATOM      5  C   UNL     1      24.350  21.702  85.790  1.00  0.00     0.178 C 
ATOM      6  O   UNL     1      24.287  21.623  84.371  1.00  0.00    -0.341 OA
ENDROOT
BRANCH   1   7
ATOM      7  O   UNL     1      22.255  20.493  84.189  1.00  0.00    -0.350 OA
BRANCH   7   8
ATOM      8  C   UNL     1      21.551  19.403  83.621  1.00  0.00     0.160 C 
ATOM      9  C   UNL     1      20.188  19.863  83.113  1.00  0.00     0.035 C 
ENDBRANCH   7   8
ENDBRANCH   1   7
BRANCH   2  10
ATOM     10  O   UNL     1      25.556  19.026  83.719  1.00  0.00    -0.385 OA
ATOM     11  H   UNL     1      25.397  19.154  82.747  1.00  0.00     0.211 HD
ENDBRANCH   2  10
BRANCH   3  12
ATOM     12  O   UNL     1      23.350  18.712  86.590  1.00  0.00    -0.387 OA
ATOM     13  H   UNL     1      22.918  19.496  87.011  1.00  0.00     0.211 HD
ENDBRANCH   3  12
BRANCH   5  14
ATOM     14  C   UNL     1      23.012  22.099  86.444  1.00  0.00     0.191 C 
BRANCH  14  15
ATOM     15  O   UNL     1      22.398  23.112  85.696  1.00  0.00    -0.394 OA
ATOM     16  H   UNL     1      21.674  22.672  85.178  1.00  0.00     0.210 HD
ENDBRANCH  14  15
ENDBRANCH   5  14
BRANCH   4  17
ATOM     17  O   UNL     1      26.424  20.542  86.311  1.00  0.00    -0.387 OA
ATOM     18  H   UNL     1      26.780  21.068  87.073  1.00  0.00     0.211 HD
ENDBRANCH   4  17
TORSDOF 7
ENDMDL
