MODEL 1
REMARK VINA RESULT:    15.668      0.000      0.000
REMARK INTER + INTRA:          17.500
REMARK INTER:                  17.500
REMARK INTRA:                   0.000
REMARK UNBOUND:                 0.000
REMARK SMILES Oc1cc(O)c2c(ccc3ccc(O)c(O)c32)c1
REMARK SMILES IDX 9 1 8 2 7 3 18 4 2 5 3 6 4 7 6 8 17 9 10 10 11 11 12 12
REMARK SMILES IDX 13 13 15 14 16 15 1 17 5 19 14 21
REMARK H PARENT 16 16 1 18 5 20 14 22
REMARK Flexibility Score: inf
ROOT
ATOM      1  C   UNL     1      34.550  22.973  27.367  1.00  0.00     0.009 A 
ATOM      2  C   UNL     1      33.344  22.486  26.878  1.00  0.00     0.009 A 
ATOM      3  C   UNL     1      32.199  22.496  27.680  1.00  0.00    -0.010 A 
ATOM      4  C   UNL     1      30.978  22.068  27.137  1.00  0.00     0.055 A 
ATOM      5  C   UNL     1      29.797  22.191  27.870  1.00  0.00     0.119 A 
ATOM      6  C   UNL     1      29.823  22.798  29.123  1.00  0.00     0.093 A 
ATOM      7  C   UNL     1      31.029  23.252  29.675  1.00  0.00     0.127 A 
ATOM      8  C   UNL     1      32.262  22.982  29.017  1.00  0.00     0.035 A 
ATOM      9  C   UNL     1      33.548  23.267  29.582  1.00  0.00     0.039 A 
ATOM     10  C   UNL     1      34.667  23.356  28.707  1.00  0.00    -0.014 A 
ATOM     11  C   UNL     1      35.911  23.783  29.189  1.00  0.00     0.013 A 
ATOM     12  C   UNL     1      36.079  24.072  30.539  1.00  0.00     0.051 A 
ATOM     13  C   UNL     1      35.041  23.851  31.443  1.00  0.00     0.158 A 
ATOM     14  C   UNL     1      33.798  23.358  30.982  1.00  0.00     0.166 A 
ENDROOT
BRANCH  14  15
ATOM     15  O   UNL     1      32.868  22.845  31.889  1.00  0.00    -0.504 OA
ATOM     16  H   UNL     1      32.058  23.357  32.216  1.00  0.00     0.293 HD
ENDBRANCH  14  15
BRANCH   5  17
ATOM     17  O   UNL     1      28.585  21.748  27.344  1.00  0.00    -0.508 OA
ATOM     18  H   UNL     1      27.983  21.116  27.860  1.00  0.00     0.293 HD
ENDBRANCH   5  17
BRANCH   7  19
ATOM     19  O   UNL     1      30.973  24.050  30.818  1.00  0.00    -0.507 OA
ATOM     20  H   UNL     1      31.547  24.879  30.922  1.00  0.00     0.293 HD
ENDBRANCH   7  19
BRANCH  13  21
ATOM     21  O   UNL     1      35.282  24.123  32.791  1.00  0.00    -0.504 OA
ATOM     22  H   UNL     1      34.552  24.348  33.453  1.00  0.00     0.293 HD
ENDBRANCH  13  21
TORSDOF 4
ENDMDL
