MODEL 1
REMARK VINA RESULT:    -5.829      0.000      0.000
REMARK INTER + INTRA:          -5.999
REMARK INTER:                  -5.999
REMARK INTRA:                   0.000
REMARK UNBOUND:                 0.000
REMARK SMILES O=c1ccc2ccc(O)cc2o1
REMARK SMILES IDX 6 1 7 2 8 3 10 4 11 5 5 6 4 7 3 8 2 9 1 10 12 11 9 12
REMARK H PARENT 9 13
REMARK Flexibility Score: inf
ROOT
ATOM      1  C   UNL     1      49.978  57.829  93.209  1.00  0.00     0.016 A 
ATOM      2  C   UNL     1      50.528  56.679  92.634  1.00  0.00     0.047 A 
ATOM      3  C   UNL     1      51.802  56.722  92.047  1.00  0.00     0.119 A 
ATOM      4  C   UNL     1      52.527  57.919  92.038  1.00  0.00     0.094 A 
ATOM      5  C   UNL     1      51.984  59.074  92.613  1.00  0.00     0.142 A 
ATOM      6  C   UNL     1      50.701  59.029  93.202  1.00  0.00     0.018 A 
ATOM      7  C   UNL     1      50.186  60.199  93.766  1.00  0.00     0.019 A 
ATOM      8  C   UNL     1      50.946  61.368  93.733  1.00  0.00     0.094 A 
ATOM      9  C   UNL     1      52.209  61.339  93.132  1.00  0.00     0.336 A 
ATOM     10  O   UNL     1      52.910  62.383  93.092  1.00  0.00    -0.246 OA
ATOM     11  O   UNL     1      52.676  60.212  92.602  1.00  0.00    -0.423 OA
ENDROOT
BRANCH   3  12
ATOM     12  O   UNL     1      52.357  55.581  91.472  1.00  0.00    -0.508 OA
ATOM     13  H   UNL     1      52.638  54.787  92.037  1.00  0.00     0.293 HD
ENDBRANCH   3  12
TORSDOF 1
ENDMDL
MODEL 2
REMARK VINA RESULT:    -5.819      1.602      2.279
REMARK INTER + INTRA:          -5.989
REMARK INTER:                  -5.989
REMARK INTRA:                   0.000
REMARK UNBOUND:                 0.000
REMARK SMILES O=c1ccc2ccc(O)cc2o1
REMARK SMILES IDX 6 1 7 2 8 3 10 4 11 5 5 6 4 7 3 8 2 9 1 10 12 11 9 12
REMARK H PARENT 9 13
REMARK Flexibility Score: inf
ROOT
ATOM      1  C   UNL     1      52.785  58.186  92.400  1.00  0.00     0.016 A 
ATOM      2  C   UNL     1      52.301  56.876  92.317  1.00  0.00     0.047 A 
ATOM      3  C   UNL     1      50.977  56.586  92.681  1.00  0.00     0.119 A 
ATOM      4  C   UNL     1      50.135  57.611  93.128  1.00  0.00     0.094 A 
ATOM      5  C   UNL     1      50.610  58.924  93.213  1.00  0.00     0.142 A 
ATOM      6  C   UNL     1      51.943  59.214  92.847  1.00  0.00     0.018 A 
ATOM      7  C   UNL     1      52.389  60.536  92.944  1.00  0.00     0.019 A 
ATOM      8  C   UNL     1      51.512  61.522  93.395  1.00  0.00     0.094 A 
ATOM      9  C   UNL     1      50.205  61.162  93.740  1.00  0.00     0.336 A 
ATOM     10  O   UNL     1      49.400  62.038  94.149  1.00  0.00    -0.246 OA
ATOM     11  O   UNL     1      49.806  59.897  93.638  1.00  0.00    -0.423 OA
ENDROOT
BRANCH   3  12
ATOM     12  O   UNL     1      50.489  55.284  92.601  1.00  0.00    -0.508 OA
ATOM     13  H   UNL     1      50.504  54.765  91.729  1.00  0.00     0.293 HD
ENDBRANCH   3  12
TORSDOF 1
ENDMDL
MODEL 3
REMARK VINA RESULT:    -5.644      2.477      5.078
REMARK INTER + INTRA:          -5.809
REMARK INTER:                  -5.809
REMARK INTRA:                   0.000
REMARK UNBOUND:                 0.000
REMARK SMILES O=c1ccc2ccc(O)cc2o1
REMARK SMILES IDX 6 1 7 2 8 3 10 4 11 5 5 6 4 7 3 8 2 9 1 10 12 11 9 12
REMARK H PARENT 9 13
REMARK Flexibility Score: inf
ROOT
ATOM      1  C   UNL     1      50.538  57.182  92.304  1.00  0.00     0.016 A 
ATOM      2  C   UNL     1      50.155  58.325  93.013  1.00  0.00     0.047 A 
ATOM      3  C   UNL     1      50.680  58.575  94.290  1.00  0.00     0.119 A 
ATOM      4  C   UNL     1      51.593  57.678  94.857  1.00  0.00     0.094 A 
ATOM      5  C   UNL     1      51.983  56.533  94.154  1.00  0.00     0.142 A 
ATOM      6  C   UNL     1      51.452  56.283  92.870  1.00  0.00     0.018 A 
ATOM      7  C   UNL     1      51.860  55.129  92.193  1.00  0.00     0.019 A 
ATOM      8  C   UNL     1      52.772  54.266  92.800  1.00  0.00     0.094 A 
ATOM      9  C   UNL     1      53.256  54.578  94.074  1.00  0.00     0.336 A 
ATOM     10  O   UNL     1      54.079  53.811  94.638  1.00  0.00    -0.246 OA
ATOM     11  O   UNL     1      52.851  55.682  94.697  1.00  0.00    -0.423 OA
ENDROOT
BRANCH   3  12
ATOM     12  O   UNL     1      50.303  59.711  95.002  1.00  0.00    -0.508 OA
ATOM     13  H   UNL     1      49.769  60.456  94.567  1.00  0.00     0.293 HD
ENDBRANCH   3  12
TORSDOF 1
ENDMDL
MODEL 4
REMARK VINA RESULT:    -5.639      8.013      8.638
REMARK INTER + INTRA:          -5.804
REMARK INTER:                  -5.804
REMARK INTRA:                   0.000
REMARK UNBOUND:                 0.000
REMARK SMILES O=c1ccc2ccc(O)cc2o1
REMARK SMILES IDX 6 1 7 2 8 3 10 4 11 5 5 6 4 7 3 8 2 9 1 10 12 11 9 12
REMARK H PARENT 9 13
REMARK Flexibility Score: inf
ROOT
ATOM      1  C   UNL     1      48.627  67.575  94.440  1.00  0.00     0.016 A 
ATOM      2  C   UNL     1      47.811  67.025  93.447  1.00  0.00     0.047 A 
ATOM      3  C   UNL     1      48.379  66.462  92.294  1.00  0.00     0.119 A 
ATOM      4  C   UNL     1      49.770  66.449  92.137  1.00  0.00     0.094 A 
ATOM      5  C   UNL     1      50.595  66.996  93.126  1.00  0.00     0.142 A 
ATOM      6  C   UNL     1      50.020  67.563  94.285  1.00  0.00     0.018 A 
ATOM      7  C   UNL     1      50.870  68.103  95.255  1.00  0.00     0.019 A 
ATOM      8  C   UNL     1      52.250  68.066  95.053  1.00  0.00     0.094 A 
ATOM      9  C   UNL     1      52.748  67.489  93.881  1.00  0.00     0.336 A 
ATOM     10  O   UNL     1      53.990  67.446  93.680  1.00  0.00    -0.246 OA
ATOM     11  O   UNL     1      51.918  66.982  92.973  1.00  0.00    -0.423 OA
ENDROOT
BRANCH   3  12
ATOM     12  O   UNL     1      47.572  65.913  91.301  1.00  0.00    -0.508 OA
ATOM     13  H   UNL     1      46.604  66.196  91.189  1.00  0.00     0.293 HD
ENDBRANCH   3  12
TORSDOF 1
ENDMDL
MODEL 5
REMARK VINA RESULT:    -5.636      7.802      8.587
REMARK INTER + INTRA:          -5.800
REMARK INTER:                  -5.800
REMARK INTRA:                   0.000
REMARK UNBOUND:                 0.000
REMARK SMILES O=c1ccc2ccc(O)cc2o1
REMARK SMILES IDX 6 1 7 2 8 3 10 4 11 5 5 6 4 7 3 8 2 9 1 10 12 11 9 12
REMARK H PARENT 9 13
REMARK Flexibility Score: inf
ROOT
ATOM      1  C   UNL     1      48.643  67.363  90.403  1.00  0.00     0.016 A 
ATOM      2  C   UNL     1      47.514  66.604  90.729  1.00  0.00     0.047 A 
ATOM      3  C   UNL     1      47.480  65.858  91.916  1.00  0.00     0.119 A 
ATOM      4  C   UNL     1      48.581  65.873  92.782  1.00  0.00     0.094 A 
ATOM      5  C   UNL     1      49.714  66.630  92.465  1.00  0.00     0.142 A 
ATOM      6  C   UNL     1      49.746  67.380  91.268  1.00  0.00     0.018 A 
ATOM      7  C   UNL     1      50.893  68.125  90.979  1.00  0.00     0.019 A 
ATOM      8  C   UNL     1      51.964  68.108  91.872  1.00  0.00     0.094 A 
ATOM      9  C   UNL     1      51.861  67.343  93.039  1.00  0.00     0.336 A 
ATOM     10  O   UNL     1      52.817  67.315  93.857  1.00  0.00    -0.246 OA
ATOM     11  O   UNL     1      50.759  66.642  93.290  1.00  0.00    -0.423 OA
ENDROOT
BRANCH   3  12
ATOM     12  O   UNL     1      46.359  65.101  92.246  1.00  0.00    -0.508 OA
ATOM     13  H   UNL     1      45.420  65.462  92.120  1.00  0.00     0.293 HD
ENDBRANCH   3  12
TORSDOF 1
ENDMDL
MODEL 6
REMARK VINA RESULT:    -5.629      8.610      9.274
REMARK INTER + INTRA:          -5.793
REMARK INTER:                  -5.793
REMARK INTRA:                   0.000
REMARK UNBOUND:                 0.000
REMARK SMILES O=c1ccc2ccc(O)cc2o1
REMARK SMILES IDX 6 1 7 2 8 3 10 4 11 5 5 6 4 7 3 8 2 9 1 10 12 11 9 12
REMARK H PARENT 9 13
REMARK Flexibility Score: inf
ROOT
ATOM      1  C   UNL     1      51.211  68.076  95.625  1.00  0.00     0.016 A 
ATOM      2  C   UNL     1      52.516  68.014  95.128  1.00  0.00     0.047 A 
ATOM      3  C   UNL     1      52.751  67.617  93.803  1.00  0.00     0.119 A 
ATOM      4  C   UNL     1      51.675  67.281  92.974  1.00  0.00     0.094 A 
ATOM      5  C   UNL     1      50.365  67.341  93.462  1.00  0.00     0.142 A 
ATOM      6  C   UNL     1      50.131  67.741  94.797  1.00  0.00     0.018 A 
ATOM      7  C   UNL     1      48.812  67.790  95.256  1.00  0.00     0.019 A 
ATOM      8  C   UNL     1      47.772  67.446  94.392  1.00  0.00     0.094 A 
ATOM      9  C   UNL     1      48.079  67.059  93.083  1.00  0.00     0.336 A 
ATOM     10  O   UNL     1      47.155  66.745  92.288  1.00  0.00    -0.246 OA
ATOM     11  O   UNL     1      49.343  67.021  92.671  1.00  0.00    -0.423 OA
ENDROOT
BRANCH   3  12
ATOM     12  O   UNL     1      54.049  67.553  93.301  1.00  0.00    -0.508 OA
ATOM     13  H   UNL     1      54.376  68.202  92.594  1.00  0.00     0.293 HD
ENDBRANCH   3  12
TORSDOF 1
ENDMDL
MODEL 7
REMARK VINA RESULT:    -5.621      2.411      4.537
REMARK INTER + INTRA:          -5.786
REMARK INTER:                  -5.786
REMARK INTRA:                   0.000
REMARK UNBOUND:                 0.000
REMARK SMILES O=c1ccc2ccc(O)cc2o1
REMARK SMILES IDX 6 1 7 2 8 3 10 4 11 5 5 6 4 7 3 8 2 9 1 10 12 11 9 12
REMARK H PARENT 9 13
REMARK Flexibility Score: inf
ROOT
ATOM      1  C   UNL     1      51.324  60.606  93.151  1.00  0.00     0.016 A 
ATOM      2  C   UNL     1      50.148  61.045  93.767  1.00  0.00     0.047 A 
ATOM      3  C   UNL     1      49.430  60.187  94.614  1.00  0.00     0.119 A 
ATOM      4  C   UNL     1      49.892  58.886  94.845  1.00  0.00     0.094 A 
ATOM      5  C   UNL     1      51.068  58.439  94.234  1.00  0.00     0.142 A 
ATOM      6  C   UNL     1      51.789  59.304  93.381  1.00  0.00     0.018 A 
ATOM      7  C   UNL     1      52.960  58.828  92.785  1.00  0.00     0.019 A 
ATOM      8  C   UNL     1      53.380  57.523  93.045  1.00  0.00     0.094 A 
ATOM      9  C   UNL     1      52.615  56.723  93.901  1.00  0.00     0.336 A 
ATOM     10  O   UNL     1      52.978  55.544  94.149  1.00  0.00    -0.246 OA
ATOM     11  O   UNL     1      51.505  57.201  94.456  1.00  0.00    -0.423 OA
ENDROOT
BRANCH   3  12
ATOM     12  O   UNL     1      48.257  60.618  95.231  1.00  0.00    -0.508 OA
ATOM     13  H   UNL     1      47.662  61.319  94.804  1.00  0.00     0.293 HD
ENDBRANCH   3  12
TORSDOF 1
ENDMDL
MODEL 8
REMARK VINA RESULT:    -5.609      2.258      5.061
REMARK INTER + INTRA:          -5.773
REMARK INTER:                  -5.773
REMARK INTRA:                   0.000
REMARK UNBOUND:                 0.000
REMARK SMILES O=c1ccc2ccc(O)cc2o1
REMARK SMILES IDX 6 1 7 2 8 3 10 4 11 5 5 6 4 7 3 8 2 9 1 10 12 11 9 12
REMARK H PARENT 9 13
REMARK Flexibility Score: inf
ROOT
ATOM      1  C   UNL     1      51.761  57.620  94.772  1.00  0.00     0.016 A 
ATOM      2  C   UNL     1      50.945  58.688  94.386  1.00  0.00     0.047 A 
ATOM      3  C   UNL     1      50.281  58.661  93.150  1.00  0.00     0.119 A 
ATOM      4  C   UNL     1      50.435  57.561  92.299  1.00  0.00     0.094 A 
ATOM      5  C   UNL     1      51.248  56.487  92.677  1.00  0.00     0.142 A 
ATOM      6  C   UNL     1      51.916  56.517  93.921  1.00  0.00     0.018 A 
ATOM      7  C   UNL     1      52.723  55.430  94.271  1.00  0.00     0.019 A 
ATOM      8  C   UNL     1      52.845  54.356  93.389  1.00  0.00     0.094 A 
ATOM      9  C   UNL     1      52.153  54.395  92.174  1.00  0.00     0.336 A 
ATOM     10  O   UNL     1      52.251  53.436  91.365  1.00  0.00    -0.246 OA
ATOM     11  O   UNL     1      51.392  55.442  91.865  1.00  0.00    -0.423 OA
ENDROOT
BRANCH   3  12
ATOM     12  O   UNL     1      49.467  59.722  92.760  1.00  0.00    -0.508 OA
ATOM     13  H   UNL     1      48.569  59.564  92.315  1.00  0.00     0.293 HD
ENDBRANCH   3  12
TORSDOF 1
ENDMDL
MODEL 9
REMARK VINA RESULT:    -5.593     10.970     11.773
REMARK INTER + INTRA:          -5.756
REMARK INTER:                  -5.756
REMARK INTRA:                   0.000
REMARK UNBOUND:                 0.000
REMARK SMILES O=c1ccc2ccc(O)cc2o1
REMARK SMILES IDX 6 1 7 2 8 3 10 4 11 5 5 6 4 7 3 8 2 9 1 10 12 11 9 12
REMARK H PARENT 9 13
REMARK Flexibility Score: inf
ROOT
ATOM      1  C   UNL     1      56.192  48.378  96.743  1.00  0.00     0.016 A 
ATOM      2  C   UNL     1      57.464  48.881  96.452  1.00  0.00     0.047 A 
ATOM      3  C   UNL     1      57.754  49.376  95.172  1.00  0.00     0.119 A 
ATOM      4  C   UNL     1      56.767  49.368  94.180  1.00  0.00     0.094 A 
ATOM      5  C   UNL     1      55.491  48.868  94.462  1.00  0.00     0.142 A 
ATOM      6  C   UNL     1      55.201  48.369  95.752  1.00  0.00     0.018 A 
ATOM      7  C   UNL     1      53.918  47.875  96.002  1.00  0.00     0.019 A 
ATOM      8  C   UNL     1      52.967  47.888  94.981  1.00  0.00     0.094 A 
ATOM      9  C   UNL     1      53.325  48.397  93.729  1.00  0.00     0.336 A 
ATOM     10  O   UNL     1      52.482  48.417  92.795  1.00  0.00    -0.246 OA
ATOM     11  O   UNL     1      54.554  48.861  93.516  1.00  0.00    -0.423 OA
ENDROOT
BRANCH   3  12
ATOM     12  O   UNL     1      59.019  49.878  94.876  1.00  0.00    -0.508 OA
ATOM     13  H   UNL     1      59.862  49.411  95.193  1.00  0.00     0.293 HD
ENDBRANCH   3  12
TORSDOF 1
ENDMDL
