MODEL 1
REMARK VINA RESULT:    -4.893      0.000      0.000
REMARK INTER + INTRA:          -5.867
REMARK INTER:                  -5.608
REMARK INTRA:                  -0.259
REMARK UNBOUND:                -0.259
REMARK SMILES COc1ccc(C=O)c(O)c1
REMARK SMILES IDX 3 1 11 2 9 3 6 4 5 5 4 6 2 7 1 8 10 9 7 11 8 12
REMARK H PARENT 10 10
REMARK Flexibility Score: inf
ROOT
ATOM      1  C   UNL     1      61.142 152.327   2.510  1.00  0.00     0.122 A 
ATOM      2  C   UNL     1      61.075 152.947   1.249  1.00  0.00     0.093 A 
ATOM      3  C   UNL     1      60.012 153.806   0.933  1.00  0.00     0.129 A 
ATOM      4  C   UNL     1      59.000 154.053   1.881  1.00  0.00     0.056 A 
ATOM      5  C   UNL     1      59.073 153.429   3.138  1.00  0.00     0.019 A 
ATOM      6  C   UNL     1      60.134 152.576   3.447  1.00  0.00     0.047 A 
ENDROOT
BRANCH   1   7
ATOM      7  O   UNL     1      62.186 151.462   2.870  1.00  0.00    -0.497 OA
ATOM      8  C   UNL     1      63.411 151.883   3.463  1.00  0.00     0.278 C 
ENDBRANCH   1   7
BRANCH   3   9
ATOM      9  O   UNL     1      59.962 154.413  -0.323  1.00  0.00    -0.507 OA
ATOM     10  H   UNL     1      59.542 155.326  -0.456  1.00  0.00     0.293 HD
ENDBRANCH   3   9
BRANCH   4  11
ATOM     11  C   UNL     1      57.875 154.956   1.557  1.00  0.00     0.263 C 
ATOM     12  O   UNL     1      58.078 156.157   1.235  1.00  0.00    -0.298 OA
ENDBRANCH   4  11
TORSDOF 3
ENDMDL
MODEL 2
REMARK VINA RESULT:    -4.781      5.649      6.764
REMARK INTER + INTRA:          -5.739
REMARK INTER:                  -5.494
REMARK INTRA:                  -0.245
REMARK UNBOUND:                -0.259
REMARK SMILES COc1ccc(C=O)c(O)c1
REMARK SMILES IDX 3 1 11 2 9 3 6 4 5 5 4 6 2 7 1 8 10 9 7 11 8 12
REMARK H PARENT 10 10
REMARK Flexibility Score: inf
ROOT
ATOM      1  C   UNL     1      62.779 149.214   5.748  1.00  0.00     0.122 A 
ATOM      2  C   UNL     1      62.386 150.543   5.991  1.00  0.00     0.093 A 
ATOM      3  C   UNL     1      63.291 151.599   5.809  1.00  0.00     0.129 A 
ATOM      4  C   UNL     1      64.606 151.335   5.380  1.00  0.00     0.056 A 
ATOM      5  C   UNL     1      64.993 150.005   5.140  1.00  0.00     0.019 A 
ATOM      6  C   UNL     1      64.087 148.958   5.323  1.00  0.00     0.047 A 
ENDROOT
BRANCH   1   7
ATOM      7  O   UNL     1      61.909 148.127   5.916  1.00  0.00    -0.497 OA
ATOM      8  C   UNL     1      62.058 146.870   5.263  1.00  0.00     0.278 C 
ENDBRANCH   1   7
BRANCH   3   9
ATOM      9  O   UNL     1      62.883 152.911   6.054  1.00  0.00    -0.507 OA
ATOM     10  H   UNL     1      61.909 153.146   6.207  1.00  0.00     0.293 HD
ENDBRANCH   3   9
BRANCH   4  11
ATOM     11  C   UNL     1      65.567 152.441   5.186  1.00  0.00     0.263 C 
ATOM     12  O   UNL     1      65.990 153.113   6.164  1.00  0.00    -0.298 OA
ENDBRANCH   4  11
TORSDOF 3
ENDMDL
MODEL 3
REMARK VINA RESULT:    -4.584      2.575      6.298
REMARK INTER + INTRA:          -5.513
REMARK INTER:                  -5.260
REMARK INTRA:                  -0.253
REMARK UNBOUND:                -0.259
REMARK SMILES COc1ccc(C=O)c(O)c1
REMARK SMILES IDX 3 1 11 2 9 3 6 4 5 5 4 6 2 7 1 8 10 9 7 11 8 12
REMARK H PARENT 10 10
REMARK Flexibility Score: inf
ROOT
ATOM      1  C   UNL     1      61.453 151.809   3.734  1.00  0.00     0.122 A 
ATOM      2  C   UNL     1      61.533 151.305   5.045  1.00  0.00     0.093 A 
ATOM      3  C   UNL     1      62.760 150.869   5.567  1.00  0.00     0.129 A 
ATOM      4  C   UNL     1      63.924 150.932   4.777  1.00  0.00     0.056 A 
ATOM      5  C   UNL     1      63.836 151.436   3.468  1.00  0.00     0.019 A 
ATOM      6  C   UNL     1      62.612 151.869   2.955  1.00  0.00     0.047 A 
ENDROOT
BRANCH   1   7
ATOM      7  O   UNL     1      60.249 152.257   3.171  1.00  0.00    -0.497 OA
ATOM      8  C   UNL     1      60.155 153.002   1.961  1.00  0.00     0.278 C 
ENDBRANCH   1   7
BRANCH   3   9
ATOM      9  O   UNL     1      62.821 150.372   6.869  1.00  0.00    -0.507 OA
ATOM     10  H   UNL     1      63.074 150.963   7.653  1.00  0.00     0.293 HD
ENDBRANCH   3   9
BRANCH   4  11
ATOM     11  C   UNL     1      65.221 150.474   5.318  1.00  0.00     0.263 C 
ATOM     12  O   UNL     1      65.413 149.263   5.608  1.00  0.00    -0.298 OA
ENDBRANCH   4  11
TORSDOF 3
ENDMDL
MODEL 4
REMARK VINA RESULT:    -4.567      1.587      4.763
REMARK INTER + INTRA:          -5.494
REMARK INTER:                  -5.226
REMARK INTRA:                  -0.267
REMARK UNBOUND:                -0.259
REMARK SMILES COc1ccc(C=O)c(O)c1
REMARK SMILES IDX 3 1 11 2 9 3 6 4 5 5 4 6 2 7 1 8 10 9 7 11 8 12
REMARK H PARENT 10 10
REMARK Flexibility Score: inf
ROOT
ATOM      1  C   UNL     1      59.626 153.683   1.695  1.00  0.00     0.122 A 
ATOM      2  C   UNL     1      59.160 153.342   2.978  1.00  0.00     0.093 A 
ATOM      3  C   UNL     1      59.897 152.475   3.797  1.00  0.00     0.129 A 
ATOM      4  C   UNL     1      61.114 151.935   3.337  1.00  0.00     0.056 A 
ATOM      5  C   UNL     1      61.573 152.279   2.054  1.00  0.00     0.019 A 
ATOM      6  C   UNL     1      60.835 153.143   1.244  1.00  0.00     0.047 A 
ENDROOT
BRANCH   1   7
ATOM      7  O   UNL     1      58.923 154.546   0.841  1.00  0.00    -0.497 OA
ATOM      8  C   UNL     1      57.927 155.468   1.273  1.00  0.00     0.278 C 
ENDBRANCH   1   7
BRANCH   3   9
ATOM      9  O   UNL     1      59.420 152.149   5.067  1.00  0.00    -0.507 OA
ATOM     10  H   UNL     1      60.043 151.856   5.811  1.00  0.00     0.293 HD
ENDBRANCH   3   9
BRANCH   4  11
ATOM     11  C   UNL     1      61.898 151.019   4.193  1.00  0.00     0.263 C 
ATOM     12  O   UNL     1      62.203 151.335   5.374  1.00  0.00    -0.298 OA
ENDBRANCH   4  11
TORSDOF 3
ENDMDL
MODEL 5
REMARK VINA RESULT:    -4.537      6.138      6.998
REMARK INTER + INTRA:          -5.459
REMARK INTER:                  -5.191
REMARK INTRA:                  -0.268
REMARK UNBOUND:                -0.259
REMARK SMILES COc1ccc(C=O)c(O)c1
REMARK SMILES IDX 3 1 11 2 9 3 6 4 5 5 4 6 2 7 1 8 10 9 7 11 8 12
REMARK H PARENT 10 10
REMARK Flexibility Score: inf
ROOT
ATOM      1  C   UNL     1      63.897 150.302   5.635  1.00  0.00     0.122 A 
ATOM      2  C   UNL     1      63.792 148.919   5.397  1.00  0.00     0.093 A 
ATOM      3  C   UNL     1      62.620 148.226   5.730  1.00  0.00     0.129 A 
ATOM      4  C   UNL     1      61.534 148.912   6.309  1.00  0.00     0.056 A 
ATOM      5  C   UNL     1      61.646 150.293   6.544  1.00  0.00     0.019 A 
ATOM      6  C   UNL     1      62.815 150.978   6.210  1.00  0.00     0.047 A 
ENDROOT
BRANCH   1   7
ATOM      7  O   UNL     1      65.048 151.037   5.317  1.00  0.00    -0.497 OA
ATOM      8  C   UNL     1      65.046 152.258   4.583  1.00  0.00     0.278 C 
ENDBRANCH   1   7
BRANCH   3   9
ATOM      9  O   UNL     1      62.534 146.854   5.487  1.00  0.00    -0.507 OA
ATOM     10  H   UNL     1      63.313 146.232   5.666  1.00  0.00     0.293 HD
ENDBRANCH   3   9
BRANCH   4  11
ATOM     11  C   UNL     1      60.295 148.189   6.664  1.00  0.00     0.263 C 
ATOM     12  O   UNL     1      60.330 147.152   7.379  1.00  0.00    -0.298 OA
ENDBRANCH   4  11
TORSDOF 3
ENDMDL
MODEL 6
REMARK VINA RESULT:    -4.511     19.299     20.913
REMARK INTER + INTRA:          -5.430
REMARK INTER:                  -5.167
REMARK INTRA:                  -0.263
REMARK UNBOUND:                -0.259
REMARK SMILES COc1ccc(C=O)c(O)c1
REMARK SMILES IDX 3 1 11 2 9 3 6 4 5 5 4 6 2 7 1 8 10 9 7 11 8 12
REMARK H PARENT 10 10
REMARK Flexibility Score: inf
ROOT
ATOM      1  C   UNL     1      71.184 139.196  -9.419  1.00  0.00     0.122 A 
ATOM      2  C   UNL     1      70.206 139.843  -8.641  1.00  0.00     0.093 A 
ATOM      3  C   UNL     1      69.891 139.373  -7.358  1.00  0.00     0.129 A 
ATOM      4  C   UNL     1      70.555 138.245  -6.838  1.00  0.00     0.056 A 
ATOM      5  C   UNL     1      71.530 137.603  -7.620  1.00  0.00     0.019 A 
ATOM      6  C   UNL     1      71.840 138.077  -8.897  1.00  0.00     0.047 A 
ENDROOT
BRANCH   1   7
ATOM      7  O   UNL     1      71.533 139.631 -10.706  1.00  0.00    -0.497 OA
ATOM      8  C   UNL     1      72.863 139.921 -11.125  1.00  0.00     0.278 C 
ENDBRANCH   1   7
BRANCH   3   9
ATOM      9  O   UNL     1      68.918 140.026  -6.601  1.00  0.00    -0.507 OA
ATOM     10  H   UNL     1      68.583 140.950  -6.848  1.00  0.00     0.293 HD
ENDBRANCH   3   9
BRANCH   4  11
ATOM     11  C   UNL     1      70.229 137.742  -5.486  1.00  0.00     0.263 C 
ATOM     12  O   UNL     1      69.033 137.591  -5.120  1.00  0.00    -0.298 OA
ENDBRANCH   4  11
TORSDOF 3
ENDMDL
MODEL 7
REMARK VINA RESULT:    -4.460     19.475     21.032
REMARK INTER + INTRA:          -5.371
REMARK INTER:                  -5.103
REMARK INTRA:                  -0.268
REMARK UNBOUND:                -0.259
REMARK SMILES COc1ccc(C=O)c(O)c1
REMARK SMILES IDX 3 1 11 2 9 3 6 4 5 5 4 6 2 7 1 8 10 9 7 11 8 12
REMARK H PARENT 10 10
REMARK Flexibility Score: inf
ROOT
ATOM      1  C   UNL     1      69.979 138.739  -6.993  1.00  0.00     0.122 A 
ATOM      2  C   UNL     1      69.616 139.504  -8.117  1.00  0.00     0.093 A 
ATOM      3  C   UNL     1      70.410 139.493  -9.273  1.00  0.00     0.129 A 
ATOM      4  C   UNL     1      71.582 138.713  -9.316  1.00  0.00     0.056 A 
ATOM      5  C   UNL     1      71.939 137.952  -8.189  1.00  0.00     0.019 A 
ATOM      6  C   UNL     1      71.144 137.967  -7.042  1.00  0.00     0.047 A 
ENDROOT
BRANCH   1   7
ATOM      7  O   UNL     1      69.216 138.717  -5.817  1.00  0.00    -0.497 OA
ATOM      8  C   UNL     1      69.029 137.566  -4.999  1.00  0.00     0.278 C 
ENDBRANCH   1   7
BRANCH   3   9
ATOM      9  O   UNL     1      70.035 140.258 -10.378  1.00  0.00    -0.507 OA
ATOM     10  H   UNL     1      69.072 140.303 -10.692  1.00  0.00     0.293 HD
ENDBRANCH   3   9
BRANCH   4  11
ATOM     11  C   UNL     1      72.426 138.697 -10.529  1.00  0.00     0.263 C 
ATOM     12  O   UNL     1      72.773 139.768 -11.094  1.00  0.00    -0.298 OA
ENDBRANCH   4  11
TORSDOF 3
ENDMDL
MODEL 8
REMARK VINA RESULT:    -4.392      1.755      2.614
REMARK INTER + INTRA:          -5.293
REMARK INTER:                  -5.023
REMARK INTRA:                  -0.270
REMARK UNBOUND:                -0.259
REMARK SMILES COc1ccc(C=O)c(O)c1
REMARK SMILES IDX 3 1 11 2 9 3 6 4 5 5 4 6 2 7 1 8 10 9 7 11 8 12
REMARK H PARENT 10 10
REMARK Flexibility Score: inf
ROOT
ATOM      1  C   UNL     1      61.886 151.641   3.794  1.00  0.00     0.122 A 
ATOM      2  C   UNL     1      60.795 152.102   4.554  1.00  0.00     0.093 A 
ATOM      3  C   UNL     1      59.746 152.801   3.941  1.00  0.00     0.129 A 
ATOM      4  C   UNL     1      59.777 153.049   2.555  1.00  0.00     0.056 A 
ATOM      5  C   UNL     1      60.871 152.587   1.802  1.00  0.00     0.019 A 
ATOM      6  C   UNL     1      61.912 151.890   2.418  1.00  0.00     0.047 A 
ENDROOT
BRANCH   1   7
ATOM      7  O   UNL     1      62.958 150.937   4.362  1.00  0.00    -0.497 OA
ATOM      8  C   UNL     1      64.318 151.087   3.969  1.00  0.00     0.278 C 
ENDBRANCH   1   7
BRANCH   3   9
ATOM      9  O   UNL     1      58.671 153.251   4.710  1.00  0.00    -0.507 OA
ATOM     10  H   UNL     1      57.741 152.863   4.602  1.00  0.00     0.293 HD
ENDBRANCH   3   9
BRANCH   4  11
ATOM     11  C   UNL     1      58.676 153.787   1.901  1.00  0.00     0.263 C 
ATOM     12  O   UNL     1      58.278 154.894   2.351  1.00  0.00    -0.298 OA
ENDBRANCH   4  11
TORSDOF 3
ENDMDL
MODEL 9
REMARK VINA RESULT:    -4.312      5.869      6.912
REMARK INTER + INTRA:          -5.202
REMARK INTER:                  -4.953
REMARK INTRA:                  -0.249
REMARK UNBOUND:                -0.259
REMARK SMILES COc1ccc(C=O)c(O)c1
REMARK SMILES IDX 3 1 11 2 9 3 6 4 5 5 4 6 2 7 1 8 10 9 7 11 8 12
REMARK H PARENT 10 10
REMARK Flexibility Score: inf
ROOT
ATOM      1  C   UNL     1      61.796 148.933   6.196  1.00  0.00     0.122 A 
ATOM      2  C   UNL     1      63.034 148.476   5.706  1.00  0.00     0.093 A 
ATOM      3  C   UNL     1      64.069 149.382   5.431  1.00  0.00     0.129 A 
ATOM      4  C   UNL     1      63.876 150.760   5.644  1.00  0.00     0.056 A 
ATOM      5  C   UNL     1      62.637 151.210   6.133  1.00  0.00     0.019 A 
ATOM      6  C   UNL     1      61.610 150.304   6.405  1.00  0.00     0.047 A 
ENDROOT
BRANCH   1   7
ATOM      7  O   UNL     1      60.733 148.066   6.486  1.00  0.00    -0.497 OA
ATOM      8  C   UNL     1      59.559 148.442   7.199  1.00  0.00     0.278 C 
ENDBRANCH   1   7
BRANCH   3   9
ATOM      9  O   UNL     1      65.290 148.911   4.946  1.00  0.00    -0.507 OA
ATOM     10  H   UNL     1      65.476 147.919   4.845  1.00  0.00     0.293 HD
ENDBRANCH   3   9
BRANCH   4  11
ATOM     11  C   UNL     1      64.961 151.722   5.356  1.00  0.00     0.263 C 
ATOM     12  O   UNL     1      65.361 151.916   4.178  1.00  0.00    -0.298 OA
ENDBRANCH   4  11
TORSDOF 3
ENDMDL
