MODEL 1
REMARK VINA RESULT:     1.197      0.000      0.000
REMARK INTER + INTRA:           2.046
REMARK INTER:                   1.687
REMARK INTRA:                   0.359
REMARK UNBOUND:                 0.359
REMARK SMILES CCCCCCCCC(=O)[O-]
REMARK SMILES IDX 6 1 7 2 8 3 9 4 10 5 11 6 5 7 4 8 3 9 2 10 1 11
REMARK H PARENT
REMARK Flexibility Score: inf
ROOT
ATOM      1  C   UNL     1       0.542   0.037 -16.262  1.00  0.00     0.000 C 
ENDROOT
BRANCH   1   2
ATOM      2  C   UNL     1       0.899  -1.455 -16.378  1.00  0.00     0.006 C 
BRANCH   2   3
ATOM      3  C   UNL     1      -0.119  -2.229 -17.227  1.00  0.00     0.053 C 
BRANCH   3   4
ATOM      4  C   UNL     1      -0.037  -1.851 -18.674  1.00  0.00     0.041 C 
ATOM      5  O   UNL     1       0.079  -0.643 -19.007  1.00  0.00    -0.550 OA
ATOM      6  O   UNL     1      -0.125  -2.830 -19.656  1.00  0.00    -0.550 OA
ENDBRANCH   3   4
ENDBRANCH   2   3
ENDBRANCH   1   2
BRANCH   1   7
ATOM      7  C   UNL     1      -0.031   0.407 -14.882  1.00  0.00     0.000 C 
BRANCH   7   8
ATOM      8  C   UNL     1       1.006   0.460 -13.742  1.00  0.00    -0.000 C 
BRANCH   8   9
ATOM      9  C   UNL     1       2.476   0.540 -14.195  1.00  0.00    -0.000 C 
BRANCH   9  10
ATOM     10  C   UNL     1       3.425   1.220 -13.193  1.00  0.00    -0.003 C 
ATOM     11  C   UNL     1       4.833   1.422 -13.751  1.00  0.00     0.004 C 
ENDBRANCH   9  10
ENDBRANCH   8   9
ENDBRANCH   7   8
ENDBRANCH   1   7
TORSDOF 7
ENDMDL
MODEL 2
REMARK VINA RESULT:     1.254      1.053      1.814
REMARK INTER + INTRA:           2.127
REMARK INTER:                   2.205
REMARK INTRA:                  -0.078
REMARK UNBOUND:                 0.359
REMARK SMILES CCCCCCCCC(=O)[O-]
REMARK SMILES IDX 6 1 7 2 8 3 9 4 10 5 11 6 5 7 4 8 3 9 2 10 1 11
REMARK H PARENT
REMARK Flexibility Score: inf
ROOT
ATOM      1  C   UNL     1       0.903  -0.739 -16.844  1.00  0.00     0.000 C 
ENDROOT
BRANCH   1   2
ATOM      2  C   UNL     1       0.155  -1.011 -18.160  1.00  0.00     0.006 C 
BRANCH   2   3
ATOM      3  C   UNL     1      -0.050  -2.512 -18.409  1.00  0.00     0.053 C 
BRANCH   3   4
ATOM      4  C   UNL     1      -0.078  -2.832 -19.873  1.00  0.00     0.041 C 
ATOM      5  O   UNL     1      -0.125  -4.030 -20.257  1.00  0.00    -0.550 OA
ATOM      6  O   UNL     1      -0.015  -1.810 -20.811  1.00  0.00    -0.550 OA
ENDBRANCH   3   4
ENDBRANCH   2   3
ENDBRANCH   1   2
BRANCH   1   7
ATOM      7  C   UNL     1       0.426   0.545 -16.142  1.00  0.00     0.000 C 
BRANCH   7   8
ATOM      8  C   UNL     1      -0.105   0.343 -14.708  1.00  0.00    -0.000 C 
BRANCH   8   9
ATOM      9  C   UNL     1       0.950   0.472 -13.593  1.00  0.00    -0.000 C 
BRANCH   9  10
ATOM     10  C   UNL     1       2.409   0.338 -14.064  1.00  0.00    -0.003 C 
ATOM     11  C   UNL     1       3.401   1.032 -13.132  1.00  0.00     0.004 C 
ENDBRANCH   9  10
ENDBRANCH   8   9
ENDBRANCH   7   8
ENDBRANCH   1   7
TORSDOF 7
ENDMDL
MODEL 3
REMARK VINA RESULT:     2.024     11.393     12.557
REMARK INTER + INTRA:           3.211
REMARK INTER:                   3.381
REMARK INTRA:                  -0.170
REMARK UNBOUND:                 0.359
REMARK SMILES CCCCCCCCC(=O)[O-]
REMARK SMILES IDX 6 1 7 2 8 3 9 4 10 5 11 6 5 7 4 8 3 9 2 10 1 11
REMARK H PARENT
REMARK Flexibility Score: inf
ROOT
ATOM      1  C   UNL     1      11.189  -4.430 -17.675  1.00  0.00     0.000 C 
ENDROOT
BRANCH   1   2
ATOM      2  C   UNL     1      12.158  -5.611 -17.494  1.00  0.00     0.006 C 
BRANCH   2   3
ATOM      3  C   UNL     1      12.792  -6.047 -18.822  1.00  0.00     0.053 C 
BRANCH   3   4
ATOM      4  C   UNL     1      14.197  -6.532 -18.633  1.00  0.00     0.041 C 
ATOM      5  O   UNL     1      14.455  -7.401 -17.760  1.00  0.00    -0.550 OA
ATOM      6  O   UNL     1      15.228  -5.995 -19.395  1.00  0.00    -0.550 OA
ENDBRANCH   3   4
ENDBRANCH   2   3
ENDBRANCH   1   2
BRANCH   1   7
ATOM      7  C   UNL     1      11.133  -3.509 -16.443  1.00  0.00     0.000 C 
BRANCH   7   8
ATOM      8  C   UNL     1      11.001  -2.006 -16.760  1.00  0.00    -0.000 C 
BRANCH   8   9
ATOM      9  C   UNL     1      12.311  -1.199 -16.678  1.00  0.00    -0.000 C 
BRANCH   9  10
ATOM     10  C   UNL     1      12.180   0.287 -17.053  1.00  0.00    -0.003 C 
ATOM     11  C   UNL     1      13.429   0.838 -17.740  1.00  0.00     0.004 C 
ENDBRANCH   9  10
ENDBRANCH   8   9
ENDBRANCH   7   8
ENDBRANCH   1   7
TORSDOF 7
ENDMDL
MODEL 4
REMARK VINA RESULT:     2.240     11.134     12.742
REMARK INTER + INTRA:           3.516
REMARK INTER:                   3.698
REMARK INTRA:                  -0.182
REMARK UNBOUND:                 0.359
REMARK SMILES CCCCCCCCC(=O)[O-]
REMARK SMILES IDX 6 1 7 2 8 3 9 4 10 5 11 6 5 7 4 8 3 9 2 10 1 11
REMARK H PARENT
REMARK Flexibility Score: inf
ROOT
ATOM      1  C   UNL     1      11.034  -1.809 -16.799  1.00  0.00     0.000 C 
ENDROOT
BRANCH   1   2
ATOM      2  C   UNL     1      12.399  -1.102 -16.849  1.00  0.00     0.006 C 
BRANCH   2   3
ATOM      3  C   UNL     1      12.269   0.382 -17.216  1.00  0.00     0.053 C 
BRANCH   3   4
ATOM      4  C   UNL     1      13.591   0.978 -17.593  1.00  0.00     0.041 C 
ATOM      5  O   UNL     1      13.873   2.158 -17.256  1.00  0.00    -0.550 OA
ATOM      6  O   UNL     1      14.497   0.243 -18.347  1.00  0.00    -0.550 OA
ENDBRANCH   3   4
ENDBRANCH   2   3
ENDBRANCH   1   2
BRANCH   1   7
ATOM      7  C   UNL     1      11.143  -3.291 -16.398  1.00  0.00     0.000 C 
BRANCH   7   8
ATOM      8  C   UNL     1      11.093  -4.288 -17.573  1.00  0.00    -0.000 C 
BRANCH   8   9
ATOM      9  C   UNL     1      12.015  -5.515 -17.433  1.00  0.00    -0.000 C 
BRANCH   9  10
ATOM     10  C   UNL     1      12.657  -5.994 -18.746  1.00  0.00    -0.003 C 
ATOM     11  C   UNL     1      14.053  -6.582 -18.546  1.00  0.00     0.004 C 
ENDBRANCH   9  10
ENDBRANCH   8   9
ENDBRANCH   7   8
ENDBRANCH   1   7
TORSDOF 7
ENDMDL
MODEL 5
REMARK VINA RESULT:     2.475     11.158     12.682
REMARK INTER + INTRA:           3.847
REMARK INTER:                   4.054
REMARK INTRA:                  -0.208
REMARK UNBOUND:                 0.359
REMARK SMILES CCCCCCCCC(=O)[O-]
REMARK SMILES IDX 6 1 7 2 8 3 9 4 10 5 11 6 5 7 4 8 3 9 2 10 1 11
REMARK H PARENT
REMARK Flexibility Score: inf
ROOT
ATOM      1  C   UNL     1      11.880  -1.147 -17.111  1.00  0.00     0.000 C 
ENDROOT
BRANCH   1   2
ATOM      2  C   UNL     1      12.600  -0.115 -16.226  1.00  0.00     0.006 C 
BRANCH   2   3
ATOM      3  C   UNL     1      12.855   1.205 -16.967  1.00  0.00     0.053 C 
BRANCH   3   4
ATOM      4  C   UNL     1      13.910   1.055 -18.019  1.00  0.00     0.041 C 
ATOM      5  O   UNL     1      14.940   0.369 -17.789  1.00  0.00    -0.550 OA
ATOM      6  O   UNL     1      13.773   1.703 -19.241  1.00  0.00    -0.550 OA
ENDBRANCH   3   4
ENDBRANCH   2   3
ENDBRANCH   1   2
BRANCH   1   7
ATOM      7  C   UNL     1      11.309  -2.328 -16.306  1.00  0.00     0.000 C 
BRANCH   7   8
ATOM      8  C   UNL     1      10.817  -3.517 -17.157  1.00  0.00    -0.000 C 
BRANCH   8   9
ATOM      9  C   UNL     1      11.661  -4.801 -17.041  1.00  0.00    -0.000 C 
BRANCH   9  10
ATOM     10  C   UNL     1      11.926  -5.522 -18.373  1.00  0.00    -0.003 C 
ATOM     11  C   UNL     1      13.278  -6.234 -18.406  1.00  0.00     0.004 C 
ENDBRANCH   9  10
ENDBRANCH   8   9
ENDBRANCH   7   8
ENDBRANCH   1   7
TORSDOF 7
ENDMDL
MODEL 6
REMARK VINA RESULT:     2.643     10.247     12.391
REMARK INTER + INTRA:           4.084
REMARK INTER:                   4.057
REMARK INTRA:                   0.028
REMARK UNBOUND:                 0.359
REMARK SMILES CCCCCCCCC(=O)[O-]
REMARK SMILES IDX 6 1 7 2 8 3 9 4 10 5 11 6 5 7 4 8 3 9 2 10 1 11
REMARK H PARENT
REMARK Flexibility Score: inf
ROOT
ATOM      1  C   UNL     1      12.540   0.489 -17.284  1.00  0.00     0.000 C 
ENDROOT
BRANCH   1   2
ATOM      2  C   UNL     1      13.237   1.752 -17.817  1.00  0.00     0.006 C 
BRANCH   2   3
ATOM      3  C   UNL     1      14.083   1.463 -19.064  1.00  0.00     0.053 C 
BRANCH   3   4
ATOM      4  C   UNL     1      15.302   0.656 -18.733  1.00  0.00     0.041 C 
ATOM      5  O   UNL     1      15.494   0.256 -17.556  1.00  0.00    -0.550 OA
ATOM      6  O   UNL     1      16.242   0.379 -19.717  1.00  0.00    -0.550 OA
ENDBRANCH   3   4
ENDBRANCH   2   3
ENDBRANCH   1   2
BRANCH   1   7
ATOM      7  C   UNL     1      11.913   0.696 -15.893  1.00  0.00     0.000 C 
BRANCH   7   8
ATOM      8  C   UNL     1      11.466   2.141 -15.590  1.00  0.00    -0.000 C 
BRANCH   8   9
ATOM      9  C   UNL     1      10.624   2.312 -14.311  1.00  0.00    -0.000 C 
BRANCH   9  10
ATOM     10  C   UNL     1      10.579   1.076 -13.396  1.00  0.00    -0.003 C 
ATOM     11  C   UNL     1       9.155   0.650 -13.042  1.00  0.00     0.004 C 
ENDBRANCH   9  10
ENDBRANCH   8   9
ENDBRANCH   7   8
ENDBRANCH   1   7
TORSDOF 7
ENDMDL
MODEL 7
REMARK VINA RESULT:     3.119     10.055     12.515
REMARK INTER + INTRA:           4.755
REMARK INTER:                   5.049
REMARK INTRA:                  -0.294
REMARK UNBOUND:                 0.359
REMARK SMILES CCCCCCCCC(=O)[O-]
REMARK SMILES IDX 6 1 7 2 8 3 9 4 10 5 11 6 5 7 4 8 3 9 2 10 1 11
REMARK H PARENT
REMARK Flexibility Score: inf
ROOT
ATOM      1  C   UNL     1      12.164   0.389 -17.030  1.00  0.00     0.000 C 
ENDROOT
BRANCH   1   2
ATOM      2  C   UNL     1      11.874   0.582 -15.532  1.00  0.00     0.006 C 
BRANCH   2   3
ATOM      3  C   UNL     1      11.057   1.852 -15.259  1.00  0.00     0.053 C 
BRANCH   3   4
ATOM      4  C   UNL     1      10.377   1.799 -13.926  1.00  0.00     0.041 C 
ATOM      5  O   UNL     1      10.378   2.808 -13.174  1.00  0.00    -0.550 OA
ATOM      6  O   UNL     1       9.773   0.623 -13.498  1.00  0.00    -0.550 OA
ENDBRANCH   3   4
ENDBRANCH   2   3
ENDBRANCH   1   2
BRANCH   1   7
ATOM      7  C   UNL     1      12.742   1.653 -17.692  1.00  0.00     0.000 C 
BRANCH   7   8
ATOM      8  C   UNL     1      14.143   2.064 -17.195  1.00  0.00    -0.000 C 
BRANCH   8   9
ATOM      9  C   UNL     1      15.241   0.997 -17.370  1.00  0.00    -0.000 C 
BRANCH   9  10
ATOM     10  C   UNL     1      15.222   0.266 -18.723  1.00  0.00    -0.003 C 
ATOM     11  C   UNL     1      16.389   0.659 -19.628  1.00  0.00     0.004 C 
ENDBRANCH   9  10
ENDBRANCH   8   9
ENDBRANCH   7   8
ENDBRANCH   1   7
TORSDOF 7
ENDMDL
MODEL 8
REMARK VINA RESULT:     4.064     11.487     12.796
REMARK INTER + INTRA:           6.087
REMARK INTER:                   6.378
REMARK INTRA:                  -0.291
REMARK UNBOUND:                 0.359
REMARK SMILES CCCCCCCCC(=O)[O-]
REMARK SMILES IDX 6 1 7 2 8 3 9 4 10 5 11 6 5 7 4 8 3 9 2 10 1 11
REMARK H PARENT
REMARK Flexibility Score: inf
ROOT
ATOM      1  C   UNL     1      11.997   0.750 -17.267  1.00  0.00     0.000 C 
ENDROOT
BRANCH   1   2
ATOM      2  C   UNL     1      13.135   1.781 -17.353  1.00  0.00     0.006 C 
BRANCH   2   3
ATOM      3  C   UNL     1      13.975   1.609 -18.626  1.00  0.00     0.053 C 
BRANCH   3   4
ATOM      4  C   UNL     1      15.109   0.652 -18.417  1.00  0.00     0.041 C 
ATOM      5  O   UNL     1      15.814   0.283 -19.393  1.00  0.00    -0.550 OA
ATOM      6  O   UNL     1      15.364   0.140 -17.151  1.00  0.00    -0.550 OA
ENDBRANCH   3   4
ENDBRANCH   2   3
ENDBRANCH   1   2
BRANCH   1   7
ATOM      7  C   UNL     1      11.923   0.056 -15.894  1.00  0.00     0.000 C 
BRANCH   7   8
ATOM      8  C   UNL     1      12.151  -1.469 -15.925  1.00  0.00    -0.000 C 
BRANCH   8   9
ATOM      9  C   UNL     1      11.128  -2.270 -16.754  1.00  0.00    -0.000 C 
BRANCH   9  10
ATOM     10  C   UNL     1      10.981  -3.746 -16.348  1.00  0.00    -0.003 C 
ATOM     11  C   UNL     1      11.440  -4.711 -17.442  1.00  0.00     0.004 C 
ENDBRANCH   9  10
ENDBRANCH   8   9
ENDBRANCH   7   8
ENDBRANCH   1   7
TORSDOF 7
ENDMDL
MODEL 9
REMARK VINA RESULT:     4.160      2.139      2.487
REMARK INTER + INTRA:           6.222
REMARK INTER:                   6.561
REMARK INTRA:                  -0.338
REMARK UNBOUND:                 0.359
REMARK SMILES CCCCCCCCC(=O)[O-]
REMARK SMILES IDX 6 1 7 2 8 3 9 4 10 5 11 6 5 7 4 8 3 9 2 10 1 11
REMARK H PARENT
REMARK Flexibility Score: inf
ROOT
ATOM      1  C   UNL     1       1.572  -0.835 -16.945  1.00  0.00     0.000 C 
ENDROOT
BRANCH   1   2
ATOM      2  C   UNL     1       0.512  -0.836 -18.059  1.00  0.00     0.006 C 
BRANCH   2   3
ATOM      3  C   UNL     1      -0.112  -2.224 -18.262  1.00  0.00     0.053 C 
BRANCH   3   4
ATOM      4  C   UNL     1      -0.095  -2.634 -19.703  1.00  0.00     0.041 C 
ATOM      5  O   UNL     1      -0.088  -1.761 -20.609  1.00  0.00    -0.550 OA
ATOM      6  O   UNL     1      -0.124  -3.981 -20.044  1.00  0.00    -0.550 OA
ENDBRANCH   3   4
ENDBRANCH   2   3
ENDBRANCH   1   2
BRANCH   1   7
ATOM      7  C   UNL     1       0.957  -0.902 -15.536  1.00  0.00     0.000 C 
BRANCH   7   8
ATOM      8  C   UNL     1      -0.090   0.189 -15.232  1.00  0.00    -0.000 C 
BRANCH   8   9
ATOM      9  C   UNL     1       0.077   0.899 -13.874  1.00  0.00    -0.000 C 
BRANCH   9  10
ATOM     10  C   UNL     1       0.243   2.426 -13.960  1.00  0.00    -0.003 C 
ATOM     11  C   UNL     1      -0.125   2.988 -15.332  1.00  0.00     0.004 C 
ENDBRANCH   9  10
ENDBRANCH   8   9
ENDBRANCH   7   8
ENDBRANCH   1   7
TORSDOF 7
ENDMDL
