MODEL 1
REMARK VINA RESULT:    -4.266      0.000      0.000
REMARK INTER + INTRA:          -9.032
REMARK INTER:                  -7.508
REMARK INTRA:                  -1.524
REMARK UNBOUND:                -1.524
REMARK SMILES CCCCCCCCCCCCCCC(=O)[O-]
REMARK SMILES IDX 9 1 10 2 11 3 12 4 13 5 14 6 15 7 16 8 17 9 8 10 7 11 6 12
REMARK SMILES IDX 5 13 4 14 3 15 2 16 1 17
REMARK H PARENT
REMARK Flexibility Score: inf
ROOT
ATOM      1  C   UNL     1      48.588  -8.826 -58.912  1.00  0.00     0.000 C 
ENDROOT
BRANCH   1   2
ATOM      2  C   UNL     1      47.421  -9.824 -58.998  1.00  0.00     0.000 C 
BRANCH   2   3
ATOM      3  C   UNL     1      47.879 -11.282 -58.826  1.00  0.00     0.000 C 
BRANCH   3   4
ATOM      4  C   UNL     1      47.224 -11.972 -57.617  1.00  0.00     0.000 C 
BRANCH   4   5
ATOM      5  C   UNL     1      48.147 -12.034 -56.386  1.00  0.00     0.006 C 
BRANCH   5   6
ATOM      6  C   UNL     1      48.963 -13.334 -56.282  1.00  0.00     0.053 C 
BRANCH   6   7
ATOM      7  C   UNL     1      48.153 -14.486 -55.770  1.00  0.00     0.041 C 
ATOM      8  O   UNL     1      47.258 -14.299 -54.904  1.00  0.00    -0.550 OA
ATOM      9  O   UNL     1      48.367 -15.764 -56.272  1.00  0.00    -0.550 OA
ENDBRANCH   6   7
ENDBRANCH   5   6
ENDBRANCH   4   5
ENDBRANCH   3   4
ENDBRANCH   2   3
ENDBRANCH   1   2
BRANCH   1  10
ATOM     10  C   UNL     1      48.387  -7.777 -57.806  1.00  0.00     0.000 C 
BRANCH  10  11
ATOM     11  C   UNL     1      46.973  -7.812 -57.205  1.00  0.00    -0.000 C 
BRANCH  11  12
ATOM     12  C   UNL     1      47.019  -8.181 -55.717  1.00  0.00    -0.000 C 
BRANCH  12  13
ATOM     13  C   UNL     1      48.454  -8.503 -55.274  1.00  0.00    -0.000 C 
BRANCH  13  14
ATOM     14  C   UNL     1      48.998  -7.491 -54.252  1.00  0.00    -0.000 C 
BRANCH  14  15
ATOM     15  C   UNL     1      50.486  -7.170 -54.473  1.00  0.00    -0.000 C 
BRANCH  15  16
ATOM     16  C   UNL     1      50.695  -5.907 -55.322  1.00  0.00    -0.003 C 
ATOM     17  C   UNL     1      51.822  -6.061 -56.343  1.00  0.00     0.004 C 
ENDBRANCH  15  16
ENDBRANCH  14  15
ENDBRANCH  13  14
ENDBRANCH  12  13
ENDBRANCH  11  12
ENDBRANCH  10  11
ENDBRANCH   1  10
TORSDOF 13
ENDMDL
MODEL 2
REMARK VINA RESULT:    -4.241      3.903      7.081
REMARK INTER + INTRA:          -8.989
REMARK INTER:                  -7.489
REMARK INTRA:                  -1.500
REMARK UNBOUND:                -1.524
REMARK SMILES CCCCCCCCCCCCCCC(=O)[O-]
REMARK SMILES IDX 9 1 10 2 11 3 12 4 13 5 14 6 15 7 16 8 17 9 8 10 7 11 6 12
REMARK SMILES IDX 5 13 4 14 3 15 2 16 1 17
REMARK H PARENT
REMARK Flexibility Score: inf
ROOT
ATOM      1  C   UNL     1      48.564  -7.022 -53.906  1.00  0.00     0.000 C 
ENDROOT
BRANCH   1   2
ATOM      2  C   UNL     1      49.927  -7.716 -54.071  1.00  0.00     0.000 C 
BRANCH   2   3
ATOM      3  C   UNL     1      50.986  -6.791 -54.694  1.00  0.00     0.000 C 
BRANCH   3   4
ATOM      4  C   UNL     1      50.491  -5.342 -54.851  1.00  0.00     0.000 C 
BRANCH   4   5
ATOM      5  C   UNL     1      50.677  -4.794 -56.278  1.00  0.00     0.006 C 
BRANCH   5   6
ATOM      6  C   UNL     1      50.901  -5.884 -57.340  1.00  0.00     0.053 C 
BRANCH   6   7
ATOM      7  C   UNL     1      52.204  -5.729 -58.063  1.00  0.00     0.041 C 
ATOM      8  O   UNL     1      52.678  -6.686 -58.731  1.00  0.00    -0.550 OA
ATOM      9  O   UNL     1      52.881  -4.516 -58.026  1.00  0.00    -0.550 OA
ENDBRANCH   6   7
ENDBRANCH   5   6
ENDBRANCH   4   5
ENDBRANCH   3   4
ENDBRANCH   2   3
ENDBRANCH   1   2
BRANCH   1  10
ATOM     10  C   UNL     1      47.457  -7.692 -54.737  1.00  0.00     0.000 C 
BRANCH  10  11
ATOM     11  C   UNL     1      47.460  -7.237 -56.205  1.00  0.00    -0.000 C 
BRANCH  11  12
ATOM     12  C   UNL     1      48.020  -8.336 -57.118  1.00  0.00    -0.000 C 
BRANCH  12  13
ATOM     13  C   UNL     1      47.710  -9.731 -56.554  1.00  0.00    -0.000 C 
BRANCH  13  14
ATOM     14  C   UNL     1      46.746 -10.528 -57.448  1.00  0.00    -0.000 C 
BRANCH  14  15
ATOM     15  C   UNL     1      46.980 -12.046 -57.363  1.00  0.00    -0.000 C 
BRANCH  15  16
ATOM     16  C   UNL     1      48.249 -12.402 -56.573  1.00  0.00    -0.003 C 
ATOM     17  C   UNL     1      48.165 -13.776 -55.908  1.00  0.00     0.004 C 
ENDBRANCH  15  16
ENDBRANCH  14  15
ENDBRANCH  13  14
ENDBRANCH  12  13
ENDBRANCH  11  12
ENDBRANCH  10  11
ENDBRANCH   1  10
TORSDOF 13
ENDMDL
MODEL 3
REMARK VINA RESULT:    -4.186      1.327      2.696
REMARK INTER + INTRA:          -8.892
REMARK INTER:                  -7.277
REMARK INTRA:                  -1.615
REMARK UNBOUND:                -1.524
REMARK SMILES CCCCCCCCCCCCCCC(=O)[O-]
REMARK SMILES IDX 9 1 10 2 11 3 12 4 13 5 14 6 15 7 16 8 17 9 8 10 7 11 6 12
REMARK SMILES IDX 5 13 4 14 3 15 2 16 1 17
REMARK H PARENT
REMARK Flexibility Score: inf
ROOT
ATOM      1  C   UNL     1      48.536  -8.087 -58.180  1.00  0.00     0.000 C 
ENDROOT
BRANCH   1   2
ATOM      2  C   UNL     1      47.214  -7.953 -57.404  1.00  0.00     0.000 C 
BRANCH   2   3
ATOM      3  C   UNL     1      46.763  -9.283 -56.777  1.00  0.00     0.000 C 
BRANCH   3   4
ATOM      4  C   UNL     1      47.944 -10.208 -56.432  1.00  0.00     0.000 C 
BRANCH   4   5
ATOM      5  C   UNL     1      47.750 -11.647 -56.944  1.00  0.00     0.006 C 
BRANCH   5   6
ATOM      6  C   UNL     1      48.415 -12.717 -56.062  1.00  0.00     0.053 C 
BRANCH   6   7
ATOM      7  C   UNL     1      47.697 -14.031 -56.105  1.00  0.00     0.041 C 
ATOM      8  O   UNL     1      48.072 -14.985 -55.373  1.00  0.00    -0.550 OA
ATOM      9  O   UNL     1      46.591 -14.193 -56.931  1.00  0.00    -0.550 OA
ENDBRANCH   6   7
ENDBRANCH   5   6
ENDBRANCH   4   5
ENDBRANCH   3   4
ENDBRANCH   2   3
ENDBRANCH   1   2
BRANCH   1  10
ATOM     10  C   UNL     1      49.120  -6.725 -58.589  1.00  0.00     0.000 C 
BRANCH  10  11
ATOM     11  C   UNL     1      50.653  -6.744 -58.693  1.00  0.00    -0.000 C 
BRANCH  11  12
ATOM     12  C   UNL     1      51.294  -6.067 -57.474  1.00  0.00    -0.000 C 
BRANCH  12  13
ATOM     13  C   UNL     1      50.298  -5.123 -56.784  1.00  0.00    -0.000 C 
BRANCH  13  14
ATOM     14  C   UNL     1      50.331  -5.248 -55.252  1.00  0.00    -0.000 C 
BRANCH  14  15
ATOM     15  C   UNL     1      50.882  -6.605 -54.781  1.00  0.00    -0.000 C 
BRANCH  15  16
ATOM     16  C   UNL     1      49.776  -7.651 -54.580  1.00  0.00    -0.003 C 
ATOM     17  C   UNL     1      48.514  -7.063 -53.947  1.00  0.00     0.004 C 
ENDBRANCH  15  16
ENDBRANCH  14  15
ENDBRANCH  13  14
ENDBRANCH  12  13
ENDBRANCH  11  12
ENDBRANCH  10  11
ENDBRANCH   1  10
TORSDOF 13
ENDMDL
MODEL 4
REMARK VINA RESULT:    -4.140      1.607      2.662
REMARK INTER + INTRA:          -8.811
REMARK INTER:                  -8.029
REMARK INTRA:                  -0.782
REMARK UNBOUND:                -1.524
REMARK SMILES CCCCCCCCCCCCCCC(=O)[O-]
REMARK SMILES IDX 9 1 10 2 11 3 12 4 13 5 14 6 15 7 16 8 17 9 8 10 7 11 6 12
REMARK SMILES IDX 5 13 4 14 3 15 2 16 1 17
REMARK H PARENT
REMARK Flexibility Score: inf
ROOT
ATOM      1  C   UNL     1      47.213 -10.271 -57.164  1.00  0.00     0.000 C 
ENDROOT
BRANCH   1   2
ATOM      2  C   UNL     1      47.766 -11.694 -57.354  1.00  0.00     0.000 C 
BRANCH   2   3
ATOM      3  C   UNL     1      48.439 -12.238 -56.083  1.00  0.00     0.000 C 
BRANCH   3   4
ATOM      4  C   UNL     1      48.588 -13.770 -56.099  1.00  0.00     0.000 C 
BRANCH   4   5
ATOM      5  C   UNL     1      47.478 -14.491 -55.313  1.00  0.00     0.006 C 
BRANCH   5   6
ATOM      6  C   UNL     1      46.753 -15.583 -56.118  1.00  0.00     0.053 C 
BRANCH   6   7
ATOM      7  C   UNL     1      47.663 -16.701 -56.527  1.00  0.00     0.041 C 
ATOM      8  O   UNL     1      48.475 -17.196 -55.701  1.00  0.00    -0.550 OA
ATOM      9  O   UNL     1      47.592 -17.220 -57.814  1.00  0.00    -0.550 OA
ENDBRANCH   6   7
ENDBRANCH   5   6
ENDBRANCH   4   5
ENDBRANCH   3   4
ENDBRANCH   2   3
ENDBRANCH   1   2
BRANCH   1  10
ATOM     10  C   UNL     1      47.948  -9.495 -56.059  1.00  0.00     0.000 C 
BRANCH  10  11
ATOM     11  C   UNL     1      47.698  -7.980 -56.131  1.00  0.00    -0.000 C 
BRANCH  11  12
ATOM     12  C   UNL     1      49.023  -7.208 -56.197  1.00  0.00    -0.000 C 
BRANCH  12  13
ATOM     13  C   UNL     1      49.847  -7.421 -54.919  1.00  0.00    -0.000 C 
BRANCH  13  14
ATOM     14  C   UNL     1      50.981  -6.394 -54.769  1.00  0.00    -0.000 C 
BRANCH  14  15
ATOM     15  C   UNL     1      50.588  -5.000 -55.287  1.00  0.00    -0.000 C 
BRANCH  15  16
ATOM     16  C   UNL     1      50.033  -4.095 -54.178  1.00  0.00    -0.003 C 
ATOM     17  C   UNL     1      48.548  -3.783 -54.357  1.00  0.00     0.004 C 
ENDBRANCH  15  16
ENDBRANCH  14  15
ENDBRANCH  13  14
ENDBRANCH  12  13
ENDBRANCH  11  12
ENDBRANCH  10  11
ENDBRANCH   1  10
TORSDOF 13
ENDMDL
MODEL 5
REMARK VINA RESULT:    -4.133      4.109      7.347
REMARK INTER + INTRA:          -8.798
REMARK INTER:                  -7.552
REMARK INTRA:                  -1.246
REMARK UNBOUND:                -1.524
REMARK SMILES CCCCCCCCCCCCCCC(=O)[O-]
REMARK SMILES IDX 9 1 10 2 11 3 12 4 13 5 14 6 15 7 16 8 17 9 8 10 7 11 6 12
REMARK SMILES IDX 5 13 4 14 3 15 2 16 1 17
REMARK H PARENT
REMARK Flexibility Score: inf
ROOT
ATOM      1  C   UNL     1      47.982  -7.711 -54.513  1.00  0.00     0.000 C 
ENDROOT
BRANCH   1   2
ATOM      2  C   UNL     1      49.451  -8.125 -54.707  1.00  0.00     0.000 C 
BRANCH   2   3
ATOM      3  C   UNL     1      50.434  -7.027 -54.268  1.00  0.00     0.000 C 
BRANCH   3   4
ATOM      4  C   UNL     1      51.039  -6.261 -55.458  1.00  0.00     0.000 C 
BRANCH   4   5
ATOM      5  C   UNL     1      50.533  -4.810 -55.560  1.00  0.00     0.006 C 
BRANCH   5   6
ATOM      6  C   UNL     1      49.751  -4.334 -54.324  1.00  0.00     0.053 C 
BRANCH   6   7
ATOM      7  C   UNL     1      48.434  -3.714 -54.675  1.00  0.00     0.041 C 
ATOM      8  O   UNL     1      47.566  -3.514 -53.784  1.00  0.00    -0.550 OA
ATOM      9  O   UNL     1      48.175  -3.325 -55.984  1.00  0.00    -0.550 OA
ENDBRANCH   6   7
ENDBRANCH   5   6
ENDBRANCH   4   5
ENDBRANCH   3   4
ENDBRANCH   2   3
ENDBRANCH   1   2
BRANCH   1  10
ATOM     10  C   UNL     1      47.120  -7.994 -55.755  1.00  0.00     0.000 C 
BRANCH  10  11
ATOM     11  C   UNL     1      47.924  -7.923 -57.063  1.00  0.00    -0.000 C 
BRANCH  11  12
ATOM     12  C   UNL     1      47.967  -9.292 -57.754  1.00  0.00    -0.000 C 
BRANCH  12  13
ATOM     13  C   UNL     1      47.127 -10.323 -56.986  1.00  0.00    -0.000 C 
BRANCH  13  14
ATOM     14  C   UNL     1      47.624 -11.763 -57.192  1.00  0.00    -0.000 C 
BRANCH  14  15
ATOM     15  C   UNL     1      48.506 -12.255 -56.031  1.00  0.00    -0.000 C 
BRANCH  15  16
ATOM     16  C   UNL     1      48.645 -13.784 -56.006  1.00  0.00    -0.003 C 
ATOM     17  C   UNL     1      47.376 -14.486 -55.525  1.00  0.00     0.004 C 
ENDBRANCH  15  16
ENDBRANCH  14  15
ENDBRANCH  13  14
ENDBRANCH  12  13
ENDBRANCH  11  12
ENDBRANCH  10  11
ENDBRANCH   1  10
TORSDOF 13
ENDMDL
MODEL 6
REMARK VINA RESULT:    -4.085      1.413      3.124
REMARK INTER + INTRA:          -8.713
REMARK INTER:                  -7.473
REMARK INTRA:                  -1.240
REMARK UNBOUND:                -1.524
REMARK SMILES CCCCCCCCCCCCCCC(=O)[O-]
REMARK SMILES IDX 9 1 10 2 11 3 12 4 13 5 14 6 15 7 16 8 17 9 8 10 7 11 6 12
REMARK SMILES IDX 5 13 4 14 3 15 2 16 1 17
REMARK H PARENT
REMARK Flexibility Score: inf
ROOT
ATOM      1  C   UNL     1      47.453  -7.747 -54.779  1.00  0.00     0.000 C 
ENDROOT
BRANCH   1   2
ATOM      2  C   UNL     1      48.075  -8.778 -55.737  1.00  0.00     0.000 C 
BRANCH   2   3
ATOM      3  C   UNL     1      47.496  -8.683 -57.159  1.00  0.00     0.000 C 
BRANCH   3   4
ATOM      4  C   UNL     1      46.810  -9.985 -57.609  1.00  0.00     0.000 C 
BRANCH   4   5
ATOM      5  C   UNL     1      47.788 -11.168 -57.737  1.00  0.00     0.006 C 
BRANCH   5   6
ATOM      6  C   UNL     1      47.327 -12.440 -57.005  1.00  0.00     0.053 C 
BRANCH   6   7
ATOM      7  C   UNL     1      48.383 -13.006 -56.106  1.00  0.00     0.041 C 
ATOM      8  O   UNL     1      49.236 -12.249 -55.572  1.00  0.00    -0.550 OA
ATOM      9  O   UNL     1      48.406 -14.368 -55.830  1.00  0.00    -0.550 OA
ENDBRANCH   6   7
ENDBRANCH   5   6
ENDBRANCH   4   5
ENDBRANCH   3   4
ENDBRANCH   2   3
ENDBRANCH   1   2
BRANCH   1  10
ATOM     10  C   UNL     1      48.497  -7.088 -53.863  1.00  0.00     0.000 C 
BRANCH  10  11
ATOM     11  C   UNL     1      49.910  -7.657 -54.069  1.00  0.00    -0.000 C 
BRANCH  11  12
ATOM     12  C   UNL     1      50.826  -6.621 -54.734  1.00  0.00    -0.000 C 
BRANCH  12  13
ATOM     13  C   UNL     1      50.263  -5.202 -54.569  1.00  0.00    -0.000 C 
BRANCH  13  14
ATOM     14  C   UNL     1      49.879  -4.558 -55.911  1.00  0.00    -0.000 C 
BRANCH  14  15
ATOM     15  C   UNL     1      50.301  -5.412 -57.119  1.00  0.00    -0.000 C 
BRANCH  15  16
ATOM     16  C   UNL     1      51.558  -4.867 -57.813  1.00  0.00    -0.003 C 
ATOM     17  C   UNL     1      52.668  -5.910 -57.931  1.00  0.00     0.004 C 
ENDBRANCH  15  16
ENDBRANCH  14  15
ENDBRANCH  13  14
ENDBRANCH  12  13
ENDBRANCH  11  12
ENDBRANCH  10  11
ENDBRANCH   1  10
TORSDOF 13
ENDMDL
MODEL 7
REMARK VINA RESULT:    -4.029      2.044      4.720
REMARK INTER + INTRA:          -8.615
REMARK INTER:                  -6.492
REMARK INTRA:                  -2.123
REMARK UNBOUND:                -1.524
REMARK SMILES CCCCCCCCCCCCCCC(=O)[O-]
REMARK SMILES IDX 9 1 10 2 11 3 12 4 13 5 14 6 15 7 16 8 17 9 8 10 7 11 6 12
REMARK SMILES IDX 5 13 4 14 3 15 2 16 1 17
REMARK H PARENT
REMARK Flexibility Score: inf
ROOT
ATOM      1  C   UNL     1      50.805  -5.963 -54.695  1.00  0.00     0.000 C 
ENDROOT
BRANCH   1   2
ATOM      2  C   UNL     1      50.020  -7.268 -54.474  1.00  0.00     0.000 C 
BRANCH   2   3
ATOM      3  C   UNL     1      48.547  -7.014 -54.112  1.00  0.00     0.000 C 
BRANCH   3   4
ATOM      4  C   UNL     1      47.582  -7.957 -54.851  1.00  0.00     0.000 C 
BRANCH   4   5
ATOM      5  C   UNL     1      48.306  -9.061 -55.642  1.00  0.00     0.006 C 
BRANCH   5   6
ATOM      6  C   UNL     1      47.481  -9.637 -56.806  1.00  0.00     0.053 C 
BRANCH   6   7
ATOM      7  C   UNL     1      47.480 -11.135 -56.829  1.00  0.00     0.041 C 
ATOM      8  O   UNL     1      46.618 -11.761 -57.501  1.00  0.00    -0.550 OA
ATOM      9  O   UNL     1      48.454 -11.843 -56.134  1.00  0.00    -0.550 OA
ENDBRANCH   6   7
ENDBRANCH   5   6
ENDBRANCH   4   5
ENDBRANCH   3   4
ENDBRANCH   2   3
ENDBRANCH   1   2
BRANCH   1  10
ATOM     10  C   UNL     1      52.015  -6.152 -55.625  1.00  0.00     0.000 C 
BRANCH  10  11
ATOM     11  C   UNL     1      51.872  -5.382 -56.948  1.00  0.00    -0.000 C 
BRANCH  11  12
ATOM     12  C   UNL     1      52.160  -6.294 -58.147  1.00  0.00    -0.000 C 
BRANCH  12  13
ATOM     13  C   UNL     1      50.911  -6.457 -59.026  1.00  0.00    -0.000 C 
BRANCH  13  14
ATOM     14  C   UNL     1      49.695  -6.969 -58.237  1.00  0.00    -0.000 C 
BRANCH  14  15
ATOM     15  C   UNL     1      48.363  -6.433 -58.789  1.00  0.00    -0.000 C 
BRANCH  15  16
ATOM     16  C   UNL     1      47.533  -5.708 -57.719  1.00  0.00    -0.003 C 
ATOM     17  C   UNL     1      48.300  -4.570 -57.046  1.00  0.00     0.004 C 
ENDBRANCH  15  16
ENDBRANCH  14  15
ENDBRANCH  13  14
ENDBRANCH  12  13
ENDBRANCH  11  12
ENDBRANCH  10  11
ENDBRANCH   1  10
TORSDOF 13
ENDMDL
MODEL 8
REMARK VINA RESULT:    -4.020      2.315      4.328
REMARK INTER + INTRA:          -8.600
REMARK INTER:                  -6.597
REMARK INTRA:                  -2.003
REMARK UNBOUND:                -1.524
REMARK SMILES CCCCCCCCCCCCCCC(=O)[O-]
REMARK SMILES IDX 9 1 10 2 11 3 12 4 13 5 14 6 15 7 16 8 17 9 8 10 7 11 6 12
REMARK SMILES IDX 5 13 4 14 3 15 2 16 1 17
REMARK H PARENT
REMARK Flexibility Score: inf
ROOT
ATOM      1  C   UNL     1      50.078  -7.565 -54.287  1.00  0.00     0.000 C 
ENDROOT
BRANCH   1   2
ATOM      2  C   UNL     1      48.659  -7.201 -53.818  1.00  0.00     0.000 C 
BRANCH   2   3
ATOM      3  C   UNL     1      47.575  -7.668 -54.803  1.00  0.00     0.000 C 
BRANCH   3   4
ATOM      4  C   UNL     1      48.148  -8.494 -55.969  1.00  0.00     0.000 C 
BRANCH   4   5
ATOM      5  C   UNL     1      47.180  -9.581 -56.469  1.00  0.00     0.006 C 
BRANCH   5   6
ATOM      6  C   UNL     1      47.824 -10.595 -57.430  1.00  0.00     0.053 C 
BRANCH   6   7
ATOM      7  C   UNL     1      47.651 -12.013 -56.977  1.00  0.00     0.041 C 
ATOM      8  O   UNL     1      46.669 -12.693 -57.376  1.00  0.00    -0.550 OA
ATOM      9  O   UNL     1      48.593 -12.595 -56.137  1.00  0.00    -0.550 OA
ENDBRANCH   6   7
ENDBRANCH   5   6
ENDBRANCH   4   5
ENDBRANCH   3   4
ENDBRANCH   2   3
ENDBRANCH   1   2
BRANCH   1  10
ATOM     10  C   UNL     1      50.922  -6.327 -54.633  1.00  0.00     0.000 C 
BRANCH  10  11
ATOM     11  C   UNL     1      51.071  -6.115 -56.148  1.00  0.00    -0.000 C 
BRANCH  11  12
ATOM     12  C   UNL     1      50.394  -4.810 -56.588  1.00  0.00    -0.000 C 
BRANCH  12  13
ATOM     13  C   UNL     1      48.977  -5.078 -57.118  1.00  0.00    -0.000 C 
BRANCH  13  14
ATOM     14  C   UNL     1      47.907  -4.255 -56.384  1.00  0.00    -0.000 C 
BRANCH  14  15
ATOM     15  C   UNL     1      48.440  -3.605 -55.095  1.00  0.00    -0.000 C 
BRANCH  15  16
ATOM     16  C   UNL     1      47.463  -3.744 -53.918  1.00  0.00    -0.003 C 
ATOM     17  C   UNL     1      46.091  -4.262 -54.348  1.00  0.00     0.004 C 
ENDBRANCH  15  16
ENDBRANCH  14  15
ENDBRANCH  13  14
ENDBRANCH  12  13
ENDBRANCH  11  12
ENDBRANCH  10  11
ENDBRANCH   1  10
TORSDOF 13
ENDMDL
MODEL 9
REMARK VINA RESULT:    -3.988      1.631      3.444
REMARK INTER + INTRA:          -8.543
REMARK INTER:                  -6.869
REMARK INTRA:                  -1.674
REMARK UNBOUND:                -1.524
REMARK SMILES CCCCCCCCCCCCCCC(=O)[O-]
REMARK SMILES IDX 9 1 10 2 11 3 12 4 13 5 14 6 15 7 16 8 17 9 8 10 7 11 6 12
REMARK SMILES IDX 5 13 4 14 3 15 2 16 1 17
REMARK H PARENT
REMARK Flexibility Score: inf
ROOT
ATOM      1  C   UNL     1      47.661  -7.620 -54.826  1.00  0.00     0.000 C 
ENDROOT
BRANCH   1   2
ATOM      2  C   UNL     1      48.341  -8.635 -55.761  1.00  0.00     0.000 C 
BRANCH   2   3
ATOM      3  C   UNL     1      47.908  -8.467 -57.226  1.00  0.00     0.000 C 
BRANCH   3   4
ATOM      4  C   UNL     1      47.793  -9.810 -57.970  1.00  0.00     0.000 C 
BRANCH   4   5
ATOM      5  C   UNL     1      46.957 -10.852 -57.204  1.00  0.00     0.006 C 
BRANCH   5   6
ATOM      6  C   UNL     1      47.475 -12.293 -57.347  1.00  0.00     0.053 C 
BRANCH   6   7
ATOM      7  C   UNL     1      48.177 -12.780 -56.117  1.00  0.00     0.041 C 
ATOM      8  O   UNL     1      49.135 -12.124 -55.628  1.00  0.00    -0.550 OA
ATOM      9  O   UNL     1      47.753 -13.945 -55.488  1.00  0.00    -0.550 OA
ENDBRANCH   6   7
ENDBRANCH   5   6
ENDBRANCH   4   5
ENDBRANCH   3   4
ENDBRANCH   2   3
ENDBRANCH   1   2
BRANCH   1  10
ATOM     10  C   UNL     1      48.643  -6.987 -53.827  1.00  0.00     0.000 C 
BRANCH  10  11
ATOM     11  C   UNL     1      50.113  -7.258 -54.187  1.00  0.00    -0.000 C 
BRANCH  11  12
ATOM     12  C   UNL     1      50.811  -5.971 -54.644  1.00  0.00    -0.000 C 
BRANCH  12  13
ATOM     13  C   UNL     1      51.694  -6.231 -55.874  1.00  0.00    -0.000 C 
BRANCH  13  14
ATOM     14  C   UNL     1      50.982  -5.896 -57.194  1.00  0.00    -0.000 C 
BRANCH  14  15
ATOM     15  C   UNL     1      50.532  -4.426 -57.268  1.00  0.00    -0.000 C 
BRANCH  15  16
ATOM     16  C   UNL     1      49.053  -4.282 -57.655  1.00  0.00    -0.003 C 
ATOM     17  C   UNL     1      48.118  -4.333 -56.448  1.00  0.00     0.004 C 
ENDBRANCH  15  16
ENDBRANCH  14  15
ENDBRANCH  13  14
ENDBRANCH  12  13
ENDBRANCH  11  12
ENDBRANCH  10  11
ENDBRANCH   1  10
TORSDOF 13
ENDMDL
