MODEL 1
REMARK VINA RESULT:    -3.595      0.000      0.000
REMARK INTER + INTRA:          -8.626
REMARK INTER:                  -6.537
REMARK INTRA:                  -2.089
REMARK UNBOUND:                -2.089
REMARK SMILES CCCCCCCCCCCCCCCC(=O)[O-]
REMARK SMILES IDX 9 1 10 2 11 3 12 4 13 5 14 6 15 7 16 8 17 9 18 10 8 11 7 12
REMARK SMILES IDX 6 13 5 14 4 15 3 16 2 17 1 18
REMARK H PARENT
REMARK Flexibility Score: inf
ROOT
ATOM      1  C   UNL     1      -6.893  -5.916  -5.881  1.00  0.00     0.000 C 
ENDROOT
BRANCH   1   2
ATOM      2  C   UNL     1      -7.666  -7.241  -5.755  1.00  0.00     0.000 C 
BRANCH   2   3
ATOM      3  C   UNL     1      -9.127  -7.046  -5.319  1.00  0.00     0.000 C 
BRANCH   3   4
ATOM      4  C   UNL     1      -9.517  -5.564  -5.167  1.00  0.00     0.000 C 
BRANCH   4   5
ATOM      5  C   UNL     1     -10.748  -5.293  -4.284  1.00  0.00     0.000 C 
BRANCH   5   6
ATOM      6  C   UNL     1     -10.820  -3.841  -3.780  1.00  0.00     0.006 C 
BRANCH   6   7
ATOM      7  C   UNL     1     -10.561  -3.739  -2.271  1.00  0.00     0.053 C 
BRANCH   7   8
ATOM      8  C   UNL     1      -9.097  -3.683  -1.960  1.00  0.00     0.041 C 
ATOM      9  O   UNL     1      -8.461  -2.606  -2.095  1.00  0.00    -0.550 OA
ATOM     10  O   UNL     1      -8.430  -4.829  -1.546  1.00  0.00    -0.550 OA
ENDBRANCH   7   8
ENDBRANCH   6   7
ENDBRANCH   5   6
ENDBRANCH   4   5
ENDBRANCH   3   4
ENDBRANCH   2   3
ENDBRANCH   1   2
BRANCH   1  11
ATOM     11  C   UNL     1      -6.300  -5.628  -7.273  1.00  0.00     0.000 C 
BRANCH  11  12
ATOM     12  C   UNL     1      -7.370  -5.264  -8.318  1.00  0.00    -0.000 C 
BRANCH  12  13
ATOM     13  C   UNL     1      -7.456  -6.295  -9.455  1.00  0.00    -0.000 C 
BRANCH  13  14
ATOM     14  C   UNL     1      -8.895  -6.490  -9.964  1.00  0.00    -0.000 C 
BRANCH  14  15
ATOM     15  C   UNL     1      -9.777  -7.259  -8.966  1.00  0.00    -0.000 C 
BRANCH  15  16
ATOM     16  C   UNL     1     -10.941  -6.409  -8.427  1.00  0.00    -0.000 C 
BRANCH  16  17
ATOM     17  C   UNL     1     -11.045  -5.045  -9.129  1.00  0.00    -0.003 C 
ATOM     18  C   UNL     1     -10.812  -3.870  -8.179  1.00  0.00     0.004 C 
ENDBRANCH  16  17
ENDBRANCH  15  16
ENDBRANCH  14  15
ENDBRANCH  13  14
ENDBRANCH  12  13
ENDBRANCH  11  12
ENDBRANCH   1  11
TORSDOF 14
ENDMDL
MODEL 2
REMARK VINA RESULT:    -3.300      2.181      5.948
REMARK INTER + INTRA:          -8.089
REMARK INTER:                  -6.712
REMARK INTRA:                  -1.377
REMARK UNBOUND:                -2.089
REMARK SMILES CCCCCCCCCCCCCCCC(=O)[O-]
REMARK SMILES IDX 9 1 10 2 11 3 12 4 13 5 14 6 15 7 16 8 17 9 18 10 8 11 7 12
REMARK SMILES IDX 6 13 5 14 4 15 3 16 2 17 1 18
REMARK H PARENT
REMARK Flexibility Score: inf
ROOT
ATOM      1  C   UNL     1     -11.105  -5.340  -6.917  1.00  0.00     0.000 C 
ENDROOT
BRANCH   1   2
ATOM      2  C   UNL     1     -11.124  -5.054  -8.430  1.00  0.00     0.000 C 
BRANCH   2   3
ATOM      3  C   UNL     1     -10.249  -3.854  -8.826  1.00  0.00     0.000 C 
BRANCH   3   4
ATOM      4  C   UNL     1      -9.071  -4.243  -9.739  1.00  0.00     0.000 C 
BRANCH   4   5
ATOM      5  C   UNL     1      -8.385  -5.578  -9.396  1.00  0.00     0.000 C 
BRANCH   5   6
ATOM      6  C   UNL     1      -7.247  -5.423  -8.372  1.00  0.00     0.006 C 
BRANCH   6   7
ATOM      7  C   UNL     1      -7.577  -6.097  -7.034  1.00  0.00     0.053 C 
BRANCH   7   8
ATOM      8  C   UNL     1      -6.376  -6.183  -6.143  1.00  0.00     0.041 C 
ATOM      9  O   UNL     1      -6.281  -7.108  -5.295  1.00  0.00    -0.550 OA
ATOM     10  O   UNL     1      -5.375  -5.225  -6.230  1.00  0.00    -0.550 OA
ENDBRANCH   7   8
ENDBRANCH   6   7
ENDBRANCH   5   6
ENDBRANCH   4   5
ENDBRANCH   3   4
ENDBRANCH   2   3
ENDBRANCH   1   2
BRANCH   1  11
ATOM     11  C   UNL     1     -11.109  -6.830  -6.528  1.00  0.00     0.000 C 
BRANCH  11  12
ATOM     12  C   UNL     1     -11.080  -7.054  -5.006  1.00  0.00    -0.000 C 
BRANCH  12  13
ATOM     13  C   UNL     1     -11.059  -5.734  -4.217  1.00  0.00    -0.000 C 
BRANCH  13  14
ATOM     14  C   UNL     1      -9.630  -5.272  -3.882  1.00  0.00    -0.000 C 
BRANCH  14  15
ATOM     15  C   UNL     1      -9.549  -3.766  -3.583  1.00  0.00    -0.000 C 
BRANCH  15  16
ATOM     16  C   UNL     1     -10.747  -3.261  -2.760  1.00  0.00    -0.000 C 
BRANCH  16  17
ATOM     17  C   UNL     1     -10.385  -3.011  -1.287  1.00  0.00    -0.003 C 
ATOM     18  C   UNL     1     -11.119  -3.946  -0.328  1.00  0.00     0.004 C 
ENDBRANCH  16  17
ENDBRANCH  15  16
ENDBRANCH  14  15
ENDBRANCH  13  14
ENDBRANCH  12  13
ENDBRANCH  11  12
ENDBRANCH   1  11
TORSDOF 14
ENDMDL
MODEL 3
REMARK VINA RESULT:    -3.206      1.845      5.604
REMARK INTER + INTRA:          -7.918
REMARK INTER:                  -6.613
REMARK INTRA:                  -1.305
REMARK UNBOUND:                -2.089
REMARK SMILES CCCCCCCCCCCCCCCC(=O)[O-]
REMARK SMILES IDX 9 1 10 2 11 3 12 4 13 5 14 6 15 7 16 8 17 9 18 10 8 11 7 12
REMARK SMILES IDX 6 13 5 14 4 15 3 16 2 17 1 18
REMARK H PARENT
REMARK Flexibility Score: inf
ROOT
ATOM      1  C   UNL     1     -10.685  -7.674  -8.107  1.00  0.00     0.000 C 
ENDROOT
BRANCH   1   2
ATOM      2  C   UNL     1      -9.731  -7.224  -9.229  1.00  0.00     0.000 C 
BRANCH   2   3
ATOM      3  C   UNL     1      -9.903  -5.744  -9.607  1.00  0.00     0.000 C 
BRANCH   3   4
ATOM      4  C   UNL     1      -8.870  -4.826  -8.927  1.00  0.00     0.000 C 
BRANCH   4   5
ATOM      5  C   UNL     1      -7.397  -5.213  -9.149  1.00  0.00     0.000 C 
BRANCH   5   6
ATOM      6  C   UNL     1      -6.626  -5.423  -7.835  1.00  0.00     0.006 C 
BRANCH   6   7
ATOM      7  C   UNL     1      -7.529  -5.954  -6.713  1.00  0.00     0.053 C 
BRANCH   7   8
ATOM      8  C   UNL     1      -6.733  -6.547  -5.592  1.00  0.00     0.041 C 
ATOM      9  O   UNL     1      -5.479  -6.625  -5.676  1.00  0.00    -0.550 OA
ATOM     10  O   UNL     1      -7.378  -7.040  -4.465  1.00  0.00    -0.550 OA
ENDBRANCH   7   8
ENDBRANCH   6   7
ENDBRANCH   5   6
ENDBRANCH   4   5
ENDBRANCH   3   4
ENDBRANCH   2   3
ENDBRANCH   1   2
BRANCH   1  11
ATOM     11  C   UNL     1     -10.989  -6.612  -7.035  1.00  0.00     0.000 C 
BRANCH  11  12
ATOM     12  C   UNL     1     -10.813  -7.138  -5.599  1.00  0.00    -0.000 C 
BRANCH  12  13
ATOM     13  C   UNL     1     -11.124  -6.070  -4.538  1.00  0.00    -0.000 C 
BRANCH  13  14
ATOM     14  C   UNL     1     -10.301  -4.785  -4.738  1.00  0.00    -0.000 C 
BRANCH  14  15
ATOM     15  C   UNL     1     -10.799  -3.621  -3.865  1.00  0.00    -0.000 C 
BRANCH  15  16
ATOM     16  C   UNL     1     -10.615  -3.888  -2.361  1.00  0.00    -0.000 C 
BRANCH  16  17
ATOM     17  C   UNL     1      -9.135  -4.013  -1.964  1.00  0.00    -0.003 C 
ATOM     18  C   UNL     1      -8.521  -2.681  -1.537  1.00  0.00     0.004 C 
ENDBRANCH  16  17
ENDBRANCH  15  16
ENDBRANCH  14  15
ENDBRANCH  13  14
ENDBRANCH  12  13
ENDBRANCH  11  12
ENDBRANCH   1  11
TORSDOF 14
ENDMDL
MODEL 4
REMARK VINA RESULT:    -3.063      3.357      6.362
REMARK INTER + INTRA:          -7.659
REMARK INTER:                  -6.088
REMARK INTRA:                  -1.571
REMARK UNBOUND:                -2.089
REMARK SMILES CCCCCCCCCCCCCCCC(=O)[O-]
REMARK SMILES IDX 9 1 10 2 11 3 12 4 13 5 14 6 15 7 16 8 17 9 18 10 8 11 7 12
REMARK SMILES IDX 6 13 5 14 4 15 3 16 2 17 1 18
REMARK H PARENT
REMARK Flexibility Score: inf
ROOT
ATOM      1  C   UNL     1      -7.617  -6.336  -5.048  1.00  0.00     0.000 C 
ENDROOT
BRANCH   1   2
ATOM      2  C   UNL     1      -6.339  -6.354  -5.907  1.00  0.00     0.000 C 
BRANCH   2   3
ATOM      3  C   UNL     1      -6.295  -5.220  -6.944  1.00  0.00     0.000 C 
BRANCH   3   4
ATOM      4  C   UNL     1      -6.772  -5.663  -8.340  1.00  0.00     0.000 C 
BRANCH   4   5
ATOM      5  C   UNL     1      -8.050  -4.973  -8.850  1.00  0.00     0.000 C 
BRANCH   5   6
ATOM      6  C   UNL     1      -8.691  -5.701 -10.044  1.00  0.00     0.006 C 
BRANCH   6   7
ATOM      7  C   UNL     1      -9.797  -6.670  -9.605  1.00  0.00     0.053 C 
BRANCH   7   8
ATOM      8  C   UNL     1      -9.368  -8.099  -9.732  1.00  0.00     0.041 C 
ATOM      9  O   UNL     1      -8.149  -8.386  -9.864  1.00  0.00    -0.550 OA
ATOM     10  O   UNL     1     -10.317  -9.114  -9.732  1.00  0.00    -0.550 OA
ENDBRANCH   7   8
ENDBRANCH   6   7
ENDBRANCH   5   6
ENDBRANCH   4   5
ENDBRANCH   3   4
ENDBRANCH   2   3
ENDBRANCH   1   2
BRANCH   1  11
ATOM     11  C   UNL     1      -8.804  -7.137  -5.616  1.00  0.00     0.000 C 
BRANCH  11  12
ATOM     12  C   UNL     1     -10.004  -6.249  -5.991  1.00  0.00    -0.000 C 
BRANCH  12  13
ATOM     13  C   UNL     1     -10.728  -5.685  -4.758  1.00  0.00    -0.000 C 
BRANCH  13  14
ATOM     14  C   UNL     1     -11.038  -4.183  -4.893  1.00  0.00    -0.000 C 
BRANCH  14  15
ATOM     15  C   UNL     1     -10.702  -3.391  -3.619  1.00  0.00    -0.000 C 
BRANCH  15  16
ATOM     16  C   UNL     1      -9.331  -3.771  -3.031  1.00  0.00    -0.000 C 
BRANCH  16  17
ATOM     17  C   UNL     1      -9.359  -3.876  -1.498  1.00  0.00    -0.003 C 
ATOM     18  C   UNL     1     -10.761  -3.698  -0.916  1.00  0.00     0.004 C 
ENDBRANCH  16  17
ENDBRANCH  15  16
ENDBRANCH  14  15
ENDBRANCH  13  14
ENDBRANCH  12  13
ENDBRANCH  11  12
ENDBRANCH   1  11
TORSDOF 14
ENDMDL
MODEL 5
REMARK VINA RESULT:    -2.997      2.343      4.572
REMARK INTER + INTRA:          -7.538
REMARK INTER:                  -6.663
REMARK INTRA:                  -0.875
REMARK UNBOUND:                -2.089
REMARK SMILES CCCCCCCCCCCCCCCC(=O)[O-]
REMARK SMILES IDX 9 1 10 2 11 3 12 4 13 5 14 6 15 7 16 8 17 9 18 10 8 11 7 12
REMARK SMILES IDX 6 13 5 14 4 15 3 16 2 17 1 18
REMARK H PARENT
REMARK Flexibility Score: inf
ROOT
ATOM      1  C   UNL     1      -8.520  -7.023  -7.043  1.00  0.00     0.000 C 
ENDROOT
BRANCH   1   2
ATOM      2  C   UNL     1      -9.220  -5.748  -7.548  1.00  0.00     0.000 C 
BRANCH   2   3
ATOM      3  C   UNL     1     -10.702  -5.677  -7.147  1.00  0.00     0.000 C 
BRANCH   3   4
ATOM      4  C   UNL     1     -11.026  -4.468  -6.249  1.00  0.00     0.000 C 
BRANCH   4   5
ATOM      5  C   UNL     1     -10.895  -4.717  -4.736  1.00  0.00     0.000 C 
BRANCH   5   6
ATOM      6  C   UNL     1     -10.640  -3.429  -3.935  1.00  0.00     0.006 C 
BRANCH   6   7
ATOM      7  C   UNL     1     -10.586  -3.689  -2.423  1.00  0.00     0.053 C 
BRANCH   7   8
ATOM      8  C   UNL     1      -9.191  -3.587  -1.890  1.00  0.00     0.041 C 
ATOM      9  O   UNL     1      -8.672  -2.458  -1.684  1.00  0.00    -0.550 OA
ATOM     10  O   UNL     1      -8.453  -4.738  -1.647  1.00  0.00    -0.550 OA
ENDBRANCH   7   8
ENDBRANCH   6   7
ENDBRANCH   5   6
ENDBRANCH   4   5
ENDBRANCH   3   4
ENDBRANCH   2   3
ENDBRANCH   1   2
BRANCH   1  11
ATOM     11  C   UNL     1      -8.117  -7.009  -5.556  1.00  0.00     0.000 C 
BRANCH  11  12
ATOM     12  C   UNL     1      -6.620  -6.725  -5.341  1.00  0.00    -0.000 C 
BRANCH  12  13
ATOM     13  C   UNL     1      -5.982  -5.994  -6.533  1.00  0.00    -0.000 C 
BRANCH  13  14
ATOM     14  C   UNL     1      -5.079  -4.828  -6.093  1.00  0.00    -0.000 C 
BRANCH  14  15
ATOM     15  C   UNL     1      -3.654  -5.285  -5.736  1.00  0.00    -0.000 C 
BRANCH  15  16
ATOM     16  C   UNL     1      -2.710  -4.105  -5.448  1.00  0.00    -0.000 C 
BRANCH  16  17
ATOM     17  C   UNL     1      -3.468  -2.784  -5.238  1.00  0.00    -0.003 C 
ATOM     18  C   UNL     1      -2.757  -1.586  -5.866  1.00  0.00     0.004 C 
ENDBRANCH  16  17
ENDBRANCH  15  16
ENDBRANCH  14  15
ENDBRANCH  13  14
ENDBRANCH  12  13
ENDBRANCH  11  12
ENDBRANCH   1  11
TORSDOF 14
ENDMDL
MODEL 6
REMARK VINA RESULT:    -2.942      1.906      5.949
REMARK INTER + INTRA:          -7.439
REMARK INTER:                  -6.282
REMARK INTRA:                  -1.158
REMARK UNBOUND:                -2.089
REMARK SMILES CCCCCCCCCCCCCCCC(=O)[O-]
REMARK SMILES IDX 9 1 10 2 11 3 12 4 13 5 14 6 15 7 16 8 17 9 18 10 8 11 7 12
REMARK SMILES IDX 6 13 5 14 4 15 3 16 2 17 1 18
REMARK H PARENT
REMARK Flexibility Score: inf
ROOT
ATOM      1  C   UNL     1     -10.766  -6.865  -7.218  1.00  0.00     0.000 C 
ENDROOT
BRANCH   1   2
ATOM      2  C   UNL     1     -11.026  -5.424  -7.693  1.00  0.00     0.000 C 
BRANCH   2   3
ATOM      3  C   UNL     1     -10.308  -5.086  -9.011  1.00  0.00     0.000 C 
BRANCH   3   4
ATOM      4  C   UNL     1      -8.960  -5.815  -9.165  1.00  0.00     0.000 C 
BRANCH   4   5
ATOM      5  C   UNL     1      -7.711  -4.948  -8.923  1.00  0.00     0.000 C 
BRANCH   5   6
ATOM      6  C   UNL     1      -6.741  -5.565  -7.900  1.00  0.00     0.006 C 
BRANCH   6   7
ATOM      7  C   UNL     1      -7.398  -5.765  -6.527  1.00  0.00     0.053 C 
BRANCH   7   8
ATOM      8  C   UNL     1      -6.505  -6.514  -5.587  1.00  0.00     0.041 C 
ATOM      9  O   UNL     1      -5.258  -6.511  -5.758  1.00  0.00    -0.550 OA
ATOM     10  O   UNL     1      -7.053  -7.241  -4.538  1.00  0.00    -0.550 OA
ENDBRANCH   7   8
ENDBRANCH   6   7
ENDBRANCH   5   6
ENDBRANCH   4   5
ENDBRANCH   3   4
ENDBRANCH   2   3
ENDBRANCH   1   2
BRANCH   1  11
ATOM     11  C   UNL     1     -10.472  -7.020  -5.714  1.00  0.00     0.000 C 
BRANCH  11  12
ATOM     12  C   UNL     1     -11.125  -5.921  -4.857  1.00  0.00    -0.000 C 
BRANCH  12  13
ATOM     13  C   UNL     1     -10.088  -5.015  -4.172  1.00  0.00    -0.000 C 
BRANCH  13  14
ATOM     14  C   UNL     1     -10.728  -3.774  -3.525  1.00  0.00    -0.000 C 
BRANCH  14  15
ATOM     15  C   UNL     1     -11.090  -3.997  -2.047  1.00  0.00    -0.000 C 
BRANCH  15  16
ATOM     16  C   UNL     1      -9.983  -3.523  -1.089  1.00  0.00    -0.000 C 
BRANCH  16  17
ATOM     17  C   UNL     1      -8.696  -3.124  -1.831  1.00  0.00    -0.003 C 
ATOM     18  C   UNL     1      -8.032  -1.881  -1.239  1.00  0.00     0.004 C 
ENDBRANCH  16  17
ENDBRANCH  15  16
ENDBRANCH  14  15
ENDBRANCH  13  14
ENDBRANCH  12  13
ENDBRANCH  11  12
ENDBRANCH   1  11
TORSDOF 14
ENDMDL
MODEL 7
REMARK VINA RESULT:    -2.725     19.193     21.232
REMARK INTER + INTRA:          -7.044
REMARK INTER:                  -6.191
REMARK INTRA:                  -0.853
REMARK UNBOUND:                -2.089
REMARK SMILES CCCCCCCCCCCCCCCC(=O)[O-]
REMARK SMILES IDX 9 1 10 2 11 3 12 4 13 5 14 6 15 7 16 8 17 9 18 10 8 11 7 12
REMARK SMILES IDX 6 13 5 14 4 15 3 16 2 17 1 18
REMARK H PARENT
REMARK Flexibility Score: inf
ROOT
ATOM      1  C   UNL     1      -4.718   7.606   7.449  1.00  0.00     0.000 C 
ENDROOT
BRANCH   1   2
ATOM      2  C   UNL     1      -3.558   6.801   8.063  1.00  0.00     0.000 C 
BRANCH   2   3
ATOM      3  C   UNL     1      -2.978   7.453   9.329  1.00  0.00     0.000 C 
BRANCH   3   4
ATOM      4  C   UNL     1      -2.855   8.984   9.215  1.00  0.00     0.000 C 
BRANCH   4   5
ATOM      5  C   UNL     1      -1.592   9.593   9.849  1.00  0.00     0.000 C 
BRANCH   5   6
ATOM      6  C   UNL     1      -0.413   9.692   8.865  1.00  0.00     0.006 C 
BRANCH   6   7
ATOM      7  C   UNL     1       0.722   8.724   9.224  1.00  0.00     0.053 C 
BRANCH   7   8
ATOM      8  C   UNL     1       1.945   8.969   8.395  1.00  0.00     0.041 C 
ATOM      9  O   UNL     1       2.832   9.770   8.793  1.00  0.00    -0.550 OA
ATOM     10  O   UNL     1       2.093   8.335   7.168  1.00  0.00    -0.550 OA
ENDBRANCH   7   8
ENDBRANCH   6   7
ENDBRANCH   5   6
ENDBRANCH   4   5
ENDBRANCH   3   4
ENDBRANCH   2   3
ENDBRANCH   1   2
BRANCH   1  11
ATOM     11  C   UNL     1      -6.120   7.250   7.979  1.00  0.00     0.000 C 
BRANCH  11  12
ATOM     12  C   UNL     1      -6.831   8.442   8.646  1.00  0.00    -0.000 C 
BRANCH  12  13
ATOM     13  C   UNL     1      -7.885   7.998   9.674  1.00  0.00    -0.000 C 
BRANCH  13  14
ATOM     14  C   UNL     1      -9.162   8.855   9.614  1.00  0.00    -0.000 C 
BRANCH  14  15
ATOM     15  C   UNL     1     -10.335   8.123   8.942  1.00  0.00    -0.000 C 
BRANCH  15  16
ATOM     16  C   UNL     1     -10.001   7.655   7.515  1.00  0.00    -0.000 C 
BRANCH  16  17
ATOM     17  C   UNL     1     -10.888   8.326   6.453  1.00  0.00    -0.003 C 
ATOM     18  C   UNL     1     -10.789   9.851   6.476  1.00  0.00     0.004 C 
ENDBRANCH  16  17
ENDBRANCH  15  16
ENDBRANCH  14  15
ENDBRANCH  13  14
ENDBRANCH  12  13
ENDBRANCH  11  12
ENDBRANCH   1  11
TORSDOF 14
ENDMDL
MODEL 8
REMARK VINA RESULT:    -2.668      2.763      5.635
REMARK INTER + INTRA:          -6.940
REMARK INTER:                  -5.747
REMARK INTRA:                  -1.193
REMARK UNBOUND:                -2.089
REMARK SMILES CCCCCCCCCCCCCCCC(=O)[O-]
REMARK SMILES IDX 9 1 10 2 11 3 12 4 13 5 14 6 15 7 16 8 17 9 18 10 8 11 7 12
REMARK SMILES IDX 6 13 5 14 4 15 3 16 2 17 1 18
REMARK H PARENT
REMARK Flexibility Score: inf
ROOT
ATOM      1  C   UNL     1      -8.754  -5.588  -7.911  1.00  0.00     0.000 C 
ENDROOT
BRANCH   1   2
ATOM      2  C   UNL     1      -8.671  -6.986  -7.270  1.00  0.00     0.000 C 
BRANCH   2   3
ATOM      3  C   UNL     1      -8.794  -6.953  -5.738  1.00  0.00     0.000 C 
BRANCH   3   4
ATOM      4  C   UNL     1      -7.608  -6.246  -5.055  1.00  0.00     0.000 C 
BRANCH   4   5
ATOM      5  C   UNL     1      -6.215  -6.649  -5.569  1.00  0.00     0.000 C 
BRANCH   5   6
ATOM      6  C   UNL     1      -5.356  -5.443  -5.988  1.00  0.00     0.006 C 
BRANCH   6   7
ATOM      7  C   UNL     1      -3.874  -5.641  -5.643  1.00  0.00     0.053 C 
BRANCH   7   8
ATOM      8  C   UNL     1      -3.148  -4.335  -5.536  1.00  0.00     0.041 C 
ATOM      9  O   UNL     1      -1.900  -4.315  -5.373  1.00  0.00    -0.550 OA
ATOM     10  O   UNL     1      -3.855  -3.140  -5.588  1.00  0.00    -0.550 OA
ENDBRANCH   7   8
ENDBRANCH   6   7
ENDBRANCH   5   6
ENDBRANCH   4   5
ENDBRANCH   3   4
ENDBRANCH   2   3
ENDBRANCH   1   2
BRANCH   1  11
ATOM     11  C   UNL     1     -10.129  -5.210  -8.493  1.00  0.00     0.000 C 
BRANCH  11  12
ATOM     12  C   UNL     1     -10.823  -4.081  -7.711  1.00  0.00    -0.000 C 
BRANCH  12  13
ATOM     13  C   UNL     1     -11.109  -4.465  -6.250  1.00  0.00    -0.000 C 
BRANCH  13  14
ATOM     14  C   UNL     1     -10.779  -3.328  -5.267  1.00  0.00    -0.000 C 
BRANCH  14  15
ATOM     15  C   UNL     1     -10.894  -3.764  -3.797  1.00  0.00    -0.000 C 
BRANCH  15  16
ATOM     16  C   UNL     1      -9.645  -3.406  -2.974  1.00  0.00    -0.000 C 
BRANCH  16  17
ATOM     17  C   UNL     1      -9.574  -4.179  -1.647  1.00  0.00    -0.003 C 
ATOM     18  C   UNL     1     -10.552  -3.649  -0.598  1.00  0.00     0.004 C 
ENDBRANCH  16  17
ENDBRANCH  15  16
ENDBRANCH  14  15
ENDBRANCH  13  14
ENDBRANCH  12  13
ENDBRANCH  11  12
ENDBRANCH   1  11
TORSDOF 14
ENDMDL
MODEL 9
REMARK VINA RESULT:    -2.532      2.589      6.030
REMARK INTER + INTRA:          -6.694
REMARK INTER:                  -5.790
REMARK INTRA:                  -0.904
REMARK UNBOUND:                -2.089
REMARK SMILES CCCCCCCCCCCCCCCC(=O)[O-]
REMARK SMILES IDX 9 1 10 2 11 3 12 4 13 5 14 6 15 7 16 8 17 9 18 10 8 11 7 12
REMARK SMILES IDX 6 13 5 14 4 15 3 16 2 17 1 18
REMARK H PARENT
REMARK Flexibility Score: inf
ROOT
ATOM      1  C   UNL     1      -7.609  -6.143  -5.355  1.00  0.00     0.000 C 
ENDROOT
BRANCH   1   2
ATOM      2  C   UNL     1      -6.679  -6.067  -6.580  1.00  0.00     0.000 C 
BRANCH   2   3
ATOM      3  C   UNL     1      -7.309  -5.318  -7.767  1.00  0.00     0.000 C 
BRANCH   3   4
ATOM      4  C   UNL     1      -7.159  -6.072  -9.101  1.00  0.00     0.000 C 
BRANCH   4   5
ATOM      5  C   UNL     1      -8.283  -5.829 -10.125  1.00  0.00     0.000 C 
BRANCH   5   6
ATOM      6  C   UNL     1      -9.668  -5.679  -9.473  1.00  0.00     0.006 C 
BRANCH   6   7
ATOM      7  C   UNL     1     -10.491  -4.554 -10.115  1.00  0.00     0.053 C 
BRANCH   7   8
ATOM      8  C   UNL     1     -10.663  -3.391  -9.188  1.00  0.00     0.041 C 
ATOM      9  O   UNL     1     -10.777  -3.580  -7.948  1.00  0.00    -0.550 OA
ATOM     10  O   UNL     1     -10.726  -2.100  -9.695  1.00  0.00    -0.550 OA
ENDBRANCH   7   8
ENDBRANCH   6   7
ENDBRANCH   5   6
ENDBRANCH   4   5
ENDBRANCH   3   4
ENDBRANCH   2   3
ENDBRANCH   1   2
BRANCH   1  11
ATOM     11  C   UNL     1      -8.823  -7.079  -5.506  1.00  0.00     0.000 C 
BRANCH  11  12
ATOM     12  C   UNL     1     -10.028  -6.397  -6.178  1.00  0.00    -0.000 C 
BRANCH  12  13
ATOM     13  C   UNL     1     -11.125  -6.014  -5.171  1.00  0.00    -0.000 C 
BRANCH  13  14
ATOM     14  C   UNL     1     -10.553  -5.380  -3.890  1.00  0.00    -0.000 C 
BRANCH  14  15
ATOM     15  C   UNL     1     -10.448  -3.849  -3.984  1.00  0.00    -0.000 C 
BRANCH  15  16
ATOM     16  C   UNL     1     -10.910  -3.144  -2.697  1.00  0.00    -0.000 C 
BRANCH  16  17
ATOM     17  C   UNL     1     -10.079  -3.558  -1.471  1.00  0.00    -0.003 C 
ATOM     18  C   UNL     1     -10.934  -3.781  -0.223  1.00  0.00     0.004 C 
ENDBRANCH  16  17
ENDBRANCH  15  16
ENDBRANCH  14  15
ENDBRANCH  13  14
ENDBRANCH  12  13
ENDBRANCH  11  12
ENDBRANCH   1  11
TORSDOF 14
ENDMDL
