MODEL 1
REMARK VINA RESULT:    -4.194      0.000      0.000
REMARK INTER + INTRA:          -5.337
REMARK INTER:                  -5.052
REMARK INTRA:                  -0.285
REMARK UNBOUND:                -0.285
REMARK SMILES NC(=O)C[C@@H]([NH3+])C(=O)[O-]
REMARK SMILES IDX 4 1 5 2 6 3 7 7 8 8 9 9 2 10 3 11 1 12
REMARK H PARENT 6 4 6 5 6 6 1 13 1 14
REMARK Flexibility Score: inf
ROOT
ATOM      1  C   UNL     1      21.819  20.906  21.708  1.00  0.00     0.171 C 
ENDROOT
BRANCH   1   2
ATOM      2  C   UNL     1      21.474  19.938  22.861  1.00  0.00     0.237 C 
BRANCH   2   3
ATOM      3  N   UNL     1      21.110  20.658  24.090  1.00  0.00    -0.350 N 
ATOM      4  H   UNL     1      20.848  19.973  24.836  1.00  0.00     0.345 HD
ATOM      5  H   UNL     1      20.285  21.273  23.904  1.00  0.00     0.345 HD
ATOM      6  H   UNL     1      21.903  21.249  24.432  1.00  0.00     0.345 HD
ENDBRANCH   2   3
BRANCH   2   7
ATOM      7  C   UNL     1      20.399  18.962  22.457  1.00  0.00     0.100 C 
ATOM      8  O   UNL     1      20.265  18.610  21.254  1.00  0.00    -0.544 OA
ATOM      9  O   UNL     1      19.576  18.403  23.427  1.00  0.00    -0.544 OA
ENDBRANCH   2   7
ENDBRANCH   1   2
BRANCH   1  10
ATOM     10  C   UNL     1      22.545  22.141  22.165  1.00  0.00     0.223 C 
ATOM     11  O   UNL     1      21.890  23.132  22.587  1.00  0.00    -0.275 OA
ATOM     12  N   UNL     1      23.971  22.193  22.146  1.00  0.00    -0.369 N 
ATOM     13  H   UNL     1      24.530  21.379  21.808  1.00  0.00     0.159 HD
ATOM     14  H   UNL     1      24.471  23.050  22.474  1.00  0.00     0.159 HD
ENDBRANCH   1  10
TORSDOF 4
ENDMDL
MODEL 2
REMARK VINA RESULT:    -3.905      8.037      9.591
REMARK INTER + INTRA:          -4.989
REMARK INTER:                  -4.729
REMARK INTRA:                  -0.260
REMARK UNBOUND:                -0.285
REMARK SMILES NC(=O)C[C@@H]([NH3+])C(=O)[O-]
REMARK SMILES IDX 4 1 5 2 6 3 7 7 8 8 9 9 2 10 3 11 1 12
REMARK H PARENT 6 4 6 5 6 6 1 13 1 14
REMARK Flexibility Score: inf
ROOT
ATOM      1  C   UNL     1      27.727  26.951  22.887  1.00  0.00     0.171 C 
ENDROOT
BRANCH   1   2
ATOM      2  C   UNL     1      28.269  26.020  21.780  1.00  0.00     0.237 C 
BRANCH   2   3
ATOM      3  N   UNL     1      27.695  26.341  20.465  1.00  0.00    -0.350 N 
ATOM      4  H   UNL     1      28.311  27.024  19.967  1.00  0.00     0.345 HD
ATOM      5  H   UNL     1      26.754  26.779  20.591  1.00  0.00     0.345 HD
ATOM      6  H   UNL     1      27.592  25.481  19.877  1.00  0.00     0.345 HD
ENDBRANCH   2   3
BRANCH   2   7
ATOM      7  C   UNL     1      29.776  26.032  21.739  1.00  0.00     0.100 C 
ATOM      8  O   UNL     1      30.429  24.956  21.702  1.00  0.00    -0.544 OA
ATOM      9  O   UNL     1      30.454  27.244  21.692  1.00  0.00    -0.544 OA
ENDBRANCH   2   7
ENDBRANCH   1   2
BRANCH   1  10
ATOM     10  C   UNL     1      26.226  27.035  22.911  1.00  0.00     0.223 C 
ATOM     11  O   UNL     1      25.538  25.987  22.779  1.00  0.00    -0.275 OA
ATOM     12  N   UNL     1      25.572  28.289  23.106  1.00  0.00    -0.369 N 
ATOM     13  H   UNL     1      26.126  29.166  23.226  1.00  0.00     0.159 HD
ATOM     14  H   UNL     1      24.529  28.341  23.133  1.00  0.00     0.159 HD
ENDBRANCH   1  10
TORSDOF 4
ENDMDL
MODEL 3
REMARK VINA RESULT:    -3.872      1.801      4.065
REMARK INTER + INTRA:          -4.949
REMARK INTER:                  -4.728
REMARK INTRA:                  -0.221
REMARK UNBOUND:                -0.285
REMARK SMILES NC(=O)C[C@@H]([NH3+])C(=O)[O-]
REMARK SMILES IDX 4 1 5 2 6 3 7 7 8 8 9 9 2 10 3 11 1 12
REMARK H PARENT 6 4 6 5 6 6 1 13 1 14
REMARK Flexibility Score: inf
ROOT
ATOM      1  C   UNL     1      21.166  19.294  22.059  1.00  0.00     0.171 C 
ENDROOT
BRANCH   1   2
ATOM      2  C   UNL     1      21.131  20.695  22.708  1.00  0.00     0.237 C 
BRANCH   2   3
ATOM      3  N   UNL     1      21.119  20.618  24.176  1.00  0.00    -0.350 N 
ATOM      4  H   UNL     1      21.891  19.994  24.504  1.00  0.00     0.345 HD
ATOM      5  H   UNL     1      20.210  20.213  24.498  1.00  0.00     0.345 HD
ATOM      6  H   UNL     1      21.238  21.565  24.606  1.00  0.00     0.345 HD
ENDBRANCH   2   3
BRANCH   2   7
ATOM      7  C   UNL     1      22.263  21.559  22.212  1.00  0.00     0.100 C 
ATOM      8  O   UNL     1      23.160  21.083  21.467  1.00  0.00    -0.544 OA
ATOM      9  O   UNL     1      22.291  22.909  22.538  1.00  0.00    -0.544 OA
ENDBRANCH   2   7
ENDBRANCH   1   2
BRANCH   1  10
ATOM     10  C   UNL     1      19.946  18.468  22.361  1.00  0.00     0.223 C 
ATOM     11  O   UNL     1      19.502  18.414  23.539  1.00  0.00    -0.275 OA
ATOM     12  N   UNL     1      19.272  17.761  21.319  1.00  0.00    -0.369 N 
ATOM     13  H   UNL     1      19.621  17.801  20.336  1.00  0.00     0.159 HD
ATOM     14  H   UNL     1      18.420  17.197  21.532  1.00  0.00     0.159 HD
ENDBRANCH   1  10
TORSDOF 4
ENDMDL
MODEL 4
REMARK VINA RESULT:    -3.870      2.009      2.818
REMARK INTER + INTRA:          -4.947
REMARK INTER:                  -4.707
REMARK INTRA:                  -0.240
REMARK UNBOUND:                -0.285
REMARK SMILES NC(=O)C[C@@H]([NH3+])C(=O)[O-]
REMARK SMILES IDX 4 1 5 2 6 3 7 7 8 8 9 9 2 10 3 11 1 12
REMARK H PARENT 6 4 6 5 6 6 1 13 1 14
REMARK Flexibility Score: inf
ROOT
ATOM      1  C   UNL     1      21.139  19.058  21.980  1.00  0.00     0.171 C 
ENDROOT
BRANCH   1   2
ATOM      2  C   UNL     1      19.717  18.489  22.186  1.00  0.00     0.237 C 
BRANCH   2   3
ATOM      3  N   UNL     1      19.273  17.695  21.032  1.00  0.00    -0.350 N 
ATOM      4  H   UNL     1      19.797  17.990  20.176  1.00  0.00     0.345 HD
ATOM      5  H   UNL     1      18.253  17.860  20.865  1.00  0.00     0.345 HD
ATOM      6  H   UNL     1      19.429  16.673  21.192  1.00  0.00     0.345 HD
ENDBRANCH   2   3
BRANCH   2   7
ATOM      7  C   UNL     1      19.620  17.700  23.467  1.00  0.00     0.100 C 
ATOM      8  O   UNL     1      19.564  18.284  24.582  1.00  0.00    -0.544 OA
ATOM      9  O   UNL     1      19.539  16.314  23.417  1.00  0.00    -0.544 OA
ENDBRANCH   2   7
ENDBRANCH   1   2
BRANCH   1  10
ATOM     10  C   UNL     1      21.304  20.454  22.514  1.00  0.00     0.223 C 
ATOM     11  O   UNL     1      21.462  21.415  21.715  1.00  0.00    -0.275 OA
ATOM     12  N   UNL     1      21.262  20.702  23.919  1.00  0.00    -0.369 N 
ATOM     13  H   UNL     1      21.123  19.920  24.596  1.00  0.00     0.159 HD
ATOM     14  H   UNL     1      21.367  21.675  24.285  1.00  0.00     0.159 HD
ENDBRANCH   1  10
TORSDOF 4
ENDMDL
MODEL 5
REMARK VINA RESULT:    -3.777      7.746      9.272
REMARK INTER + INTRA:          -4.835
REMARK INTER:                  -4.582
REMARK INTRA:                  -0.253
REMARK UNBOUND:                -0.285
REMARK SMILES NC(=O)C[C@@H]([NH3+])C(=O)[O-]
REMARK SMILES IDX 4 1 5 2 6 3 7 7 8 8 9 9 2 10 3 11 1 12
REMARK H PARENT 6 4 6 5 6 6 1 13 1 14
REMARK Flexibility Score: inf
ROOT
ATOM      1  C   UNL     1      27.525  25.908  23.063  1.00  0.00     0.171 C 
ENDROOT
BRANCH   1   2
ATOM      2  C   UNL     1      28.180  25.661  21.686  1.00  0.00     0.237 C 
BRANCH   2   3
ATOM      3  N   UNL     1      27.507  26.414  20.617  1.00  0.00    -0.350 N 
ATOM      4  H   UNL     1      26.838  27.100  21.035  1.00  0.00     0.345 HD
ATOM      5  H   UNL     1      26.965  25.754  20.012  1.00  0.00     0.345 HD
ATOM      6  H   UNL     1      28.198  26.928  20.023  1.00  0.00     0.345 HD
ENDBRANCH   2   3
BRANCH   2   7
ATOM      7  C   UNL     1      29.658  25.955  21.719  1.00  0.00     0.100 C 
ATOM      8  O   UNL     1      30.497  25.028  21.874  1.00  0.00    -0.544 OA
ATOM      9  O   UNL     1      30.106  27.256  21.526  1.00  0.00    -0.544 OA
ENDBRANCH   2   7
ENDBRANCH   1   2
BRANCH   1  10
ATOM     10  C   UNL     1      26.067  26.265  22.973  1.00  0.00     0.223 C 
ATOM     11  O   UNL     1      25.714  27.474  23.023  1.00  0.00    -0.275 OA
ATOM     12  N   UNL     1      25.080  25.247  22.810  1.00  0.00    -0.369 N 
ATOM     13  H   UNL     1      25.354  24.242  22.758  1.00  0.00     0.159 HD
ATOM     14  H   UNL     1      24.069  25.501  22.738  1.00  0.00     0.159 HD
ENDBRANCH   1  10
TORSDOF 4
ENDMDL
MODEL 6
REMARK VINA RESULT:    -3.767      1.064      3.968
REMARK INTER + INTRA:          -4.822
REMARK INTER:                  -4.589
REMARK INTRA:                  -0.233
REMARK UNBOUND:                -0.285
REMARK SMILES NC(=O)C[C@@H]([NH3+])C(=O)[O-]
REMARK SMILES IDX 4 1 5 2 6 3 7 7 8 8 9 9 2 10 3 11 1 12
REMARK H PARENT 6 4 6 5 6 6 1 13 1 14
REMARK Flexibility Score: inf
ROOT
ATOM      1  C   UNL     1      21.406  20.465  21.649  1.00  0.00     0.171 C 
ENDROOT
BRANCH   1   2
ATOM      2  C   UNL     1      22.409  21.280  22.494  1.00  0.00     0.237 C 
BRANCH   2   3
ATOM      3  N   UNL     1      23.691  21.462  21.798  1.00  0.00    -0.350 N 
ATOM      4  H   UNL     1      23.533  21.951  20.887  1.00  0.00     0.345 HD
ATOM      5  H   UNL     1      24.117  20.528  21.599  1.00  0.00     0.345 HD
ATOM      6  H   UNL     1      24.360  22.023  22.375  1.00  0.00     0.345 HD
ENDBRANCH   2   3
BRANCH   2   7
ATOM      7  C   UNL     1      21.823  22.603  22.920  1.00  0.00     0.100 C 
ATOM      8  O   UNL     1      21.936  23.624  22.191  1.00  0.00    -0.544 OA
ATOM      9  O   UNL     1      21.106  22.687  24.106  1.00  0.00    -0.544 OA
ENDBRANCH   2   7
ENDBRANCH   1   2
BRANCH   1  10
ATOM     10  C   UNL     1      20.782  19.324  22.404  1.00  0.00     0.223 C 
ATOM     11  O   UNL     1      20.670  18.196  21.854  1.00  0.00    -0.275 OA
ATOM     12  N   UNL     1      20.334  19.503  23.748  1.00  0.00    -0.369 N 
ATOM     13  H   UNL     1      20.426  20.428  24.222  1.00  0.00     0.159 HD
ATOM     14  H   UNL     1      19.910  18.705  24.272  1.00  0.00     0.159 HD
ENDBRANCH   1  10
TORSDOF 4
ENDMDL
MODEL 7
REMARK VINA RESULT:    -3.734      7.929      8.967
REMARK INTER + INTRA:          -4.783
REMARK INTER:                  -4.424
REMARK INTRA:                  -0.358
REMARK UNBOUND:                -0.285
REMARK SMILES NC(=O)C[C@@H]([NH3+])C(=O)[O-]
REMARK SMILES IDX 4 1 5 2 6 3 7 7 8 8 9 9 2 10 3 11 1 12
REMARK H PARENT 6 4 6 5 6 6 1 13 1 14
REMARK Flexibility Score: inf
ROOT
ATOM      1  C   UNL     1      28.364  25.654  22.185  1.00  0.00     0.171 C 
ENDROOT
BRANCH   1   2
ATOM      2  C   UNL     1      27.706  26.575  23.236  1.00  0.00     0.237 C 
BRANCH   2   3
ATOM      3  N   UNL     1      28.304  27.918  23.238  1.00  0.00    -0.350 N 
ATOM      4  H   UNL     1      27.553  28.640  23.336  1.00  0.00     0.345 HD
ATOM      5  H   UNL     1      28.800  28.083  22.332  1.00  0.00     0.345 HD
ATOM      6  H   UNL     1      28.988  28.028  24.022  1.00  0.00     0.345 HD
ENDBRANCH   2   3
BRANCH   2   7
ATOM      7  C   UNL     1      26.211  26.640  23.053  1.00  0.00     0.100 C 
ATOM      8  O   UNL     1      25.546  25.599  22.806  1.00  0.00    -0.544 OA
ATOM      9  O   UNL     1      25.550  27.852  23.208  1.00  0.00    -0.544 OA
ENDBRANCH   2   7
ENDBRANCH   1   2
BRANCH   1  10
ATOM     10  C   UNL     1      28.663  26.351  20.887  1.00  0.00     0.223 C 
ATOM     11  O   UNL     1      29.671  27.102  20.797  1.00  0.00    -0.275 OA
ATOM     12  N   UNL     1      27.827  26.152  19.747  1.00  0.00    -0.369 N 
ATOM     13  H   UNL     1      26.993  25.527  19.800  1.00  0.00     0.159 HD
ATOM     14  H   UNL     1      28.045  26.631  18.844  1.00  0.00     0.159 HD
ENDBRANCH   1  10
TORSDOF 4
ENDMDL
MODEL 8
REMARK VINA RESULT:    -3.477      9.633     10.651
REMARK INTER + INTRA:          -4.473
REMARK INTER:                  -3.957
REMARK INTRA:                  -0.516
REMARK UNBOUND:                -0.285
REMARK SMILES NC(=O)C[C@@H]([NH3+])C(=O)[O-]
REMARK SMILES IDX 4 1 5 2 6 3 7 7 8 8 9 9 2 10 3 11 1 12
REMARK H PARENT 6 4 6 5 6 6 1 13 1 14
REMARK Flexibility Score: inf
ROOT
ATOM      1  C   UNL     1      29.718  25.618  21.594  1.00  0.00     0.171 C 
ENDROOT
BRANCH   1   2
ATOM      2  C   UNL     1      30.352  26.828  22.315  1.00  0.00     0.237 C 
BRANCH   2   3
ATOM      3  N   UNL     1      30.519  27.977  21.414  1.00  0.00    -0.350 N 
ATOM      4  H   UNL     1      31.264  28.611  21.784  1.00  0.00     0.345 HD
ATOM      5  H   UNL     1      29.625  28.516  21.364  1.00  0.00     0.345 HD
ATOM      6  H   UNL     1      30.781  27.667  20.449  1.00  0.00     0.345 HD
ENDBRANCH   2   3
BRANCH   2   7
ATOM      7  C   UNL     1      29.571  27.206  23.548  1.00  0.00     0.100 C 
ATOM      8  O   UNL     1      30.134  27.274  24.673  1.00  0.00    -0.544 OA
ATOM      9  O   UNL     1      28.225  27.531  23.438  1.00  0.00    -0.544 OA
ENDBRANCH   2   7
ENDBRANCH   1   2
BRANCH   1  10
ATOM     10  C   UNL     1      28.862  26.007  20.420  1.00  0.00     0.223 C 
ATOM     11  O   UNL     1      29.346  25.984  19.257  1.00  0.00    -0.275 OA
ATOM     12  N   UNL     1      27.497  26.381  20.610  1.00  0.00    -0.369 N 
ATOM     13  H   UNL     1      27.076  26.397  21.565  1.00  0.00     0.159 HD
ATOM     14  H   UNL     1      26.904  26.640  19.791  1.00  0.00     0.159 HD
ENDBRANCH   1  10
TORSDOF 4
ENDMDL
MODEL 9
REMARK VINA RESULT:    -3.433      9.000     11.001
REMARK INTER + INTRA:          -4.421
REMARK INTER:                  -4.143
REMARK INTRA:                  -0.278
REMARK UNBOUND:                -0.285
REMARK SMILES NC(=O)C[C@@H]([NH3+])C(=O)[O-]
REMARK SMILES IDX 4 1 5 2 6 3 7 7 8 8 9 9 2 10 3 11 1 12
REMARK H PARENT 6 4 6 5 6 6 1 13 1 14
REMARK Flexibility Score: inf
ROOT
ATOM      1  C   UNL     1      29.513  25.790  21.880  1.00  0.00     0.171 C 
ENDROOT
BRANCH   1   2
ATOM      2  C   UNL     1      30.482  26.969  22.117  1.00  0.00     0.237 C 
BRANCH   2   3
ATOM      3  N   UNL     1      29.833  28.076  22.834  1.00  0.00    -0.350 N 
ATOM      4  H   UNL     1      28.798  27.922  22.860  1.00  0.00     0.345 HD
ATOM      5  H   UNL     1      30.018  28.974  22.332  1.00  0.00     0.345 HD
ATOM      6  H   UNL     1      30.191  28.155  23.814  1.00  0.00     0.345 HD
ENDBRANCH   2   3
BRANCH   2   7
ATOM      7  C   UNL     1      31.736  26.518  22.822  1.00  0.00     0.100 C 
ATOM      8  O   UNL     1      32.575  27.357  23.245  1.00  0.00    -0.544 OA
ATOM      9  O   UNL     1      31.947  25.165  23.054  1.00  0.00    -0.544 OA
ENDBRANCH   2   7
ENDBRANCH   1   2
BRANCH   1  10
ATOM     10  C   UNL     1      28.150  26.223  21.418  1.00  0.00     0.223 C 
ATOM     11  O   UNL     1      27.292  26.598  22.261  1.00  0.00    -0.275 OA
ATOM     12  N   UNL     1      27.825  26.235  20.027  1.00  0.00    -0.369 N 
ATOM     13  H   UNL     1      28.525  25.936  19.314  1.00  0.00     0.159 HD
ATOM     14  H   UNL     1      26.880  26.547  19.710  1.00  0.00     0.159 HD
ENDBRANCH   1  10
TORSDOF 4
ENDMDL
