MODEL 1
REMARK VINA RESULT:    -5.575      0.000      0.000
REMARK INTER + INTRA:          -6.169
REMARK INTER:                  -6.064
REMARK INTRA:                  -0.105
REMARK UNBOUND:                -0.105
REMARK SMILES Cc1ccc(C(C)C)cc1O
REMARK SMILES IDX 1 1 2 2 10 3 9 4 5 5 4 6 3 7 11 8 6 10 7 11 8 12
REMARK H PARENT 11 9
REMARK Flexibility Score: inf
ROOT
ATOM      1  C   UNL     1       8.883   3.358 -10.848  1.00  0.00     0.048 C 
ATOM      2  C   UNL     1       8.987   4.257  -9.646  1.00  0.00    -0.009 A 
ATOM      3  C   UNL     1       8.744   3.768  -8.344  1.00  0.00     0.118 A 
ATOM      4  C   UNL     1       8.849   4.631  -7.246  1.00  0.00     0.050 A 
ATOM      5  C   UNL     1       9.193   5.983  -7.420  1.00  0.00    -0.042 A 
ATOM      6  C   UNL     1       9.432   6.461  -8.718  1.00  0.00     0.004 A 
ATOM      7  C   UNL     1       9.330   5.608  -9.819  1.00  0.00     0.007 A 
ENDROOT
BRANCH   3   8
ATOM      8  O   UNL     1       8.399   2.436  -8.106  1.00  0.00    -0.508 OA
ATOM      9  H   UNL     1       8.405   2.022  -7.182  1.00  0.00     0.293 HD
ENDBRANCH   3   8
BRANCH   5  10
ATOM     10  C   UNL     1       9.308   6.922  -6.234  1.00  0.00     0.013 C 
ATOM     11  C   UNL     1       8.397   6.474  -5.084  1.00  0.00     0.012 C 
ATOM     12  C   UNL     1      10.763   7.047  -5.767  1.00  0.00     0.012 C 
ENDBRANCH   5  10
TORSDOF 2
ENDMDL
MODEL 2
REMARK VINA RESULT:    -5.371      0.483      1.108
REMARK INTER + INTRA:          -5.947
REMARK INTER:                  -5.820
REMARK INTRA:                  -0.127
REMARK UNBOUND:                -0.105
REMARK SMILES Cc1ccc(C(C)C)cc1O
REMARK SMILES IDX 1 1 2 2 10 3 9 4 5 5 4 6 3 7 11 8 6 10 7 11 8 12
REMARK H PARENT 11 9
REMARK Flexibility Score: inf
ROOT
ATOM      1  C   UNL     1       8.844   3.539 -10.817  1.00  0.00     0.048 C 
ATOM      2  C   UNL     1       8.959   4.354  -9.558  1.00  0.00    -0.009 A 
ATOM      3  C   UNL     1       8.716   3.781  -8.291  1.00  0.00     0.118 A 
ATOM      4  C   UNL     1       8.832   4.567  -7.137  1.00  0.00     0.050 A 
ATOM      5  C   UNL     1       9.187   5.925  -7.222  1.00  0.00    -0.042 A 
ATOM      6  C   UNL     1       9.426   6.487  -8.485  1.00  0.00     0.004 A 
ATOM      7  C   UNL     1       9.314   5.710  -9.640  1.00  0.00     0.007 A 
ENDROOT
BRANCH   3   8
ATOM      8  O   UNL     1       8.361   2.439  -8.141  1.00  0.00    -0.508 OA
ATOM      9  H   UNL     1       7.499   2.143  -7.700  1.00  0.00     0.293 HD
ENDBRANCH   3   8
BRANCH   5  10
ATOM     10  C   UNL     1       9.314   6.781  -5.975  1.00  0.00     0.013 C 
ATOM     11  C   UNL     1       9.330   8.274  -6.329  1.00  0.00     0.012 C 
ATOM     12  C   UNL     1       8.199   6.465  -4.972  1.00  0.00     0.012 C 
ENDBRANCH   5  10
TORSDOF 2
ENDMDL
MODEL 3
REMARK VINA RESULT:    -4.980      5.769      7.804
REMARK INTER + INTRA:          -5.522
REMARK INTER:                  -5.399
REMARK INTRA:                  -0.123
REMARK UNBOUND:                -0.105
REMARK SMILES Cc1ccc(C(C)C)cc1O
REMARK SMILES IDX 1 1 2 2 10 3 9 4 5 5 4 6 3 7 11 8 6 10 7 11 8 12
REMARK H PARENT 11 9
REMARK Flexibility Score: inf
ROOT
ATOM      1  C   UNL     1       6.528   2.641   0.487  1.00  0.00     0.048 C 
ATOM      2  C   UNL     1       6.661   3.898  -0.327  1.00  0.00    -0.009 A 
ATOM      3  C   UNL     1       6.775   5.162   0.291  1.00  0.00     0.118 A 
ATOM      4  C   UNL     1       6.897   6.315  -0.496  1.00  0.00     0.050 A 
ATOM      5  C   UNL     1       6.907   6.232  -1.899  1.00  0.00    -0.042 A 
ATOM      6  C   UNL     1       6.792   4.972  -2.507  1.00  0.00     0.004 A 
ATOM      7  C   UNL     1       6.671   3.818  -1.730  1.00  0.00     0.007 A 
ENDROOT
BRANCH   3   8
ATOM      8  O   UNL     1       6.772   5.309   1.680  1.00  0.00    -0.508 OA
ATOM      9  H   UNL     1       6.988   4.550   2.315  1.00  0.00     0.293 HD
ENDBRANCH   3   8
BRANCH   5  10
ATOM     10  C   UNL     1       7.038   7.478  -2.757  1.00  0.00     0.013 C 
ATOM     11  C   UNL     1       7.426   8.695  -1.908  1.00  0.00     0.012 C 
ATOM     12  C   UNL     1       8.038   7.260  -3.897  1.00  0.00     0.012 C 
ENDBRANCH   5  10
TORSDOF 2
ENDMDL
MODEL 4
REMARK VINA RESULT:    -4.952      4.302      6.796
REMARK INTER + INTRA:          -5.492
REMARK INTER:                  -5.368
REMARK INTRA:                  -0.124
REMARK UNBOUND:                -0.105
REMARK SMILES Cc1ccc(C(C)C)cc1O
REMARK SMILES IDX 1 1 2 2 10 3 9 4 5 5 4 6 3 7 11 8 6 10 7 11 8 12
REMARK H PARENT 11 9
REMARK Flexibility Score: inf
ROOT
ATOM      1  C   UNL     1       6.206   3.792  -0.077  1.00  0.00     0.048 C 
ATOM      2  C   UNL     1       6.595   4.620  -1.270  1.00  0.00    -0.009 A 
ATOM      3  C   UNL     1       6.956   5.978  -1.132  1.00  0.00     0.118 A 
ATOM      4  C   UNL     1       7.313   6.722  -2.263  1.00  0.00     0.050 A 
ATOM      5  C   UNL     1       7.317   6.136  -3.541  1.00  0.00    -0.042 A 
ATOM      6  C   UNL     1       6.956   4.786  -3.670  1.00  0.00     0.004 A 
ATOM      7  C   UNL     1       6.599   4.036  -2.547  1.00  0.00     0.007 A 
ENDROOT
BRANCH   3   8
ATOM      8  O   UNL     1       6.972   6.617   0.110  1.00  0.00    -0.508 OA
ATOM      9  H   UNL     1       7.818   6.748   0.651  1.00  0.00     0.293 HD
ENDBRANCH   3   8
BRANCH   5  10
ATOM     10  C   UNL     1       7.703   6.938  -4.771  1.00  0.00     0.013 C 
ATOM     11  C   UNL     1       8.468   8.210  -4.384  1.00  0.00     0.012 C 
ATOM     12  C   UNL     1       8.512   6.086  -5.755  1.00  0.00     0.012 C 
ENDBRANCH   5  10
TORSDOF 2
ENDMDL
MODEL 5
REMARK VINA RESULT:    -4.911      1.452      2.060
REMARK INTER + INTRA:          -5.447
REMARK INTER:                  -5.319
REMARK INTRA:                  -0.128
REMARK UNBOUND:                -0.105
REMARK SMILES Cc1ccc(C(C)C)cc1O
REMARK SMILES IDX 1 1 2 2 10 3 9 4 5 5 4 6 3 7 11 8 6 10 7 11 8 12
REMARK H PARENT 11 9
REMARK Flexibility Score: inf
ROOT
ATOM      1  C   UNL     1       8.883   3.259 -10.656  1.00  0.00     0.048 C 
ATOM      2  C   UNL     1       8.979   4.217  -9.502  1.00  0.00    -0.009 A 
ATOM      3  C   UNL     1       9.290   5.579  -9.705  1.00  0.00     0.118 A 
ATOM      4  C   UNL     1       9.372   6.447  -8.608  1.00  0.00     0.050 A 
ATOM      5  C   UNL     1       9.149   5.980  -7.301  1.00  0.00    -0.042 A 
ATOM      6  C   UNL     1       8.841   4.624  -7.107  1.00  0.00     0.004 A 
ATOM      7  C   UNL     1       8.756   3.753  -8.195  1.00  0.00     0.007 A 
ENDROOT
BRANCH   3   8
ATOM      8  O   UNL     1       9.521   6.103 -10.979  1.00  0.00    -0.508 OA
ATOM      9  H   UNL     1       8.780   6.275 -11.647  1.00  0.00     0.293 HD
ENDBRANCH   3   8
BRANCH   5  10
ATOM     10  C   UNL     1       9.237   6.915  -6.109  1.00  0.00     0.013 C 
ATOM     11  C   UNL     1       8.324   6.445  -4.969  1.00  0.00     0.012 C 
ATOM     12  C   UNL     1      10.685   7.064  -5.629  1.00  0.00     0.012 C 
ENDBRANCH   5  10
TORSDOF 2
ENDMDL
MODEL 6
REMARK VINA RESULT:    -4.783      4.541      6.702
REMARK INTER + INTRA:          -5.308
REMARK INTER:                  -5.182
REMARK INTRA:                  -0.126
REMARK UNBOUND:                -0.105
REMARK SMILES Cc1ccc(C(C)C)cc1O
REMARK SMILES IDX 1 1 2 2 10 3 9 4 5 5 4 6 3 7 11 8 6 10 7 11 8 12
REMARK H PARENT 11 9
REMARK Flexibility Score: inf
ROOT
ATOM      1  C   UNL     1       6.064   3.751  -0.229  1.00  0.00     0.048 C 
ATOM      2  C   UNL     1       6.480   4.872  -1.141  1.00  0.00    -0.009 A 
ATOM      3  C   UNL     1       6.740   4.643  -2.510  1.00  0.00     0.118 A 
ATOM      4  C   UNL     1       7.126   5.709  -3.333  1.00  0.00     0.050 A 
ATOM      5  C   UNL     1       7.260   7.009  -2.815  1.00  0.00    -0.042 A 
ATOM      6  C   UNL     1       7.000   7.228  -1.454  1.00  0.00     0.004 A 
ATOM      7  C   UNL     1       6.614   6.171  -0.626  1.00  0.00     0.007 A 
ENDROOT
BRANCH   3   8
ATOM      8  O   UNL     1       6.625   3.375  -3.083  1.00  0.00    -0.508 OA
ATOM      9  H   UNL     1       7.227   3.051  -3.830  1.00  0.00     0.293 HD
ENDBRANCH   3   8
BRANCH   5  10
ATOM     10  C   UNL     1       7.678   8.168  -3.703  1.00  0.00     0.013 C 
ATOM     11  C   UNL     1       8.438   9.231  -2.901  1.00  0.00     0.012 C 
ATOM     12  C   UNL     1       8.507   7.679  -4.895  1.00  0.00     0.012 C 
ENDBRANCH   5  10
TORSDOF 2
ENDMDL
MODEL 7
REMARK VINA RESULT:    -4.281      5.902      7.101
REMARK INTER + INTRA:          -4.761
REMARK INTER:                  -4.652
REMARK INTRA:                  -0.110
REMARK UNBOUND:                -0.105
REMARK SMILES Cc1ccc(C(C)C)cc1O
REMARK SMILES IDX 1 1 2 2 10 3 9 4 5 5 4 6 3 7 11 8 6 10 7 11 8 12
REMARK H PARENT 11 9
REMARK Flexibility Score: inf
ROOT
ATOM      1  C   UNL     1       6.814   3.722  -2.601  1.00  0.00     0.048 C 
ATOM      2  C   UNL     1       6.873   5.194  -2.296  1.00  0.00    -0.009 A 
ATOM      3  C   UNL     1       6.548   5.689  -1.015  1.00  0.00     0.118 A 
ATOM      4  C   UNL     1       6.614   7.066  -0.763  1.00  0.00     0.050 A 
ATOM      5  C   UNL     1       7.000   7.966  -1.772  1.00  0.00    -0.042 A 
ATOM      6  C   UNL     1       7.321   7.466  -3.043  1.00  0.00     0.004 A 
ATOM      7  C   UNL     1       7.259   6.094  -3.302  1.00  0.00     0.007 A 
ENDROOT
BRANCH   3   8
ATOM      8  O   UNL     1       6.158   4.846   0.028  1.00  0.00    -0.508 OA
ATOM      9  H   UNL     1       5.973   3.859  -0.102  1.00  0.00     0.293 HD
ENDBRANCH   3   8
BRANCH   5  10
ATOM     10  C   UNL     1       7.072   9.459  -1.505  1.00  0.00     0.013 C 
ATOM     11  C   UNL     1       6.273   9.835  -0.250  1.00  0.00     0.012 C 
ATOM     12  C   UNL     1       8.526   9.930  -1.394  1.00  0.00     0.012 C 
ENDBRANCH   5  10
TORSDOF 2
ENDMDL
MODEL 8
REMARK VINA RESULT:    -4.203      2.859      5.795
REMARK INTER + INTRA:          -4.677
REMARK INTER:                  -4.562
REMARK INTRA:                  -0.114
REMARK UNBOUND:                -0.105
REMARK SMILES Cc1ccc(C(C)C)cc1O
REMARK SMILES IDX 1 1 2 2 10 3 9 4 5 5 4 6 3 7 11 8 6 10 7 11 8 12
REMARK H PARENT 11 9
REMARK Flexibility Score: inf
ROOT
ATOM      1  C   UNL     1       6.297   6.804  -0.956  1.00  0.00     0.048 C 
ATOM      2  C   UNL     1       7.018   6.779  -2.275  1.00  0.00    -0.009 A 
ATOM      3  C   UNL     1       7.078   5.603  -3.054  1.00  0.00     0.118 A 
ATOM      4  C   UNL     1       7.758   5.613  -4.279  1.00  0.00     0.050 A 
ATOM      5  C   UNL     1       8.385   6.781  -4.747  1.00  0.00    -0.042 A 
ATOM      6  C   UNL     1       8.321   7.946  -3.966  1.00  0.00     0.004 A 
ATOM      7  C   UNL     1       7.645   7.945  -2.744  1.00  0.00     0.007 A 
ENDROOT
BRANCH   3   8
ATOM      8  O   UNL     1       6.476   4.412  -2.644  1.00  0.00    -0.508 OA
ATOM      9  H   UNL     1       6.895   3.787  -1.967  1.00  0.00     0.293 HD
ENDBRANCH   3   8
BRANCH   5  10
ATOM     10  C   UNL     1       9.123   6.798  -6.073  1.00  0.00     0.013 C 
ATOM     11  C   UNL     1      10.622   7.052  -5.868  1.00  0.00     0.012 C 
ATOM     12  C   UNL     1       8.887   5.500  -6.853  1.00  0.00     0.012 C 
ENDBRANCH   5  10
TORSDOF 2
ENDMDL
