MODEL 1
REMARK VINA RESULT:    -5.913      0.000      0.000
REMARK INTER + INTRA:          -6.259
REMARK INTER:                  -6.259
REMARK INTRA:                   0.000
REMARK UNBOUND:                 0.000
REMARK SMILES Cc1cc(O)c(C)c(C)c1O
REMARK SMILES IDX 1 1 2 2 3 3 4 4 6 5 8 6 10 7 9 8 7 9 11 10 5 12
REMARK H PARENT 11 11 5 13
REMARK Flexibility Score: inf
ROOT
ATOM      1  C   UNL     1      80.012  64.085 101.048  1.00  0.00     0.048 C 
ATOM      2  C   UNL     1      79.678  63.392 102.341  1.00  0.00    -0.005 A 
ATOM      3  C   UNL     1      80.621  63.346 103.371  1.00  0.00     0.053 A 
ATOM      4  C   UNL     1      80.348  62.678 104.565  1.00  0.00     0.119 A 
ATOM      5  C   UNL     1      79.108  62.020 104.742  1.00  0.00    -0.003 A 
ATOM      6  C   UNL     1      78.097  62.169 103.750  1.00  0.00    -0.002 A 
ATOM      7  C   UNL     1      78.418  62.797 102.519  1.00  0.00     0.121 A 
ATOM      8  C   UNL     1      76.694  61.654 103.984  1.00  0.00     0.049 C 
ATOM      9  C   UNL     1      78.871  61.188 105.983  1.00  0.00     0.049 C 
ENDROOT
BRANCH   7  10
ATOM     10  O   UNL     1      77.513  62.835 101.453  1.00  0.00    -0.507 OA
ATOM     11  H   UNL     1      76.600  62.400 101.475  1.00  0.00     0.293 HD
ENDBRANCH   7  10
BRANCH   4  12
ATOM     12  O   UNL     1      81.332  62.701 105.557  1.00  0.00    -0.508 OA
ATOM     13  H   UNL     1      82.286  62.401 105.408  1.00  0.00     0.293 HD
ENDBRANCH   4  12
TORSDOF 2
ENDMDL
MODEL 2
REMARK VINA RESULT:    -5.612      1.920      3.687
REMARK INTER + INTRA:          -5.940
REMARK INTER:                  -5.940
REMARK INTRA:                   0.000
REMARK UNBOUND:                 0.000
REMARK SMILES Cc1cc(O)c(C)c(C)c1O
REMARK SMILES IDX 1 1 2 2 3 3 4 4 6 5 8 6 10 7 9 8 7 9 11 10 5 12
REMARK H PARENT 11 11 5 13
REMARK Flexibility Score: inf
ROOT
ATOM      1  C   UNL     1      81.178  62.432 105.192  1.00  0.00     0.048 C 
ATOM      2  C   UNL     1      80.124  63.088 104.343  1.00  0.00    -0.005 A 
ATOM      3  C   UNL     1      80.365  63.314 102.984  1.00  0.00     0.053 A 
ATOM      4  C   UNL     1      79.418  63.953 102.184  1.00  0.00     0.119 A 
ATOM      5  C   UNL     1      78.199  64.399 102.747  1.00  0.00    -0.003 A 
ATOM      6  C   UNL     1      77.895  64.061 104.097  1.00  0.00    -0.002 A 
ATOM      7  C   UNL     1      78.896  63.469 104.907  1.00  0.00     0.121 A 
ATOM      8  C   UNL     1      76.527  64.340 104.680  1.00  0.00     0.049 C 
ATOM      9  C   UNL     1      77.236  65.207 101.906  1.00  0.00     0.049 C 
ENDROOT
BRANCH   7  10
ATOM     10  O   UNL     1      78.705  63.256 106.277  1.00  0.00    -0.507 OA
ATOM     11  H   UNL     1      78.303  62.413 106.664  1.00  0.00     0.293 HD
ENDBRANCH   7  10
BRANCH   4  12
ATOM     12  O   UNL     1      79.722  64.116 100.830  1.00  0.00    -0.508 OA
ATOM     13  H   UNL     1      79.671  63.369 100.150  1.00  0.00     0.293 HD
ENDBRANCH   4  12
TORSDOF 2
ENDMDL
MODEL 3
REMARK VINA RESULT:    -5.423      1.663      3.320
REMARK INTER + INTRA:          -5.740
REMARK INTER:                  -5.740
REMARK INTRA:                   0.000
REMARK UNBOUND:                 0.000
REMARK SMILES Cc1cc(O)c(C)c(C)c1O
REMARK SMILES IDX 1 1 2 2 3 3 4 4 6 5 8 6 10 7 9 8 7 9 11 10 5 12
REMARK H PARENT 11 11 5 13
REMARK Flexibility Score: inf
ROOT
ATOM      1  C   UNL     1      75.228  62.358 101.475  1.00  0.00     0.048 C 
ATOM      2  C   UNL     1      76.641  62.518 101.964  1.00  0.00    -0.005 A 
ATOM      3  C   UNL     1      77.027  61.945 103.180  1.00  0.00     0.053 A 
ATOM      4  C   UNL     1      78.321  62.110 103.672  1.00  0.00     0.119 A 
ATOM      5  C   UNL     1      79.263  62.879 102.947  1.00  0.00    -0.003 A 
ATOM      6  C   UNL     1      78.916  63.357 101.651  1.00  0.00    -0.002 A 
ATOM      7  C   UNL     1      77.577  63.233 101.200  1.00  0.00     0.121 A 
ATOM      8  C   UNL     1      79.949  64.008 100.759  1.00  0.00     0.049 C 
ATOM      9  C   UNL     1      80.621  63.162 103.549  1.00  0.00     0.049 C 
ENDROOT
BRANCH   7  10
ATOM     10  O   UNL     1      77.145  63.818 100.005  1.00  0.00    -0.507 OA
ATOM     11  H   UNL     1      77.277  64.795  99.778  1.00  0.00     0.293 HD
ENDBRANCH   7  10
BRANCH   4  12
ATOM     12  O   UNL     1      78.637  61.483 104.880  1.00  0.00    -0.508 OA
ATOM     13  H   UNL     1      78.700  61.971 105.764  1.00  0.00     0.293 HD
ENDBRANCH   4  12
TORSDOF 2
ENDMDL
MODEL 4
REMARK VINA RESULT:    -5.417      1.440      3.393
REMARK INTER + INTRA:          -5.734
REMARK INTER:                  -5.734
REMARK INTRA:                   0.000
REMARK UNBOUND:                 0.000
REMARK SMILES Cc1cc(O)c(C)c(C)c1O
REMARK SMILES IDX 1 1 2 2 3 3 4 4 6 5 8 6 10 7 9 8 7 9 11 10 5 12
REMARK H PARENT 11 11 5 13
REMARK Flexibility Score: inf
ROOT
ATOM      1  C   UNL     1      77.584  60.764 107.019  1.00  0.00     0.048 C 
ATOM      2  C   UNL     1      78.302  61.408 105.865  1.00  0.00    -0.005 A 
ATOM      3  C   UNL     1      79.636  61.801 106.005  1.00  0.00     0.053 A 
ATOM      4  C   UNL     1      80.312  62.433 104.962  1.00  0.00     0.119 A 
ATOM      5  C   UNL     1      79.644  62.699 103.743  1.00  0.00    -0.003 A 
ATOM      6  C   UNL     1      78.328  62.189 103.548  1.00  0.00    -0.002 A 
ATOM      7  C   UNL     1      77.640  61.608 104.643  1.00  0.00     0.121 A 
ATOM      8  C   UNL     1      77.652  62.274 102.197  1.00  0.00     0.049 C 
ATOM      9  C   UNL     1      80.341  63.501 102.666  1.00  0.00     0.049 C 
ENDROOT
BRANCH   7  10
ATOM     10  O   UNL     1      76.295  61.230 104.551  1.00  0.00    -0.507 OA
ATOM     11  H   UNL     1      75.577  61.807 104.135  1.00  0.00     0.293 HD
ENDBRANCH   7  10
BRANCH   4  12
ATOM     12  O   UNL     1      81.652  62.770 105.171  1.00  0.00    -0.508 OA
ATOM     13  H   UNL     1      81.958  63.683 105.482  1.00  0.00     0.293 HD
ENDBRANCH   4  12
TORSDOF 2
ENDMDL
MODEL 5
REMARK VINA RESULT:    -5.322      1.880      4.319
REMARK INTER + INTRA:          -5.633
REMARK INTER:                  -5.633
REMARK INTRA:                   0.000
REMARK UNBOUND:                 0.000
REMARK SMILES Cc1cc(O)c(C)c(C)c1O
REMARK SMILES IDX 1 1 2 2 3 3 4 4 6 5 8 6 10 7 9 8 7 9 11 10 5 12
REMARK H PARENT 11 11 5 13
REMARK Flexibility Score: inf
ROOT
ATOM      1  C   UNL     1      79.350  63.153 106.057  1.00  0.00     0.048 C 
ATOM      2  C   UNL     1      78.766  63.492 104.713  1.00  0.00    -0.005 A 
ATOM      3  C   UNL     1      77.404  63.785 104.599  1.00  0.00     0.053 A 
ATOM      4  C   UNL     1      76.833  64.067 103.358  1.00  0.00     0.119 A 
ATOM      5  C   UNL     1      77.629  64.044 102.188  1.00  0.00    -0.003 A 
ATOM      6  C   UNL     1      79.037  63.872 102.312  1.00  0.00    -0.002 A 
ATOM      7  C   UNL     1      79.586  63.524 103.573  1.00  0.00     0.121 A 
ATOM      8  C   UNL     1      79.950  64.039 101.118  1.00  0.00     0.049 C 
ATOM      9  C   UNL     1      76.977  64.220 100.835  1.00  0.00     0.049 C 
ENDROOT
BRANCH   7  10
ATOM     10  O   UNL     1      80.937  63.193 103.722  1.00  0.00    -0.507 OA
ATOM     11  H   UNL     1      81.358  62.359 103.334  1.00  0.00     0.293 HD
ENDBRANCH   7  10
BRANCH   4  12
ATOM     12  O   UNL     1      75.470  64.378 103.331  1.00  0.00    -0.508 OA
ATOM     13  H   UNL     1      74.963  64.598 102.484  1.00  0.00     0.293 HD
ENDBRANCH   4  12
TORSDOF 2
ENDMDL
MODEL 6
REMARK VINA RESULT:    -5.218      1.192      4.285
REMARK INTER + INTRA:          -5.523
REMARK INTER:                  -5.523
REMARK INTRA:                   0.000
REMARK UNBOUND:                 0.000
REMARK SMILES Cc1cc(O)c(C)c(C)c1O
REMARK SMILES IDX 1 1 2 2 3 3 4 4 6 5 8 6 10 7 9 8 7 9 11 10 5 12
REMARK H PARENT 11 11 5 13
REMARK Flexibility Score: inf
ROOT
ATOM      1  C   UNL     1      76.507  60.828 105.115  1.00  0.00     0.048 C 
ATOM      2  C   UNL     1      77.407  61.670 104.252  1.00  0.00    -0.005 A 
ATOM      3  C   UNL     1      76.875  62.374 103.168  1.00  0.00     0.053 A 
ATOM      4  C   UNL     1      77.695  63.132 102.333  1.00  0.00     0.119 A 
ATOM      5  C   UNL     1      79.090  63.184 102.565  1.00  0.00    -0.003 A 
ATOM      6  C   UNL     1      79.620  62.574 103.738  1.00  0.00    -0.002 A 
ATOM      7  C   UNL     1      78.780  61.757 104.537  1.00  0.00     0.121 A 
ATOM      8  C   UNL     1      81.067  62.773 104.134  1.00  0.00     0.049 C 
ATOM      9  C   UNL     1      79.988  63.899 101.580  1.00  0.00     0.049 C 
ENDROOT
BRANCH   7  10
ATOM     10  O   UNL     1      79.280  61.013 105.610  1.00  0.00    -0.507 OA
ATOM     11  H   UNL     1      78.831  60.959 106.514  1.00  0.00     0.293 HD
ENDBRANCH   7  10
BRANCH   4  12
ATOM     12  O   UNL     1      77.083  63.829 101.287  1.00  0.00    -0.508 OA
ATOM     13  H   UNL     1      76.658  64.740 101.395  1.00  0.00     0.293 HD
ENDBRANCH   4  12
TORSDOF 2
ENDMDL
MODEL 7
REMARK VINA RESULT:    -5.194      1.940      2.979
REMARK INTER + INTRA:          -5.498
REMARK INTER:                  -5.498
REMARK INTRA:                   0.000
REMARK UNBOUND:                 0.000
REMARK SMILES Cc1cc(O)c(C)c(C)c1O
REMARK SMILES IDX 1 1 2 2 3 3 4 4 6 5 8 6 10 7 9 8 7 9 11 10 5 12
REMARK H PARENT 11 11 5 13
REMARK Flexibility Score: inf
ROOT
ATOM      1  C   UNL     1      81.108  62.508 104.762  1.00  0.00     0.048 C 
ATOM      2  C   UNL     1      79.652  62.164 104.912  1.00  0.00    -0.005 A 
ATOM      3  C   UNL     1      79.165  61.713 106.142  1.00  0.00     0.053 A 
ATOM      4  C   UNL     1      77.826  61.354 106.296  1.00  0.00     0.119 A 
ATOM      5  C   UNL     1      76.941  61.428 105.194  1.00  0.00    -0.003 A 
ATOM      6  C   UNL     1      77.398  62.005 103.975  1.00  0.00    -0.002 A 
ATOM      7  C   UNL     1      78.777  62.303 103.822  1.00  0.00     0.121 A 
ATOM      8  C   UNL     1      76.440  62.289 102.840  1.00  0.00     0.049 C 
ATOM      9  C   UNL     1      75.525  60.913 105.334  1.00  0.00     0.049 C 
ENDROOT
BRANCH   7  10
ATOM     10  O   UNL     1      79.308  62.726 102.599  1.00  0.00    -0.507 OA
ATOM     11  H   UNL     1      79.167  63.651 102.215  1.00  0.00     0.293 HD
ENDBRANCH   7  10
BRANCH   4  12
ATOM     12  O   UNL     1      77.410  60.939 107.564  1.00  0.00    -0.508 OA
ATOM     13  H   UNL     1      78.032  60.856 108.358  1.00  0.00     0.293 HD
ENDBRANCH   4  12
TORSDOF 2
ENDMDL
MODEL 8
REMARK VINA RESULT:    -5.193      2.305      3.678
REMARK INTER + INTRA:          -5.496
REMARK INTER:                  -5.496
REMARK INTRA:                   0.000
REMARK UNBOUND:                 0.000
REMARK SMILES Cc1cc(O)c(C)c(C)c1O
REMARK SMILES IDX 1 1 2 2 3 3 4 4 6 5 8 6 10 7 9 8 7 9 11 10 5 12
REMARK H PARENT 11 11 5 13
REMARK Flexibility Score: inf
ROOT
ATOM      1  C   UNL     1      78.128  63.512 107.540  1.00  0.00     0.048 C 
ATOM      2  C   UNL     1      78.546  63.523 106.095  1.00  0.00    -0.005 A 
ATOM      3  C   UNL     1      79.642  62.761 105.679  1.00  0.00     0.053 A 
ATOM      4  C   UNL     1      80.069  62.784 104.352  1.00  0.00     0.119 A 
ATOM      5  C   UNL     1      79.403  63.597 103.406  1.00  0.00    -0.003 A 
ATOM      6  C   UNL     1      78.212  64.276 103.792  1.00  0.00    -0.002 A 
ATOM      7  C   UNL     1      77.833  64.290 105.159  1.00  0.00     0.121 A 
ATOM      8  C   UNL     1      77.357  64.993 102.771  1.00  0.00     0.049 C 
ATOM      9  C   UNL     1      79.953  63.718 102.002  1.00  0.00     0.049 C 
ENDROOT
BRANCH   7  10
ATOM     10  O   UNL     1      76.762  65.065 105.619  1.00  0.00    -0.507 OA
ATOM     11  H   UNL     1      76.428  65.896 105.150  1.00  0.00     0.293 HD
ENDBRANCH   7  10
BRANCH   4  12
ATOM     12  O   UNL     1      81.155  61.973 104.010  1.00  0.00    -0.508 OA
ATOM     13  H   UNL     1      81.514  61.885 103.069  1.00  0.00     0.293 HD
ENDBRANCH   4  12
TORSDOF 2
ENDMDL
MODEL 9
REMARK VINA RESULT:    -5.146      2.279      3.375
REMARK INTER + INTRA:          -5.446
REMARK INTER:                  -5.446
REMARK INTRA:                   0.000
REMARK UNBOUND:                 0.000
REMARK SMILES Cc1cc(O)c(C)c(C)c1O
REMARK SMILES IDX 1 1 2 2 3 3 4 4 6 5 8 6 10 7 9 8 7 9 11 10 5 12
REMARK H PARENT 11 11 5 13
REMARK Flexibility Score: inf
ROOT
ATOM      1  C   UNL     1      79.996  63.902 100.973  1.00  0.00     0.048 C 
ATOM      2  C   UNL     1      79.198  64.084 102.234  1.00  0.00    -0.005 A 
ATOM      3  C   UNL     1      78.060  64.896 102.227  1.00  0.00     0.053 A 
ATOM      4  C   UNL     1      77.323  65.110 103.392  1.00  0.00     0.119 A 
ATOM      5  C   UNL     1      77.733  64.514 104.609  1.00  0.00    -0.003 A 
ATOM      6  C   UNL     1      78.814  63.588 104.597  1.00  0.00    -0.002 A 
ATOM      7  C   UNL     1      79.586  63.436 103.417  1.00  0.00     0.121 A 
ATOM      8  C   UNL     1      79.159  62.778 105.827  1.00  0.00     0.049 C 
ATOM      9  C   UNL     1      77.007  64.856 105.891  1.00  0.00     0.049 C 
ENDROOT
BRANCH   7  10
ATOM     10  O   UNL     1      80.749  62.658 103.393  1.00  0.00    -0.507 OA
ATOM     11  H   UNL     1      80.756  61.664 103.205  1.00  0.00     0.293 HD
ENDBRANCH   7  10
BRANCH   4  12
ATOM     12  O   UNL     1      76.182  65.912 103.297  1.00  0.00    -0.508 OA
ATOM     13  H   UNL     1      75.809  66.253 102.421  1.00  0.00     0.293 HD
ENDBRANCH   4  12
TORSDOF 2
ENDMDL
