MODEL 1
REMARK VINA RESULT:    -4.196      0.000      0.000
REMARK INTER + INTRA:          -4.963
REMARK INTER:                  -4.932
REMARK INTRA:                  -0.031
REMARK UNBOUND:                -0.031
REMARK SMILES O=C([O-])CCC(=O)[O-]
REMARK SMILES IDX 4 1 2 2 1 3 3 4 5 5 6 6 7 7 8 8
REMARK H PARENT
REMARK Flexibility Score: inf
ROOT
ATOM      1  C   UNL     1      19.249 -26.826   1.670  1.00  0.00     0.059 C 
ENDROOT
BRANCH   1   2
ATOM      2  C   UNL     1      20.644 -26.798   2.215  1.00  0.00     0.042 C 
ATOM      3  O   UNL     1      21.448 -25.897   1.856  1.00  0.00    -0.550 OA
ATOM      4  O   UNL     1      21.070 -27.791   3.089  1.00  0.00    -0.550 OA
ENDBRANCH   1   2
BRANCH   1   5
ATOM      5  C   UNL     1      19.162 -26.137   0.304  1.00  0.00     0.059 C 
BRANCH   5   6
ATOM      6  C   UNL     1      17.794 -26.262  -0.293  1.00  0.00     0.042 C 
ATOM      7  O   UNL     1      17.547 -27.176  -1.124  1.00  0.00    -0.550 OA
ATOM      8  O   UNL     1      16.803 -25.347   0.037  1.00  0.00    -0.550 OA
ENDBRANCH   5   6
ENDBRANCH   1   5
TORSDOF 3
ENDMDL
MODEL 2
REMARK VINA RESULT:    -4.178      0.243      4.372
REMARK INTER + INTRA:          -4.942
REMARK INTER:                  -4.910
REMARK INTRA:                  -0.032
REMARK UNBOUND:                -0.031
REMARK SMILES O=C([O-])CCC(=O)[O-]
REMARK SMILES IDX 4 1 2 2 1 3 3 4 5 5 6 6 7 7 8 8
REMARK H PARENT
REMARK Flexibility Score: inf
ROOT
ATOM      1  C   UNL     1      18.996 -26.194   0.236  1.00  0.00     0.059 C 
ENDROOT
BRANCH   1   2
ATOM      2  C   UNL     1      17.599 -26.155  -0.304  1.00  0.00     0.042 C 
ATOM      3  O   UNL     1      17.212 -27.029  -1.125  1.00  0.00    -0.550 OA
ATOM      4  O   UNL     1      16.737 -25.131   0.068  1.00  0.00    -0.550 OA
ENDBRANCH   1   2
BRANCH   1   5
ATOM      5  C   UNL     1      19.050 -26.855   1.617  1.00  0.00     0.059 C 
BRANCH   5   6
ATOM      6  C   UNL     1      20.424 -26.790   2.208  1.00  0.00     0.042 C 
ATOM      7  O   UNL     1      21.228 -25.890   1.844  1.00  0.00    -0.550 OA
ATOM      8  O   UNL     1      20.833 -27.745   3.129  1.00  0.00    -0.550 OA
ENDBRANCH   5   6
ENDBRANCH   1   5
TORSDOF 3
ENDMDL
MODEL 3
REMARK VINA RESULT:    -3.989      2.152      3.169
REMARK INTER + INTRA:          -4.719
REMARK INTER:                  -4.595
REMARK INTRA:                  -0.124
REMARK UNBOUND:                -0.031
REMARK SMILES O=C([O-])CCC(=O)[O-]
REMARK SMILES IDX 4 1 2 2 1 3 3 4 5 5 6 6 7 7 8 8
REMARK H PARENT
REMARK Flexibility Score: inf
ROOT
ATOM      1  C   UNL     1      21.505 -27.674   3.265  1.00  0.00     0.059 C 
ENDROOT
BRANCH   1   2
ATOM      2  C   UNL     1      21.692 -29.084   2.792  1.00  0.00     0.042 C 
ATOM      3  O   UNL     1      20.735 -29.901   2.839  1.00  0.00    -0.550 OA
ATOM      4  O   UNL     1      22.935 -29.506   2.336  1.00  0.00    -0.550 OA
ENDBRANCH   1   2
BRANCH   1   5
ATOM      5  C   UNL     1      21.179 -26.728   2.105  1.00  0.00     0.059 C 
BRANCH   5   6
ATOM      6  C   UNL     1      19.703 -26.626   1.873  1.00  0.00     0.042 C 
ATOM      7  O   UNL     1      18.898 -26.816   2.823  1.00  0.00    -0.550 OA
ATOM      8  O   UNL     1      19.215 -26.362   0.600  1.00  0.00    -0.550 OA
ENDBRANCH   5   6
ENDBRANCH   1   5
TORSDOF 3
ENDMDL
MODEL 4
REMARK VINA RESULT:    -3.922      2.068      4.561
REMARK INTER + INTRA:          -4.640
REMARK INTER:                  -4.519
REMARK INTRA:                  -0.121
REMARK UNBOUND:                -0.031
REMARK SMILES O=C([O-])CCC(=O)[O-]
REMARK SMILES IDX 4 1 2 2 1 3 3 4 5 5 6 6 7 7 8 8
REMARK H PARENT
REMARK Flexibility Score: inf
ROOT
ATOM      1  C   UNL     1      20.993 -26.720   2.015  1.00  0.00     0.059 C 
ENDROOT
BRANCH   1   2
ATOM      2  C   UNL     1      19.520 -26.646   1.754  1.00  0.00     0.042 C 
ATOM      3  O   UNL     1      18.699 -26.968   2.653  1.00  0.00    -0.550 OA
ATOM      4  O   UNL     1      19.053 -26.260   0.503  1.00  0.00    -0.550 OA
ENDBRANCH   1   2
BRANCH   1   5
ATOM      5  C   UNL     1      21.309 -27.599   3.230  1.00  0.00     0.059 C 
BRANCH   5   6
ATOM      6  C   UNL     1      21.599 -29.012   2.829  1.00  0.00     0.042 C 
ATOM      7  O   UNL     1      20.696 -29.888   2.899  1.00  0.00    -0.550 OA
ATOM      8  O   UNL     1      22.876 -29.372   2.418  1.00  0.00    -0.550 OA
ENDBRANCH   5   6
ENDBRANCH   1   5
TORSDOF 3
ENDMDL
MODEL 5
REMARK VINA RESULT:    -3.365      6.904      8.108
REMARK INTER + INTRA:          -3.986
REMARK INTER:                  -3.845
REMARK INTRA:                  -0.141
REMARK UNBOUND:                -0.031
REMARK SMILES O=C([O-])CCC(=O)[O-]
REMARK SMILES IDX 4 1 2 2 1 3 3 4 5 5 6 6 7 7 8 8
REMARK H PARENT
REMARK Flexibility Score: inf
ROOT
ATOM      1  C   UNL     1      25.222 -21.666   2.611  1.00  0.00     0.059 C 
ENDROOT
BRANCH   1   2
ATOM      2  C   UNL     1      25.806 -20.309   2.858  1.00  0.00     0.042 C 
ATOM      3  O   UNL     1      25.768 -19.802   4.010  1.00  0.00    -0.550 OA
ATOM      4  O   UNL     1      26.357 -19.586   1.807  1.00  0.00    -0.550 OA
ENDBRANCH   1   2
BRANCH   1   5
ATOM      5  C   UNL     1      24.651 -21.786   1.194  1.00  0.00     0.059 C 
BRANCH   5   6
ATOM      6  C   UNL     1      23.292 -21.165   1.091  1.00  0.00     0.042 C 
ATOM      7  O   UNL     1      22.283 -21.775   1.535  1.00  0.00    -0.550 OA
ATOM      8  O   UNL     1      23.134 -19.934   0.469  1.00  0.00    -0.550 OA
ENDBRANCH   5   6
ENDBRANCH   1   5
TORSDOF 3
ENDMDL
MODEL 6
REMARK VINA RESULT:    -3.346      6.941      8.923
REMARK INTER + INTRA:          -3.963
REMARK INTER:                  -3.824
REMARK INTRA:                  -0.140
REMARK UNBOUND:                -0.031
REMARK SMILES O=C([O-])CCC(=O)[O-]
REMARK SMILES IDX 4 1 2 2 1 3 3 4 5 5 6 6 7 7 8 8
REMARK H PARENT
REMARK Flexibility Score: inf
ROOT
ATOM      1  C   UNL     1      24.666 -21.736   1.127  1.00  0.00     0.059 C 
ENDROOT
BRANCH   1   2
ATOM      2  C   UNL     1      23.312 -21.106   1.009  1.00  0.00     0.042 C 
ATOM      3  O   UNL     1      22.299 -21.687   1.479  1.00  0.00    -0.550 OA
ATOM      4  O   UNL     1      23.163 -19.896   0.343  1.00  0.00    -0.550 OA
ENDBRANCH   1   2
BRANCH   1   5
ATOM      5  C   UNL     1      25.211 -21.641   2.556  1.00  0.00     0.059 C 
BRANCH   5   6
ATOM      6  C   UNL     1      25.806 -20.295   2.833  1.00  0.00     0.042 C 
ATOM      7  O   UNL     1      25.770 -19.813   3.997  1.00  0.00    -0.550 OA
ATOM      8  O   UNL     1      26.363 -19.554   1.799  1.00  0.00    -0.550 OA
ENDBRANCH   5   6
ENDBRANCH   1   5
TORSDOF 3
ENDMDL
MODEL 7
REMARK VINA RESULT:    -3.322      6.912      8.852
REMARK INTER + INTRA:          -3.935
REMARK INTER:                  -3.801
REMARK INTRA:                  -0.134
REMARK UNBOUND:                -0.031
REMARK SMILES O=C([O-])CCC(=O)[O-]
REMARK SMILES IDX 4 1 2 2 1 3 3 4 5 5 6 6 7 7 8 8
REMARK H PARENT
REMARK Flexibility Score: inf
ROOT
ATOM      1  C   UNL     1      24.616 -21.725   1.059  1.00  0.00     0.059 C 
ENDROOT
BRANCH   1   2
ATOM      2  C   UNL     1      23.239 -21.136   1.018  1.00  0.00     0.042 C 
ATOM      3  O   UNL     1      22.267 -21.758   1.521  1.00  0.00    -0.550 OA
ATOM      4  O   UNL     1      23.023 -19.916   0.387  1.00  0.00    -0.550 OA
ENDBRANCH   1   2
BRANCH   1   5
ATOM      5  C   UNL     1      25.223 -21.642   2.464  1.00  0.00     0.059 C 
BRANCH   5   6
ATOM      6  C   UNL     1      25.782 -20.281   2.745  1.00  0.00     0.042 C 
ATOM      7  O   UNL     1      26.303 -19.606   1.817  1.00  0.00    -0.550 OA
ATOM      8  O   UNL     1      25.765 -19.775   4.038  1.00  0.00    -0.550 OA
ENDBRANCH   5   6
ENDBRANCH   1   5
TORSDOF 3
ENDMDL
MODEL 8
REMARK VINA RESULT:    -3.315      6.879      8.024
REMARK INTER + INTRA:          -3.927
REMARK INTER:                  -3.795
REMARK INTRA:                  -0.132
REMARK UNBOUND:                -0.031
REMARK SMILES O=C([O-])CCC(=O)[O-]
REMARK SMILES IDX 4 1 2 2 1 3 3 4 5 5 6 6 7 7 8 8
REMARK H PARENT
REMARK Flexibility Score: inf
ROOT
ATOM      1  C   UNL     1      25.264 -21.686   2.495  1.00  0.00     0.059 C 
ENDROOT
BRANCH   1   2
ATOM      2  C   UNL     1      25.788 -20.306   2.753  1.00  0.00     0.042 C 
ATOM      3  O   UNL     1      26.282 -19.629   1.814  1.00  0.00    -0.550 OA
ATOM      4  O   UNL     1      25.767 -19.783   4.041  1.00  0.00    -0.550 OA
ENDBRANCH   1   2
BRANCH   1   5
ATOM      5  C   UNL     1      24.642 -21.802   1.100  1.00  0.00     0.059 C 
BRANCH   5   6
ATOM      6  C   UNL     1      23.269 -21.207   1.055  1.00  0.00     0.042 C 
ATOM      7  O   UNL     1      22.290 -21.834   1.542  1.00  0.00    -0.550 OA
ATOM      8  O   UNL     1      23.061 -19.979   0.441  1.00  0.00    -0.550 OA
ENDBRANCH   5   6
ENDBRANCH   1   5
TORSDOF 3
ENDMDL
MODEL 9
REMARK VINA RESULT:    -3.244      6.309      8.208
REMARK INTER + INTRA:          -3.843
REMARK INTER:                  -3.734
REMARK INTRA:                  -0.110
REMARK UNBOUND:                -0.031
REMARK SMILES O=C([O-])CCC(=O)[O-]
REMARK SMILES IDX 4 1 2 2 1 3 3 4 5 5 6 6 7 7 8 8
REMARK H PARENT
REMARK Flexibility Score: inf
ROOT
ATOM      1  C   UNL     1      24.674 -22.140   0.998  1.00  0.00     0.059 C 
ENDROOT
BRANCH   1   2
ATOM      2  C   UNL     1      23.199 -22.405   1.032  1.00  0.00     0.042 C 
ATOM      3  O   UNL     1      22.400 -21.498   1.383  1.00  0.00    -0.550 OA
ATOM      4  O   UNL     1      22.711 -23.667   0.715  1.00  0.00    -0.550 OA
ENDBRANCH   1   2
BRANCH   1   5
ATOM      5  C   UNL     1      25.235 -21.889   2.401  1.00  0.00     0.059 C 
BRANCH   5   6
ATOM      6  C   UNL     1      25.501 -20.434   2.637  1.00  0.00     0.042 C 
ATOM      7  O   UNL     1      25.472 -19.620   1.675  1.00  0.00    -0.550 OA
ATOM      8  O   UNL     1      25.819 -19.981   3.911  1.00  0.00    -0.550 OA
ENDBRANCH   5   6
ENDBRANCH   1   5
TORSDOF 3
ENDMDL
