MODEL 1
REMARK VINA RESULT:    -6.925      0.000      0.000
REMARK INTER + INTRA:          -8.624
REMARK INTER:                  -8.342
REMARK INTRA:                  -0.282
REMARK UNBOUND:                -0.282
REMARK SMILES O=c1c(O)c(-c2ccc(O)c(O)c2)oc2cc(O)cc(O)c12
REMARK SMILES IDX 5 1 3 2 2 3 1 4 22 5 20 6 19 7 17 8 16 9 15 10 14 11 6 12
REMARK SMILES IDX 7 13 8 14 9 15 13 16 11 17 10 18 12 20 4 22 21 24 18 26
REMARK H PARENT 10 19 12 21 4 23 21 25 18 27
REMARK Flexibility Score: inf
ROOT
ATOM      1  C   UNL     1     107.123 121.212 120.402  1.00  0.00     0.180 A 
ATOM      2  C   UNL     1     106.073 120.601 121.110  1.00  0.00     0.208 A 
ATOM      3  C   UNL     1     104.763 121.073 120.928  1.00  0.00     0.238 A 
ATOM      4  O   UNL     1     103.836 120.557 121.605  1.00  0.00    -0.285 OA
ATOM      5  C   UNL     1     104.517 122.139 120.030  1.00  0.00     0.111 A 
ATOM      6  C   UNL     1     103.224 122.670 119.738  1.00  0.00     0.134 A 
ATOM      7  C   UNL     1     103.112 123.810 118.933  1.00  0.00     0.093 A 
ATOM      8  C   UNL     1     104.241 124.399 118.357  1.00  0.00     0.123 A 
ATOM      9  C   UNL     1     105.500 123.851 118.587  1.00  0.00     0.094 A 
ATOM     10  C   UNL     1     105.648 122.737 119.415  1.00  0.00     0.146 A 
ATOM     11  O   UNL     1     106.868 122.253 119.616  1.00  0.00    -0.452 OA
ENDROOT
BRANCH   1  12
ATOM     12  C   UNL     1     108.526 120.755 120.521  1.00  0.00     0.025 A 
ATOM     13  C   UNL     1     109.311 121.092 121.638  1.00  0.00     0.016 A 
ATOM     14  C   UNL     1     110.626 120.629 121.743  1.00  0.00     0.051 A 
ATOM     15  C   UNL     1     111.169 119.815 120.741  1.00  0.00     0.157 A 
ATOM     16  C   UNL     1     109.069 119.922 119.531  1.00  0.00     0.062 A 
ATOM     17  C   UNL     1     110.389 119.457 119.634  1.00  0.00     0.158 A 
BRANCH  15  18
ATOM     18  O   UNL     1     112.480 119.352 120.840  1.00  0.00    -0.504 OA
ATOM     19  H   UNL     1     113.135 119.446 120.071  1.00  0.00     0.293 HD
ENDBRANCH  15  18
BRANCH  17  20
ATOM     20  O   UNL     1     110.929 118.642 118.642  1.00  0.00    -0.504 OA
ATOM     21  H   UNL     1     111.554 119.010 117.934  1.00  0.00     0.293 HD
ENDBRANCH  17  20
ENDBRANCH   1  12
BRANCH   2  22
ATOM     22  O   UNL     1     106.341 119.565 122.008  1.00  0.00    -0.502 OA
ATOM     23  H   UNL     1     105.639 119.192 122.635  1.00  0.00     0.293 HD
ENDBRANCH   2  22
BRANCH   6  24
ATOM     24  O   UNL     1     102.028 122.104 120.187  1.00  0.00    -0.507 OA
ATOM     25  H   UNL     1     101.134 122.573 120.188  1.00  0.00     0.293 HD
ENDBRANCH   6  24
BRANCH   8  26
ATOM     26  O   UNL     1     104.119 125.524 117.544  1.00  0.00    -0.508 OA
ATOM     27  H   UNL     1     103.252 125.741 117.065  1.00  0.00     0.293 HD
ENDBRANCH   8  26
TORSDOF 6
ENDMDL
MODEL 2
REMARK VINA RESULT:    -6.700      1.230      3.024
REMARK INTER + INTRA:          -8.352
REMARK INTER:                  -8.021
REMARK INTRA:                  -0.331
REMARK UNBOUND:                -0.282
REMARK SMILES O=c1c(O)c(-c2ccc(O)c(O)c2)oc2cc(O)cc(O)c12
REMARK SMILES IDX 5 1 3 2 2 3 1 4 22 5 20 6 19 7 17 8 16 9 15 10 14 11 6 12
REMARK SMILES IDX 7 13 8 14 9 15 13 16 11 17 10 18 12 20 4 22 21 24 18 26
REMARK H PARENT 10 19 12 21 4 23 21 25 18 27
REMARK Flexibility Score: inf
ROOT
ATOM      1  C   UNL     1     107.768 122.156 119.316  1.00  0.00     0.180 A 
ATOM      2  C   UNL     1     107.869 123.264 118.457  1.00  0.00     0.208 A 
ATOM      3  C   UNL     1     106.704 123.967 118.112  1.00  0.00     0.238 A 
ATOM      4  O   UNL     1     106.794 124.925 117.301  1.00  0.00    -0.285 OA
ATOM      5  C   UNL     1     105.455 123.564 118.643  1.00  0.00     0.111 A 
ATOM      6  C   UNL     1     104.216 124.228 118.394  1.00  0.00     0.134 A 
ATOM      7  C   UNL     1     103.024 123.665 118.865  1.00  0.00     0.093 A 
ATOM      8  C   UNL     1     103.033 122.497 119.632  1.00  0.00     0.123 A 
ATOM      9  C   UNL     1     104.242 121.875 119.931  1.00  0.00     0.094 A 
ATOM     10  C   UNL     1     105.445 122.393 119.444  1.00  0.00     0.146 A 
ATOM     11  O   UNL     1     106.574 121.763 119.745  1.00  0.00    -0.452 OA
ENDROOT
BRANCH   1  12
ATOM     12  C   UNL     1     108.954 121.380 119.744  1.00  0.00     0.025 A 
ATOM     13  C   UNL     1     109.679 121.729 120.897  1.00  0.00     0.016 A 
ATOM     14  C   UNL     1     110.781 120.968 121.297  1.00  0.00     0.051 A 
ATOM     15  C   UNL     1     111.165 119.841 120.558  1.00  0.00     0.157 A 
ATOM     16  C   UNL     1     109.331 120.238 119.020  1.00  0.00     0.062 A 
ATOM     17  C   UNL     1     110.438 119.473 119.420  1.00  0.00     0.158 A 
BRANCH  15  18
ATOM     18  O   UNL     1     112.264 119.080 120.952  1.00  0.00    -0.504 OA
ATOM     19  H   UNL     1     112.796 118.531 120.285  1.00  0.00     0.293 HD
ENDBRANCH  15  18
BRANCH  17  20
ATOM     20  O   UNL     1     110.817 118.347 118.691  1.00  0.00    -0.504 OA
ATOM     21  H   UNL     1     111.071 117.480 119.149  1.00  0.00     0.293 HD
ENDBRANCH  17  20
ENDBRANCH   1  12
BRANCH   2  22
ATOM     22  O   UNL     1     109.109 123.632 117.927  1.00  0.00    -0.502 OA
ATOM     23  H   UNL     1     109.936 123.741 118.502  1.00  0.00     0.293 HD
ENDBRANCH   2  22
BRANCH   6  24
ATOM     24  O   UNL     1     104.105 125.447 117.718  1.00  0.00    -0.507 OA
ATOM     25  H   UNL     1     104.781 125.801 117.058  1.00  0.00     0.293 HD
ENDBRANCH   6  24
BRANCH   8  26
ATOM     26  O   UNL     1     101.843 121.951 120.110  1.00  0.00    -0.508 OA
ATOM     27  H   UNL     1     101.229 122.475 120.723  1.00  0.00     0.293 HD
ENDBRANCH   8  26
TORSDOF 6
ENDMDL
MODEL 3
REMARK VINA RESULT:    -6.171      1.558      6.472
REMARK INTER + INTRA:          -7.715
REMARK INTER:                  -7.413
REMARK INTRA:                  -0.302
REMARK UNBOUND:                -0.282
REMARK SMILES O=c1c(O)c(-c2ccc(O)c(O)c2)oc2cc(O)cc(O)c12
REMARK SMILES IDX 5 1 3 2 2 3 1 4 22 5 20 6 19 7 17 8 16 9 15 10 14 11 6 12
REMARK SMILES IDX 7 13 8 14 9 15 13 16 11 17 10 18 12 20 4 22 21 24 18 26
REMARK H PARENT 10 19 12 21 4 23 21 25 18 27
REMARK Flexibility Score: inf
ROOT
ATOM      1  C   UNL     1     106.121 121.692 120.035  1.00  0.00     0.180 A 
ATOM      2  C   UNL     1     105.602 120.785 120.975  1.00  0.00     0.208 A 
ATOM      3  C   UNL     1     106.489 120.091 121.814  1.00  0.00     0.238 A 
ATOM      4  O   UNL     1     106.022 119.241 122.616  1.00  0.00    -0.285 OA
ATOM      5  C   UNL     1     107.882 120.323 121.712  1.00  0.00     0.111 A 
ATOM      6  C   UNL     1     108.869 119.705 122.539  1.00  0.00     0.134 A 
ATOM      7  C   UNL     1     110.226 119.910 122.263  1.00  0.00     0.093 A 
ATOM      8  C   UNL     1     110.632 120.762 121.232  1.00  0.00     0.123 A 
ATOM      9  C   UNL     1     109.676 121.416 120.460  1.00  0.00     0.094 A 
ATOM     10  C   UNL     1     108.314 121.203 120.686  1.00  0.00     0.146 A 
ATOM     11  O   UNL     1     107.437 121.839 119.920  1.00  0.00    -0.452 OA
ENDROOT
BRANCH   1  12
ATOM     12  C   UNL     1     105.249 122.480 119.134  1.00  0.00     0.025 A 
ATOM     13  C   UNL     1     104.935 123.822 119.410  1.00  0.00     0.016 A 
ATOM     14  C   UNL     1     104.129 124.554 118.533  1.00  0.00     0.051 A 
ATOM     15  C   UNL     1     103.639 123.959 117.363  1.00  0.00     0.157 A 
ATOM     16  C   UNL     1     104.772 121.895 117.950  1.00  0.00     0.062 A 
ATOM     17  C   UNL     1     103.963 122.629 117.069  1.00  0.00     0.158 A 
BRANCH  15  18
ATOM     18  O   UNL     1     102.834 124.684 116.486  1.00  0.00    -0.504 OA
ATOM     19  H   UNL     1     102.044 125.226 116.817  1.00  0.00     0.293 HD
ENDBRANCH  15  18
BRANCH  17  20
ATOM     20  O   UNL     1     103.479 122.042 115.901  1.00  0.00    -0.504 OA
ATOM     21  H   UNL     1     103.804 121.134 115.590  1.00  0.00     0.293 HD
ENDBRANCH  17  20
ENDBRANCH   1  12
BRANCH   2  22
ATOM     22  O   UNL     1     104.226 120.555 121.044  1.00  0.00    -0.502 OA
ATOM     23  H   UNL     1     103.688 120.715 121.887  1.00  0.00     0.293 HD
ENDBRANCH   2  22
BRANCH   6  24
ATOM     24  O   UNL     1     108.570 118.911 123.649  1.00  0.00    -0.507 OA
ATOM     25  H   UNL     1     109.258 118.463 124.237  1.00  0.00     0.293 HD
ENDBRANCH   6  24
BRANCH   8  26
ATOM     26  O   UNL     1     111.985 120.972 120.975  1.00  0.00    -0.508 OA
ATOM     27  H   UNL     1     112.688 120.299 121.258  1.00  0.00     0.293 HD
ENDBRANCH   8  26
TORSDOF 6
ENDMDL
MODEL 4
REMARK VINA RESULT:    -6.159      2.060      4.084
REMARK INTER + INTRA:          -7.700
REMARK INTER:                  -7.375
REMARK INTRA:                  -0.325
REMARK UNBOUND:                -0.282
REMARK SMILES O=c1c(O)c(-c2ccc(O)c(O)c2)oc2cc(O)cc(O)c12
REMARK SMILES IDX 5 1 3 2 2 3 1 4 22 5 20 6 19 7 17 8 16 9 15 10 14 11 6 12
REMARK SMILES IDX 7 13 8 14 9 15 13 16 11 17 10 18 12 20 4 22 21 24 18 26
REMARK H PARENT 10 19 12 21 4 23 21 25 18 27
REMARK Flexibility Score: inf
ROOT
ATOM      1  C   UNL     1     107.157 120.273 121.334  1.00  0.00     0.180 A 
ATOM      2  C   UNL     1     106.290 121.135 120.639  1.00  0.00     0.208 A 
ATOM      3  C   UNL     1     104.905 120.994 120.814  1.00  0.00     0.238 A 
ATOM      4  O   UNL     1     104.133 121.733 120.148  1.00  0.00    -0.285 OA
ATOM      5  C   UNL     1     104.402 120.004 121.693  1.00  0.00     0.111 A 
ATOM      6  C   UNL     1     103.018 119.799 121.977  1.00  0.00     0.134 A 
ATOM      7  C   UNL     1     102.629 118.707 122.761  1.00  0.00     0.093 A 
ATOM      8  C   UNL     1     103.578 117.850 123.324  1.00  0.00     0.123 A 
ATOM      9  C   UNL     1     104.933 118.077 123.103  1.00  0.00     0.094 A 
ATOM     10  C   UNL     1     105.351 119.137 122.295  1.00  0.00     0.146 A 
ATOM     11  O   UNL     1     106.653 119.312 122.100  1.00  0.00    -0.452 OA
ENDROOT
BRANCH   1  12
ATOM     12  C   UNL     1     108.630 120.376 121.221  1.00  0.00     0.025 A 
ATOM     13  C   UNL     1     109.381 121.137 122.133  1.00  0.00     0.016 A 
ATOM     14  C   UNL     1     110.773 121.201 122.022  1.00  0.00     0.051 A 
ATOM     15  C   UNL     1     111.433 120.494 121.007  1.00  0.00     0.157 A 
ATOM     16  C   UNL     1     109.298 119.654 120.219  1.00  0.00     0.062 A 
ATOM     17  C   UNL     1     110.695 119.717 120.106  1.00  0.00     0.158 A 
BRANCH  15  18
ATOM     18  O   UNL     1     112.820 120.556 120.892  1.00  0.00    -0.504 OA
ATOM     19  H   UNL     1     113.336 121.394 121.135  1.00  0.00     0.293 HD
ENDBRANCH  15  18
BRANCH  17  20
ATOM     20  O   UNL     1     111.354 119.010 119.103  1.00  0.00    -0.504 OA
ATOM     21  H   UNL     1     112.167 118.439 119.303  1.00  0.00     0.293 HD
ENDBRANCH  17  20
ENDBRANCH   1  12
BRANCH   2  22
ATOM     22  O   UNL     1     106.806 122.090 119.760  1.00  0.00    -0.502 OA
ATOM     23  H   UNL     1     106.306 122.398 118.934  1.00  0.00     0.293 HD
ENDBRANCH   2  22
BRANCH   6  24
ATOM     24  O   UNL     1     101.998 120.648 121.540  1.00  0.00    -0.507 OA
ATOM     25  H   UNL     1     101.669 120.709 120.588  1.00  0.00     0.293 HD
ENDBRANCH   6  24
BRANCH   8  26
ATOM     26  O   UNL     1     103.182 116.773 124.116  1.00  0.00    -0.508 OA
ATOM     27  H   UNL     1     103.829 116.310 124.743  1.00  0.00     0.293 HD
ENDBRANCH   8  26
TORSDOF 6
ENDMDL
MODEL 5
REMARK VINA RESULT:    -5.979     10.170     11.697
REMARK INTER + INTRA:          -7.484
REMARK INTER:                  -7.188
REMARK INTRA:                  -0.296
REMARK UNBOUND:                -0.282
REMARK SMILES O=c1c(O)c(-c2ccc(O)c(O)c2)oc2cc(O)cc(O)c12
REMARK SMILES IDX 5 1 3 2 2 3 1 4 22 5 20 6 19 7 17 8 16 9 15 10 14 11 6 12
REMARK SMILES IDX 7 13 8 14 9 15 13 16 11 17 10 18 12 20 4 22 21 24 18 26
REMARK H PARENT 10 19 12 21 4 23 21 25 18 27
REMARK Flexibility Score: inf
ROOT
ATOM      1  C   UNL     1     101.913 115.439 113.361  1.00  0.00     0.180 A 
ATOM      2  C   UNL     1     101.000 114.830 112.484  1.00  0.00     0.208 A 
ATOM      3  C   UNL     1     100.532 113.539 112.775  1.00  0.00     0.238 A 
ATOM      4  O   UNL     1      99.756 112.979 111.958  1.00  0.00    -0.285 OA
ATOM      5  C   UNL     1     100.971 112.878 113.947  1.00  0.00     0.111 A 
ATOM      6  C   UNL     1     100.532 111.584 114.362  1.00  0.00     0.134 A 
ATOM      7  C   UNL     1     101.132 110.974 115.469  1.00  0.00     0.093 A 
ATOM      8  C   UNL     1     102.110 111.637 116.216  1.00  0.00     0.123 A 
ATOM      9  C   UNL     1     102.501 112.923 115.855  1.00  0.00     0.094 A 
ATOM     10  C   UNL     1     101.948 113.544 114.733  1.00  0.00     0.146 A 
ATOM     11  O   UNL     1     102.357 114.767 114.418  1.00  0.00    -0.452 OA
ENDROOT
BRANCH   1  12
ATOM     12  C   UNL     1     102.433 116.807 113.135  1.00  0.00     0.025 A 
ATOM     13  C   UNL     1     101.656 117.941 113.430  1.00  0.00     0.016 A 
ATOM     14  C   UNL     1     102.174 119.224 113.232  1.00  0.00     0.051 A 
ATOM     15  C   UNL     1     103.479 119.390 112.750  1.00  0.00     0.157 A 
ATOM     16  C   UNL     1     103.746 116.980 112.672  1.00  0.00     0.062 A 
ATOM     17  C   UNL     1     104.269 118.267 112.472  1.00  0.00     0.158 A 
BRANCH  15  18
ATOM     18  O   UNL     1     104.000 120.667 112.549  1.00  0.00    -0.504 OA
ATOM     19  H   UNL     1     104.721 121.047 113.153  1.00  0.00     0.293 HD
ENDBRANCH  15  18
BRANCH  17  20
ATOM     20  O   UNL     1     105.568 118.436 112.000  1.00  0.00    -0.504 OA
ATOM     21  H   UNL     1     106.372 118.326 112.607  1.00  0.00     0.293 HD
ENDBRANCH  17  20
ENDBRANCH   1  12
BRANCH   2  22
ATOM     22  O   UNL     1     100.595 115.491 111.321  1.00  0.00    -0.502 OA
ATOM     23  H   UNL     1     101.239 115.723 110.573  1.00  0.00     0.293 HD
ENDBRANCH   2  22
BRANCH   6  24
ATOM     24  O   UNL     1      99.500 110.875 113.741  1.00  0.00    -0.507 OA
ATOM     25  H   UNL     1      99.373 109.876 113.800  1.00  0.00     0.293 HD
ENDBRANCH   6  24
BRANCH   8  26
ATOM     26  O   UNL     1     102.690 111.028 117.327  1.00  0.00    -0.508 OA
ATOM     27  H   UNL     1     103.599 111.312 117.672  1.00  0.00     0.293 HD
ENDBRANCH   8  26
TORSDOF 6
ENDMDL
MODEL 6
REMARK VINA RESULT:    -5.883      1.549      6.832
REMARK INTER + INTRA:          -7.368
REMARK INTER:                  -7.054
REMARK INTRA:                  -0.314
REMARK UNBOUND:                -0.282
REMARK SMILES O=c1c(O)c(-c2ccc(O)c(O)c2)oc2cc(O)cc(O)c12
REMARK SMILES IDX 5 1 3 2 2 3 1 4 22 5 20 6 19 7 17 8 16 9 15 10 14 11 6 12
REMARK SMILES IDX 7 13 8 14 9 15 13 16 11 17 10 18 12 20 4 22 21 24 18 26
REMARK H PARENT 10 19 12 21 4 23 21 25 18 27
REMARK Flexibility Score: inf
ROOT
ATOM      1  C   UNL     1     106.164 121.729 119.692  1.00  0.00     0.180 A 
ATOM      2  C   UNL     1     106.206 121.811 121.095  1.00  0.00     0.208 A 
ATOM      3  C   UNL     1     107.335 121.324 121.772  1.00  0.00     0.238 A 
ATOM      4  O   UNL     1     107.344 121.352 123.030  1.00  0.00    -0.285 OA
ATOM      5  C   UNL     1     108.415 120.776 121.039  1.00  0.00     0.111 A 
ATOM      6  C   UNL     1     109.626 120.290 121.618  1.00  0.00     0.134 A 
ATOM      7  C   UNL     1     110.571 119.649 120.808  1.00  0.00     0.093 A 
ATOM      8  C   UNL     1     110.378 119.535 119.429  1.00  0.00     0.123 A 
ATOM      9  C   UNL     1     109.228 120.060 118.846  1.00  0.00     0.094 A 
ATOM     10  C   UNL     1     108.250 120.672 119.633  1.00  0.00     0.146 A 
ATOM     11  O   UNL     1     107.163 121.149 119.037  1.00  0.00    -0.452 OA
ENDROOT
BRANCH   1  12
ATOM     12  C   UNL     1     105.019 122.242 118.906  1.00  0.00     0.025 A 
ATOM     13  C   UNL     1     103.960 121.401 118.522  1.00  0.00     0.016 A 
ATOM     14  C   UNL     1     102.877 121.912 117.801  1.00  0.00     0.051 A 
ATOM     15  C   UNL     1     102.831 123.271 117.467  1.00  0.00     0.157 A 
ATOM     16  C   UNL     1     104.957 123.608 118.586  1.00  0.00     0.062 A 
ATOM     17  C   UNL     1     103.871 124.122 117.862  1.00  0.00     0.158 A 
BRANCH  15  18
ATOM     18  O   UNL     1     101.754 123.785 116.747  1.00  0.00    -0.504 OA
ATOM     19  H   UNL     1     101.572 123.503 115.790  1.00  0.00     0.293 HD
ENDBRANCH  15  18
BRANCH  17  20
ATOM     20  O   UNL     1     103.819 125.475 117.533  1.00  0.00    -0.504 OA
ATOM     21  H   UNL     1     103.403 125.795 116.666  1.00  0.00     0.293 HD
ENDBRANCH  17  20
ENDBRANCH   1  12
BRANCH   2  22
ATOM     22  O   UNL     1     105.121 122.336 121.801  1.00  0.00    -0.502 OA
ATOM     23  H   UNL     1     105.125 123.272 122.190  1.00  0.00     0.293 HD
ENDBRANCH   2  22
BRANCH   6  24
ATOM     24  O   UNL     1     109.957 120.435 122.968  1.00  0.00    -0.507 OA
ATOM     25  H   UNL     1     110.559 121.156 123.339  1.00  0.00     0.293 HD
ENDBRANCH   6  24
BRANCH   8  26
ATOM     26  O   UNL     1     111.331 118.909 118.628  1.00  0.00    -0.508 OA
ATOM     27  H   UNL     1     112.251 119.311 118.486  1.00  0.00     0.293 HD
ENDBRANCH   8  26
TORSDOF 6
ENDMDL
MODEL 7
REMARK VINA RESULT:    -5.861      2.105      3.713
REMARK INTER + INTRA:          -7.342
REMARK INTER:                  -7.121
REMARK INTRA:                  -0.220
REMARK UNBOUND:                -0.282
REMARK SMILES O=c1c(O)c(-c2ccc(O)c(O)c2)oc2cc(O)cc(O)c12
REMARK SMILES IDX 5 1 3 2 2 3 1 4 22 5 20 6 19 7 17 8 16 9 15 10 14 11 6 12
REMARK SMILES IDX 7 13 8 14 9 15 13 16 11 17 10 18 12 20 4 22 21 24 18 26
REMARK H PARENT 10 19 12 21 4 23 21 25 18 27
REMARK Flexibility Score: inf
ROOT
ATOM      1  C   UNL     1     106.688 121.216 121.128  1.00  0.00     0.180 A 
ATOM      2  C   UNL     1     105.939 122.126 120.362  1.00  0.00     0.208 A 
ATOM      3  C   UNL     1     104.716 122.596 120.866  1.00  0.00     0.238 A 
ATOM      4  O   UNL     1     104.025 123.369 120.152  1.00  0.00    -0.285 OA
ATOM      5  C   UNL     1     104.263 122.162 122.135  1.00  0.00     0.111 A 
ATOM      6  C   UNL     1     103.059 122.604 122.762  1.00  0.00     0.134 A 
ATOM      7  C   UNL     1     102.645 122.010 123.959  1.00  0.00     0.093 A 
ATOM      8  C   UNL     1     103.426 121.035 124.587  1.00  0.00     0.123 A 
ATOM      9  C   UNL     1     104.632 120.641 124.015  1.00  0.00     0.094 A 
ATOM     10  C   UNL     1     105.053 121.189 122.801  1.00  0.00     0.146 A 
ATOM     11  O   UNL     1     106.205 120.777 122.285  1.00  0.00    -0.452 OA
ENDROOT
BRANCH   1  12
ATOM     12  C   UNL     1     107.998 120.695 120.675  1.00  0.00     0.025 A 
ATOM     13  C   UNL     1     109.193 121.065 121.318  1.00  0.00     0.016 A 
ATOM     14  C   UNL     1     110.416 120.542 120.889  1.00  0.00     0.051 A 
ATOM     15  C   UNL     1     110.461 119.634 119.823  1.00  0.00     0.157 A 
ATOM     16  C   UNL     1     108.047 119.770 119.621  1.00  0.00     0.062 A 
ATOM     17  C   UNL     1     109.275 119.244 119.189  1.00  0.00     0.158 A 
BRANCH  15  18
ATOM     18  O   UNL     1     111.679 119.112 119.392  1.00  0.00    -0.504 OA
ATOM     19  H   UNL     1     111.786 118.127 119.174  1.00  0.00     0.293 HD
ENDBRANCH  15  18
BRANCH  17  20
ATOM     20  O   UNL     1     109.321 118.336 118.134  1.00  0.00    -0.504 OA
ATOM     21  H   UNL     1     109.760 117.428 118.234  1.00  0.00     0.293 HD
ENDBRANCH  17  20
ENDBRANCH   1  12
BRANCH   2  22
ATOM     22  O   UNL     1     106.393 122.525 119.102  1.00  0.00    -0.502 OA
ATOM     23  H   UNL     1     107.307 122.270 118.746  1.00  0.00     0.293 HD
ENDBRANCH   2  22
BRANCH   6  24
ATOM     24  O   UNL     1     102.254 123.634 122.266  1.00  0.00    -0.507 OA
ATOM     25  H   UNL     1     101.249 123.590 122.183  1.00  0.00     0.293 HD
ENDBRANCH   6  24
BRANCH   8  26
ATOM     26  O   UNL     1     103.014 120.460 125.788  1.00  0.00    -0.508 OA
ATOM     27  H   UNL     1     102.167 119.906 125.847  1.00  0.00     0.293 HD
ENDBRANCH   8  26
TORSDOF 6
ENDMDL
MODEL 8
REMARK VINA RESULT:    -5.804      2.906      6.741
REMARK INTER + INTRA:          -7.273
REMARK INTER:                  -6.949
REMARK INTRA:                  -0.325
REMARK UNBOUND:                -0.282
REMARK SMILES O=c1c(O)c(-c2ccc(O)c(O)c2)oc2cc(O)cc(O)c12
REMARK SMILES IDX 5 1 3 2 2 3 1 4 22 5 20 6 19 7 17 8 16 9 15 10 14 11 6 12
REMARK SMILES IDX 7 13 8 14 9 15 13 16 11 17 10 18 12 20 4 22 21 24 18 26
REMARK H PARENT 10 19 12 21 4 23 21 25 18 27
REMARK Flexibility Score: inf
ROOT
ATOM      1  C   UNL     1     105.664 120.001 122.277  1.00  0.00     0.180 A 
ATOM      2  C   UNL     1     105.247 120.974 121.352  1.00  0.00     0.208 A 
ATOM      3  C   UNL     1     106.205 121.591 120.533  1.00  0.00     0.238 A 
ATOM      4  O   UNL     1     105.833 122.499 119.745  1.00  0.00    -0.285 OA
ATOM      5  C   UNL     1     107.566 121.217 120.637  1.00  0.00     0.111 A 
ATOM      6  C   UNL     1     108.617 121.746 119.828  1.00  0.00     0.134 A 
ATOM      7  C   UNL     1     109.945 121.400 120.107  1.00  0.00     0.093 A 
ATOM      8  C   UNL     1     110.254 120.491 121.123  1.00  0.00     0.123 A 
ATOM      9  C   UNL     1     109.231 119.923 121.877  1.00  0.00     0.094 A 
ATOM     10  C   UNL     1     107.900 120.277 121.647  1.00  0.00     0.146 A 
ATOM     11  O   UNL     1     106.957 119.720 122.397  1.00  0.00    -0.452 OA
ENDROOT
BRANCH   1  12
ATOM     12  C   UNL     1     104.710 119.290 123.158  1.00  0.00     0.025 A 
ATOM     13  C   UNL     1     104.159 118.051 122.788  1.00  0.00     0.016 A 
ATOM     14  C   UNL     1     103.278 117.384 123.645  1.00  0.00     0.051 A 
ATOM     15  C   UNL     1     102.948 117.941 124.888  1.00  0.00     0.157 A 
ATOM     16  C   UNL     1     104.391 119.832 124.413  1.00  0.00     0.062 A 
ATOM     17  C   UNL     1     103.507 119.165 125.275  1.00  0.00     0.158 A 
BRANCH  15  18
ATOM     18  O   UNL     1     102.070 117.281 125.746  1.00  0.00    -0.504 OA
ATOM     19  H   UNL     1     101.441 117.791 126.356  1.00  0.00     0.293 HD
ENDBRANCH  15  18
BRANCH  17  20
ATOM     20  O   UNL     1     103.182 119.712 126.514  1.00  0.00    -0.504 OA
ATOM     21  H   UNL     1     103.705 120.487 126.905  1.00  0.00     0.293 HD
ENDBRANCH  17  20
ENDBRANCH   1  12
BRANCH   2  22
ATOM     22  O   UNL     1     103.901 121.345 121.281  1.00  0.00    -0.502 OA
ATOM     23  H   UNL     1     103.170 120.693 121.020  1.00  0.00     0.293 HD
ENDBRANCH   2  22
BRANCH   6  24
ATOM     24  O   UNL     1     108.409 122.588 118.732  1.00  0.00    -0.507 OA
ATOM     25  H   UNL     1     108.124 123.554 118.795  1.00  0.00     0.293 HD
ENDBRANCH   6  24
BRANCH   8  26
ATOM     26  O   UNL     1     111.577 120.140 121.383  1.00  0.00    -0.508 OA
ATOM     27  H   UNL     1     112.344 120.536 120.853  1.00  0.00     0.293 HD
ENDBRANCH   8  26
TORSDOF 6
ENDMDL
MODEL 9
REMARK VINA RESULT:    -5.614      2.199      6.703
REMARK INTER + INTRA:          -7.044
REMARK INTER:                  -6.728
REMARK INTRA:                  -0.316
REMARK UNBOUND:                -0.282
REMARK SMILES O=c1c(O)c(-c2ccc(O)c(O)c2)oc2cc(O)cc(O)c12
REMARK SMILES IDX 5 1 3 2 2 3 1 4 22 5 20 6 19 7 17 8 16 9 15 10 14 11 6 12
REMARK SMILES IDX 7 13 8 14 9 15 13 16 11 17 10 18 12 20 4 22 21 24 18 26
REMARK H PARENT 10 19 12 21 4 23 21 25 18 27
REMARK Flexibility Score: inf
ROOT
ATOM      1  C   UNL     1     105.969 121.371 119.344  1.00  0.00     0.180 A 
ATOM      2  C   UNL     1     105.855 121.684 120.710  1.00  0.00     0.208 A 
ATOM      3  C   UNL     1     106.941 121.424 121.561  1.00  0.00     0.238 A 
ATOM      4  O   UNL     1     106.814 121.656 122.792  1.00  0.00    -0.285 OA
ATOM      5  C   UNL     1     108.132 120.870 121.034  1.00  0.00     0.111 A 
ATOM      6  C   UNL     1     109.309 120.603 121.797  1.00  0.00     0.134 A 
ATOM      7  C   UNL     1     110.383 119.933 121.199  1.00  0.00     0.093 A 
ATOM      8  C   UNL     1     110.348 119.578 119.848  1.00  0.00     0.123 A 
ATOM      9  C   UNL     1     109.229 119.889 119.080  1.00  0.00     0.094 A 
ATOM     10  C   UNL     1     108.127 120.524 119.658  1.00  0.00     0.146 A 
ATOM     11  O   UNL     1     107.076 120.791 118.893  1.00  0.00    -0.452 OA
ENDROOT
BRANCH   1  12
ATOM     12  C   UNL     1     104.877 121.638 118.380  1.00  0.00     0.025 A 
ATOM     13  C   UNL     1     104.683 122.918 117.833  1.00  0.00     0.016 A 
ATOM     14  C   UNL     1     103.661 123.142 116.906  1.00  0.00     0.051 A 
ATOM     15  C   UNL     1     102.829 122.089 116.504  1.00  0.00     0.157 A 
ATOM     16  C   UNL     1     104.054 120.582 117.959  1.00  0.00     0.062 A 
ATOM     17  C   UNL     1     103.027 120.806 117.029  1.00  0.00     0.158 A 
BRANCH  15  18
ATOM     18  O   UNL     1     101.808 122.308 115.582  1.00  0.00    -0.504 OA
ATOM     19  H   UNL     1     100.952 121.765 115.599  1.00  0.00     0.293 HD
ENDBRANCH  15  18
BRANCH  17  20
ATOM     20  O   UNL     1     102.203 119.758 116.623  1.00  0.00    -0.504 OA
ATOM     21  H   UNL     1     101.605 119.839 115.808  1.00  0.00     0.293 HD
ENDBRANCH  17  20
ENDBRANCH   1  12
BRANCH   2  22
ATOM     22  O   UNL     1     104.663 122.210 121.213  1.00  0.00    -0.502 OA
ATOM     23  H   UNL     1     103.835 122.330 120.641  1.00  0.00     0.293 HD
ENDBRANCH   2  22
BRANCH   6  24
ATOM     24  O   UNL     1     109.483 120.997 123.127  1.00  0.00    -0.507 OA
ATOM     25  H   UNL     1     109.407 121.946 123.461  1.00  0.00     0.293 HD
ENDBRANCH   6  24
BRANCH   8  26
ATOM     26  O   UNL     1     111.428 118.925 119.257  1.00  0.00    -0.508 OA
ATOM     27  H   UNL     1     112.288 119.414 119.040  1.00  0.00     0.293 HD
ENDBRANCH   8  26
TORSDOF 6
ENDMDL
