MODEL 1
REMARK VINA RESULT:    -3.493      0.000      0.000
REMARK INTER + INTRA:          -4.244
REMARK INTER:                  -4.208
REMARK INTRA:                  -0.037
REMARK UNBOUND:                -0.037
REMARK SMILES CC[C@@H](C)[C@H]([NH3+])C(=O)[O-]
REMARK SMILES IDX 3 1 4 2 5 3 6 4 7 8 8 9 9 10 2 11 1 12
REMARK H PARENT 6 5 6 6 6 7
REMARK Flexibility Score: inf
ROOT
ATOM      1  C   UNL     1     143.363   9.595  -8.520  1.00  0.00     0.050 C 
ATOM      2  C   UNL     1     143.806  10.720  -7.562  1.00  0.00     0.014 C 
ENDROOT
BRANCH   1   3
ATOM      3  C   UNL     1     141.828   9.569  -8.808  1.00  0.00     0.230 C 
BRANCH   3   4
ATOM      4  N   UNL     1     141.032  10.278  -7.794  1.00  0.00    -0.350 N 
ATOM      5  H   UNL     1     140.043  10.373  -8.124  1.00  0.00     0.345 HD
ATOM      6  H   UNL     1     141.032   9.768  -6.883  1.00  0.00     0.345 HD
ATOM      7  H   UNL     1     141.403  11.246  -7.664  1.00  0.00     0.345 HD
ENDBRANCH   3   4
BRANCH   3   8
ATOM      8  C   UNL     1     141.331   8.155  -8.982  1.00  0.00     0.099 C 
ATOM      9  O   UNL     1     140.192   7.944  -9.478  1.00  0.00    -0.544 OA
ATOM     10  O   UNL     1     142.138   7.074  -8.644  1.00  0.00    -0.544 OA
ENDBRANCH   3   8
ENDBRANCH   1   3
BRANCH   1  11
ATOM     11  C   UNL     1     144.229   9.519  -9.809  1.00  0.00     0.006 C 
ATOM     12  C   UNL     1     145.208  10.681 -10.021  1.00  0.00     0.004 C 
ENDBRANCH   1  11
TORSDOF 4
ENDMDL
MODEL 2
REMARK VINA RESULT:    -3.435      1.696      2.109
REMARK INTER + INTRA:          -4.174
REMARK INTER:                  -4.092
REMARK INTRA:                  -0.082
REMARK UNBOUND:                -0.037
REMARK SMILES CC[C@@H](C)[C@H]([NH3+])C(=O)[O-]
REMARK SMILES IDX 3 1 4 2 5 3 6 4 7 8 8 9 9 10 2 11 1 12
REMARK H PARENT 6 5 6 6 6 7
REMARK Flexibility Score: inf
ROOT
ATOM      1  C   UNL     1     144.753  11.143  -8.364  1.00  0.00     0.050 C 
ATOM      2  C   UNL     1     145.327  11.988  -7.209  1.00  0.00     0.014 C 
ENDROOT
BRANCH   1   3
ATOM      3  C   UNL     1     143.219  10.867  -8.253  1.00  0.00     0.230 C 
BRANCH   3   4
ATOM      4  N   UNL     1     142.766  10.640  -6.873  1.00  0.00    -0.350 N 
ATOM      5  H   UNL     1     143.159   9.738  -6.515  1.00  0.00     0.345 HD
ATOM      6  H   UNL     1     143.071  11.411  -6.238  1.00  0.00     0.345 HD
ATOM      7  H   UNL     1     141.725  10.547  -6.850  1.00  0.00     0.345 HD
ENDBRANCH   3   4
BRANCH   3   8
ATOM      8  C   UNL     1     142.806   9.722  -9.144  1.00  0.00     0.099 C 
ATOM      9  O   UNL     1     141.748   9.802  -9.823  1.00  0.00    -0.544 OA
ATOM     10  O   UNL     1     143.608   8.592  -9.263  1.00  0.00    -0.544 OA
ENDBRANCH   3   8
ENDBRANCH   1   3
BRANCH   1  11
ATOM     11  C   UNL     1     145.182  11.658  -9.767  1.00  0.00     0.006 C 
ATOM     12  C   UNL     1     146.661  11.458 -10.123  1.00  0.00     0.004 C 
ENDBRANCH   1  11
TORSDOF 4
ENDMDL
MODEL 3
REMARK VINA RESULT:    -3.435      1.713      2.235
REMARK INTER + INTRA:          -4.174
REMARK INTER:                  -4.097
REMARK INTRA:                  -0.078
REMARK UNBOUND:                -0.037
REMARK SMILES CC[C@@H](C)[C@H]([NH3+])C(=O)[O-]
REMARK SMILES IDX 3 1 4 2 5 3 6 4 7 8 8 9 9 10 2 11 1 12
REMARK H PARENT 6 5 6 6 6 7
REMARK Flexibility Score: inf
ROOT
ATOM      1  C   UNL     1     144.197  10.958  -9.357  1.00  0.00     0.050 C 
ATOM      2  C   UNL     1     144.749   9.739 -10.125  1.00  0.00     0.014 C 
ENDROOT
BRANCH   1   3
ATOM      3  C   UNL     1     142.958  10.639  -8.459  1.00  0.00     0.230 C 
BRANCH   3   4
ATOM      4  N   UNL     1     143.304   9.934  -7.216  1.00  0.00    -0.350 N 
ATOM      5  H   UNL     1     142.902   8.967  -7.234  1.00  0.00     0.345 HD
ATOM      6  H   UNL     1     144.339   9.862  -7.093  1.00  0.00     0.345 HD
ATOM      7  H   UNL     1     142.878  10.424  -6.398  1.00  0.00     0.345 HD
ENDBRANCH   3   4
BRANCH   3   8
ATOM      8  C   UNL     1     141.909   9.875  -9.230  1.00  0.00     0.099 C 
ATOM      9  O   UNL     1     141.239  10.456 -10.125  1.00  0.00    -0.544 OA
ATOM     10  O   UNL     1     141.707   8.519  -8.998  1.00  0.00    -0.544 OA
ENDBRANCH   3   8
ENDBRANCH   1   3
BRANCH   1  11
ATOM     11  C   UNL     1     145.302  11.759  -8.613  1.00  0.00     0.006 C 
ATOM     12  C   UNL     1     146.658  11.839  -9.326  1.00  0.00     0.004 C 
ENDBRANCH   1  11
TORSDOF 4
ENDMDL
MODEL 4
REMARK VINA RESULT:    -3.360     17.867     18.456
REMARK INTER + INTRA:          -4.084
REMARK INTER:                  -4.176
REMARK INTRA:                   0.091
REMARK UNBOUND:                -0.037
REMARK SMILES CC[C@@H](C)[C@H]([NH3+])C(=O)[O-]
REMARK SMILES IDX 3 1 4 2 5 3 6 4 7 8 8 9 9 10 2 11 1 12
REMARK H PARENT 6 5 6 6 6 7
REMARK Flexibility Score: inf
ROOT
ATOM      1  C   UNL     1     151.524  -2.171   3.335  1.00  0.00     0.050 C 
ATOM      2  C   UNL     1     152.658  -3.101   2.855  1.00  0.00     0.014 C 
ENDROOT
BRANCH   1   3
ATOM      3  C   UNL     1     152.022  -0.864   4.031  1.00  0.00     0.230 C 
BRANCH   3   4
ATOM      4  N   UNL     1     152.001  -0.941   5.499  1.00  0.00    -0.350 N 
ATOM      5  H   UNL     1     152.482  -1.815   5.815  1.00  0.00     0.345 HD
ATOM      6  H   UNL     1     152.482  -0.121   5.932  1.00  0.00     0.345 HD
ATOM      7  H   UNL     1     151.014  -0.998   5.838  1.00  0.00     0.345 HD
ENDBRANCH   3   4
BRANCH   3   8
ATOM      8  C   UNL     1     151.247   0.338   3.549  1.00  0.00     0.099 C 
ATOM      9  O   UNL     1     150.219   0.715   4.171  1.00  0.00    -0.544 OA
ATOM     10  O   UNL     1     151.684   1.068   2.449  1.00  0.00    -0.544 OA
ENDBRANCH   3   8
ENDBRANCH   1   3
BRANCH   1  11
ATOM     11  C   UNL     1     150.447  -1.912   2.244  1.00  0.00     0.006 C 
ATOM     12  C   UNL     1     150.783  -2.437   0.842  1.00  0.00     0.004 C 
ENDBRANCH   1  11
TORSDOF 4
ENDMDL
MODEL 5
REMARK VINA RESULT:    -3.317     17.854     18.400
REMARK INTER + INTRA:          -4.032
REMARK INTER:                  -3.907
REMARK INTRA:                  -0.124
REMARK UNBOUND:                -0.037
REMARK SMILES CC[C@@H](C)[C@H]([NH3+])C(=O)[O-]
REMARK SMILES IDX 3 1 4 2 5 3 6 4 7 8 8 9 9 10 2 11 1 12
REMARK H PARENT 6 5 6 6 6 7
REMARK Flexibility Score: inf
ROOT
ATOM      1  C   UNL     1     151.202  -1.371   3.364  1.00  0.00     0.050 C 
ATOM      2  C   UNL     1     152.671  -1.811   3.198  1.00  0.00     0.014 C 
ENDROOT
BRANCH   1   3
ATOM      3  C   UNL     1     151.018   0.162   3.607  1.00  0.00     0.230 C 
BRANCH   3   4
ATOM      4  N   UNL     1     151.450   0.988   2.470  1.00  0.00    -0.350 N 
ATOM      5  H   UNL     1     152.114   1.727   2.801  1.00  0.00     0.345 HD
ATOM      6  H   UNL     1     151.928   0.414   1.740  1.00  0.00     0.345 HD
ATOM      7  H   UNL     1     150.628   1.482   2.056  1.00  0.00     0.345 HD
ENDBRANCH   3   4
BRANCH   3   8
ATOM      8  C   UNL     1     151.709   0.598   4.875  1.00  0.00     0.099 C 
ATOM      9  O   UNL     1     151.295   0.187   5.991  1.00  0.00    -0.544 OA
ATOM     10  O   UNL     1     152.833   1.416   4.824  1.00  0.00    -0.544 OA
ENDBRANCH   3   8
ENDBRANCH   1   3
BRANCH   1  11
ATOM     11  C   UNL     1     150.270  -1.932   2.253  1.00  0.00     0.006 C 
ATOM     12  C   UNL     1     150.972  -2.394   0.970  1.00  0.00     0.004 C 
ENDBRANCH   1  11
TORSDOF 4
ENDMDL
MODEL 6
REMARK VINA RESULT:    -3.288      1.548      2.382
REMARK INTER + INTRA:          -3.997
REMARK INTER:                  -3.847
REMARK INTRA:                  -0.150
REMARK UNBOUND:                -0.037
REMARK SMILES CC[C@@H](C)[C@H]([NH3+])C(=O)[O-]
REMARK SMILES IDX 3 1 4 2 5 3 6 4 7 8 8 9 9 10 2 11 1 12
REMARK H PARENT 6 5 6 6 6 7
REMARK Flexibility Score: inf
ROOT
ATOM      1  C   UNL     1     142.933  10.079  -9.266  1.00  0.00     0.050 C 
ATOM      2  C   UNL     1     144.214   9.337  -9.699  1.00  0.00     0.014 C 
ENDROOT
BRANCH   1   3
ATOM      3  C   UNL     1     141.878   9.171  -8.554  1.00  0.00     0.230 C 
BRANCH   3   4
ATOM      4  N   UNL     1     142.380   7.822  -8.252  1.00  0.00    -0.350 N 
ATOM      5  H   UNL     1     143.244   7.890  -7.665  1.00  0.00     0.345 HD
ATOM      6  H   UNL     1     141.670   7.257  -7.735  1.00  0.00     0.345 HD
ATOM      7  H   UNL     1     142.651   7.337  -9.136  1.00  0.00     0.345 HD
ENDBRANCH   3   4
BRANCH   3   8
ATOM      8  C   UNL     1     140.598   9.097  -9.351  1.00  0.00     0.099 C 
ATOM      9  O   UNL     1     139.992  10.155  -9.668  1.00  0.00    -0.544 OA
ATOM     10  O   UNL     1     140.104   7.872  -9.783  1.00  0.00    -0.544 OA
ENDBRANCH   3   8
ENDBRANCH   1   3
BRANCH   1  11
ATOM     11  C   UNL     1     143.225  11.397  -8.495  1.00  0.00     0.006 C 
ATOM     12  C   UNL     1     142.511  11.548  -7.145  1.00  0.00     0.004 C 
ENDBRANCH   1  11
TORSDOF 4
ENDMDL
MODEL 7
REMARK VINA RESULT:    -3.183      3.063      4.072
REMARK INTER + INTRA:          -3.870
REMARK INTER:                  -3.788
REMARK INTRA:                  -0.082
REMARK UNBOUND:                -0.037
REMARK SMILES CC[C@@H](C)[C@H]([NH3+])C(=O)[O-]
REMARK SMILES IDX 3 1 4 2 5 3 6 4 7 8 8 9 9 10 2 11 1 12
REMARK H PARENT 6 5 6 6 6 7
REMARK Flexibility Score: inf
ROOT
ATOM      1  C   UNL     1     143.204   9.674  -8.759  1.00  0.00     0.050 C 
ATOM      2  C   UNL     1     141.753   9.947  -9.207  1.00  0.00     0.014 C 
ENDROOT
BRANCH   1   3
ATOM      3  C   UNL     1     143.632  10.453  -7.474  1.00  0.00     0.230 C 
BRANCH   3   4
ATOM      4  N   UNL     1     142.495  10.994  -6.714  1.00  0.00    -0.350 N 
ATOM      5  H   UNL     1     141.906  10.207  -6.352  1.00  0.00     0.345 HD
ATOM      6  H   UNL     1     142.816  11.569  -5.903  1.00  0.00     0.345 HD
ATOM      7  H   UNL     1     141.887  11.565  -7.342  1.00  0.00     0.345 HD
ENDBRANCH   3   4
BRANCH   3   8
ATOM      8  C   UNL     1     144.619  11.546  -7.804  1.00  0.00     0.099 C 
ATOM      9  O   UNL     1     145.502  11.872  -6.966  1.00  0.00    -0.544 OA
ATOM     10  O   UNL     1     144.597  12.168  -9.048  1.00  0.00    -0.544 OA
ENDBRANCH   3   8
ENDBRANCH   1   3
BRANCH   1  11
ATOM     11  C   UNL     1     143.547   8.159  -8.699  1.00  0.00     0.006 C 
ATOM     12  C   UNL     1     142.375   7.226  -8.370  1.00  0.00     0.004 C 
ENDBRANCH   1  11
TORSDOF 4
ENDMDL
