MODEL 1
REMARK VINA RESULT:    -2.473      0.000      0.000
REMARK INTER + INTRA:          -2.473
REMARK INTER:                  -2.473
REMARK INTRA:                   0.000
REMARK UNBOUND:                 0.000
REMARK SMILES CC(=O)[O-]
REMARK SMILES IDX 1 1 2 2 3 3 4 4
REMARK H PARENT
REMARK Flexibility Score: inf
ROOT
ATOM      1  C   UNL     1      11.125 -45.727  -9.512  1.00  0.00     0.063 C 
ATOM      2  C   UNL     1      10.447 -47.055  -9.473  1.00  0.00     0.038 C 
ATOM      3  O   UNL     1       9.327 -47.209 -10.024  1.00  0.00    -0.550 OA
ATOM      4  O   UNL     1      11.075 -48.138  -8.873  1.00  0.00    -0.550 OA
ENDROOT
TORSDOF 0
ENDMDL
MODEL 2
REMARK VINA RESULT:    -2.220     21.819     22.037
REMARK INTER + INTRA:          -2.220
REMARK INTER:                  -2.220
REMARK INTRA:                   0.000
REMARK UNBOUND:                 0.000
REMARK SMILES CC(=O)[O-]
REMARK SMILES IDX 1 1 2 2 3 3 4 4
REMARK H PARENT
REMARK Flexibility Score: inf
ROOT
ATOM      1  C   UNL     1       8.648 -33.061   7.542  1.00  0.00     0.063 C 
ATOM      2  C   UNL     1       9.795 -32.393   6.864  1.00  0.00     0.038 C 
ATOM      3  O   UNL     1       9.650 -31.896   5.717  1.00  0.00    -0.550 OA
ATOM      4  O   UNL     1      11.015 -32.271   7.518  1.00  0.00    -0.550 OA
ENDROOT
TORSDOF 0
ENDMDL
MODEL 3
REMARK VINA RESULT:    -2.131     16.353     16.654
REMARK INTER + INTRA:          -2.131
REMARK INTER:                  -2.131
REMARK INTRA:                   0.000
REMARK UNBOUND:                 0.000
REMARK SMILES CC(=O)[O-]
REMARK SMILES IDX 1 1 2 2 3 3 4 4
REMARK H PARENT
REMARK Flexibility Score: inf
ROOT
ATOM      1  C   UNL     1      -2.739 -50.776   1.163  1.00  0.00     0.063 C 
ATOM      2  C   UNL     1      -1.374 -51.374   1.208  1.00  0.00     0.038 C 
ATOM      3  O   UNL     1      -0.943 -51.884   2.275  1.00  0.00    -0.550 OA
ATOM      4  O   UNL     1      -0.595 -51.417   0.060  1.00  0.00    -0.550 OA
ENDROOT
TORSDOF 0
ENDMDL
MODEL 4
REMARK VINA RESULT:    -2.115     16.231     16.501
REMARK INTER + INTRA:          -2.115
REMARK INTER:                  -2.115
REMARK INTRA:                   0.000
REMARK UNBOUND:                 0.000
REMARK SMILES CC(=O)[O-]
REMARK SMILES IDX 1 1 2 2 3 3 4 4
REMARK H PARENT
REMARK Flexibility Score: inf
ROOT
ATOM      1  C   UNL     1      -2.736 -50.907   0.790  1.00  0.00     0.063 C 
ATOM      2  C   UNL     1      -1.369 -51.484   0.927  1.00  0.00     0.038 C 
ATOM      3  O   UNL     1      -0.573 -51.466  -0.048  1.00  0.00    -0.550 OA
ATOM      4  O   UNL     1      -0.950 -51.998   2.148  1.00  0.00    -0.550 OA
ENDROOT
TORSDOF 0
ENDMDL
MODEL 5
REMARK VINA RESULT:    -2.007     18.163     18.491
REMARK INTER + INTRA:          -2.007
REMARK INTER:                  -2.007
REMARK INTRA:                   0.000
REMARK UNBOUND:                 0.000
REMARK SMILES CC(=O)[O-]
REMARK SMILES IDX 1 1 2 2 3 3 4 4
REMARK H PARENT
REMARK Flexibility Score: inf
ROOT
ATOM      1  C   UNL     1      -5.190 -41.251   1.109  1.00  0.00     0.063 C 
ATOM      2  C   UNL     1      -4.007 -42.004   0.601  1.00  0.00     0.038 C 
ATOM      3  O   UNL     1      -3.222 -42.567   1.408  1.00  0.00    -0.550 OA
ATOM      4  O   UNL     1      -3.797 -42.130  -0.765  1.00  0.00    -0.550 OA
ENDROOT
TORSDOF 0
ENDMDL
MODEL 6
REMARK VINA RESULT:    -1.976     15.560     15.933
REMARK INTER + INTRA:          -1.976
REMARK INTER:                  -1.976
REMARK INTRA:                   0.000
REMARK UNBOUND:                 0.000
REMARK SMILES CC(=O)[O-]
REMARK SMILES IDX 1 1 2 2 3 3 4 4
REMARK H PARENT
REMARK Flexibility Score: inf
ROOT
ATOM      1  C   UNL     1      -0.425 -51.875  -1.010  1.00  0.00     0.063 C 
ATOM      2  C   UNL     1      -1.333 -51.460   0.097  1.00  0.00     0.038 C 
ATOM      3  O   UNL     1      -0.956 -51.556   1.294  1.00  0.00    -0.550 OA
ATOM      4  O   UNL     1      -2.578 -50.916  -0.191  1.00  0.00    -0.550 OA
ENDROOT
TORSDOF 0
ENDMDL
MODEL 7
REMARK VINA RESULT:    -1.965     17.596     17.818
REMARK INTER + INTRA:          -1.965
REMARK INTER:                  -1.965
REMARK INTRA:                   0.000
REMARK UNBOUND:                 0.000
REMARK SMILES CC(=O)[O-]
REMARK SMILES IDX 1 1 2 2 3 3 4 4
REMARK H PARENT
REMARK Flexibility Score: inf
ROOT
ATOM      1  C   UNL     1      -1.755 -51.132   1.247  1.00  0.00     0.063 C 
ATOM      2  C   UNL     1      -1.771 -51.319   2.726  1.00  0.00     0.038 C 
ATOM      3  O   UNL     1      -2.866 -51.422   3.339  1.00  0.00    -0.550 OA
ATOM      4  O   UNL     1      -0.577 -51.433   3.425  1.00  0.00    -0.550 OA
ENDROOT
TORSDOF 0
ENDMDL
MODEL 8
REMARK VINA RESULT:    -1.895     21.142     21.367
REMARK INTER + INTRA:          -1.895
REMARK INTER:                  -1.895
REMARK INTRA:                   0.000
REMARK UNBOUND:                 0.000
REMARK SMILES CC(=O)[O-]
REMARK SMILES IDX 1 1 2 2 3 3 4 4
REMARK H PARENT
REMARK Flexibility Score: inf
ROOT
ATOM      1  C   UNL     1      -1.424 -51.267   6.643  1.00  0.00     0.063 C 
ATOM      2  C   UNL     1      -2.887 -50.984   6.681  1.00  0.00     0.038 C 
ATOM      3  O   UNL     1      -3.416 -50.531   7.730  1.00  0.00    -0.550 OA
ATOM      4  O   UNL     1      -3.661 -51.170   5.544  1.00  0.00    -0.550 OA
ENDROOT
TORSDOF 0
ENDMDL
MODEL 9
REMARK VINA RESULT:    -1.846     22.284     22.488
REMARK INTER + INTRA:          -1.846
REMARK INTER:                  -1.846
REMARK INTRA:                   0.000
REMARK UNBOUND:                 0.000
REMARK SMILES CC(=O)[O-]
REMARK SMILES IDX 1 1 2 2 3 3 4 4
REMARK H PARENT
REMARK Flexibility Score: inf
ROOT
ATOM      1  C   UNL     1      -2.040 -51.768   8.425  1.00  0.00     0.063 C 
ATOM      2  C   UNL     1      -3.153 -50.966   7.842  1.00  0.00     0.038 C 
ATOM      3  O   UNL     1      -3.124 -50.632   6.628  1.00  0.00    -0.550 OA
ATOM      4  O   UNL     1      -4.251 -50.628   8.622  1.00  0.00    -0.550 OA
ENDROOT
TORSDOF 0
ENDMDL
