MODEL 1
REMARK VINA RESULT:    -5.152      0.000      0.000
REMARK INTER + INTRA:          -5.947
REMARK INTER:                  -5.754
REMARK INTRA:                  -0.192
REMARK UNBOUND:                -0.192
REMARK SMILES CC(C)c1ccc(C=O)cc1
REMARK SMILES IDX 4 1 5 2 6 3 7 4 10 5 11 6 2 7 1 8 3 9 8 10 9 11
REMARK H PARENT
REMARK Flexibility Score: inf
ROOT
ATOM      1  C   UNL     1      18.274  28.474  28.210  1.00  0.00    -0.045 A 
ATOM      2  C   UNL     1      18.423  29.874  28.220  1.00  0.00     0.005 A 
ATOM      3  C   UNL     1      18.377  30.585  29.422  1.00  0.00     0.012 A 
ATOM      4  C   UNL     1      18.181  29.911  30.638  1.00  0.00     0.014 A 
ATOM      5  C   UNL     1      18.033  28.517  30.633  1.00  0.00     0.012 A 
ATOM      6  C   UNL     1      18.078  27.804  29.431  1.00  0.00     0.005 A 
ENDROOT
BRANCH   1   7
ATOM      7  C   UNL     1      18.322  27.689  26.913  1.00  0.00     0.013 C 
ATOM      8  C   UNL     1      18.398  26.182  27.182  1.00  0.00     0.012 C 
ATOM      9  C   UNL     1      19.485  28.152  26.030  1.00  0.00     0.012 C 
ENDBRANCH   1   7
BRANCH   4  10
ATOM     10  C   UNL     1      18.129  30.644  31.917  1.00  0.00     0.260 C 
ATOM     11  O   UNL     1      17.251  30.382  32.782  1.00  0.00    -0.298 OA
ENDBRANCH   4  10
TORSDOF 2
ENDMDL
MODEL 2
REMARK VINA RESULT:    -5.123      0.113      1.464
REMARK INTER + INTRA:          -5.914
REMARK INTER:                  -5.722
REMARK INTRA:                  -0.193
REMARK UNBOUND:                -0.192
REMARK SMILES CC(C)c1ccc(C=O)cc1
REMARK SMILES IDX 4 1 5 2 6 3 7 4 10 5 11 6 2 7 1 8 3 9 8 10 9 11
REMARK H PARENT
REMARK Flexibility Score: inf
ROOT
ATOM      1  C   UNL     1      18.262  28.481  28.243  1.00  0.00    -0.045 A 
ATOM      2  C   UNL     1      18.074  27.852  29.488  1.00  0.00     0.005 A 
ATOM      3  C   UNL     1      18.044  28.602  30.667  1.00  0.00     0.012 A 
ATOM      4  C   UNL     1      18.203  29.997  30.623  1.00  0.00     0.014 A 
ATOM      5  C   UNL     1      18.392  30.627  29.386  1.00  0.00     0.012 A 
ATOM      6  C   UNL     1      18.421  29.877  28.206  1.00  0.00     0.005 A 
ENDROOT
BRANCH   1   7
ATOM      7  C   UNL     1      18.296  27.678  26.956  1.00  0.00     0.013 C 
ATOM      8  C   UNL     1      18.355  26.174  27.244  1.00  0.00     0.012 C 
ATOM      9  C   UNL     1      19.461  28.116  26.062  1.00  0.00     0.012 C 
ENDBRANCH   1   7
BRANCH   4  10
ATOM     10  C   UNL     1      18.177  30.806  31.856  1.00  0.00     0.260 C 
ATOM     11  O   UNL     1      17.496  30.449  32.854  1.00  0.00    -0.298 OA
ENDBRANCH   4  10
TORSDOF 2
ENDMDL
MODEL 3
REMARK VINA RESULT:    -4.986      1.698      2.346
REMARK INTER + INTRA:          -5.762
REMARK INTER:                  -5.570
REMARK INTRA:                  -0.192
REMARK UNBOUND:                -0.192
REMARK SMILES CC(C)c1ccc(C=O)cc1
REMARK SMILES IDX 4 1 5 2 6 3 7 4 10 5 11 6 2 7 1 8 3 9 8 10 9 11
REMARK H PARENT
REMARK Flexibility Score: inf
ROOT
ATOM      1  C   UNL     1      18.161  28.241  28.950  1.00  0.00    -0.045 A 
ATOM      2  C   UNL     1      18.095  28.508  30.331  1.00  0.00     0.005 A 
ATOM      3  C   UNL     1      18.231  29.813  30.810  1.00  0.00     0.012 A 
ATOM      4  C   UNL     1      18.435  30.878  29.917  1.00  0.00     0.014 A 
ATOM      5  C   UNL     1      18.501  30.617  28.542  1.00  0.00     0.012 A 
ATOM      6  C   UNL     1      18.367  29.311  28.061  1.00  0.00     0.005 A 
ENDROOT
BRANCH   1   7
ATOM      7  C   UNL     1      18.016  26.828  28.416  1.00  0.00     0.013 C 
ATOM      8  C   UNL     1      19.089  25.903  29.001  1.00  0.00     0.012 C 
ATOM      9  C   UNL     1      18.047  26.811  26.884  1.00  0.00     0.012 C 
ENDBRANCH   1   7
BRANCH   4  10
ATOM     10  C   UNL     1      18.581  32.263  30.404  1.00  0.00     0.260 C 
ATOM     11  O   UNL     1      18.429  33.245  29.630  1.00  0.00    -0.298 OA
ENDBRANCH   4  10
TORSDOF 2
ENDMDL
MODEL 4
REMARK VINA RESULT:    -4.950      2.915      5.364
REMARK INTER + INTRA:          -5.721
REMARK INTER:                  -5.529
REMARK INTRA:                  -0.192
REMARK UNBOUND:                -0.192
REMARK SMILES CC(C)c1ccc(C=O)cc1
REMARK SMILES IDX 4 1 5 2 6 3 7 4 10 5 11 6 2 7 1 8 3 9 8 10 9 11
REMARK H PARENT
REMARK Flexibility Score: inf
ROOT
ATOM      1  C   UNL     1      18.825  28.479  32.793  1.00  0.00    -0.045 A 
ATOM      2  C   UNL     1      18.001  29.217  31.922  1.00  0.00     0.005 A 
ATOM      3  C   UNL     1      17.944  28.903  30.562  1.00  0.00     0.012 A 
ATOM      4  C   UNL     1      18.710  27.845  30.045  1.00  0.00     0.014 A 
ATOM      5  C   UNL     1      19.532  27.108  30.909  1.00  0.00     0.012 A 
ATOM      6  C   UNL     1      19.590  27.422  32.270  1.00  0.00     0.005 A 
ENDROOT
BRANCH   1   7
ATOM      7  C   UNL     1      18.896  28.809  34.272  1.00  0.00     0.013 C 
ATOM      8  C   UNL     1      19.558  27.673  35.060  1.00  0.00     0.012 C 
ATOM      9  C   UNL     1      17.508  29.134  34.834  1.00  0.00     0.012 C 
ENDBRANCH   1   7
BRANCH   4  10
ATOM     10  C   UNL     1      18.664  27.500  28.612  1.00  0.00     0.260 C 
ATOM     11  O   UNL     1      17.566  27.348  28.014  1.00  0.00    -0.298 OA
ENDBRANCH   4  10
TORSDOF 2
ENDMDL
MODEL 5
REMARK VINA RESULT:    -4.931      2.894      5.486
REMARK INTER + INTRA:          -5.700
REMARK INTER:                  -5.508
REMARK INTRA:                  -0.192
REMARK UNBOUND:                -0.192
REMARK SMILES CC(C)c1ccc(C=O)cc1
REMARK SMILES IDX 4 1 5 2 6 3 7 4 10 5 11 6 2 7 1 8 3 9 8 10 9 11
REMARK H PARENT
REMARK Flexibility Score: inf
ROOT
ATOM      1  C   UNL     1      18.803  28.496  32.798  1.00  0.00    -0.045 A 
ATOM      2  C   UNL     1      19.577  27.440  32.280  1.00  0.00     0.005 A 
ATOM      3  C   UNL     1      19.516  27.113  30.923  1.00  0.00     0.012 A 
ATOM      4  C   UNL     1      18.680  27.837  30.057  1.00  0.00     0.014 A 
ATOM      5  C   UNL     1      17.908  28.889  30.568  1.00  0.00     0.012 A 
ATOM      6  C   UNL     1      17.968  29.216  31.926  1.00  0.00     0.005 A 
ENDROOT
BRANCH   1   7
ATOM      7  C   UNL     1      18.860  28.861  34.270  1.00  0.00     0.013 C 
ATOM      8  C   UNL     1      19.572  27.774  35.082  1.00  0.00     0.012 C 
ATOM      9  C   UNL     1      17.458  29.137  34.825  1.00  0.00     0.012 C 
ENDBRANCH   1   7
BRANCH   4  10
ATOM     10  C   UNL     1      18.601  27.506  28.622  1.00  0.00     0.260 C 
ATOM     11  O   UNL     1      17.489  27.364  28.046  1.00  0.00    -0.298 OA
ENDBRANCH   4  10
TORSDOF 2
ENDMDL
MODEL 6
REMARK VINA RESULT:    -4.855      2.348      4.724
REMARK INTER + INTRA:          -5.616
REMARK INTER:                  -5.426
REMARK INTRA:                  -0.190
REMARK UNBOUND:                -0.192
REMARK SMILES CC(C)c1ccc(C=O)cc1
REMARK SMILES IDX 4 1 5 2 6 3 7 4 10 5 11 6 2 7 1 8 3 9 8 10 9 11
REMARK H PARENT
REMARK Flexibility Score: inf
ROOT
ATOM      1  C   UNL     1      18.283  29.901  30.588  1.00  0.00    -0.045 A 
ATOM      2  C   UNL     1      18.421  30.565  29.354  1.00  0.00     0.005 A 
ATOM      3  C   UNL     1      18.361  29.853  28.153  1.00  0.00     0.012 A 
ATOM      4  C   UNL     1      18.162  28.462  28.162  1.00  0.00     0.014 A 
ATOM      5  C   UNL     1      18.024  27.798  29.389  1.00  0.00     0.012 A 
ATOM      6  C   UNL     1      18.085  28.509  30.591  1.00  0.00     0.005 A 
ENDROOT
BRANCH   1   7
ATOM      7  C   UNL     1      18.347  30.661  31.899  1.00  0.00     0.013 C 
ATOM      8  C   UNL     1      17.239  30.206  32.855  1.00  0.00     0.012 C 
ATOM      9  C   UNL     1      18.286  32.174  31.664  1.00  0.00     0.012 C 
ENDBRANCH   1   7
BRANCH   4  10
ATOM     10  C   UNL     1      18.096  27.694  26.906  1.00  0.00     0.260 C 
ATOM     11  O   UNL     1      19.113  27.553  26.175  1.00  0.00    -0.298 OA
ENDBRANCH   4  10
TORSDOF 2
ENDMDL
MODEL 7
REMARK VINA RESULT:    -4.830      1.932      2.762
REMARK INTER + INTRA:          -5.587
REMARK INTER:                  -5.403
REMARK INTRA:                  -0.184
REMARK UNBOUND:                -0.192
REMARK SMILES CC(C)c1ccc(C=O)cc1
REMARK SMILES IDX 4 1 5 2 6 3 7 4 10 5 11 6 2 7 1 8 3 9 8 10 9 11
REMARK H PARENT
REMARK Flexibility Score: inf
ROOT
ATOM      1  C   UNL     1      18.685  28.284  30.198  1.00  0.00    -0.045 A 
ATOM      2  C   UNL     1      17.933  29.273  30.859  1.00  0.00     0.005 A 
ATOM      3  C   UNL     1      17.943  29.360  32.254  1.00  0.00     0.012 A 
ATOM      4  C   UNL     1      18.705  28.459  33.016  1.00  0.00     0.014 A 
ATOM      5  C   UNL     1      19.455  27.472  32.362  1.00  0.00     0.012 A 
ATOM      6  C   UNL     1      19.446  27.384  30.966  1.00  0.00     0.005 A 
ENDROOT
BRANCH   1   7
ATOM      7  C   UNL     1      18.684  28.178  28.685  1.00  0.00     0.013 C 
ATOM      8  C   UNL     1      18.304  29.514  28.038  1.00  0.00     0.012 C 
ATOM      9  C   UNL     1      17.760  27.051  28.210  1.00  0.00     0.012 C 
ENDBRANCH   1   7
BRANCH   4  10
ATOM     10  C   UNL     1      18.726  28.534  34.488  1.00  0.00     0.260 C 
ATOM     11  O   UNL     1      17.687  28.818  35.141  1.00  0.00    -0.298 OA
ENDBRANCH   4  10
TORSDOF 2
ENDMDL
MODEL 8
REMARK VINA RESULT:    -4.697      4.322      6.246
REMARK INTER + INTRA:          -5.439
REMARK INTER:                  -5.247
REMARK INTRA:                  -0.192
REMARK UNBOUND:                -0.192
REMARK SMILES CC(C)c1ccc(C=O)cc1
REMARK SMILES IDX 4 1 5 2 6 3 7 4 10 5 11 6 2 7 1 8 3 9 8 10 9 11
REMARK H PARENT
REMARK Flexibility Score: inf
ROOT
ATOM      1  C   UNL     1      17.807  29.438  33.765  1.00  0.00    -0.045 A 
ATOM      2  C   UNL     1      18.212  29.013  32.486  1.00  0.00     0.005 A 
ATOM      3  C   UNL     1      19.122  27.963  32.341  1.00  0.00     0.012 A 
ATOM      4  C   UNL     1      19.644  27.315  33.473  1.00  0.00     0.014 A 
ATOM      5  C   UNL     1      19.243  27.735  34.748  1.00  0.00     0.012 A 
ATOM      6  C   UNL     1      18.333  28.787  34.895  1.00  0.00     0.005 A 
ENDROOT
BRANCH   1   7
ATOM      7  C   UNL     1      16.820  30.577  33.938  1.00  0.00     0.013 C 
ATOM      8  C   UNL     1      17.236  31.798  33.111  1.00  0.00     0.012 C 
ATOM      9  C   UNL     1      16.651  30.943  35.416  1.00  0.00     0.012 C 
ENDBRANCH   1   7
BRANCH   4  10
ATOM     10  C   UNL     1      20.606  26.206  33.340  1.00  0.00     0.260 C 
ATOM     11  O   UNL     1      20.637  25.491  32.303  1.00  0.00    -0.298 OA
ENDBRANCH   4  10
TORSDOF 2
ENDMDL
MODEL 9
REMARK VINA RESULT:    -4.638      2.646      5.307
REMARK INTER + INTRA:          -5.372
REMARK INTER:                  -5.186
REMARK INTRA:                  -0.186
REMARK UNBOUND:                -0.192
REMARK SMILES CC(C)c1ccc(C=O)cc1
REMARK SMILES IDX 4 1 5 2 6 3 7 4 10 5 11 6 2 7 1 8 3 9 8 10 9 11
REMARK H PARENT
REMARK Flexibility Score: inf
ROOT
ATOM      1  C   UNL     1      18.157  29.946  32.658  1.00  0.00    -0.045 A 
ATOM      2  C   UNL     1      18.110  28.840  31.789  1.00  0.00     0.005 A 
ATOM      3  C   UNL     1      18.217  29.016  30.407  1.00  0.00     0.012 A 
ATOM      4  C   UNL     1      18.373  30.303  29.866  1.00  0.00     0.014 A 
ATOM      5  C   UNL     1      18.421  31.407  30.728  1.00  0.00     0.012 A 
ATOM      6  C   UNL     1      18.313  31.232  32.111  1.00  0.00     0.005 A 
ENDROOT
BRANCH   1   7
ATOM      7  C   UNL     1      18.042  29.769  34.160  1.00  0.00     0.013 C 
ATOM      8  C   UNL     1      18.535  28.383  34.592  1.00  0.00     0.012 C 
ATOM      9  C   UNL     1      16.608  30.019  34.638  1.00  0.00     0.012 C 
ENDBRANCH   1   7
BRANCH   4  10
ATOM     10  C   UNL     1      18.487  30.509  28.411  1.00  0.00     0.260 C 
ATOM     11  O   UNL     1      18.664  31.659  27.928  1.00  0.00    -0.298 OA
ENDBRANCH   4  10
TORSDOF 2
ENDMDL
