MODEL 1
REMARK VINA RESULT:    -3.889      0.000      0.000
REMARK INTER + INTRA:          -3.889
REMARK INTER:                  -3.889
REMARK INTRA:                   0.000
REMARK UNBOUND:                 0.000
REMARK SMILES CC1=CC=CC(C)(C)[C@H]1C
REMARK SMILES IDX 10 1 9 2 2 3 3 4 4 5 5 6 6 7 7 8 8 9 1 10
REMARK H PARENT
REMARK Flexibility Score: inf
ROOT
ATOM      1  C   UNL     1     135.381 137.302 130.345  1.00  0.00     0.013 C 
ATOM      2  C   UNL     1     134.964 136.405 131.526  1.00  0.00     0.021 C 
ATOM      3  C   UNL     1     133.528 136.744 131.900  1.00  0.00    -0.070 C 
ATOM      4  C   UNL     1     132.512 136.090 131.315  1.00  0.00    -0.001 C 
ATOM      5  C   UNL     1     132.766 134.959 130.403  1.00  0.00    -0.004 C 
ATOM      6  C   UNL     1     133.982 134.409 130.318  1.00  0.00    -0.020 C 
ATOM      7  C   UNL     1     135.108 134.868 131.228  1.00  0.00    -0.011 C 
ATOM      8  C   UNL     1     135.012 134.078 132.552  1.00  0.00     0.016 C 
ATOM      9  C   UNL     1     136.466 134.533 130.571  1.00  0.00     0.016 C 
ATOM     10  C   UNL     1     133.237 137.865 132.856  1.00  0.00     0.040 C 
ENDROOT
TORSDOF 0
ENDMDL
MODEL 2
REMARK VINA RESULT:    -3.846      0.893      3.351
REMARK INTER + INTRA:          -3.846
REMARK INTER:                  -3.846
REMARK INTRA:                   0.000
REMARK UNBOUND:                 0.000
REMARK SMILES CC1=CC=CC(C)(C)[C@H]1C
REMARK SMILES IDX 10 1 9 2 2 3 3 4 4 5 5 6 6 7 7 8 8 9 1 10
REMARK H PARENT
REMARK Flexibility Score: inf
ROOT
ATOM      1  C   UNL     1     134.206 135.516 133.747  1.00  0.00     0.013 C 
ATOM      2  C   UNL     1     134.719 136.019 132.385  1.00  0.00     0.021 C 
ATOM      3  C   UNL     1     134.984 134.810 131.499  1.00  0.00    -0.070 C 
ATOM      4  C   UNL     1     134.005 134.325 130.717  1.00  0.00    -0.001 C 
ATOM      5  C   UNL     1     132.709 135.020 130.611  1.00  0.00    -0.004 C 
ATOM      6  C   UNL     1     132.554 136.258 131.093  1.00  0.00    -0.020 C 
ATOM      7  C   UNL     1     133.733 137.018 131.675  1.00  0.00    -0.011 C 
ATOM      8  C   UNL     1     134.470 137.727 130.516  1.00  0.00     0.016 C 
ATOM      9  C   UNL     1     133.215 138.103 132.644  1.00  0.00     0.016 C 
ATOM     10  C   UNL     1     136.307 134.103 131.555  1.00  0.00     0.040 C 
ENDROOT
TORSDOF 0
ENDMDL
MODEL 3
REMARK VINA RESULT:    -3.824      2.939      4.648
REMARK INTER + INTRA:          -3.824
REMARK INTER:                  -3.824
REMARK INTRA:                   0.000
REMARK UNBOUND:                 0.000
REMARK SMILES CC1=CC=CC(C)(C)[C@H]1C
REMARK SMILES IDX 10 1 9 2 2 3 3 4 4 5 5 6 6 7 7 8 8 9 1 10
REMARK H PARENT
REMARK Flexibility Score: inf
ROOT
ATOM      1  C   UNL     1     137.359 138.445 130.189  1.00  0.00     0.013 C 
ATOM      2  C   UNL     1     136.509 138.846 131.409  1.00  0.00     0.021 C 
ATOM      3  C   UNL     1     136.740 140.324 131.689  1.00  0.00    -0.070 C 
ATOM      4  C   UNL     1     135.960 141.246 131.103  1.00  0.00    -0.001 C 
ATOM      5  C   UNL     1     134.799 140.846 130.286  1.00  0.00    -0.004 C 
ATOM      6  C   UNL     1     134.357 139.584 130.299  1.00  0.00    -0.020 C 
ATOM      7  C   UNL     1     134.975 138.552 131.226  1.00  0.00    -0.011 C 
ATOM      8  C   UNL     1     134.267 138.650 132.597  1.00  0.00     0.016 C 
ATOM      9  C   UNL     1     134.721 137.137 130.661  1.00  0.00     0.016 C 
ATOM     10  C   UNL     1     137.891 140.762 132.549  1.00  0.00     0.040 C 
ENDROOT
TORSDOF 0
ENDMDL
MODEL 4
REMARK VINA RESULT:    -3.818      1.095      2.367
REMARK INTER + INTRA:          -3.818
REMARK INTER:                  -3.818
REMARK INTRA:                   0.000
REMARK UNBOUND:                 0.000
REMARK SMILES CC1=CC=CC(C)(C)[C@H]1C
REMARK SMILES IDX 10 1 9 2 2 3 3 4 4 5 5 6 6 7 7 8 8 9 1 10
REMARK H PARENT
REMARK Flexibility Score: inf
ROOT
ATOM      1  C   UNL     1     132.095 135.931 131.185  1.00  0.00     0.013 C 
ATOM      2  C   UNL     1     133.578 136.341 131.123  1.00  0.00     0.021 C 
ATOM      3  C   UNL     1     134.023 136.737 132.523  1.00  0.00    -0.070 C 
ATOM      4  C   UNL     1     134.529 135.809 133.353  1.00  0.00    -0.001 C 
ATOM      5  C   UNL     1     134.775 134.433 132.886  1.00  0.00    -0.004 C 
ATOM      6  C   UNL     1     134.727 134.133 131.584  1.00  0.00    -0.020 C 
ATOM      7  C   UNL     1     134.514 135.218 130.544  1.00  0.00    -0.011 C 
ATOM      8  C   UNL     1     135.890 135.828 130.194  1.00  0.00     0.016 C 
ATOM      9  C   UNL     1     133.933 134.589 129.258  1.00  0.00     0.016 C 
ATOM     10  C   UNL     1     133.821 138.142 133.015  1.00  0.00     0.040 C 
ENDROOT
TORSDOF 0
ENDMDL
MODEL 5
REMARK VINA RESULT:    -3.817      4.425      6.629
REMARK INTER + INTRA:          -3.817
REMARK INTER:                  -3.817
REMARK INTRA:                   0.000
REMARK UNBOUND:                 0.000
REMARK SMILES CC1=CC=CC(C)(C)[C@H]1C
REMARK SMILES IDX 10 1 9 2 2 3 3 4 4 5 5 6 6 7 7 8 8 9 1 10
REMARK H PARENT
REMARK Flexibility Score: inf
ROOT
ATOM      1  C   UNL     1     138.435 136.347 130.313  1.00  0.00     0.013 C 
ATOM      2  C   UNL     1     138.871 137.215 131.508  1.00  0.00     0.021 C 
ATOM      3  C   UNL     1     140.364 137.014 131.725  1.00  0.00    -0.070 C 
ATOM      4  C   UNL     1     141.245 137.807 131.093  1.00  0.00    -0.001 C 
ATOM      5  C   UNL     1     140.787 138.953 130.286  1.00  0.00    -0.004 C 
ATOM      6  C   UNL     1     139.519 139.371 130.350  1.00  0.00    -0.020 C 
ATOM      7  C   UNL     1     138.541 138.742 131.326  1.00  0.00    -0.011 C 
ATOM      8  C   UNL     1     138.685 139.463 132.685  1.00  0.00     0.016 C 
ATOM      9  C   UNL     1     137.098 138.964 130.821  1.00  0.00     0.016 C 
ATOM     10  C   UNL     1     140.861 135.880 132.573  1.00  0.00     0.040 C 
ENDROOT
TORSDOF 0
ENDMDL
MODEL 6
REMARK VINA RESULT:    -3.800      2.916      4.650
REMARK INTER + INTRA:          -3.800
REMARK INTER:                  -3.800
REMARK INTRA:                   0.000
REMARK UNBOUND:                 0.000
REMARK SMILES CC1=CC=CC(C)(C)[C@H]1C
REMARK SMILES IDX 10 1 9 2 2 3 3 4 4 5 5 6 6 7 7 8 8 9 1 10
REMARK H PARENT
REMARK Flexibility Score: inf
ROOT
ATOM      1  C   UNL     1     136.376 135.410 130.322  1.00  0.00     0.013 C 
ATOM      2  C   UNL     1     137.285 135.015 131.501  1.00  0.00     0.021 C 
ATOM      3  C   UNL     1     136.968 133.577 131.887  1.00  0.00    -0.070 C 
ATOM      4  C   UNL     1     137.634 132.566 131.305  1.00  0.00    -0.001 C 
ATOM      5  C   UNL     1     138.755 132.829 130.385  1.00  0.00    -0.004 C 
ATOM      6  C   UNL     1     139.288 134.052 130.288  1.00  0.00    -0.020 C 
ATOM      7  C   UNL     1     138.818 135.178 131.191  1.00  0.00    -0.011 C 
ATOM      8  C   UNL     1     139.618 135.103 132.512  1.00  0.00     0.016 C 
ATOM      9  C   UNL     1     139.130 136.535 130.523  1.00  0.00     0.016 C 
ATOM     10  C   UNL     1     135.858 133.278 132.852  1.00  0.00     0.040 C 
ENDROOT
TORSDOF 0
ENDMDL
MODEL 7
REMARK VINA RESULT:    -3.790      5.108      6.467
REMARK INTER + INTRA:          -3.790
REMARK INTER:                  -3.790
REMARK INTRA:                   0.000
REMARK UNBOUND:                 0.000
REMARK SMILES CC1=CC=CC(C)(C)[C@H]1C
REMARK SMILES IDX 10 1 9 2 2 3 3 4 4 5 5 6 6 7 7 8 8 9 1 10
REMARK H PARENT
REMARK Flexibility Score: inf
ROOT
ATOM      1  C   UNL     1     138.058 138.259 132.889  1.00  0.00     0.013 C 
ATOM      2  C   UNL     1     139.588 138.165 132.741  1.00  0.00     0.021 C 
ATOM      3  C   UNL     1     140.128 137.316 133.883  1.00  0.00    -0.070 C 
ATOM      4  C   UNL     1     140.239 135.986 133.733  1.00  0.00    -0.001 C 
ATOM      5  C   UNL     1     139.963 135.345 132.434  1.00  0.00    -0.004 C 
ATOM      6  C   UNL     1     139.827 136.080 131.325  1.00  0.00    -0.020 C 
ATOM      7  C   UNL     1     140.048 137.582 131.355  1.00  0.00    -0.011 C 
ATOM      8  C   UNL     1     141.558 137.851 131.161  1.00  0.00     0.016 C 
ATOM      9  C   UNL     1     139.294 138.235 130.175  1.00  0.00     0.016 C 
ATOM     10  C   UNL     1     140.455 137.944 135.207  1.00  0.00     0.040 C 
ENDROOT
TORSDOF 0
ENDMDL
MODEL 8
REMARK VINA RESULT:    -3.789      3.051      4.927
REMARK INTER + INTRA:          -3.789
REMARK INTER:                  -3.789
REMARK INTRA:                   0.000
REMARK UNBOUND:                 0.000
REMARK SMILES CC1=CC=CC(C)(C)[C@H]1C
REMARK SMILES IDX 10 1 9 2 2 3 3 4 4 5 5 6 6 7 7 8 8 9 1 10
REMARK H PARENT
REMARK Flexibility Score: inf
ROOT
ATOM      1  C   UNL     1     137.769 132.105 131.222  1.00  0.00     0.013 C 
ATOM      2  C   UNL     1     137.400 133.587 131.023  1.00  0.00     0.021 C 
ATOM      3  C   UNL     1     136.945 134.149 132.362  1.00  0.00    -0.070 C 
ATOM      4  C   UNL     1     137.842 134.700 133.196  1.00  0.00    -0.001 C 
ATOM      5  C   UNL     1     139.246 134.881 132.784  1.00  0.00    -0.004 C 
ATOM      6  C   UNL     1     139.610 134.723 131.506  1.00  0.00    -0.020 C 
ATOM      7  C   UNL     1     138.572 134.451 130.431  1.00  0.00    -0.011 C 
ATOM      8  C   UNL     1     138.014 135.806 129.944  1.00  0.00     0.016 C 
ATOM      9  C   UNL     1     139.251 133.756 129.229  1.00  0.00     0.016 C 
ATOM     10  C   UNL     1     135.513 134.016 132.795  1.00  0.00     0.040 C 
ENDROOT
TORSDOF 0
ENDMDL
MODEL 9
REMARK VINA RESULT:    -3.766      4.704      6.398
REMARK INTER + INTRA:          -3.766
REMARK INTER:                  -3.766
REMARK INTRA:                   0.000
REMARK UNBOUND:                 0.000
REMARK SMILES CC1=CC=CC(C)(C)[C@H]1C
REMARK SMILES IDX 10 1 9 2 2 3 3 4 4 5 5 6 6 7 7 8 8 9 1 10
REMARK H PARENT
REMARK Flexibility Score: inf
ROOT
ATOM      1  C   UNL     1     141.528 137.764 131.245  1.00  0.00     0.013 C 
ATOM      2  C   UNL     1     140.036 137.409 131.114  1.00  0.00     0.021 C 
ATOM      3  C   UNL     1     139.535 136.942 132.473  1.00  0.00    -0.070 C 
ATOM      4  C   UNL     1     139.032 137.833 133.343  1.00  0.00    -0.001 C 
ATOM      5  C   UNL     1     138.844 139.243 132.957  1.00  0.00    -0.004 C 
ATOM      6  C   UNL     1     138.942 139.621 131.678  1.00  0.00    -0.020 C 
ATOM      7  C   UNL     1     139.154 138.595 130.578  1.00  0.00    -0.011 C 
ATOM      8  C   UNL     1     137.771 138.054 130.151  1.00  0.00     0.016 C 
ATOM      9  C   UNL     1     139.795 139.283 129.352  1.00  0.00     0.016 C 
ATOM     10  C   UNL     1     139.677 135.504 132.881  1.00  0.00     0.040 C 
ENDROOT
TORSDOF 0
ENDMDL
