MODEL 1
REMARK VINA RESULT:     7.415      0.000      0.000
REMARK INTER + INTRA:           7.415
REMARK INTER:                   7.415
REMARK INTRA:                   0.000
REMARK UNBOUND:                 0.000
REMARK SMILES C=C1[C@@H]2CC[C@@H](C2)C1(C)C
REMARK SMILES IDX 9 1 8 2 6 3 5 4 4 5 3 6 7 7 2 8 1 9 10 10
REMARK H PARENT
REMARK Flexibility Score: inf
ROOT
ATOM      1  C   UNL     1       1.898   6.454 -10.198  1.00  0.00     0.016 C 
ATOM      2  C   UNL     1       0.842   5.540  -9.533  1.00  0.00    -0.012 C 
ATOM      3  C   UNL     1       0.698   5.757  -7.985  1.00  0.00    -0.001 C 
ATOM      4  C   UNL     1       0.561   7.260  -7.641  1.00  0.00     0.005 C 
ATOM      5  C   UNL     1      -0.823   7.621  -8.224  1.00  0.00     0.008 C 
ATOM      6  C   UNL     1      -1.349   6.264  -8.727  1.00  0.00     0.015 C 
ATOM      7  C   UNL     1      -0.737   5.313  -7.722  1.00  0.00     0.012 C 
ATOM      8  C   UNL     1      -0.561   5.902  -9.957  1.00  0.00    -0.068 C 
ATOM      9  C   UNL     1      -1.024   5.952 -11.211  1.00  0.00     0.008 C 
ATOM     10  C   UNL     1       1.172   4.068  -9.865  1.00  0.00     0.016 C 
ENDROOT
TORSDOF 0
ENDMDL
MODEL 2
REMARK VINA RESULT:     9.485      0.817      2.527
REMARK INTER + INTRA:           9.485
REMARK INTER:                   9.485
REMARK INTRA:                   0.000
REMARK UNBOUND:                 0.000
REMARK SMILES C=C1[C@@H]2CC[C@@H](C2)C1(C)C
REMARK SMILES IDX 9 1 8 2 6 3 5 4 4 5 3 6 7 7 2 8 1 9 10 10
REMARK H PARENT
REMARK Flexibility Score: inf
ROOT
ATOM      1  C   UNL     1      -0.965   5.298 -11.292  1.00  0.00     0.016 C 
ATOM      2  C   UNL     1       0.153   6.000 -10.487  1.00  0.00    -0.012 C 
ATOM      3  C   UNL     1      -0.378   7.012  -9.411  1.00  0.00    -0.001 C 
ATOM      4  C   UNL     1      -1.493   6.375  -8.547  1.00  0.00     0.005 C 
ATOM      5  C   UNL     1      -0.733   5.300  -7.741  1.00  0.00     0.008 C 
ATOM      6  C   UNL     1       0.731   5.528  -8.159  1.00  0.00     0.015 C 
ATOM      7  C   UNL     1       0.750   7.024  -8.385  1.00  0.00     0.012 C 
ATOM      8  C   UNL     1       0.877   5.039  -9.575  1.00  0.00    -0.068 C 
ATOM      9  C   UNL     1       1.500   3.912  -9.941  1.00  0.00     0.008 C 
ATOM     10  C   UNL     1       1.125   6.687 -11.472  1.00  0.00     0.016 C 
ENDROOT
TORSDOF 0
ENDMDL
MODEL 3
REMARK VINA RESULT:    10.209      1.142      3.021
REMARK INTER + INTRA:          10.209
REMARK INTER:                  10.209
REMARK INTRA:                   0.000
REMARK UNBOUND:                 0.000
REMARK SMILES C=C1[C@@H]2CC[C@@H](C2)C1(C)C
REMARK SMILES IDX 9 1 8 2 6 3 5 4 4 5 3 6 7 7 2 8 1 9 10 10
REMARK H PARENT
REMARK Flexibility Score: inf
ROOT
ATOM      1  C   UNL     1       0.981   3.618  -9.287  1.00  0.00     0.016 C 
ATOM      2  C   UNL     1       1.112   5.100  -9.711  1.00  0.00    -0.012 C 
ATOM      3  C   UNL     1       0.711   5.372 -11.204  1.00  0.00    -0.001 C 
ATOM      4  C   UNL     1      -0.651   4.720 -11.545  1.00  0.00     0.005 C 
ATOM      5  C   UNL     1      -1.648   5.550 -10.708  1.00  0.00     0.008 C 
ATOM      6  C   UNL     1      -0.753   6.636 -10.083  1.00  0.00     0.015 C 
ATOM      7  C   UNL     1       0.281   6.835 -11.169  1.00  0.00     0.012 C 
ATOM      8  C   UNL     1       0.088   5.973  -9.026  1.00  0.00    -0.068 C 
ATOM      9  C   UNL     1      -0.090   6.103  -7.706  1.00  0.00     0.008 C 
ATOM     10  C   UNL     1       2.551   5.580  -9.420  1.00  0.00     0.016 C 
ENDROOT
TORSDOF 0
ENDMDL
MODEL 4
REMARK VINA RESULT:    10.376      0.850      3.031
REMARK INTER + INTRA:          10.376
REMARK INTER:                  10.376
REMARK INTRA:                   0.000
REMARK UNBOUND:                 0.000
REMARK SMILES C=C1[C@@H]2CC[C@@H](C2)C1(C)C
REMARK SMILES IDX 9 1 8 2 6 3 5 4 4 5 3 6 7 7 2 8 1 9 10 10
REMARK H PARENT
REMARK Flexibility Score: inf
ROOT
ATOM      1  C   UNL     1       0.014   5.218  -7.207  1.00  0.00     0.016 C 
ATOM      2  C   UNL     1       0.280   6.250  -8.327  1.00  0.00    -0.012 C 
ATOM      3  C   UNL     1       1.526   5.914  -9.221  1.00  0.00    -0.001 C 
ATOM      4  C   UNL     1       1.491   4.440  -9.695  1.00  0.00     0.005 C 
ATOM      5  C   UNL     1       0.290   4.419 -10.664  1.00  0.00     0.008 C 
ATOM      6  C   UNL     1      -0.143   5.896 -10.709  1.00  0.00     0.015 C 
ATOM      7  C   UNL     1       1.184   6.603 -10.537  1.00  0.00     0.012 C 
ATOM      8  C   UNL     1      -0.792   6.216  -9.390  1.00  0.00    -0.068 C 
ATOM      9  C   UNL     1      -2.106   6.384  -9.198  1.00  0.00     0.008 C 
ATOM     10  C   UNL     1       0.406   7.655  -7.696  1.00  0.00     0.016 C 
ENDROOT
TORSDOF 0
ENDMDL
