MODEL 1
REMARK VINA RESULT:    -3.342      0.000      0.000
REMARK INTER + INTRA:          -6.558
REMARK INTER:                  -5.687
REMARK INTRA:                  -0.871
REMARK UNBOUND:                -0.871
REMARK SMILES CCCCCCCCCCCCCC(=O)[O-]
REMARK SMILES IDX 8 1 9 2 10 3 11 4 12 5 13 6 14 7 15 8 16 9 7 10 6 11 5 12
REMARK SMILES IDX 4 13 3 14 2 15 1 16
REMARK H PARENT
REMARK Flexibility Score: inf
ROOT
ATOM      1  C   UNL     1      38.385 -38.756  -3.404  1.00  0.00     0.000 C 
ENDROOT
BRANCH   1   2
ATOM      2  C   UNL     1      37.128 -39.573  -3.762  1.00  0.00     0.000 C 
BRANCH   2   3
ATOM      3  C   UNL     1      37.395 -40.645  -4.828  1.00  0.00     0.000 C 
BRANCH   3   4
ATOM      4  C   UNL     1      36.127 -41.458  -5.118  1.00  0.00     0.000 C 
BRANCH   4   5
ATOM      5  C   UNL     1      35.235 -41.549  -3.872  1.00  0.00     0.006 C 
BRANCH   5   6
ATOM      6  C   UNL     1      33.757 -41.290  -4.195  1.00  0.00     0.053 C 
BRANCH   6   7
ATOM      7  C   UNL     1      32.969 -42.563  -4.242  1.00  0.00     0.041 C 
ATOM      8  O   UNL     1      31.713 -42.528  -4.334  1.00  0.00    -0.550 OA
ATOM      9  O   UNL     1      33.623 -43.787  -4.213  1.00  0.00    -0.550 OA
ENDBRANCH   6   7
ENDBRANCH   5   6
ENDBRANCH   4   5
ENDBRANCH   3   4
ENDBRANCH   2   3
ENDBRANCH   1   2
BRANCH   1  10
ATOM     10  C   UNL     1      38.203 -37.756  -2.248  1.00  0.00     0.000 C 
BRANCH  10  11
ATOM     11  C   UNL     1      38.798 -36.372  -2.551  1.00  0.00    -0.000 C 
BRANCH  11  12
ATOM     12  C   UNL     1      39.686 -35.892  -1.393  1.00  0.00    -0.000 C 
BRANCH  12  13
ATOM     13  C   UNL     1      41.111 -36.464  -1.463  1.00  0.00    -0.000 C 
BRANCH  13  14
ATOM     14  C   UNL     1      41.828 -36.109  -2.775  1.00  0.00    -0.000 C 
BRANCH  14  15
ATOM     15  C   UNL     1      42.590 -37.319  -3.328  1.00  0.00    -0.003 C 
ATOM     16  C   UNL     1      41.890 -37.898  -4.555  1.00  0.00     0.004 C 
ENDBRANCH  14  15
ENDBRANCH  13  14
ENDBRANCH  12  13
ENDBRANCH  11  12
ENDBRANCH  10  11
ENDBRANCH   1  10
TORSDOF 12
ENDMDL
MODEL 2
REMARK VINA RESULT:    -3.304     13.574     15.078
REMARK INTER + INTRA:          -6.493
REMARK INTER:                  -4.534
REMARK INTRA:                  -1.959
REMARK UNBOUND:                -0.871
REMARK SMILES CCCCCCCCCCCCCC(=O)[O-]
REMARK SMILES IDX 8 1 9 2 10 3 11 4 12 5 13 6 14 7 15 8 16 9 7 10 6 11 5 12
REMARK SMILES IDX 4 13 3 14 2 15 1 16
REMARK H PARENT
REMARK Flexibility Score: inf
ROOT
ATOM      1  C   UNL     1      34.385 -37.338  12.096  1.00  0.00     0.000 C 
ENDROOT
BRANCH   1   2
ATOM      2  C   UNL     1      32.884 -37.319  11.751  1.00  0.00     0.000 C 
BRANCH   2   3
ATOM      3  C   UNL     1      32.612 -36.980  10.278  1.00  0.00     0.000 C 
BRANCH   3   4
ATOM      4  C   UNL     1      33.919 -36.689   9.531  1.00  0.00     0.000 C 
BRANCH   4   5
ATOM      5  C   UNL     1      33.639 -36.170   8.113  1.00  0.00     0.006 C 
BRANCH   5   6
ATOM      6  C   UNL     1      33.188 -37.288   7.164  1.00  0.00     0.053 C 
BRANCH   6   7
ATOM      7  C   UNL     1      34.340 -38.135   6.719  1.00  0.00     0.041 C 
ATOM      8  O   UNL     1      34.173 -39.362   6.484  1.00  0.00    -0.550 OA
ATOM      9  O   UNL     1      35.592 -37.564   6.533  1.00  0.00    -0.550 OA
ENDBRANCH   6   7
ENDBRANCH   5   6
ENDBRANCH   4   5
ENDBRANCH   3   4
ENDBRANCH   2   3
ENDBRANCH   1   2
BRANCH   1  10
ATOM     10  C   UNL     1      34.714 -37.726  13.549  1.00  0.00     0.000 C 
BRANCH  10  11
ATOM     11  C   UNL     1      35.456 -39.066  13.659  1.00  0.00    -0.000 C 
BRANCH  11  12
ATOM     12  C   UNL     1      34.489 -40.246  13.473  1.00  0.00    -0.000 C 
BRANCH  12  13
ATOM     13  C   UNL     1      34.760 -41.035  12.182  1.00  0.00    -0.000 C 
BRANCH  13  14
ATOM     14  C   UNL     1      33.569 -41.011  11.212  1.00  0.00    -0.000 C 
BRANCH  14  15
ATOM     15  C   UNL     1      33.978 -40.423   9.856  1.00  0.00    -0.003 C 
ATOM     16  C   UNL     1      35.474 -40.119   9.815  1.00  0.00     0.004 C 
ENDBRANCH  14  15
ENDBRANCH  13  14
ENDBRANCH  12  13
ENDBRANCH  11  12
ENDBRANCH  10  11
ENDBRANCH   1  10
TORSDOF 12
ENDMDL
MODEL 3
REMARK VINA RESULT:    -3.299      4.997      6.500
REMARK INTER + INTRA:          -6.484
REMARK INTER:                  -5.307
REMARK INTRA:                  -1.177
REMARK UNBOUND:                -0.871
REMARK SMILES CCCCCCCCCCCCCC(=O)[O-]
REMARK SMILES IDX 8 1 9 2 10 3 11 4 12 5 13 6 14 7 15 8 16 9 7 10 6 11 5 12
REMARK SMILES IDX 4 13 3 14 2 15 1 16
REMARK H PARENT
REMARK Flexibility Score: inf
ROOT
ATOM      1  C   UNL     1      38.251 -37.392  -1.404  1.00  0.00     0.000 C 
ENDROOT
BRANCH   1   2
ATOM      2  C   UNL     1      38.241 -36.346  -0.272  1.00  0.00     0.000 C 
BRANCH   2   3
ATOM      3  C   UNL     1      39.093 -36.763   0.936  1.00  0.00     0.000 C 
BRANCH   3   4
ATOM      4  C   UNL     1      38.212 -37.046   2.158  1.00  0.00     0.000 C 
BRANCH   4   5
ATOM      5  C   UNL     1      37.024 -36.075   2.217  1.00  0.00     0.006 C 
BRANCH   5   6
ATOM      6  C   UNL     1      35.677 -36.808   2.277  1.00  0.00     0.053 C 
BRANCH   6   7
ATOM      7  C   UNL     1      35.006 -36.627   3.604  1.00  0.00     0.041 C 
ATOM      8  O   UNL     1      35.552 -35.932   4.502  1.00  0.00    -0.550 OA
ATOM      9  O   UNL     1      33.764 -37.201   3.839  1.00  0.00    -0.550 OA
ENDBRANCH   6   7
ENDBRANCH   5   6
ENDBRANCH   4   5
ENDBRANCH   3   4
ENDBRANCH   2   3
ENDBRANCH   1   2
BRANCH   1  10
ATOM     10  C   UNL     1      38.355 -36.811  -2.825  1.00  0.00     0.000 C 
BRANCH  10  11
ATOM     11  C   UNL     1      39.183 -37.690  -3.774  1.00  0.00    -0.000 C 
BRANCH  11  12
ATOM     12  C   UNL     1      39.949 -38.769  -2.994  1.00  0.00    -0.000 C 
BRANCH  12  13
ATOM     13  C   UNL     1      41.457 -38.484  -2.914  1.00  0.00    -0.000 C 
BRANCH  13  14
ATOM     14  C   UNL     1      41.917 -37.436  -3.939  1.00  0.00    -0.000 C 
BRANCH  14  15
ATOM     15  C   UNL     1      42.622 -36.264  -3.246  1.00  0.00    -0.003 C 
ATOM     16  C   UNL     1      41.908 -35.877  -1.954  1.00  0.00     0.004 C 
ENDBRANCH  14  15
ENDBRANCH  13  14
ENDBRANCH  12  13
ENDBRANCH  11  12
ENDBRANCH  10  11
ENDBRANCH   1  10
TORSDOF 12
ENDMDL
MODEL 4
REMARK VINA RESULT:    -3.264      4.429      8.244
REMARK INTER + INTRA:          -6.425
REMARK INTER:                  -5.653
REMARK INTRA:                  -0.772
REMARK UNBOUND:                -0.871
REMARK SMILES CCCCCCCCCCCCCC(=O)[O-]
REMARK SMILES IDX 8 1 9 2 10 3 11 4 12 5 13 6 14 7 15 8 16 9 7 10 6 11 5 12
REMARK SMILES IDX 4 13 3 14 2 15 1 16
REMARK H PARENT
REMARK Flexibility Score: inf
ROOT
ATOM      1  C   UNL     1      37.538 -39.687  -4.006  1.00  0.00     0.000 C 
ENDROOT
BRANCH   1   2
ATOM      2  C   UNL     1      37.643 -38.578  -2.942  1.00  0.00     0.000 C 
BRANCH   2   3
ATOM      3  C   UNL     1      38.600 -37.448  -3.347  1.00  0.00     0.000 C 
BRANCH   3   4
ATOM      4  C   UNL     1      38.777 -36.442  -2.204  1.00  0.00     0.000 C 
BRANCH   4   5
ATOM      5  C   UNL     1      40.234 -35.967  -2.109  1.00  0.00     0.006 C 
BRANCH   5   6
ATOM      6  C   UNL     1      41.233 -37.120  -2.270  1.00  0.00     0.053 C 
BRANCH   6   7
ATOM      7  C   UNL     1      42.297 -36.795  -3.273  1.00  0.00     0.041 C 
ATOM      8  O   UNL     1      43.238 -36.014  -2.970  1.00  0.00    -0.550 OA
ATOM      9  O   UNL     1      42.267 -37.379  -4.532  1.00  0.00    -0.550 OA
ENDBRANCH   6   7
ENDBRANCH   5   6
ENDBRANCH   4   5
ENDBRANCH   3   4
ENDBRANCH   2   3
ENDBRANCH   1   2
BRANCH   1  10
ATOM     10  C   UNL     1      36.673 -40.895  -3.604  1.00  0.00     0.000 C 
BRANCH  10  11
ATOM     11  C   UNL     1      35.885 -41.489  -4.781  1.00  0.00    -0.000 C 
BRANCH  11  12
ATOM     12  C   UNL     1      34.399 -41.642  -4.424  1.00  0.00    -0.000 C 
BRANCH  12  13
ATOM     13  C   UNL     1      33.833 -40.409  -3.702  1.00  0.00    -0.000 C 
BRANCH  13  14
ATOM     14  C   UNL     1      33.262 -40.744  -2.315  1.00  0.00    -0.000 C 
BRANCH  14  15
ATOM     15  C   UNL     1      33.972 -39.939  -1.221  1.00  0.00    -0.003 C 
ATOM     16  C   UNL     1      32.973 -39.377  -0.213  1.00  0.00     0.004 C 
ENDBRANCH  14  15
ENDBRANCH  13  14
ENDBRANCH  12  13
ENDBRANCH  11  12
ENDBRANCH  10  11
ENDBRANCH   1  10
TORSDOF 12
ENDMDL
MODEL 5
REMARK VINA RESULT:    -3.247      3.957      7.563
REMARK INTER + INTRA:          -6.396
REMARK INTER:                  -4.901
REMARK INTRA:                  -1.496
REMARK UNBOUND:                -0.871
REMARK SMILES CCCCCCCCCCCCCC(=O)[O-]
REMARK SMILES IDX 8 1 9 2 10 3 11 4 12 5 13 6 14 7 15 8 16 9 7 10 6 11 5 12
REMARK SMILES IDX 4 13 3 14 2 15 1 16
REMARK H PARENT
REMARK Flexibility Score: inf
ROOT
ATOM      1  C   UNL     1      37.382 -41.776  -3.476  1.00  0.00     0.000 C 
ENDROOT
BRANCH   1   2
ATOM      2  C   UNL     1      38.018 -40.470  -3.989  1.00  0.00     0.000 C 
BRANCH   2   3
ATOM      3  C   UNL     1      37.221 -39.219  -3.591  1.00  0.00     0.000 C 
BRANCH   3   4
ATOM      4  C   UNL     1      37.968 -38.408  -2.526  1.00  0.00     0.000 C 
BRANCH   4   5
ATOM      5  C   UNL     1      38.609 -37.154  -3.138  1.00  0.00     0.006 C 
BRANCH   5   6
ATOM      6  C   UNL     1      38.287 -35.887  -2.335  1.00  0.00     0.053 C 
BRANCH   6   7
ATOM      7  C   UNL     1      38.723 -36.010  -0.907  1.00  0.00     0.041 C 
ATOM      8  O   UNL     1      39.949 -36.043  -0.618  1.00  0.00    -0.550 OA
ATOM      9  O   UNL     1      37.776 -36.058   0.107  1.00  0.00    -0.550 OA
ENDBRANCH   6   7
ENDBRANCH   5   6
ENDBRANCH   4   5
ENDBRANCH   3   4
ENDBRANCH   2   3
ENDBRANCH   1   2
BRANCH   1  10
ATOM     10  C   UNL     1      36.397 -42.446  -4.450  1.00  0.00     0.000 C 
BRANCH  10  11
ATOM     11  C   UNL     1      35.078 -42.860  -3.779  1.00  0.00    -0.000 C 
BRANCH  11  12
ATOM     12  C   UNL     1      33.892 -42.092  -4.383  1.00  0.00    -0.000 C 
BRANCH  12  13
ATOM     13  C   UNL     1      33.717 -40.693  -3.768  1.00  0.00    -0.000 C 
BRANCH  13  14
ATOM     14  C   UNL     1      33.349 -40.743  -2.277  1.00  0.00    -0.000 C 
BRANCH  14  15
ATOM     15  C   UNL     1      34.418 -40.050  -1.425  1.00  0.00    -0.003 C 
ATOM     16  C   UNL     1      35.140 -41.049  -0.525  1.00  0.00     0.004 C 
ENDBRANCH  14  15
ENDBRANCH  13  14
ENDBRANCH  12  13
ENDBRANCH  11  12
ENDBRANCH  10  11
ENDBRANCH   1  10
TORSDOF 12
ENDMDL
MODEL 6
REMARK VINA RESULT:    -3.245     15.291     16.757
REMARK INTER + INTRA:          -6.392
REMARK INTER:                  -4.728
REMARK INTRA:                  -1.664
REMARK UNBOUND:                -0.871
REMARK SMILES CCCCCCCCCCCCCC(=O)[O-]
REMARK SMILES IDX 8 1 9 2 10 3 11 4 12 5 13 6 14 7 15 8 16 9 7 10 6 11 5 12
REMARK SMILES IDX 4 13 3 14 2 15 1 16
REMARK H PARENT
REMARK Flexibility Score: inf
ROOT
ATOM      1  C   UNL     1      35.685 -39.756  14.344  1.00  0.00     0.000 C 
ENDROOT
BRANCH   1   2
ATOM      2  C   UNL     1      35.016 -38.380  14.167  1.00  0.00     0.000 C 
BRANCH   2   3
ATOM      3  C   UNL     1      34.150 -38.293  12.902  1.00  0.00     0.000 C 
BRANCH   3   4
ATOM      4  C   UNL     1      34.386 -36.970  12.164  1.00  0.00     0.000 C 
BRANCH   4   5
ATOM      5  C   UNL     1      33.905 -37.058  10.708  1.00  0.00     0.006 C 
BRANCH   5   6
ATOM      6  C   UNL     1      32.474 -37.602  10.601  1.00  0.00     0.053 C 
BRANCH   6   7
ATOM      7  C   UNL     1      31.463 -36.497  10.560  1.00  0.00     0.041 C 
ATOM      8  O   UNL     1      30.903 -36.110  11.620  1.00  0.00    -0.550 OA
ATOM      9  O   UNL     1      31.162 -35.875   9.356  1.00  0.00    -0.550 OA
ENDBRANCH   6   7
ENDBRANCH   5   6
ENDBRANCH   4   5
ENDBRANCH   3   4
ENDBRANCH   2   3
ENDBRANCH   1   2
BRANCH   1  10
ATOM     10  C   UNL     1      34.717 -40.917  14.634  1.00  0.00     0.000 C 
BRANCH  10  11
ATOM     11  C   UNL     1      35.281 -42.286  14.224  1.00  0.00    -0.000 C 
BRANCH  11  12
ATOM     12  C   UNL     1      35.506 -42.354  12.706  1.00  0.00    -0.000 C 
BRANCH  12  13
ATOM     13  C   UNL     1      34.189 -42.375  11.913  1.00  0.00    -0.000 C 
BRANCH  13  14
ATOM     14  C   UNL     1      34.108 -41.251  10.869  1.00  0.00    -0.000 C 
BRANCH  14  15
ATOM     15  C   UNL     1      35.500 -40.688  10.560  1.00  0.00    -0.003 C 
ATOM     16  C   UNL     1      35.602 -40.235   9.106  1.00  0.00     0.004 C 
ENDBRANCH  14  15
ENDBRANCH  13  14
ENDBRANCH  12  13
ENDBRANCH  11  12
ENDBRANCH  10  11
ENDBRANCH   1  10
TORSDOF 12
ENDMDL
MODEL 7
REMARK VINA RESULT:    -3.238      2.493      3.803
REMARK INTER + INTRA:          -6.380
REMARK INTER:                  -4.538
REMARK INTRA:                  -1.842
REMARK UNBOUND:                -0.871
REMARK SMILES CCCCCCCCCCCCCC(=O)[O-]
REMARK SMILES IDX 8 1 9 2 10 3 11 4 12 5 13 6 14 7 15 8 16 9 7 10 6 11 5 12
REMARK SMILES IDX 4 13 3 14 2 15 1 16
REMARK H PARENT
REMARK Flexibility Score: inf
ROOT
ATOM      1  C   UNL     1      40.120 -37.521  -1.525  1.00  0.00     0.000 C 
ENDROOT
BRANCH   1   2
ATOM      2  C   UNL     1      39.241 -36.670  -2.461  1.00  0.00     0.000 C 
BRANCH   2   3
ATOM      3  C   UNL     1      38.199 -37.501  -3.224  1.00  0.00     0.000 C 
BRANCH   3   4
ATOM      4  C   UNL     1      38.745 -38.894  -3.558  1.00  0.00     0.000 C 
BRANCH   4   5
ATOM      5  C   UNL     1      37.610 -39.852  -3.947  1.00  0.00     0.006 C 
BRANCH   5   6
ATOM      6  C   UNL     1      36.309 -39.548  -3.191  1.00  0.00     0.053 C 
BRANCH   6   7
ATOM      7  C   UNL     1      36.149 -40.429  -1.990  1.00  0.00     0.041 C 
ATOM      8  O   UNL     1      36.817 -41.492  -1.889  1.00  0.00    -0.550 OA
ATOM      9  O   UNL     1      35.284 -40.060  -0.969  1.00  0.00    -0.550 OA
ENDBRANCH   6   7
ENDBRANCH   5   6
ENDBRANCH   4   5
ENDBRANCH   3   4
ENDBRANCH   2   3
ENDBRANCH   1   2
BRANCH   1  10
ATOM     10  C   UNL     1      41.551 -36.992  -1.318  1.00  0.00     0.000 C 
BRANCH  10  11
ATOM     11  C   UNL     1      42.059 -36.155  -2.502  1.00  0.00    -0.000 C 
BRANCH  11  12
ATOM     12  C   UNL     1      42.960 -36.995  -3.420  1.00  0.00    -0.000 C 
BRANCH  12  13
ATOM     13  C   UNL     1      42.221 -37.506  -4.668  1.00  0.00    -0.000 C 
BRANCH  13  14
ATOM     14  C   UNL     1      42.178 -39.040  -4.743  1.00  0.00    -0.000 C 
BRANCH  14  15
ATOM     15  C   UNL     1      42.894 -39.668  -3.543  1.00  0.00    -0.003 C 
ATOM     16  C   UNL     1      41.958 -40.586  -2.760  1.00  0.00     0.004 C 
ENDBRANCH  14  15
ENDBRANCH  13  14
ENDBRANCH  12  13
ENDBRANCH  11  12
ENDBRANCH  10  11
ENDBRANCH   1  10
TORSDOF 12
ENDMDL
MODEL 8
REMARK VINA RESULT:    -3.219      2.981      4.592
REMARK INTER + INTRA:          -6.349
REMARK INTER:                  -4.415
REMARK INTRA:                  -1.933
REMARK UNBOUND:                -0.871
REMARK SMILES CCCCCCCCCCCCCC(=O)[O-]
REMARK SMILES IDX 8 1 9 2 10 3 11 4 12 5 13 6 14 7 15 8 16 9 7 10 6 11 5 12
REMARK SMILES IDX 4 13 3 14 2 15 1 16
REMARK H PARENT
REMARK Flexibility Score: inf
ROOT
ATOM      1  C   UNL     1      40.708 -36.736  -0.944  1.00  0.00     0.000 C 
ENDROOT
BRANCH   1   2
ATOM      2  C   UNL     1      39.383 -35.949  -0.935  1.00  0.00     0.000 C 
BRANCH   2   3
ATOM      3  C   UNL     1      38.309 -36.574  -1.838  1.00  0.00     0.000 C 
BRANCH   3   4
ATOM      4  C   UNL     1      38.883 -36.918  -3.217  1.00  0.00     0.000 C 
BRANCH   4   5
ATOM      5  C   UNL     1      38.503 -38.347  -3.631  1.00  0.00     0.006 C 
BRANCH   5   6
ATOM      6  C   UNL     1      37.315 -38.889  -2.825  1.00  0.00     0.053 C 
BRANCH   6   7
ATOM      7  C   UNL     1      37.588 -40.261  -2.289  1.00  0.00     0.041 C 
ATOM      8  O   UNL     1      37.344 -41.277  -2.992  1.00  0.00    -0.550 OA
ATOM      9  O   UNL     1      38.141 -40.415  -1.025  1.00  0.00    -0.550 OA
ENDBRANCH   6   7
ENDBRANCH   5   6
ENDBRANCH   4   5
ENDBRANCH   3   4
ENDBRANCH   2   3
ENDBRANCH   1   2
BRANCH   1  10
ATOM     10  C   UNL     1      41.964 -35.891  -1.220  1.00  0.00     0.000 C 
BRANCH  10  11
ATOM     11  C   UNL     1      42.960 -36.586  -2.161  1.00  0.00    -0.000 C 
BRANCH  11  12
ATOM     12  C   UNL     1      42.652 -36.254  -3.629  1.00  0.00    -0.000 C 
BRANCH  12  13
ATOM     13  C   UNL     1      42.348 -37.506  -4.468  1.00  0.00    -0.000 C 
BRANCH  13  14
ATOM     14  C   UNL     1      42.952 -38.784  -3.866  1.00  0.00    -0.000 C 
BRANCH  14  15
ATOM     15  C   UNL     1      41.895 -39.888  -3.750  1.00  0.00    -0.003 C 
ATOM     16  C   UNL     1      41.456 -40.082  -2.301  1.00  0.00     0.004 C 
ENDBRANCH  14  15
ENDBRANCH  13  14
ENDBRANCH  12  13
ENDBRANCH  11  12
ENDBRANCH  10  11
ENDBRANCH   1  10
TORSDOF 12
ENDMDL
MODEL 9
REMARK VINA RESULT:    -3.185     13.943     15.502
REMARK INTER + INTRA:          -6.290
REMARK INTER:                  -5.275
REMARK INTRA:                  -1.016
REMARK UNBOUND:                -0.871
REMARK SMILES CCCCCCCCCCCCCC(=O)[O-]
REMARK SMILES IDX 8 1 9 2 10 3 11 4 12 5 13 6 14 7 15 8 16 9 7 10 6 11 5 12
REMARK SMILES IDX 4 13 3 14 2 15 1 16
REMARK H PARENT
REMARK Flexibility Score: inf
ROOT
ATOM      1  C   UNL     1      34.532 -38.747  11.025  1.00  0.00     0.000 C 
ENDROOT
BRANCH   1   2
ATOM      2  C   UNL     1      34.344 -37.947   9.721  1.00  0.00     0.000 C 
BRANCH   2   3
ATOM      3  C   UNL     1      33.561 -36.642   9.927  1.00  0.00     0.000 C 
BRANCH   3   4
ATOM      4  C   UNL     1      33.163 -36.023   8.583  1.00  0.00     0.000 C 
BRANCH   4   5
ATOM      5  C   UNL     1      34.308 -36.130   7.566  1.00  0.00     0.006 C 
BRANCH   5   6
ATOM      6  C   UNL     1      33.801 -36.132   6.118  1.00  0.00     0.053 C 
BRANCH   6   7
ATOM      7  C   UNL     1      34.844 -36.635   5.166  1.00  0.00     0.041 C 
ATOM      8  O   UNL     1      35.960 -37.027   5.598  1.00  0.00    -0.550 OA
ATOM      9  O   UNL     1      34.571 -36.699   3.807  1.00  0.00    -0.550 OA
ENDBRANCH   6   7
ENDBRANCH   5   6
ENDBRANCH   4   5
ENDBRANCH   3   4
ENDBRANCH   2   3
ENDBRANCH   1   2
BRANCH   1  10
ATOM     10  C   UNL     1      33.824 -38.158  12.257  1.00  0.00     0.000 C 
BRANCH  10  11
ATOM     11  C   UNL     1      34.803 -37.683  13.342  1.00  0.00    -0.000 C 
BRANCH  11  12
ATOM     12  C   UNL     1      34.828 -38.664  14.524  1.00  0.00    -0.000 C 
BRANCH  12  13
ATOM     13  C   UNL     1      35.839 -39.805  14.325  1.00  0.00    -0.000 C 
BRANCH  13  14
ATOM     14  C   UNL     1      35.178 -41.192  14.339  1.00  0.00    -0.000 C 
BRANCH  14  15
ATOM     15  C   UNL     1      33.676 -41.080  14.623  1.00  0.00    -0.003 C 
ATOM     16  C   UNL     1      32.852 -41.631  13.461  1.00  0.00     0.004 C 
ENDBRANCH  14  15
ENDBRANCH  13  14
ENDBRANCH  12  13
ENDBRANCH  11  12
ENDBRANCH  10  11
ENDBRANCH   1  10
TORSDOF 12
ENDMDL
