MODEL 1
REMARK VINA RESULT:    -5.979      0.000      0.000
REMARK INTER + INTRA:          -9.091
REMARK INTER:                  -8.076
REMARK INTRA:                  -1.015
REMARK UNBOUND:                -1.015
REMARK SMILES CC(=O)CCC=C(C)CCC=C(C)C
REMARK SMILES IDX 7 1 6 2 8 3 9 4 10 5 11 6 13 7 12 8 14 9 5 10 4 11 2 12 3 13
REMARK SMILES IDX 1 14
REMARK H PARENT
REMARK Flexibility Score: inf
ROOT
ATOM      1  C   UNL     1      32.552  18.564  28.477  1.00  0.00    -0.077 C 
ATOM      2  C   UNL     1      33.564  19.366  28.074  1.00  0.00    -0.028 C 
ATOM      3  C   UNL     1      31.115  19.032  28.479  1.00  0.00     0.039 C 
ENDROOT
BRANCH   1   4
ATOM      4  C   UNL     1      32.870  17.166  28.960  1.00  0.00     0.034 C 
BRANCH   4   5
ATOM      5  C   UNL     1      32.516  16.126  27.892  1.00  0.00     0.032 C 
BRANCH   5   6
ATOM      6  C   UNL     1      31.199  15.461  28.208  1.00  0.00    -0.028 C 
ATOM      7  C   UNL     1      28.817  14.880  27.867  1.00  0.00     0.039 C 
ATOM      8  C   UNL     1      30.072  15.617  27.476  1.00  0.00    -0.080 C 
ATOM      9  C   UNL     1      30.009  16.547  26.289  1.00  0.00     0.039 C 
ENDBRANCH   5   6
ENDBRANCH   4   5
ENDBRANCH   1   4
BRANCH   2  10
ATOM     10  C   UNL     1      33.382  20.765  27.536  1.00  0.00     0.035 C 
BRANCH  10  11
ATOM     11  C   UNL     1      33.674  20.811  26.034  1.00  0.00     0.079 C 
BRANCH  11  12
ATOM     12  C   UNL     1      32.404  20.648  25.241  1.00  0.00     0.130 C 
ATOM     13  O   UNL     1      31.677  21.613  25.063  1.00  0.00    -0.300 OA
ATOM     14  C   UNL     1      32.015  19.323  24.656  1.00  0.00     0.087 C 
ENDBRANCH  11  12
ENDBRANCH  10  11
ENDBRANCH   2  10
TORSDOF 6
ENDMDL
MODEL 2
REMARK VINA RESULT:    -5.875      1.346      3.335
REMARK INTER + INTRA:          -8.951
REMARK INTER:                  -8.126
REMARK INTRA:                  -0.825
REMARK UNBOUND:                -1.015
REMARK SMILES CC(=O)CCC=C(C)CCC=C(C)C
REMARK SMILES IDX 7 1 6 2 8 3 9 4 10 5 11 6 13 7 12 8 14 9 5 10 4 11 2 12 3 13
REMARK SMILES IDX 1 14
REMARK H PARENT
REMARK Flexibility Score: inf
ROOT
ATOM      1  C   UNL     1      30.850  17.708  25.499  1.00  0.00    -0.077 C 
ATOM      2  C   UNL     1      31.157  18.795  26.243  1.00  0.00    -0.028 C 
ATOM      3  C   UNL     1      31.392  17.519  24.101  1.00  0.00     0.039 C 
ENDROOT
BRANCH   1   4
ATOM      4  C   UNL     1      29.921  16.662  26.074  1.00  0.00     0.034 C 
BRANCH   4   5
ATOM      5  C   UNL     1      30.240  16.400  27.549  1.00  0.00     0.032 C 
BRANCH   5   6
ATOM      6  C   UNL     1      31.618  15.806  27.702  1.00  0.00    -0.028 C 
ATOM      7  C   UNL     1      33.899  15.590  28.641  1.00  0.00     0.039 C 
ATOM      8  C   UNL     1      32.563  16.280  28.548  1.00  0.00    -0.080 C 
ATOM      9  C   UNL     1      32.342  17.516  29.384  1.00  0.00     0.039 C 
ENDBRANCH   5   6
ENDBRANCH   4   5
ENDBRANCH   1   4
BRANCH   2  10
ATOM     10  C   UNL     1      32.097  19.891  25.807  1.00  0.00     0.035 C 
BRANCH  10  11
ATOM     11  C   UNL     1      33.001  20.324  26.964  1.00  0.00     0.079 C 
BRANCH  11  12
ATOM     12  C   UNL     1      33.604  21.677  26.690  1.00  0.00     0.130 C 
ATOM     13  O   UNL     1      33.072  22.419  25.879  1.00  0.00    -0.300 OA
ATOM     14  C   UNL     1      34.843  22.138  27.399  1.00  0.00     0.087 C 
ENDBRANCH  11  12
ENDBRANCH  10  11
ENDBRANCH   2  10
TORSDOF 6
ENDMDL
MODEL 3
REMARK VINA RESULT:    -5.782      2.275      3.768
REMARK INTER + INTRA:          -8.825
REMARK INTER:                  -7.970
REMARK INTRA:                  -0.855
REMARK UNBOUND:                -1.015
REMARK SMILES CC(=O)CCC=C(C)CCC=C(C)C
REMARK SMILES IDX 7 1 6 2 8 3 9 4 10 5 11 6 13 7 12 8 14 9 5 10 4 11 2 12 3 13
REMARK SMILES IDX 1 14
REMARK H PARENT
REMARK Flexibility Score: inf
ROOT
ATOM      1  C   UNL     1      32.148  20.102  26.481  1.00  0.00    -0.077 C 
ATOM      2  C   UNL     1      31.644  19.312  25.506  1.00  0.00    -0.028 C 
ATOM      3  C   UNL     1      33.411  20.909  26.283  1.00  0.00     0.039 C 
ENDROOT
BRANCH   1   4
ATOM      4  C   UNL     1      31.439  20.164  27.816  1.00  0.00     0.034 C 
BRANCH   4   5
ATOM      5  C   UNL     1      30.995  18.767  28.262  1.00  0.00     0.032 C 
BRANCH   5   6
ATOM      6  C   UNL     1      32.179  17.941  28.699  1.00  0.00    -0.028 C 
ATOM      7  C   UNL     1      33.669  15.964  28.742  1.00  0.00     0.039 C 
ATOM      8  C   UNL     1      32.438  16.687  28.261  1.00  0.00    -0.080 C 
ATOM      9  C   UNL     1      31.505  15.957  27.326  1.00  0.00     0.039 C 
ENDBRANCH   5   6
ENDBRANCH   4   5
ENDBRANCH   1   4
BRANCH   2  10
ATOM     10  C   UNL     1      32.229  19.188  24.120  1.00  0.00     0.035 C 
BRANCH  10  11
ATOM     11  C   UNL     1      31.839  17.851  23.484  1.00  0.00     0.079 C 
BRANCH  11  12
ATOM     12  C   UNL     1      32.591  17.635  22.197  1.00  0.00     0.130 C 
ATOM     13  O   UNL     1      32.874  16.499  21.849  1.00  0.00    -0.300 OA
ATOM     14  C   UNL     1      32.997  18.788  21.328  1.00  0.00     0.087 C 
ENDBRANCH  11  12
ENDBRANCH  10  11
ENDBRANCH   2  10
TORSDOF 6
ENDMDL
MODEL 4
REMARK VINA RESULT:    -5.755      1.734      2.404
REMARK INTER + INTRA:          -8.788
REMARK INTER:                  -7.885
REMARK INTRA:                  -0.903
REMARK UNBOUND:                -1.015
REMARK SMILES CC(=O)CCC=C(C)CCC=C(C)C
REMARK SMILES IDX 7 1 6 2 8 3 9 4 10 5 11 6 13 7 12 8 14 9 5 10 4 11 2 12 3 13
REMARK SMILES IDX 1 14
REMARK H PARENT
REMARK Flexibility Score: inf
ROOT
ATOM      1  C   UNL     1      31.769  19.688  27.156  1.00  0.00    -0.077 C 
ATOM      2  C   UNL     1      32.014  19.329  25.875  1.00  0.00    -0.028 C 
ATOM      3  C   UNL     1      31.407  21.106  27.534  1.00  0.00     0.039 C 
ENDROOT
BRANCH   1   4
ATOM      4  C   UNL     1      31.882  18.644  28.246  1.00  0.00     0.034 C 
BRANCH   4   5
ATOM      5  C   UNL     1      32.176  17.263  27.650  1.00  0.00     0.032 C 
BRANCH   5   6
ATOM      6  C   UNL     1      31.132  16.262  28.077  1.00  0.00    -0.028 C 
ATOM      7  C   UNL     1      29.094  14.877  27.840  1.00  0.00     0.039 C 
ATOM      8  C   UNL     1      30.061  15.912  27.327  1.00  0.00    -0.080 C 
ATOM      9  C   UNL     1      29.769  16.557  25.995  1.00  0.00     0.039 C 
ENDBRANCH   5   6
ENDBRANCH   4   5
ENDBRANCH   1   4
BRANCH   2  10
ATOM     10  C   UNL     1      31.902  20.259  24.693  1.00  0.00     0.035 C 
BRANCH  10  11
ATOM     11  C   UNL     1      31.066  19.623  23.579  1.00  0.00     0.079 C 
BRANCH  11  12
ATOM     12  C   UNL     1      31.955  18.956  22.562  1.00  0.00     0.130 C 
ATOM     13  O   UNL     1      32.524  19.636  21.723  1.00  0.00    -0.300 OA
ATOM     14  C   UNL     1      32.162  17.470  22.561  1.00  0.00     0.087 C 
ENDBRANCH  11  12
ENDBRANCH  10  11
ENDBRANCH   2  10
TORSDOF 6
ENDMDL
MODEL 5
REMARK VINA RESULT:    -5.595      1.551      3.920
REMARK INTER + INTRA:          -8.572
REMARK INTER:                  -7.893
REMARK INTRA:                  -0.680
REMARK UNBOUND:                -1.015
REMARK SMILES CC(=O)CCC=C(C)CCC=C(C)C
REMARK SMILES IDX 7 1 6 2 8 3 9 4 10 5 11 6 13 7 12 8 14 9 5 10 4 11 2 12 3 13
REMARK SMILES IDX 1 14
REMARK H PARENT
REMARK Flexibility Score: inf
ROOT
ATOM      1  C   UNL     1      30.830  16.448  26.855  1.00  0.00    -0.077 C 
ATOM      2  C   UNL     1      31.411  17.152  25.857  1.00  0.00    -0.028 C 
ATOM      3  C   UNL     1      29.392  15.990  26.777  1.00  0.00     0.039 C 
ENDROOT
BRANCH   1   4
ATOM      4  C   UNL     1      31.637  16.128  28.094  1.00  0.00     0.034 C 
BRANCH   4   5
ATOM      5  C   UNL     1      31.769  17.362  28.993  1.00  0.00     0.032 C 
BRANCH   5   6
ATOM      6  C   UNL     1      32.827  18.298  28.466  1.00  0.00    -0.028 C 
ATOM      7  C   UNL     1      33.716  20.402  27.510  1.00  0.00     0.039 C 
ATOM      8  C   UNL     1      32.577  19.538  27.985  1.00  0.00    -0.080 C 
ATOM      9  C   UNL     1      31.175  20.083  27.866  1.00  0.00     0.039 C 
ENDBRANCH   5   6
ENDBRANCH   4   5
ENDBRANCH   1   4
BRANCH   2  10
ATOM     10  C   UNL     1      30.734  17.507  24.556  1.00  0.00     0.035 C 
BRANCH  10  11
ATOM     11  C   UNL     1      31.753  18.026  23.537  1.00  0.00     0.079 C 
BRANCH  11  12
ATOM     12  C   UNL     1      31.476  19.467  23.196  1.00  0.00     0.130 C 
ATOM     13  O   UNL     1      31.218  19.774  22.043  1.00  0.00    -0.300 OA
ATOM     14  C   UNL     1      31.503  20.537  24.248  1.00  0.00     0.087 C 
ENDBRANCH  11  12
ENDBRANCH  10  11
ENDBRANCH   2  10
TORSDOF 6
ENDMDL
MODEL 6
REMARK VINA RESULT:    -5.590      2.414      3.934
REMARK INTER + INTRA:          -8.566
REMARK INTER:                  -7.971
REMARK INTRA:                  -0.595
REMARK UNBOUND:                -1.015
REMARK SMILES CC(=O)CCC=C(C)CCC=C(C)C
REMARK SMILES IDX 7 1 6 2 8 3 9 4 10 5 11 6 13 7 12 8 14 9 5 10 4 11 2 12 3 13
REMARK SMILES IDX 1 14
REMARK H PARENT
REMARK Flexibility Score: inf
ROOT
ATOM      1  C   UNL     1      30.936  17.925  25.574  1.00  0.00    -0.077 C 
ATOM      2  C   UNL     1      31.374  17.942  24.294  1.00  0.00    -0.028 C 
ATOM      3  C   UNL     1      31.278  19.027  26.550  1.00  0.00     0.039 C 
ENDROOT
BRANCH   1   4
ATOM      4  C   UNL     1      30.096  16.760  26.048  1.00  0.00     0.034 C 
BRANCH   4   5
ATOM      5  C   UNL     1      30.363  16.461  27.527  1.00  0.00     0.032 C 
BRANCH   5   6
ATOM      6  C   UNL     1      31.698  15.782  27.705  1.00  0.00    -0.028 C 
ATOM      7  C   UNL     1      33.944  15.426  28.682  1.00  0.00     0.039 C 
ATOM      8  C   UNL     1      32.656  16.198  28.565  1.00  0.00    -0.080 C 
ATOM      9  C   UNL     1      32.500  17.450  29.393  1.00  0.00     0.039 C 
ENDBRANCH   5   6
ENDBRANCH   4   5
ENDBRANCH   1   4
BRANCH   2  10
ATOM     10  C   UNL     1      32.186  19.058  23.685  1.00  0.00     0.035 C 
BRANCH  10  11
ATOM     11  C   UNL     1      31.673  19.400  22.283  1.00  0.00     0.079 C 
BRANCH  11  12
ATOM     12  C   UNL     1      32.517  18.731  21.230  1.00  0.00     0.130 C 
ATOM     13  O   UNL     1      33.669  19.100  21.059  1.00  0.00    -0.300 OA
ATOM     14  C   UNL     1      31.975  17.615  20.388  1.00  0.00     0.087 C 
ENDBRANCH  11  12
ENDBRANCH  10  11
ENDBRANCH   2  10
TORSDOF 6
ENDMDL
MODEL 7
REMARK VINA RESULT:    -5.571      2.068      4.920
REMARK INTER + INTRA:          -8.539
REMARK INTER:                  -8.002
REMARK INTRA:                  -0.537
REMARK UNBOUND:                -1.015
REMARK SMILES CC(=O)CCC=C(C)CCC=C(C)C
REMARK SMILES IDX 7 1 6 2 8 3 9 4 10 5 11 6 13 7 12 8 14 9 5 10 4 11 2 12 3 13
REMARK SMILES IDX 1 14
REMARK H PARENT
REMARK Flexibility Score: inf
ROOT
ATOM      1  C   UNL     1      30.439  15.903  26.940  1.00  0.00    -0.077 C 
ATOM      2  C   UNL     1      31.769  16.019  27.159  1.00  0.00    -0.028 C 
ATOM      3  C   UNL     1      29.529  15.184  27.909  1.00  0.00     0.039 C 
ENDROOT
BRANCH   1   4
ATOM      4  C   UNL     1      29.849  16.491  25.677  1.00  0.00     0.034 C 
BRANCH   4   5
ATOM      5  C   UNL     1      30.493  17.843  25.352  1.00  0.00     0.032 C 
BRANCH   5   6
ATOM      6  C   UNL     1      31.426  17.722  24.172  1.00  0.00    -0.028 C 
ATOM      7  C   UNL     1      32.826  18.538  22.301  1.00  0.00     0.039 C 
ATOM      8  C   UNL     1      31.872  18.771  23.443  1.00  0.00    -0.080 C 
ATOM      9  C   UNL     1      31.412  20.184  23.707  1.00  0.00     0.039 C 
ENDBRANCH   5   6
ENDBRANCH   4   5
ENDBRANCH   1   4
BRANCH   2  10
ATOM     10  C   UNL     1      32.478  15.512  28.391  1.00  0.00     0.035 C 
BRANCH  10  11
ATOM     11  C   UNL     1      33.294  16.630  29.047  1.00  0.00     0.079 C 
BRANCH  11  12
ATOM     12  C   UNL     1      32.534  17.930  29.018  1.00  0.00     0.130 C 
ATOM     13  O   UNL     1      31.546  18.065  29.724  1.00  0.00    -0.300 OA
ATOM     14  C   UNL     1      32.968  19.068  28.143  1.00  0.00     0.087 C 
ENDBRANCH  11  12
ENDBRANCH  10  11
ENDBRANCH   2  10
TORSDOF 6
ENDMDL
MODEL 8
REMARK VINA RESULT:    -5.408      3.462      6.165
REMARK INTER + INTRA:          -8.320
REMARK INTER:                  -7.681
REMARK INTRA:                  -0.640
REMARK UNBOUND:                -1.015
REMARK SMILES CC(=O)CCC=C(C)CCC=C(C)C
REMARK SMILES IDX 7 1 6 2 8 3 9 4 10 5 11 6 13 7 12 8 14 9 5 10 4 11 2 12 3 13
REMARK SMILES IDX 1 14
REMARK H PARENT
REMARK Flexibility Score: inf
ROOT
ATOM      1  C   UNL     1      31.681  19.223  24.178  1.00  0.00    -0.077 C 
ATOM      2  C   UNL     1      31.339  17.985  24.603  1.00  0.00    -0.028 C 
ATOM      3  C   UNL     1      32.058  20.323  25.143  1.00  0.00     0.039 C 
ENDROOT
BRANCH   1   4
ATOM      4  C   UNL     1      31.666  19.520  22.695  1.00  0.00     0.034 C 
BRANCH   4   5
ATOM      5  C   UNL     1      32.703  18.667  21.957  1.00  0.00     0.032 C 
BRANCH   5   6
ATOM      6  C   UNL     1      32.095  18.018  20.739  1.00  0.00    -0.028 C 
ATOM      7  C   UNL     1      31.370  16.138  19.300  1.00  0.00     0.039 C 
ATOM      8  C   UNL     1      32.027  16.680  20.542  1.00  0.00    -0.080 C 
ATOM      9  C   UNL     1      32.630  15.696  21.514  1.00  0.00     0.039 C 
ENDBRANCH   5   6
ENDBRANCH   4   5
ENDBRANCH   1   4
BRANCH   2  10
ATOM     10  C   UNL     1      31.347  17.546  26.046  1.00  0.00     0.035 C 
BRANCH  10  11
ATOM     11  C   UNL     1      30.023  16.871  26.416  1.00  0.00     0.079 C 
BRANCH  11  12
ATOM     12  C   UNL     1      30.268  15.646  27.258  1.00  0.00     0.130 C 
ATOM     13  O   UNL     1      31.413  15.272  27.458  1.00  0.00    -0.300 OA
ATOM     14  C   UNL     1      29.132  14.875  27.863  1.00  0.00     0.087 C 
ENDBRANCH  11  12
ENDBRANCH  10  11
ENDBRANCH   2  10
TORSDOF 6
ENDMDL
MODEL 9
REMARK VINA RESULT:    -5.377      1.545      3.359
REMARK INTER + INTRA:          -8.278
REMARK INTER:                  -8.016
REMARK INTRA:                  -0.263
REMARK UNBOUND:                -1.015
REMARK SMILES CC(=O)CCC=C(C)CCC=C(C)C
REMARK SMILES IDX 7 1 6 2 8 3 9 4 10 5 11 6 13 7 12 8 14 9 5 10 4 11 2 12 3 13
REMARK SMILES IDX 1 14
REMARK H PARENT
REMARK Flexibility Score: inf
ROOT
ATOM      1  C   UNL     1      31.439  19.313  23.945  1.00  0.00    -0.077 C 
ATOM      2  C   UNL     1      31.576  20.222  24.936  1.00  0.00    -0.028 C 
ATOM      3  C   UNL     1      31.448  19.713  22.487  1.00  0.00     0.039 C 
ENDROOT
BRANCH   1   4
ATOM      4  C   UNL     1      31.251  17.855  24.305  1.00  0.00     0.034 C 
BRANCH   4   5
ATOM      5  C   UNL     1      31.290  17.660  25.824  1.00  0.00     0.032 C 
BRANCH   5   6
ATOM      6  C   UNL     1      30.266  16.642  26.261  1.00  0.00    -0.028 C 
ATOM      7  C   UNL     1      29.303  14.875  27.702  1.00  0.00     0.039 C 
ATOM      8  C   UNL     1      30.404  15.838  27.341  1.00  0.00    -0.080 C 
ATOM      9  C   UNL     1      31.654  15.837  28.186  1.00  0.00     0.039 C 
ENDBRANCH   5   6
ENDBRANCH   4   5
ENDBRANCH   1   4
BRANCH   2  10
ATOM     10  C   UNL     1      31.807  21.697  24.716  1.00  0.00     0.035 C 
BRANCH  10  11
ATOM     11  C   UNL     1      32.579  22.307  25.889  1.00  0.00     0.079 C 
BRANCH  11  12
ATOM     12  C   UNL     1      32.440  21.451  27.120  1.00  0.00     0.130 C 
ATOM     13  O   UNL     1      31.421  21.522  27.791  1.00  0.00    -0.300 OA
ATOM     14  C   UNL     1      33.525  20.504  27.539  1.00  0.00     0.087 C 
ENDBRANCH  11  12
ENDBRANCH  10  11
ENDBRANCH   2  10
TORSDOF 6
ENDMDL
