MODEL 1
REMARK VINA RESULT:    -3.536      0.000      0.000
REMARK INTER + INTRA:          -4.558
REMARK INTER:                  -4.363
REMARK INTRA:                  -0.195
REMARK UNBOUND:                -0.195
REMARK SMILES CCCCCC(=O)[O-]
REMARK SMILES IDX 4 1 5 2 6 3 7 4 8 5 3 6 2 7 1 8
REMARK H PARENT
REMARK Flexibility Score: inf
ROOT
ATOM      1  C   UNL     1     163.446 166.552 159.814  1.00  0.00     0.006 C 
ENDROOT
BRANCH   1   2
ATOM      2  C   UNL     1     162.016 166.440 160.361  1.00  0.00     0.053 C 
BRANCH   2   3
ATOM      3  C   UNL     1     161.293 167.750 160.296  1.00  0.00     0.041 C 
ATOM      4  O   UNL     1     161.907 168.825 160.522  1.00  0.00    -0.550 OA
ATOM      5  O   UNL     1     159.947 167.784 159.955  1.00  0.00    -0.550 OA
ENDBRANCH   2   3
ENDBRANCH   1   2
BRANCH   1   6
ATOM      6  C   UNL     1     163.581 165.938 158.413  1.00  0.00     0.000 C 
BRANCH   6   7
ATOM      7  C   UNL     1     163.284 166.978 157.327  1.00  0.00    -0.003 C 
ATOM      8  C   UNL     1     161.992 166.648 156.585  1.00  0.00     0.004 C 
ENDBRANCH   6   7
ENDBRANCH   1   6
TORSDOF 4
ENDMDL
MODEL 2
REMARK VINA RESULT:    -3.501      2.143      4.083
REMARK INTER + INTRA:          -4.515
REMARK INTER:                  -4.321
REMARK INTRA:                  -0.194
REMARK UNBOUND:                -0.195
REMARK SMILES CCCCCC(=O)[O-]
REMARK SMILES IDX 4 1 5 2 6 3 7 4 8 5 3 6 2 7 1 8
REMARK H PARENT
REMARK Flexibility Score: inf
ROOT
ATOM      1  C   UNL     1     159.771 167.106 160.139  1.00  0.00     0.006 C 
ENDROOT
BRANCH   1   2
ATOM      2  C   UNL     1     161.111 166.839 159.440  1.00  0.00     0.053 C 
BRANCH   2   3
ATOM      3  C   UNL     1     162.237 167.573 160.101  1.00  0.00     0.041 C 
ATOM      4  O   UNL     1     163.371 167.036 160.202  1.00  0.00    -0.550 OA
ATOM      5  O   UNL     1     162.041 168.864 160.577  1.00  0.00    -0.550 OA
ENDBRANCH   2   3
ENDBRANCH   1   2
BRANCH   1   6
ATOM      6  C   UNL     1     159.308 165.909 160.982  1.00  0.00     0.000 C 
BRANCH   6   7
ATOM      7  C   UNL     1     159.822 166.020 162.422  1.00  0.00    -0.003 C 
ATOM      8  C   UNL     1     160.893 164.972 162.709  1.00  0.00     0.004 C 
ENDBRANCH   6   7
ENDBRANCH   1   6
TORSDOF 4
ENDMDL
MODEL 3
REMARK VINA RESULT:    -3.401      2.430      4.066
REMARK INTER + INTRA:          -4.392
REMARK INTER:                  -4.246
REMARK INTRA:                  -0.146
REMARK UNBOUND:                -0.195
REMARK SMILES CCCCCC(=O)[O-]
REMARK SMILES IDX 4 1 5 2 6 3 7 4 8 5 3 6 2 7 1 8
REMARK H PARENT
REMARK Flexibility Score: inf
ROOT
ATOM      1  C   UNL     1     160.835 166.487 158.977  1.00  0.00     0.006 C 
ENDROOT
BRANCH   1   2
ATOM      2  C   UNL     1     161.878 165.518 159.552  1.00  0.00     0.053 C 
BRANCH   2   3
ATOM      3  C   UNL     1     163.245 166.130 159.583  1.00  0.00     0.041 C 
ATOM      4  O   UNL     1     163.505 167.061 160.389  1.00  0.00    -0.550 OA
ATOM      5  O   UNL     1     164.241 165.647 158.743  1.00  0.00    -0.550 OA
ENDBRANCH   2   3
ENDBRANCH   1   2
BRANCH   1   6
ATOM      6  C   UNL     1     159.986 167.144 160.074  1.00  0.00     0.000 C 
BRANCH   6   7
ATOM      7  C   UNL     1     159.414 166.091 161.030  1.00  0.00    -0.003 C 
ATOM      8  C   UNL     1     159.814 166.380 162.474  1.00  0.00     0.004 C 
ENDBRANCH   6   7
ENDBRANCH   1   6
TORSDOF 4
ENDMDL
MODEL 4
REMARK VINA RESULT:    -3.375      2.586      3.309
REMARK INTER + INTRA:          -4.360
REMARK INTER:                  -4.218
REMARK INTRA:                  -0.142
REMARK UNBOUND:                -0.195
REMARK SMILES CCCCCC(=O)[O-]
REMARK SMILES IDX 4 1 5 2 6 3 7 4 8 5 3 6 2 7 1 8
REMARK H PARENT
REMARK Flexibility Score: inf
ROOT
ATOM      1  C   UNL     1     163.162 165.104 157.909  1.00  0.00     0.006 C 
ENDROOT
BRANCH   1   2
ATOM      2  C   UNL     1     163.919 165.873 158.999  1.00  0.00     0.053 C 
BRANCH   2   3
ATOM      3  C   UNL     1     162.986 166.474 160.004  1.00  0.00     0.041 C 
ATOM      4  O   UNL     1     162.903 167.724 160.126  1.00  0.00    -0.550 OA
ATOM      5  O   UNL     1     162.184 165.652 160.786  1.00  0.00    -0.550 OA
ENDBRANCH   2   3
ENDBRANCH   1   2
BRANCH   1   6
ATOM      6  C   UNL     1     163.467 163.600 157.941  1.00  0.00     0.000 C 
BRANCH   6   7
ATOM      7  C   UNL     1     162.304 162.817 158.562  1.00  0.00    -0.003 C 
ATOM      8  C   UNL     1     162.677 161.354 158.779  1.00  0.00     0.004 C 
ENDBRANCH   6   7
ENDBRANCH   1   6
TORSDOF 4
ENDMDL
MODEL 5
REMARK VINA RESULT:    -3.373      1.807      2.132
REMARK INTER + INTRA:          -4.357
REMARK INTER:                  -4.123
REMARK INTRA:                  -0.234
REMARK UNBOUND:                -0.195
REMARK SMILES CCCCCC(=O)[O-]
REMARK SMILES IDX 4 1 5 2 6 3 7 4 8 5 3 6 2 7 1 8
REMARK H PARENT
REMARK Flexibility Score: inf
ROOT
ATOM      1  C   UNL     1     160.757 164.795 158.503  1.00  0.00     0.006 C 
ENDROOT
BRANCH   1   2
ATOM      2  C   UNL     1     160.564 165.253 159.955  1.00  0.00     0.053 C 
BRANCH   2   3
ATOM      3  C   UNL     1     159.636 166.425 160.048  1.00  0.00     0.041 C 
ATOM      4  O   UNL     1     160.016 167.566 159.677  1.00  0.00    -0.550 OA
ATOM      5  O   UNL     1     158.340 166.250 160.516  1.00  0.00    -0.550 OA
ENDBRANCH   2   3
ENDBRANCH   1   2
BRANCH   1   6
ATOM      6  C   UNL     1     162.221 164.901 158.051  1.00  0.00     0.000 C 
BRANCH   6   7
ATOM      7  C   UNL     1     162.458 166.192 157.259  1.00  0.00    -0.003 C 
ATOM      8  C   UNL     1     161.297 166.480 156.312  1.00  0.00     0.004 C 
ENDBRANCH   6   7
ENDBRANCH   1   6
TORSDOF 4
ENDMDL
MODEL 6
REMARK VINA RESULT:    -3.345      1.831      2.580
REMARK INTER + INTRA:          -4.323
REMARK INTER:                  -4.072
REMARK INTRA:                  -0.251
REMARK UNBOUND:                -0.195
REMARK SMILES CCCCCC(=O)[O-]
REMARK SMILES IDX 4 1 5 2 6 3 7 4 8 5 3 6 2 7 1 8
REMARK H PARENT
REMARK Flexibility Score: inf
ROOT
ATOM      1  C   UNL     1     162.204 164.635 157.954  1.00  0.00     0.006 C 
ENDROOT
BRANCH   1   2
ATOM      2  C   UNL     1     162.137 164.436 159.474  1.00  0.00     0.053 C 
BRANCH   2   3
ATOM      3  C   UNL     1     162.262 165.735 160.210  1.00  0.00     0.041 C 
ATOM      4  O   UNL     1     161.327 166.137 160.950  1.00  0.00    -0.550 OA
ATOM      5  O   UNL     1     163.426 166.486 160.100  1.00  0.00    -0.550 OA
ENDBRANCH   2   3
ENDBRANCH   1   2
BRANCH   1   6
ATOM      6  C   UNL     1     161.007 165.436 157.420  1.00  0.00     0.000 C 
BRANCH   6   7
ATOM      7  C   UNL     1     161.462 166.489 156.403  1.00  0.00    -0.003 C 
ATOM      8  C   UNL     1     162.899 166.927 156.667  1.00  0.00     0.004 C 
ENDBRANCH   6   7
ENDBRANCH   1   6
TORSDOF 4
ENDMDL
MODEL 7
REMARK VINA RESULT:    -3.309      2.922      3.732
REMARK INTER + INTRA:          -4.278
REMARK INTER:                  -3.997
REMARK INTRA:                  -0.281
REMARK UNBOUND:                -0.195
REMARK SMILES CCCCCC(=O)[O-]
REMARK SMILES IDX 4 1 5 2 6 3 7 4 8 5 3 6 2 7 1 8
REMARK H PARENT
REMARK Flexibility Score: inf
ROOT
ATOM      1  C   UNL     1     161.723 164.962 157.931  1.00  0.00     0.006 C 
ENDROOT
BRANCH   1   2
ATOM      2  C   UNL     1     162.378 166.323 158.206  1.00  0.00     0.053 C 
BRANCH   2   3
ATOM      3  C   UNL     1     163.545 166.199 159.137  1.00  0.00     0.041 C 
ATOM      4  O   UNL     1     163.531 166.781 160.253  1.00  0.00    -0.550 OA
ATOM      5  O   UNL     1     164.635 165.413 158.784  1.00  0.00    -0.550 OA
ENDBRANCH   2   3
ENDBRANCH   1   2
BRANCH   1   6
ATOM      6  C   UNL     1     161.134 164.334 159.202  1.00  0.00     0.000 C 
BRANCH   6   7
ATOM      7  C   UNL     1     161.712 162.934 159.441  1.00  0.00    -0.003 C 
ATOM      8  C   UNL     1     162.625 162.511 158.294  1.00  0.00     0.004 C 
ENDBRANCH   6   7
ENDBRANCH   1   6
TORSDOF 4
ENDMDL
MODEL 8
REMARK VINA RESULT:    -3.289      2.944      4.533
REMARK INTER + INTRA:          -4.253
REMARK INTER:                  -3.976
REMARK INTRA:                  -0.277
REMARK UNBOUND:                -0.195
REMARK SMILES CCCCCC(=O)[O-]
REMARK SMILES IDX 4 1 5 2 6 3 7 4 8 5 3 6 2 7 1 8
REMARK H PARENT
REMARK Flexibility Score: inf
ROOT
ATOM      1  C   UNL     1     159.592 164.342 160.510  1.00  0.00     0.006 C 
ENDROOT
BRANCH   1   2
ATOM      2  C   UNL     1     160.081 164.433 159.058  1.00  0.00     0.053 C 
BRANCH   2   3
ATOM      3  C   UNL     1     161.198 165.419 158.909  1.00  0.00     0.041 C 
ATOM      4  O   UNL     1     162.312 165.205 159.455  1.00  0.00    -0.550 OA
ATOM      5  O   UNL     1     161.017 166.562 158.140  1.00  0.00    -0.550 OA
ENDBRANCH   2   3
ENDBRANCH   1   2
BRANCH   1   6
ATOM      6  C   UNL     1     159.171 165.710 161.067  1.00  0.00     0.000 C 
BRANCH   6   7
ATOM      7  C   UNL     1     159.847 165.985 162.415  1.00  0.00    -0.003 C 
ATOM      8  C   UNL     1     160.914 164.938 162.722  1.00  0.00     0.004 C 
ENDBRANCH   6   7
ENDBRANCH   1   6
TORSDOF 4
ENDMDL
MODEL 9
REMARK VINA RESULT:    -3.286      2.846      3.490
REMARK INTER + INTRA:          -4.249
REMARK INTER:                  -4.013
REMARK INTRA:                  -0.237
REMARK UNBOUND:                -0.195
REMARK SMILES CCCCCC(=O)[O-]
REMARK SMILES IDX 4 1 5 2 6 3 7 4 8 5 3 6 2 7 1 8
REMARK H PARENT
REMARK Flexibility Score: inf
ROOT
ATOM      1  C   UNL     1     160.861 164.798 161.539  1.00  0.00     0.006 C 
ENDROOT
BRANCH   1   2
ATOM      2  C   UNL     1     160.313 166.210 161.787  1.00  0.00     0.053 C 
BRANCH   2   3
ATOM      3  C   UNL     1     159.406 166.655 160.681  1.00  0.00     0.041 C 
ATOM      4  O   UNL     1     158.279 166.116 160.530  1.00  0.00    -0.550 OA
ATOM      5  O   UNL     1     159.795 167.689 159.838  1.00  0.00    -0.550 OA
ENDBRANCH   2   3
ENDBRANCH   1   2
BRANCH   1   6
ATOM      6  C   UNL     1     161.482 164.653 160.143  1.00  0.00     0.000 C 
BRANCH   6   7
ATOM      7  C   UNL     1     161.154 163.284 159.536  1.00  0.00    -0.003 C 
ATOM      8  C   UNL     1     159.741 163.261 158.958  1.00  0.00     0.004 C 
ENDBRANCH   6   7
ENDBRANCH   1   6
TORSDOF 4
ENDMDL
