MODEL 1
REMARK VINA RESULT:    -4.615      0.000      0.000
REMARK INTER + INTRA:          -5.864
REMARK INTER:                  -5.695
REMARK INTRA:                  -0.169
REMARK UNBOUND:                -0.169
REMARK SMILES O=c1c(O)c(-c2cc(O)c(O)c(O)c2)oc2cc(O)cc(O)c12
REMARK SMILES IDX 5 1 3 2 2 3 1 4 23 5 21 6 20 7 18 8 17 9 16 10 15 11 6 12
REMARK SMILES IDX 7 13 8 14 14 15 10 16 12 17 9 18 11 20 13 22 4 24 22 26
REMARK SMILES IDX 19 28
REMARK H PARENT 9 19 11 21 13 23 4 25 22 27 19 29
REMARK Flexibility Score: inf
ROOT
ATOM      1  C   UNL     1     177.563 175.922 171.478  1.00  0.00     0.180 A 
ATOM      2  C   UNL     1     177.585 174.574 171.877  1.00  0.00     0.208 A 
ATOM      3  C   UNL     1     177.976 174.259 173.188  1.00  0.00     0.238 A 
ATOM      4  O   UNL     1     177.941 173.056 173.555  1.00  0.00    -0.285 OA
ATOM      5  C   UNL     1     178.356 175.292 174.078  1.00  0.00     0.111 A 
ATOM      6  C   UNL     1     178.808 175.083 175.416  1.00  0.00     0.134 A 
ATOM      7  C   UNL     1     179.033 176.186 176.248  1.00  0.00     0.093 A 
ATOM      8  C   UNL     1     178.884 177.491 175.771  1.00  0.00     0.123 A 
ATOM      9  C   UNL     1     178.501 177.704 174.450  1.00  0.00     0.094 A 
ATOM     10  C   UNL     1     178.235 176.625 173.606  1.00  0.00     0.146 A 
ATOM     11  O   UNL     1     177.861 176.873 172.356  1.00  0.00    -0.452 OA
ENDROOT
BRANCH   1  12
ATOM     12  C   UNL     1     177.186 176.332 170.105  1.00  0.00     0.029 A 
ATOM     13  C   UNL     1     176.130 177.234 169.921  1.00  0.00     0.062 A 
ATOM     14  C   UNL     1     175.765 177.653 168.638  1.00  0.00     0.162 A 
ATOM     15  C   UNL     1     177.901 175.880 168.986  1.00  0.00     0.062 A 
ATOM     16  C   UNL     1     176.468 177.183 167.513  1.00  0.00     0.200 A 
ATOM     17  C   UNL     1     177.552 176.292 167.694  1.00  0.00     0.162 A 
BRANCH  14  18
ATOM     18  O   UNL     1     174.697 178.540 168.502  1.00  0.00    -0.504 OA
ATOM     19  H   UNL     1     174.353 178.838 167.597  1.00  0.00     0.293 HD
ENDBRANCH  14  18
BRANCH  16  20
ATOM     20  O   UNL     1     176.064 177.619 166.248  1.00  0.00    -0.502 OA
ATOM     21  H   UNL     1     176.279 177.138 165.387  1.00  0.00     0.293 HD
ENDBRANCH  16  20
BRANCH  17  22
ATOM     22  O   UNL     1     178.310 175.798 166.631  1.00  0.00    -0.504 OA
ATOM     23  H   UNL     1     177.935 175.237 165.880  1.00  0.00     0.293 HD
ENDBRANCH  17  22
ENDBRANCH   1  12
BRANCH   2  24
ATOM     24  O   UNL     1     177.185 173.573 170.989  1.00  0.00    -0.502 OA
ATOM     25  H   UNL     1     177.799 172.818 170.707  1.00  0.00     0.293 HD
ENDBRANCH   2  24
BRANCH   6  26
ATOM     26  O   UNL     1     179.076 173.824 175.962  1.00  0.00    -0.507 OA
ATOM     27  H   UNL     1     178.477 173.342 176.616  1.00  0.00     0.293 HD
ENDBRANCH   6  26
BRANCH   8  28
ATOM     28  O   UNL     1     179.125 178.583 176.603  1.00  0.00    -0.508 OA
ATOM     29  H   UNL     1     178.920 178.550 177.594  1.00  0.00     0.293 HD
ENDBRANCH   8  28
TORSDOF 7
ENDMDL
MODEL 2
REMARK VINA RESULT:    -4.354     15.075     17.049
REMARK INTER + INTRA:          -5.541
REMARK INTER:                  -5.413
REMARK INTRA:                  -0.128
REMARK UNBOUND:                -0.169
REMARK SMILES O=c1c(O)c(-c2cc(O)c(O)c(O)c2)oc2cc(O)cc(O)c12
REMARK SMILES IDX 5 1 3 2 2 3 1 4 23 5 21 6 20 7 18 8 17 9 16 10 15 11 6 12
REMARK SMILES IDX 7 13 8 14 14 15 10 16 12 17 9 18 11 20 13 22 4 24 22 26
REMARK SMILES IDX 19 28
REMARK H PARENT 9 19 11 21 13 23 4 25 22 27 19 29
REMARK Flexibility Score: inf
ROOT
ATOM      1  C   UNL     1     175.067 159.825 171.005  1.00  0.00     0.180 A 
ATOM      2  C   UNL     1     175.830 159.613 172.166  1.00  0.00     0.208 A 
ATOM      3  C   UNL     1     175.170 159.331 173.373  1.00  0.00     0.238 A 
ATOM      4  O   UNL     1     175.861 159.089 174.396  1.00  0.00    -0.285 OA
ATOM      5  C   UNL     1     173.756 159.280 173.408  1.00  0.00     0.111 A 
ATOM      6  C   UNL     1     172.983 159.042 174.584  1.00  0.00     0.134 A 
ATOM      7  C   UNL     1     171.595 158.884 174.477  1.00  0.00     0.093 A 
ATOM      8  C   UNL     1     170.948 159.019 173.246  1.00  0.00     0.123 A 
ATOM      9  C   UNL     1     171.688 159.310 172.104  1.00  0.00     0.094 A 
ATOM     10  C   UNL     1     173.076 159.438 172.172  1.00  0.00     0.146 A 
ATOM     11  O   UNL     1     173.745 159.705 171.056  1.00  0.00    -0.452 OA
ENDROOT
BRANCH   1  12
ATOM     12  C   UNL     1     175.689 160.151 169.701  1.00  0.00     0.029 A 
ATOM     13  C   UNL     1     175.372 159.382 168.574  1.00  0.00     0.062 A 
ATOM     14  C   UNL     1     175.930 159.679 167.328  1.00  0.00     0.162 A 
ATOM     15  C   UNL     1     176.546 161.253 169.557  1.00  0.00     0.062 A 
ATOM     16  C   UNL     1     176.807 160.770 167.186  1.00  0.00     0.200 A 
ATOM     17  C   UNL     1     177.111 161.567 168.315  1.00  0.00     0.162 A 
BRANCH  14  18
ATOM     18  O   UNL     1     175.598 158.875 166.237  1.00  0.00    -0.504 OA
ATOM     19  H   UNL     1     175.523 159.243 165.296  1.00  0.00     0.293 HD
ENDBRANCH  14  18
BRANCH  16  20
ATOM     20  O   UNL     1     177.350 161.027 165.924  1.00  0.00    -0.502 OA
ATOM     21  H   UNL     1     177.795 161.895 165.663  1.00  0.00     0.293 HD
ENDBRANCH  16  20
BRANCH  17  22
ATOM     22  O   UNL     1     177.955 162.678 168.250  1.00  0.00    -0.504 OA
ATOM     23  H   UNL     1     178.932 162.662 168.505  1.00  0.00     0.293 HD
ENDBRANCH  17  22
ENDBRANCH   1  12
BRANCH   2  24
ATOM     24  O   UNL     1     177.226 159.647 172.105  1.00  0.00    -0.502 OA
ATOM     25  H   UNL     1     177.747 160.513 172.040  1.00  0.00     0.293 HD
ENDBRANCH   2  24
BRANCH   6  26
ATOM     26  O   UNL     1     173.520 158.981 175.873  1.00  0.00    -0.507 OA
ATOM     27  H   UNL     1     173.693 158.129 176.384  1.00  0.00     0.293 HD
ENDBRANCH   6  26
BRANCH   8  28
ATOM     28  O   UNL     1     169.565 158.875 173.152  1.00  0.00    -0.508 OA
ATOM     29  H   UNL     1     168.936 159.394 173.753  1.00  0.00     0.293 HD
ENDBRANCH   8  28
TORSDOF 7
ENDMDL
MODEL 3
REMARK VINA RESULT:    -4.298     21.779     23.885
REMARK INTER + INTRA:          -5.472
REMARK INTER:                  -5.144
REMARK INTRA:                  -0.328
REMARK UNBOUND:                -0.169
REMARK SMILES O=c1c(O)c(-c2cc(O)c(O)c(O)c2)oc2cc(O)cc(O)c12
REMARK SMILES IDX 5 1 3 2 2 3 1 4 23 5 21 6 20 7 18 8 17 9 16 10 15 11 6 12
REMARK SMILES IDX 7 13 8 14 14 15 10 16 12 17 9 18 11 20 13 22 4 24 22 26
REMARK SMILES IDX 19 28
REMARK H PARENT 9 19 11 21 13 23 4 25 22 27 19 29
REMARK Flexibility Score: inf
ROOT
ATOM      1  C   UNL     1     161.550 160.480 168.821  1.00  0.00     0.180 A 
ATOM      2  C   UNL     1     162.926 160.413 168.542  1.00  0.00     0.208 A 
ATOM      3  C   UNL     1     163.342 160.004 167.264  1.00  0.00     0.238 A 
ATOM      4  O   UNL     1     164.573 159.999 167.004  1.00  0.00    -0.285 OA
ATOM      5  C   UNL     1     162.379 159.652 166.288  1.00  0.00     0.111 A 
ATOM      6  C   UNL     1     162.690 159.186 164.975  1.00  0.00     0.134 A 
ATOM      7  C   UNL     1     161.657 158.991 164.050  1.00  0.00     0.093 A 
ATOM      8  C   UNL     1     160.321 159.184 164.410  1.00  0.00     0.123 A 
ATOM      9  C   UNL     1     160.005 159.581 165.707  1.00  0.00     0.094 A 
ATOM     10  C   UNL     1     161.015 159.818 166.641  1.00  0.00     0.146 A 
ATOM     11  O   UNL     1     160.670 160.207 167.863  1.00  0.00    -0.452 OA
ENDROOT
BRANCH   1  12
ATOM     12  C   UNL     1     161.034 160.878 170.151  1.00  0.00     0.029 A 
ATOM     13  C   UNL     1     160.947 162.237 170.478  1.00  0.00     0.062 A 
ATOM     14  C   UNL     1     160.447 162.642 171.718  1.00  0.00     0.162 A 
ATOM     15  C   UNL     1     160.575 159.924 171.071  1.00  0.00     0.062 A 
ATOM     16  C   UNL     1     160.007 161.685 172.651  1.00  0.00     0.200 A 
ATOM     17  C   UNL     1     160.066 160.311 172.317  1.00  0.00     0.162 A 
BRANCH  14  18
ATOM     18  O   UNL     1     160.394 164.006 172.007  1.00  0.00    -0.504 OA
ATOM     19  H   UNL     1     161.170 164.630 171.818  1.00  0.00     0.293 HD
ENDBRANCH  14  18
BRANCH  16  20
ATOM     20  O   UNL     1     159.522 162.132 173.884  1.00  0.00    -0.502 OA
ATOM     21  H   UNL     1     159.437 161.551 174.705  1.00  0.00     0.293 HD
ENDBRANCH  16  20
BRANCH  17  22
ATOM     22  O   UNL     1     159.630 159.304 173.180  1.00  0.00    -0.504 OA
ATOM     23  H   UNL     1     160.097 159.053 174.040  1.00  0.00     0.293 HD
ENDBRANCH  17  22
ENDBRANCH   1  12
BRANCH   2  24
ATOM     24  O   UNL     1     163.858 160.786 169.513  1.00  0.00    -0.502 OA
ATOM     25  H   UNL     1     164.495 160.123 169.939  1.00  0.00     0.293 HD
ENDBRANCH   2  24
BRANCH   6  26
ATOM     26  O   UNL     1     163.982 158.875 164.542  1.00  0.00    -0.507 OA
ATOM     27  H   UNL     1     164.207 158.481 163.641  1.00  0.00     0.293 HD
ENDBRANCH   6  26
BRANCH   8  28
ATOM     28  O   UNL     1     159.298 158.972 163.488  1.00  0.00    -0.508 OA
ATOM     29  H   UNL     1     158.653 159.711 163.233  1.00  0.00     0.293 HD
ENDBRANCH   8  28
TORSDOF 7
ENDMDL
MODEL 4
REMARK VINA RESULT:    -4.289      2.094      7.756
REMARK INTER + INTRA:          -5.461
REMARK INTER:                  -5.104
REMARK INTRA:                  -0.357
REMARK UNBOUND:                -0.169
REMARK SMILES O=c1c(O)c(-c2cc(O)c(O)c(O)c2)oc2cc(O)cc(O)c12
REMARK SMILES IDX 5 1 3 2 2 3 1 4 23 5 21 6 20 7 18 8 17 9 16 10 15 11 6 12
REMARK SMILES IDX 7 13 8 14 14 15 10 16 12 17 9 18 11 20 13 22 4 24 22 26
REMARK SMILES IDX 19 28
REMARK H PARENT 9 19 11 21 13 23 4 25 22 27 19 29
REMARK Flexibility Score: inf
ROOT
ATOM      1  C   UNL     1     176.123 176.202 169.066  1.00  0.00     0.180 A 
ATOM      2  C   UNL     1     174.730 176.321 168.919  1.00  0.00     0.208 A 
ATOM      3  C   UNL     1     174.205 176.668 167.663  1.00  0.00     0.238 A 
ATOM      4  O   UNL     1     172.955 176.719 167.525  1.00  0.00    -0.285 OA
ATOM      5  C   UNL     1     175.079 176.907 166.576  1.00  0.00     0.111 A 
ATOM      6  C   UNL     1     174.658 177.303 165.270  1.00  0.00     0.134 A 
ATOM      7  C   UNL     1     175.600 177.385 164.237  1.00  0.00     0.093 A 
ATOM      8  C   UNL     1     176.955 177.147 164.478  1.00  0.00     0.123 A 
ATOM      9  C   UNL     1     177.383 176.819 165.761  1.00  0.00     0.094 A 
ATOM     10  C   UNL     1     176.463 176.694 166.804  1.00  0.00     0.146 A 
ATOM     11  O   UNL     1     176.912 176.368 168.010  1.00  0.00    -0.452 OA
ENDROOT
BRANCH   1  12
ATOM     12  C   UNL     1     176.752 175.864 170.364  1.00  0.00     0.029 A 
ATOM     13  C   UNL     1     177.090 176.892 171.254  1.00  0.00     0.062 A 
ATOM     14  C   UNL     1     177.667 176.601 172.493  1.00  0.00     0.162 A 
ATOM     15  C   UNL     1     176.964 174.531 170.747  1.00  0.00     0.062 A 
ATOM     16  C   UNL     1     177.902 175.266 172.869  1.00  0.00     0.200 A 
ATOM     17  C   UNL     1     177.538 174.222 171.986  1.00  0.00     0.162 A 
BRANCH  14  18
ATOM     18  O   UNL     1     178.002 177.658 173.340  1.00  0.00    -0.504 OA
ATOM     19  H   UNL     1     177.709 178.611 173.160  1.00  0.00     0.293 HD
ENDBRANCH  14  18
BRANCH  16  20
ATOM     20  O   UNL     1     178.489 175.019 174.114  1.00  0.00    -0.502 OA
ATOM     21  H   UNL     1     177.980 174.717 174.931  1.00  0.00     0.293 HD
ENDBRANCH  16  20
BRANCH  17  22
ATOM     22  O   UNL     1     177.719 172.872 172.296  1.00  0.00    -0.504 OA
ATOM     23  H   UNL     1     178.174 172.539 173.134  1.00  0.00     0.293 HD
ENDBRANCH  17  22
ENDBRANCH   1  12
BRANCH   2  24
ATOM     24  O   UNL     1     173.884 176.059 170.000  1.00  0.00    -0.502 OA
ATOM     25  H   UNL     1     173.549 176.790 170.618  1.00  0.00     0.293 HD
ENDBRANCH   2  24
BRANCH   6  26
ATOM     26  O   UNL     1     173.343 177.651 164.946  1.00  0.00    -0.507 OA
ATOM     27  H   UNL     1     173.067 178.529 164.534  1.00  0.00     0.293 HD
ENDBRANCH   6  26
BRANCH   8  28
ATOM     28  O   UNL     1     177.888 177.246 163.446  1.00  0.00    -0.508 OA
ATOM     29  H   UNL     1     178.347 178.122 163.230  1.00  0.00     0.293 HD
ENDBRANCH   8  28
TORSDOF 7
ENDMDL
MODEL 5
REMARK VINA RESULT:    -4.279     15.298     16.420
REMARK INTER + INTRA:          -5.449
REMARK INTER:                  -5.101
REMARK INTRA:                  -0.347
REMARK UNBOUND:                -0.169
REMARK SMILES O=c1c(O)c(-c2cc(O)c(O)c(O)c2)oc2cc(O)cc(O)c12
REMARK SMILES IDX 5 1 3 2 2 3 1 4 23 5 21 6 20 7 18 8 17 9 16 10 15 11 6 12
REMARK SMILES IDX 7 13 8 14 14 15 10 16 12 17 9 18 11 20 13 22 4 24 22 26
REMARK SMILES IDX 19 28
REMARK H PARENT 9 19 11 21 13 23 4 25 22 27 19 29
REMARK Flexibility Score: inf
ROOT
ATOM      1  C   UNL     1     175.463 160.576 167.680  1.00  0.00     0.180 A 
ATOM      2  C   UNL     1     174.073 160.525 167.887  1.00  0.00     0.208 A 
ATOM      3  C   UNL     1     173.587 160.239 169.173  1.00  0.00     0.238 A 
ATOM      4  O   UNL     1     172.343 160.248 169.364  1.00  0.00    -0.285 OA
ATOM      5  C   UNL     1     174.495 159.992 170.231  1.00  0.00     0.111 A 
ATOM      6  C   UNL     1     174.112 159.654 171.564  1.00  0.00     0.134 A 
ATOM      7  C   UNL     1     175.092 159.559 172.560  1.00  0.00     0.093 A 
ATOM      8  C   UNL     1     176.445 159.728 172.257  1.00  0.00     0.123 A 
ATOM      9  C   UNL     1     176.833 160.000 170.948  1.00  0.00     0.094 A 
ATOM     10  C   UNL     1     175.876 160.135 169.940  1.00  0.00     0.146 A 
ATOM     11  O   UNL     1     176.287 160.406 168.707  1.00  0.00    -0.452 OA
ENDROOT
BRANCH   1  12
ATOM     12  C   UNL     1     176.051 160.848 166.348  1.00  0.00     0.029 A 
ATOM     13  C   UNL     1     176.234 162.173 165.932  1.00  0.00     0.062 A 
ATOM     14  C   UNL     1     176.804 162.458 164.688  1.00  0.00     0.162 A 
ATOM     15  C   UNL     1     176.484 159.805 165.515  1.00  0.00     0.062 A 
ATOM     16  C   UNL     1     177.219 161.412 163.842  1.00  0.00     0.200 A 
ATOM     17  C   UNL     1     177.061 160.072 164.268  1.00  0.00     0.162 A 
BRANCH  14  18
ATOM     18  O   UNL     1     176.952 163.792 164.309  1.00  0.00    -0.504 OA
ATOM     19  H   UNL     1     177.747 164.118 163.771  1.00  0.00     0.293 HD
ENDBRANCH  14  18
BRANCH  16  20
ATOM     20  O   UNL     1     177.776 161.741 162.603  1.00  0.00    -0.502 OA
ATOM     21  H   UNL     1     177.427 161.405 161.718  1.00  0.00     0.293 HD
ENDBRANCH  16  20
BRANCH  17  22
ATOM     22  O   UNL     1     177.466 158.982 163.495  1.00  0.00    -0.504 OA
ATOM     23  H   UNL     1     176.995 158.088 163.484  1.00  0.00     0.293 HD
ENDBRANCH  17  22
ENDBRANCH   1  12
BRANCH   2  24
ATOM     24  O   UNL     1     173.196 160.793 166.834  1.00  0.00    -0.502 OA
ATOM     25  H   UNL     1     172.859 160.070 166.208  1.00  0.00     0.293 HD
ENDBRANCH   2  24
BRANCH   6  26
ATOM     26  O   UNL     1     172.798 159.375 171.953  1.00  0.00    -0.507 OA
ATOM     27  H   UNL     1     172.071 160.066 172.057  1.00  0.00     0.293 HD
ENDBRANCH   6  26
BRANCH   8  28
ATOM     28  O   UNL     1     177.415 159.617 173.252  1.00  0.00    -0.508 OA
ATOM     29  H   UNL     1     177.444 158.821 173.878  1.00  0.00     0.293 HD
ENDBRANCH   8  28
TORSDOF 7
ENDMDL
MODEL 6
REMARK VINA RESULT:    -4.243      2.268      3.591
REMARK INTER + INTRA:          -5.404
REMARK INTER:                  -5.045
REMARK INTRA:                  -0.360
REMARK UNBOUND:                -0.169
REMARK SMILES O=c1c(O)c(-c2cc(O)c(O)c(O)c2)oc2cc(O)cc(O)c12
REMARK SMILES IDX 5 1 3 2 2 3 1 4 23 5 21 6 20 7 18 8 17 9 16 10 15 11 6 12
REMARK SMILES IDX 7 13 8 14 14 15 10 16 12 17 9 18 11 20 13 22 4 24 22 26
REMARK SMILES IDX 19 28
REMARK H PARENT 9 19 11 21 13 23 4 25 22 27 19 29
REMARK Flexibility Score: inf
ROOT
ATOM      1  C   UNL     1     176.590 175.670 168.105  1.00  0.00     0.180 A 
ATOM      2  C   UNL     1     176.621 174.275 168.276  1.00  0.00     0.208 A 
ATOM      3  C   UNL     1     176.930 173.751 169.542  1.00  0.00     0.238 A 
ATOM      4  O   UNL     1     176.902 172.503 169.701  1.00  0.00    -0.285 OA
ATOM      5  C   UNL     1     177.220 174.627 170.616  1.00  0.00     0.111 A 
ATOM      6  C   UNL     1     177.584 174.204 171.930  1.00  0.00     0.134 A 
ATOM      7  C   UNL     1     177.722 175.156 172.947  1.00  0.00     0.093 A 
ATOM      8  C   UNL     1     177.570 176.520 172.683  1.00  0.00     0.123 A 
ATOM      9  C   UNL     1     177.274 176.945 171.391  1.00  0.00     0.094 A 
ATOM     10  C   UNL     1     177.095 176.017 170.363  1.00  0.00     0.146 A 
ATOM     11  O   UNL     1     176.802 176.465 169.148  1.00  0.00    -0.452 OA
ENDROOT
BRANCH   1  12
ATOM     12  C   UNL     1     176.297 176.297 166.796  1.00  0.00     0.029 A 
ATOM     13  C   UNL     1     174.970 176.583 166.450  1.00  0.00     0.062 A 
ATOM     14  C   UNL     1     174.666 177.192 165.230  1.00  0.00     0.162 A 
ATOM     15  C   UNL     1     177.326 176.664 165.916  1.00  0.00     0.062 A 
ATOM     16  C   UNL     1     175.696 177.541 164.336  1.00  0.00     0.200 A 
ATOM     17  C   UNL     1     177.040 177.279 164.690  1.00  0.00     0.162 A 
BRANCH  14  18
ATOM     18  O   UNL     1     173.329 177.444 164.922  1.00  0.00    -0.504 OA
ATOM     19  H   UNL     1     172.723 177.976 165.535  1.00  0.00     0.293 HD
ENDBRANCH  14  18
BRANCH  16  20
ATOM     20  O   UNL     1     175.347 178.140 163.122  1.00  0.00    -0.502 OA
ATOM     21  H   UNL     1     175.685 179.041 162.817  1.00  0.00     0.293 HD
ENDBRANCH  16  20
BRANCH  17  22
ATOM     22  O   UNL     1     178.118 177.613 163.867  1.00  0.00    -0.504 OA
ATOM     23  H   UNL     1     178.317 177.166 162.984  1.00  0.00     0.293 HD
ENDBRANCH  17  22
ENDBRANCH   1  12
BRANCH   2  24
ATOM     24  O   UNL     1     176.310 173.429 167.208  1.00  0.00    -0.502 OA
ATOM     25  H   UNL     1     175.382 173.383 166.804  1.00  0.00     0.293 HD
ENDBRANCH   2  24
BRANCH   6  26
ATOM     26  O   UNL     1     177.848 172.876 172.278  1.00  0.00    -0.507 OA
ATOM     27  H   UNL     1     178.005 172.129 171.618  1.00  0.00     0.293 HD
ENDBRANCH   6  26
BRANCH   8  28
ATOM     28  O   UNL     1     177.724 177.462 173.699  1.00  0.00    -0.508 OA
ATOM     29  H   UNL     1     177.994 178.417 173.499  1.00  0.00     0.293 HD
ENDBRANCH   8  28
TORSDOF 7
ENDMDL
MODEL 7
REMARK VINA RESULT:    -4.218      4.731      9.882
REMARK INTER + INTRA:          -5.373
REMARK INTER:                  -5.039
REMARK INTRA:                  -0.334
REMARK UNBOUND:                -0.169
REMARK SMILES O=c1c(O)c(-c2cc(O)c(O)c(O)c2)oc2cc(O)cc(O)c12
REMARK SMILES IDX 5 1 3 2 2 3 1 4 23 5 21 6 20 7 18 8 17 9 16 10 15 11 6 12
REMARK SMILES IDX 7 13 8 14 14 15 10 16 12 17 9 18 11 20 13 22 4 24 22 26
REMARK SMILES IDX 19 28
REMARK H PARENT 9 19 11 21 13 23 4 25 22 27 19 29
REMARK Flexibility Score: inf
ROOT
ATOM      1  C   UNL     1     176.636 176.368 164.796  1.00  0.00     0.180 A 
ATOM      2  C   UNL     1     176.526 175.038 164.353  1.00  0.00     0.208 A 
ATOM      3  C   UNL     1     176.754 174.751 162.997  1.00  0.00     0.238 A 
ATOM      4  O   UNL     1     176.707 173.552 162.619  1.00  0.00    -0.285 OA
ATOM      5  C   UNL     1     177.073 175.797 162.099  1.00  0.00     0.111 A 
ATOM      6  C   UNL     1     177.284 175.625 160.698  1.00  0.00     0.134 A 
ATOM      7  C   UNL     1     177.723 176.710 159.928  1.00  0.00     0.093 A 
ATOM      8  C   UNL     1     177.895 177.974 160.497  1.00  0.00     0.123 A 
ATOM      9  C   UNL     1     177.633 178.165 161.851  1.00  0.00     0.094 A 
ATOM     10  C   UNL     1     177.229 177.095 162.652  1.00  0.00     0.146 A 
ATOM     11  O   UNL     1     177.002 177.317 163.941  1.00  0.00    -0.452 OA
ENDROOT
BRANCH   1  12
ATOM     12  C   UNL     1     176.386 176.753 166.204  1.00  0.00     0.029 A 
ATOM     13  C   UNL     1     177.405 176.595 167.153  1.00  0.00     0.062 A 
ATOM     14  C   UNL     1     177.203 176.968 168.484  1.00  0.00     0.162 A 
ATOM     15  C   UNL     1     175.169 177.328 166.599  1.00  0.00     0.062 A 
ATOM     16  C   UNL     1     175.975 177.524 168.886  1.00  0.00     0.200 A 
ATOM     17  C   UNL     1     174.951 177.711 167.928  1.00  0.00     0.162 A 
BRANCH  14  18
ATOM     18  O   UNL     1     178.241 176.778 169.398  1.00  0.00    -0.504 OA
ATOM     19  H   UNL     1     178.664 175.871 169.555  1.00  0.00     0.293 HD
ENDBRANCH  14  18
BRANCH  16  20
ATOM     20  O   UNL     1     175.812 177.875 170.230  1.00  0.00    -0.502 OA
ATOM     21  H   UNL     1     175.162 177.426 170.858  1.00  0.00     0.293 HD
ENDBRANCH  16  20
BRANCH  17  22
ATOM     22  O   UNL     1     173.713 178.275 168.244  1.00  0.00    -0.504 OA
ATOM     23  H   UNL     1     173.569 178.947 168.984  1.00  0.00     0.293 HD
ENDBRANCH  17  22
ENDBRANCH   1  12
BRANCH   2  24
ATOM     24  O   UNL     1     176.231 174.018 165.261  1.00  0.00    -0.502 OA
ATOM     25  H   UNL     1     176.949 173.433 165.673  1.00  0.00     0.293 HD
ENDBRANCH   2  24
BRANCH   6  26
ATOM     26  O   UNL     1     177.054 174.428 160.014  1.00  0.00    -0.507 OA
ATOM     27  H   UNL     1     176.289 174.269 159.375  1.00  0.00     0.293 HD
ENDBRANCH   6  26
BRANCH   8  28
ATOM     28  O   UNL     1     178.316 179.052 159.720  1.00  0.00    -0.508 OA
ATOM     29  H   UNL     1     179.294 179.311 159.659  1.00  0.00     0.293 HD
ENDBRANCH   8  28
TORSDOF 7
ENDMDL
MODEL 8
REMARK VINA RESULT:    -4.212      1.518      3.730
REMARK INTER + INTRA:          -5.366
REMARK INTER:                  -5.162
REMARK INTRA:                  -0.203
REMARK UNBOUND:                -0.169
REMARK SMILES O=c1c(O)c(-c2cc(O)c(O)c(O)c2)oc2cc(O)cc(O)c12
REMARK SMILES IDX 5 1 3 2 2 3 1 4 23 5 21 6 20 7 18 8 17 9 16 10 15 11 6 12
REMARK SMILES IDX 7 13 8 14 14 15 10 16 12 17 9 18 11 20 13 22 4 24 22 26
REMARK SMILES IDX 19 28
REMARK H PARENT 9 19 11 21 13 23 4 25 22 27 19 29
REMARK Flexibility Score: inf
ROOT
ATOM      1  C   UNL     1     177.255 175.534 171.542  1.00  0.00     0.180 A 
ATOM      2  C   UNL     1     177.687 176.276 172.655  1.00  0.00     0.208 A 
ATOM      3  C   UNL     1     177.829 175.628 173.892  1.00  0.00     0.238 A 
ATOM      4  O   UNL     1     178.268 176.286 174.871  1.00  0.00    -0.285 OA
ATOM      5  C   UNL     1     177.522 174.250 174.006  1.00  0.00     0.111 A 
ATOM      6  C   UNL     1     177.591 173.503 175.220  1.00  0.00     0.134 A 
ATOM      7  C   UNL     1     177.391 172.117 175.188  1.00  0.00     0.093 A 
ATOM      8  C   UNL     1     177.060 171.464 173.999  1.00  0.00     0.123 A 
ATOM      9  C   UNL     1     176.931 172.195 172.821  1.00  0.00     0.094 A 
ATOM     10  C   UNL     1     177.161 173.572 172.813  1.00  0.00     0.146 A 
ATOM     11  O   UNL     1     177.039 174.229 171.666  1.00  0.00    -0.452 OA
ENDROOT
BRANCH   1  12
ATOM     12  C   UNL     1     177.058 176.152 170.211  1.00  0.00     0.029 A 
ATOM     13  C   UNL     1     177.801 175.687 169.118  1.00  0.00     0.062 A 
ATOM     14  C   UNL     1     177.622 176.238 167.846  1.00  0.00     0.162 A 
ATOM     15  C   UNL     1     176.100 177.157 170.007  1.00  0.00     0.062 A 
ATOM     16  C   UNL     1     176.677 177.262 167.645  1.00  0.00     0.200 A 
ATOM     17  C   UNL     1     175.904 177.718 168.739  1.00  0.00     0.162 A 
BRANCH  14  18
ATOM     18  O   UNL     1     178.395 175.754 166.791  1.00  0.00    -0.504 OA
ATOM     19  H   UNL     1     178.322 174.799 166.459  1.00  0.00     0.293 HD
ENDBRANCH  14  18
BRANCH  16  20
ATOM     20  O   UNL     1     176.536 177.792 166.359  1.00  0.00    -0.502 OA
ATOM     21  H   UNL     1     176.069 177.320 165.599  1.00  0.00     0.293 HD
ENDBRANCH  16  20
BRANCH  17  22
ATOM     22  O   UNL     1     174.934 178.714 168.615  1.00  0.00    -0.504 OA
ATOM     23  H   UNL     1     175.049 179.662 168.945  1.00  0.00     0.293 HD
ENDBRANCH  17  22
ENDBRANCH   1  12
BRANCH   2  24
ATOM     24  O   UNL     1     178.006 177.630 172.515  1.00  0.00    -0.502 OA
ATOM     25  H   UNL     1     178.905 177.944 172.170  1.00  0.00     0.293 HD
ENDBRANCH   2  24
BRANCH   6  26
ATOM     26  O   UNL     1     177.824 174.072 176.475  1.00  0.00    -0.507 OA
ATOM     27  H   UNL     1     177.800 173.567 177.348  1.00  0.00     0.293 HD
ENDBRANCH   6  26
BRANCH   8  28
ATOM     28  O   UNL     1     176.847 170.086 173.980  1.00  0.00    -0.508 OA
ATOM     29  H   UNL     1     176.783 169.548 174.836  1.00  0.00     0.293 HD
ENDBRANCH   8  28
TORSDOF 7
ENDMDL
MODEL 9
REMARK VINA RESULT:    -3.286      3.768      9.474
REMARK INTER + INTRA:          -4.223
REMARK INTER:                  -4.029
REMARK INTRA:                  -0.194
REMARK UNBOUND:                -0.169
REMARK SMILES O=c1c(O)c(-c2cc(O)c(O)c(O)c2)oc2cc(O)cc(O)c12
REMARK SMILES IDX 5 1 3 2 2 3 1 4 23 5 21 6 20 7 18 8 17 9 16 10 15 11 6 12
REMARK SMILES IDX 7 13 8 14 14 15 10 16 12 17 9 18 11 20 13 22 4 24 22 26
REMARK SMILES IDX 19 28
REMARK H PARENT 9 19 11 21 13 23 4 25 22 27 19 29
REMARK Flexibility Score: inf
ROOT
ATOM      1  C   UNL     1     176.331 177.222 165.680  1.00  0.00     0.180 A 
ATOM      2  C   UNL     1     175.009 177.147 165.209  1.00  0.00     0.208 A 
ATOM      3  C   UNL     1     174.733 177.546 163.890  1.00  0.00     0.238 A 
ATOM      4  O   UNL     1     173.557 177.425 163.457  1.00  0.00    -0.285 OA
ATOM      5  C   UNL     1     175.777 178.030 163.067  1.00  0.00     0.111 A 
ATOM      6  C   UNL     1     175.603 178.499 161.730  1.00  0.00     0.134 A 
ATOM      7  C   UNL     1     176.728 178.833 160.965  1.00  0.00     0.093 A 
ATOM      8  C   UNL     1     178.013 178.776 161.509  1.00  0.00     0.123 A 
ATOM      9  C   UNL     1     178.186 178.377 162.832  1.00  0.00     0.094 A 
ATOM     10  C   UNL     1     177.089 178.003 163.609  1.00  0.00     0.146 A 
ATOM     11  O   UNL     1     177.299 177.618 164.862  1.00  0.00    -0.452 OA
ENDROOT
BRANCH   1  12
ATOM     12  C   UNL     1     176.696 176.842 167.065  1.00  0.00     0.029 A 
ATOM     13  C   UNL     1     176.171 177.571 168.140  1.00  0.00     0.062 A 
ATOM     14  C   UNL     1     176.484 177.223 169.457  1.00  0.00     0.162 A 
ATOM     15  C   UNL     1     177.511 175.731 167.326  1.00  0.00     0.062 A 
ATOM     16  C   UNL     1     177.319 176.122 169.720  1.00  0.00     0.200 A 
ATOM     17  C   UNL     1     177.831 175.366 168.639  1.00  0.00     0.162 A 
BRANCH  14  18
ATOM     18  O   UNL     1     175.951 177.987 170.496  1.00  0.00    -0.504 OA
ATOM     19  H   UNL     1     175.658 177.577 171.375  1.00  0.00     0.293 HD
ENDBRANCH  14  18
BRANCH  16  20
ATOM     20  O   UNL     1     177.614 175.814 171.052  1.00  0.00    -0.502 OA
ATOM     21  H   UNL     1     178.251 176.344 171.629  1.00  0.00     0.293 HD
ENDBRANCH  16  20
BRANCH  17  22
ATOM     22  O   UNL     1     178.649 174.248 168.819  1.00  0.00    -0.504 OA
ATOM     23  H   UNL     1     179.589 174.287 169.187  1.00  0.00     0.293 HD
ENDBRANCH  17  22
ENDBRANCH   1  12
BRANCH   2  24
ATOM     24  O   UNL     1     173.997 176.645 166.031  1.00  0.00    -0.502 OA
ATOM     25  H   UNL     1     173.434 177.241 166.626  1.00  0.00     0.293 HD
ENDBRANCH   2  24
BRANCH   6  26
ATOM     26  O   UNL     1     174.358 178.680 161.122  1.00  0.00    -0.507 OA
ATOM     27  H   UNL     1     174.122 178.368 160.192  1.00  0.00     0.293 HD
ENDBRANCH   6  26
BRANCH   8  28
ATOM     28  O   UNL     1     179.125 179.125 160.745  1.00  0.00    -0.508 OA
ATOM     29  H   UNL     1     179.078 179.856 160.045  1.00  0.00     0.293 HD
ENDBRANCH   8  28
TORSDOF 7
ENDMDL
