MODEL 1
REMARK VINA RESULT:    -1.889      0.000      0.000
REMARK INTER + INTRA:          -7.078
REMARK INTER:                  -4.318
REMARK INTRA:                  -2.760
REMARK UNBOUND:                -2.760
REMARK SMILES CCCCCCCCCCCCCCCCCCCCCCCC(=O)[O-]
REMARK SMILES IDX 13 1 14 2 15 3 16 4 17 5 18 6 19 7 20 8 21 9 22 10 23 11
REMARK SMILES IDX 24 12 25 13 26 14 12 15 11 16 10 17 9 18 8 19 7 20 6 21 5 22
REMARK SMILES IDX 4 23 3 24 2 25 1 26
REMARK H PARENT
REMARK Flexibility Score: inf
ROOT
ATOM      1  C   UNL     1       3.026   3.101  14.193  1.00  0.00     0.000 C 
ENDROOT
BRANCH   1   2
ATOM      2  C   UNL     1       3.615   4.243  15.040  1.00  0.00     0.000 C 
BRANCH   2   3
ATOM      3  C   UNL     1       4.775   3.790  15.939  1.00  0.00     0.000 C 
BRANCH   3   4
ATOM      4  C   UNL     1       4.380   2.553  16.758  1.00  0.00     0.000 C 
BRANCH   4   5
ATOM      5  C   UNL     1       5.017   1.258  16.226  1.00  0.00     0.000 C 
BRANCH   5   6
ATOM      6  C   UNL     1       6.146   0.740  17.134  1.00  0.00     0.000 C 
BRANCH   6   7
ATOM      7  C   UNL     1       6.003  -0.757  17.461  1.00  0.00     0.000 C 
BRANCH   7   8
ATOM      8  C   UNL     1       5.961  -1.028  18.975  1.00  0.00     0.000 C 
BRANCH   8   9
ATOM      9  C   UNL     1       5.369   0.148  19.769  1.00  0.00     0.000 C 
BRANCH   9  10
ATOM     10  C   UNL     1       3.843   0.254  19.624  1.00  0.00     0.006 C 
BRANCH  10  11
ATOM     11  C   UNL     1       3.384   1.712  19.718  1.00  0.00     0.053 C 
BRANCH  11  12
ATOM     12  C   UNL     1       1.892   1.788  19.785  1.00  0.00     0.041 C 
ATOM     13  O   UNL     1       1.296   1.590  20.877  1.00  0.00    -0.550 OA
ATOM     14  O   UNL     1       1.154   2.024  18.632  1.00  0.00    -0.550 OA
ENDBRANCH  11  12
ENDBRANCH  10  11
ENDBRANCH   9  10
ENDBRANCH   8   9
ENDBRANCH   7   8
ENDBRANCH   6   7
ENDBRANCH   5   6
ENDBRANCH   4   5
ENDBRANCH   3   4
ENDBRANCH   2   3
ENDBRANCH   1   2
BRANCH   1  15
ATOM     15  C   UNL     1       3.768   2.809  12.875  1.00  0.00     0.000 C 
BRANCH  15  16
ATOM     16  C   UNL     1       4.689   1.581  12.966  1.00  0.00     0.000 C 
BRANCH  16  17
ATOM     17  C   UNL     1       6.173   1.955  13.140  1.00  0.00     0.000 C 
BRANCH  17  18
ATOM     18  C   UNL     1       7.174   0.814  12.875  1.00  0.00    -0.000 C 
BRANCH  18  19
ATOM     19  C   UNL     1       6.998  -0.374  13.833  1.00  0.00    -0.000 C 
BRANCH  19  20
ATOM     20  C   UNL     1       6.196  -1.501  13.170  1.00  0.00    -0.000 C 
BRANCH  20  21
ATOM     21  C   UNL     1       5.199  -2.119  14.158  1.00  0.00    -0.000 C 
BRANCH  21  22
ATOM     22  C   UNL     1       3.756  -1.958  13.657  1.00  0.00    -0.000 C 
BRANCH  22  23
ATOM     23  C   UNL     1       2.890  -1.120  14.611  1.00  0.00    -0.000 C 
BRANCH  23  24
ATOM     24  C   UNL     1       1.388  -1.427  14.471  1.00  0.00    -0.000 C 
BRANCH  24  25
ATOM     25  C   UNL     1       0.502  -0.266  14.947  1.00  0.00    -0.003 C 
ATOM     26  C   UNL     1       1.292   0.814  15.688  1.00  0.00     0.004 C 
ENDBRANCH  24  25
ENDBRANCH  23  24
ENDBRANCH  22  23
ENDBRANCH  21  22
ENDBRANCH  20  21
ENDBRANCH  19  20
ENDBRANCH  18  19
ENDBRANCH  17  18
ENDBRANCH  16  17
ENDBRANCH  15  16
ENDBRANCH   1  15
TORSDOF 22
ENDMDL
MODEL 2
REMARK VINA RESULT:    -1.453      1.454      4.777
REMARK INTER + INTRA:          -6.082
REMARK INTER:                  -4.868
REMARK INTRA:                  -1.214
REMARK UNBOUND:                -2.760
REMARK SMILES CCCCCCCCCCCCCCCCCCCCCCCC(=O)[O-]
REMARK SMILES IDX 13 1 14 2 15 3 16 4 17 5 18 6 19 7 20 8 21 9 22 10 23 11
REMARK SMILES IDX 24 12 25 13 26 14 12 15 11 16 10 17 9 18 8 19 7 20 6 21 5 22
REMARK SMILES IDX 4 23 3 24 2 25 1 26
REMARK H PARENT
REMARK Flexibility Score: inf
ROOT
ATOM      1  C   UNL     1       3.267   4.000  14.852  1.00  0.00     0.000 C 
ENDROOT
BRANCH   1   2
ATOM      2  C   UNL     1       4.218   4.044  13.642  1.00  0.00     0.000 C 
BRANCH   2   3
ATOM      3  C   UNL     1       4.326   2.698  12.911  1.00  0.00     0.000 C 
BRANCH   3   4
ATOM      4  C   UNL     1       5.705   2.063  13.137  1.00  0.00     0.000 C 
BRANCH   4   5
ATOM      5  C   UNL     1       5.714   0.547  12.876  1.00  0.00     0.000 C 
BRANCH   5   6
ATOM      6  C   UNL     1       6.984  -0.137  13.412  1.00  0.00     0.000 C 
BRANCH   6   7
ATOM      7  C   UNL     1       6.777  -1.636  13.687  1.00  0.00     0.000 C 
BRANCH   7   8
ATOM      8  C   UNL     1       5.366  -2.117  13.302  1.00  0.00     0.000 C 
BRANCH   8   9
ATOM      9  C   UNL     1       4.326  -1.827  14.396  1.00  0.00     0.000 C 
BRANCH   9  10
ATOM     10  C   UNL     1       2.914  -1.610  13.832  1.00  0.00     0.006 C 
BRANCH  10  11
ATOM     11  C   UNL     1       2.391  -0.214  14.182  1.00  0.00     0.053 C 
BRANCH  11  12
ATOM     12  C   UNL     1       1.149  -0.312  15.009  1.00  0.00     0.041 C 
ATOM     13  O   UNL     1       0.247  -1.135  14.701  1.00  0.00    -0.550 OA
ATOM     14  O   UNL     1       0.963   0.542  16.088  1.00  0.00    -0.550 OA
ENDBRANCH  11  12
ENDBRANCH  10  11
ENDBRANCH   9  10
ENDBRANCH   8   9
ENDBRANCH   7   8
ENDBRANCH   6   7
ENDBRANCH   5   6
ENDBRANCH   4   5
ENDBRANCH   3   4
ENDBRANCH   2   3
ENDBRANCH   1   2
BRANCH   1  15
ATOM     15  C   UNL     1       3.176   2.640  15.568  1.00  0.00     0.000 C 
BRANCH  15  16
ATOM     16  C   UNL     1       4.270   2.449  16.632  1.00  0.00     0.000 C 
BRANCH  16  17
ATOM     17  C   UNL     1       5.491   1.670  16.106  1.00  0.00     0.000 C 
BRANCH  17  18
ATOM     18  C   UNL     1       5.928   0.473  16.971  1.00  0.00    -0.000 C 
BRANCH  18  19
ATOM     19  C   UNL     1       4.953  -0.712  16.894  1.00  0.00    -0.000 C 
BRANCH  19  20
ATOM     20  C   UNL     1       5.090  -1.619  18.124  1.00  0.00    -0.000 C 
BRANCH  20  21
ATOM     21  C   UNL     1       6.419  -1.366  18.846  1.00  0.00    -0.000 C 
BRANCH  21  22
ATOM     22  C   UNL     1       6.261  -0.289  19.930  1.00  0.00    -0.000 C 
BRANCH  22  23
ATOM     23  C   UNL     1       4.805  -0.130  20.396  1.00  0.00    -0.000 C 
BRANCH  23  24
ATOM     24  C   UNL     1       4.313   1.326  20.313  1.00  0.00    -0.000 C 
BRANCH  24  25
ATOM     25  C   UNL     1       3.265   1.531  19.208  1.00  0.00    -0.003 C 
ATOM     26  C   UNL     1       1.868   1.809  19.764  1.00  0.00     0.004 C 
ENDBRANCH  24  25
ENDBRANCH  23  24
ENDBRANCH  22  23
ENDBRANCH  21  22
ENDBRANCH  20  21
ENDBRANCH  19  20
ENDBRANCH  18  19
ENDBRANCH  17  18
ENDBRANCH  16  17
ENDBRANCH  15  16
ENDBRANCH   1  15
TORSDOF 22
ENDMDL
MODEL 3
REMARK VINA RESULT:    -1.391      0.870      3.272
REMARK INTER + INTRA:          -5.941
REMARK INTER:                  -3.967
REMARK INTRA:                  -1.974
REMARK UNBOUND:                -2.760
REMARK SMILES CCCCCCCCCCCCCCCCCCCCCCCC(=O)[O-]
REMARK SMILES IDX 13 1 14 2 15 3 16 4 17 5 18 6 19 7 20 8 21 9 22 10 23 11
REMARK SMILES IDX 24 12 25 13 26 14 12 15 11 16 10 17 9 18 8 19 7 20 6 21 5 22
REMARK SMILES IDX 4 23 3 24 2 25 1 26
REMARK H PARENT
REMARK Flexibility Score: inf
ROOT
ATOM      1  C   UNL     1       1.025   0.789  16.021  1.00  0.00     0.000 C 
ENDROOT
BRANCH   1   2
ATOM      2  C   UNL     1       2.250   1.694  16.244  1.00  0.00     0.000 C 
BRANCH   2   3
ATOM      3  C   UNL     1       3.550   0.907  16.459  1.00  0.00     0.000 C 
BRANCH   3   4
ATOM      4  C   UNL     1       4.762   1.850  16.484  1.00  0.00     0.000 C 
BRANCH   4   5
ATOM      5  C   UNL     1       6.099   1.100  16.596  1.00  0.00     0.000 C 
BRANCH   5   6
ATOM      6  C   UNL     1       5.913  -0.397  16.904  1.00  0.00     0.000 C 
BRANCH   6   7
ATOM      7  C   UNL     1       6.432  -0.782  18.300  1.00  0.00     0.000 C 
BRANCH   7   8
ATOM      8  C   UNL     1       5.293  -1.066  19.295  1.00  0.00     0.000 C 
BRANCH   8   9
ATOM      9  C   UNL     1       4.836   0.197  20.044  1.00  0.00     0.000 C 
BRANCH   9  10
ATOM     10  C   UNL     1       3.839   1.040  19.234  1.00  0.00     0.006 C 
BRANCH  10  11
ATOM     11  C   UNL     1       3.088   2.020  20.140  1.00  0.00     0.053 C 
BRANCH  11  12
ATOM     12  C   UNL     1       1.615   1.764  20.081  1.00  0.00     0.041 C 
ATOM     13  O   UNL     1       1.075   0.981  20.907  1.00  0.00    -0.550 OA
ATOM     14  O   UNL     1       0.847   2.347  19.081  1.00  0.00    -0.550 OA
ENDBRANCH  11  12
ENDBRANCH  10  11
ENDBRANCH   9  10
ENDBRANCH   8   9
ENDBRANCH   7   8
ENDBRANCH   6   7
ENDBRANCH   5   6
ENDBRANCH   4   5
ENDBRANCH   3   4
ENDBRANCH   2   3
ENDBRANCH   1   2
BRANCH   1  15
ATOM     15  C   UNL     1       0.959   0.099  14.646  1.00  0.00     0.000 C 
BRANCH  15  16
ATOM     16  C   UNL     1       0.873  -1.434  14.748  1.00  0.00     0.000 C 
BRANCH  16  17
ATOM     17  C   UNL     1       2.254  -2.107  14.855  1.00  0.00     0.000 C 
BRANCH  17  18
ATOM     18  C   UNL     1       3.185  -1.894  13.647  1.00  0.00    -0.000 C 
BRANCH  18  19
ATOM     19  C   UNL     1       4.664  -1.775  14.043  1.00  0.00    -0.000 C 
BRANCH  19  20
ATOM     20  C   UNL     1       5.495  -1.182  12.897  1.00  0.00    -0.000 C 
BRANCH  20  21
ATOM     21  C   UNL     1       6.603  -0.270  13.438  1.00  0.00    -0.000 C 
BRANCH  21  22
ATOM     22  C   UNL     1       6.469   1.153  12.876  1.00  0.00    -0.000 C 
BRANCH  22  23
ATOM     23  C   UNL     1       5.033   1.692  12.972  1.00  0.00    -0.000 C 
BRANCH  23  24
ATOM     24  C   UNL     1       4.974   3.229  12.931  1.00  0.00    -0.000 C 
BRANCH  24  25
ATOM     25  C   UNL     1       4.094   3.815  14.045  1.00  0.00    -0.003 C 
ATOM     26  C   UNL     1       2.821   4.473  13.509  1.00  0.00     0.004 C 
ENDBRANCH  24  25
ENDBRANCH  23  24
ENDBRANCH  22  23
ENDBRANCH  21  22
ENDBRANCH  20  21
ENDBRANCH  19  20
ENDBRANCH  18  19
ENDBRANCH  17  18
ENDBRANCH  16  17
ENDBRANCH  15  16
ENDBRANCH   1  15
TORSDOF 22
ENDMDL
MODEL 4
REMARK VINA RESULT:    -1.208      1.092      2.533
REMARK INTER + INTRA:          -5.520
REMARK INTER:                  -4.427
REMARK INTRA:                  -1.094
REMARK UNBOUND:                -2.760
REMARK SMILES CCCCCCCCCCCCCCCCCCCCCCCC(=O)[O-]
REMARK SMILES IDX 13 1 14 2 15 3 16 4 17 5 18 6 19 7 20 8 21 9 22 10 23 11
REMARK SMILES IDX 24 12 25 13 26 14 12 15 11 16 10 17 9 18 8 19 7 20 6 21 5 22
REMARK SMILES IDX 4 23 3 24 2 25 1 26
REMARK H PARENT
REMARK Flexibility Score: inf
ROOT
ATOM      1  C   UNL     1       3.420   2.205  16.275  1.00  0.00     0.000 C 
ENDROOT
BRANCH   1   2
ATOM      2  C   UNL     1       4.124   0.838  16.350  1.00  0.00     0.000 C 
BRANCH   2   3
ATOM      3  C   UNL     1       5.655   0.948  16.358  1.00  0.00     0.000 C 
BRANCH   3   4
ATOM      4  C   UNL     1       6.291  -0.224  15.596  1.00  0.00     0.000 C 
BRANCH   4   5
ATOM      5  C   UNL     1       6.168  -1.560  16.347  1.00  0.00     0.000 C 
BRANCH   5   6
ATOM      6  C   UNL     1       4.922  -1.618  17.248  1.00  0.00     0.000 C 
BRANCH   6   7
ATOM      7  C   UNL     1       5.277  -1.707  18.743  1.00  0.00     0.000 C 
BRANCH   7   8
ATOM      8  C   UNL     1       6.063  -0.480  19.236  1.00  0.00     0.000 C 
BRANCH   8   9
ATOM      9  C   UNL     1       5.198   0.478  20.071  1.00  0.00     0.000 C 
BRANCH   9  10
ATOM     10  C   UNL     1       3.997   1.030  19.288  1.00  0.00     0.006 C 
BRANCH  10  11
ATOM     11  C   UNL     1       3.062   1.824  20.205  1.00  0.00     0.053 C 
BRANCH  11  12
ATOM     12  C   UNL     1       1.638   1.640  19.788  1.00  0.00     0.041 C 
ATOM     13  O   UNL     1       1.264   1.995  18.638  1.00  0.00    -0.550 OA
ATOM     14  O   UNL     1       0.711   1.126  20.685  1.00  0.00    -0.550 OA
ENDBRANCH  11  12
ENDBRANCH  10  11
ENDBRANCH   9  10
ENDBRANCH   8   9
ENDBRANCH   7   8
ENDBRANCH   6   7
ENDBRANCH   5   6
ENDBRANCH   4   5
ENDBRANCH   3   4
ENDBRANCH   2   3
ENDBRANCH   1   2
BRANCH   1  15
ATOM     15  C   UNL     1       4.298   3.418  16.637  1.00  0.00     0.000 C 
BRANCH  15  16
ATOM     16  C   UNL     1       4.765   4.209  15.403  1.00  0.00     0.000 C 
BRANCH  16  17
ATOM     17  C   UNL     1       3.764   4.144  14.234  1.00  0.00     0.000 C 
BRANCH  17  18
ATOM     18  C   UNL     1       4.365   3.739  12.876  1.00  0.00    -0.000 C 
BRANCH  18  19
ATOM     19  C   UNL     1       5.269   2.499  12.965  1.00  0.00    -0.000 C 
BRANCH  19  20
ATOM     20  C   UNL     1       4.445   1.209  12.875  1.00  0.00    -0.000 C 
BRANCH  20  21
ATOM     21  C   UNL     1       5.350  -0.027  12.962  1.00  0.00    -0.000 C 
BRANCH  21  22
ATOM     22  C   UNL     1       4.525  -1.320  12.885  1.00  0.00    -0.000 C 
BRANCH  22  23
ATOM     23  C   UNL     1       3.060  -1.111  13.302  1.00  0.00    -0.000 C 
BRANCH  23  24
ATOM     24  C   UNL     1       2.685  -1.907  14.564  1.00  0.00    -0.000 C 
BRANCH  24  25
ATOM     25  C   UNL     1       1.718  -1.139  15.478  1.00  0.00    -0.003 C 
ATOM     26  C   UNL     1       0.698  -0.310  14.696  1.00  0.00     0.004 C 
ENDBRANCH  24  25
ENDBRANCH  23  24
ENDBRANCH  22  23
ENDBRANCH  21  22
ENDBRANCH  20  21
ENDBRANCH  19  20
ENDBRANCH  18  19
ENDBRANCH  17  18
ENDBRANCH  16  17
ENDBRANCH  15  16
ENDBRANCH   1  15
TORSDOF 22
ENDMDL
MODEL 5
REMARK VINA RESULT:    -1.176      1.194      4.024
REMARK INTER + INTRA:          -5.449
REMARK INTER:                  -4.860
REMARK INTRA:                  -0.589
REMARK UNBOUND:                -2.760
REMARK SMILES CCCCCCCCCCCCCCCCCCCCCCCC(=O)[O-]
REMARK SMILES IDX 13 1 14 2 15 3 16 4 17 5 18 6 19 7 20 8 21 9 22 10 23 11
REMARK SMILES IDX 24 12 25 13 26 14 12 15 11 16 10 17 9 18 8 19 7 20 6 21 5 22
REMARK SMILES IDX 4 23 3 24 2 25 1 26
REMARK H PARENT
REMARK Flexibility Score: inf
ROOT
ATOM      1  C   UNL     1       5.620   0.108  12.879  1.00  0.00     0.000 C 
ENDROOT
BRANCH   1   2
ATOM      2  C   UNL     1       6.625   0.071  14.044  1.00  0.00     0.000 C 
BRANCH   2   3
ATOM      3  C   UNL     1       6.324  -1.035  15.065  1.00  0.00     0.000 C 
BRANCH   3   4
ATOM      4  C   UNL     1       5.958  -0.435  16.430  1.00  0.00     0.000 C 
BRANCH   4   5
ATOM      5  C   UNL     1       5.094  -1.378  17.284  1.00  0.00     0.000 C 
BRANCH   5   6
ATOM      6  C   UNL     1       5.882  -2.006  18.448  1.00  0.00     0.000 C 
BRANCH   6   7
ATOM      7  C   UNL     1       6.648  -0.960  19.276  1.00  0.00     0.000 C 
BRANCH   7   8
ATOM      8  C   UNL     1       5.710   0.038  19.979  1.00  0.00     0.000 C 
BRANCH   8   9
ATOM      9  C   UNL     1       4.823   0.810  18.990  1.00  0.00     0.000 C 
BRANCH   9  10
ATOM     10  C   UNL     1       3.846   1.768  19.690  1.00  0.00     0.006 C 
BRANCH  10  11
ATOM     11  C   UNL     1       2.573   1.035  20.121  1.00  0.00     0.053 C 
BRANCH  11  12
ATOM     12  C   UNL     1       1.389   1.944  20.031  1.00  0.00     0.041 C 
ATOM     13  O   UNL     1       0.999   2.579  21.047  1.00  0.00    -0.550 OA
ATOM     14  O   UNL     1       0.682   2.051  18.840  1.00  0.00    -0.550 OA
ENDBRANCH  11  12
ENDBRANCH  10  11
ENDBRANCH   9  10
ENDBRANCH   8   9
ENDBRANCH   7   8
ENDBRANCH   6   7
ENDBRANCH   5   6
ENDBRANCH   4   5
ENDBRANCH   3   4
ENDBRANCH   2   3
ENDBRANCH   1   2
BRANCH   1  15
ATOM     15  C   UNL     1       4.169  -0.249  13.250  1.00  0.00     0.000 C 
BRANCH  15  16
ATOM     16  C   UNL     1       3.946  -1.763  13.410  1.00  0.00     0.000 C 
BRANCH  16  17
ATOM     17  C   UNL     1       3.179  -2.125  14.696  1.00  0.00     0.000 C 
BRANCH  17  18
ATOM     18  C   UNL     1       1.659  -1.883  14.645  1.00  0.00    -0.000 C 
BRANCH  18  19
ATOM     19  C   UNL     1       1.294  -0.430  14.302  1.00  0.00    -0.000 C 
BRANCH  19  20
ATOM     20  C   UNL     1       1.184   0.424  15.571  1.00  0.00    -0.000 C 
BRANCH  20  21
ATOM     21  C   UNL     1       1.937   1.750  15.407  1.00  0.00    -0.000 C 
BRANCH  21  22
ATOM     22  C   UNL     1       3.173   1.797  16.317  1.00  0.00    -0.000 C 
BRANCH  22  23
ATOM     23  C   UNL     1       4.219   2.817  15.838  1.00  0.00    -0.000 C 
BRANCH  23  24
ATOM     24  C   UNL     1       4.413   2.795  14.312  1.00  0.00    -0.000 C 
BRANCH  24  25
ATOM     25  C   UNL     1       4.214   4.178  13.673  1.00  0.00    -0.003 C 
ATOM     26  C   UNL     1       2.741   4.511  13.431  1.00  0.00     0.004 C 
ENDBRANCH  24  25
ENDBRANCH  23  24
ENDBRANCH  22  23
ENDBRANCH  21  22
ENDBRANCH  20  21
ENDBRANCH  19  20
ENDBRANCH  18  19
ENDBRANCH  17  18
ENDBRANCH  16  17
ENDBRANCH  15  16
ENDBRANCH   1  15
TORSDOF 22
ENDMDL
MODEL 6
REMARK VINA RESULT:    -0.739      1.421      4.606
REMARK INTER + INTRA:          -4.450
REMARK INTER:                  -2.665
REMARK INTRA:                  -1.785
REMARK UNBOUND:                -2.760
REMARK SMILES CCCCCCCCCCCCCCCCCCCCCCCC(=O)[O-]
REMARK SMILES IDX 13 1 14 2 15 3 16 4 17 5 18 6 19 7 20 8 21 9 22 10 23 11
REMARK SMILES IDX 24 12 25 13 26 14 12 15 11 16 10 17 9 18 8 19 7 20 6 21 5 22
REMARK SMILES IDX 4 23 3 24 2 25 1 26
REMARK H PARENT
REMARK Flexibility Score: inf
ROOT
ATOM      1  C   UNL     1       6.246   1.515  15.633  1.00  0.00     0.000 C 
ENDROOT
BRANCH   1   2
ATOM      2  C   UNL     1       4.849   1.448  16.277  1.00  0.00     0.000 C 
BRANCH   2   3
ATOM      3  C   UNL     1       4.350   2.811  16.778  1.00  0.00     0.000 C 
BRANCH   3   4
ATOM      4  C   UNL     1       4.772   3.933  15.818  1.00  0.00     0.000 C 
BRANCH   4   5
ATOM      5  C   UNL     1       3.591   4.510  15.019  1.00  0.00     0.000 C 
BRANCH   5   6
ATOM      6  C   UNL     1       3.458   3.876  13.624  1.00  0.00     0.000 C 
BRANCH   6   7
ATOM      7  C   UNL     1       2.681   2.548  13.649  1.00  0.00     0.000 C 
BRANCH   7   8
ATOM      8  C   UNL     1       3.556   1.346  13.250  1.00  0.00     0.000 C 
BRANCH   8   9
ATOM      9  C   UNL     1       2.741   0.053  13.089  1.00  0.00     0.000 C 
BRANCH   9  10
ATOM     10  C   UNL     1       2.974  -0.943  14.237  1.00  0.00     0.006 C 
BRANCH  10  11
ATOM     11  C   UNL     1       1.660  -1.276  14.949  1.00  0.00     0.053 C 
BRANCH  11  12
ATOM     12  C   UNL     1       0.973  -0.024  15.393  1.00  0.00     0.041 C 
ATOM     13  O   UNL     1       1.469   0.679  16.313  1.00  0.00    -0.550 OA
ATOM     14  O   UNL     1      -0.243   0.340  14.829  1.00  0.00    -0.550 OA
ENDBRANCH  11  12
ENDBRANCH  10  11
ENDBRANCH   9  10
ENDBRANCH   8   9
ENDBRANCH   7   8
ENDBRANCH   6   7
ENDBRANCH   5   6
ENDBRANCH   4   5
ENDBRANCH   3   4
ENDBRANCH   2   3
ENDBRANCH   1   2
BRANCH   1  15
ATOM     15  C   UNL     1       6.261   1.522  14.094  1.00  0.00     0.000 C 
BRANCH  15  16
ATOM     16  C   UNL     1       7.155   0.421  13.498  1.00  0.00     0.000 C 
BRANCH  16  17
ATOM     17  C   UNL     1       6.368  -0.844  13.104  1.00  0.00     0.000 C 
BRANCH  17  18
ATOM     18  C   UNL     1       6.758  -2.124  13.865  1.00  0.00    -0.000 C 
BRANCH  18  19
ATOM     19  C   UNL     1       6.650  -1.973  15.390  1.00  0.00    -0.000 C 
BRANCH  19  20
ATOM     20  C   UNL     1       5.229  -1.570  15.804  1.00  0.00    -0.000 C 
BRANCH  20  21
ATOM     21  C   UNL     1       4.994  -1.843  17.295  1.00  0.00    -0.000 C 
BRANCH  21  22
ATOM     22  C   UNL     1       6.278  -1.611  18.106  1.00  0.00    -0.000 C 
BRANCH  22  23
ATOM     23  C   UNL     1       6.163  -0.413  19.062  1.00  0.00    -0.000 C 
BRANCH  23  24
ATOM     24  C   UNL     1       4.733  -0.214  19.594  1.00  0.00    -0.000 C 
BRANCH  24  25
ATOM     25  C   UNL     1       4.416   1.258  19.896  1.00  0.00    -0.003 C 
ATOM     26  C   UNL     1       2.948   1.609  19.649  1.00  0.00     0.004 C 
ENDBRANCH  24  25
ENDBRANCH  23  24
ENDBRANCH  22  23
ENDBRANCH  21  22
ENDBRANCH  20  21
ENDBRANCH  19  20
ENDBRANCH  18  19
ENDBRANCH  17  18
ENDBRANCH  16  17
ENDBRANCH  15  16
ENDBRANCH   1  15
TORSDOF 22
ENDMDL
MODEL 7
REMARK VINA RESULT:    -0.526      1.624      5.052
REMARK INTER + INTRA:          -3.962
REMARK INTER:                  -3.370
REMARK INTRA:                  -0.593
REMARK UNBOUND:                -2.760
REMARK SMILES CCCCCCCCCCCCCCCCCCCCCCCC(=O)[O-]
REMARK SMILES IDX 13 1 14 2 15 3 16 4 17 5 18 6 19 7 20 8 21 9 22 10 23 11
REMARK SMILES IDX 24 12 25 13 26 14 12 15 11 16 10 17 9 18 8 19 7 20 6 21 5 22
REMARK SMILES IDX 4 23 3 24 2 25 1 26
REMARK H PARENT
REMARK Flexibility Score: inf
ROOT
ATOM      1  C   UNL     1       3.430   3.318  13.592  1.00  0.00     0.000 C 
ENDROOT
BRANCH   1   2
ATOM      2  C   UNL     1       4.804   4.012  13.570  1.00  0.00     0.000 C 
BRANCH   2   3
ATOM      3  C   UNL     1       5.903   3.152  12.928  1.00  0.00     0.000 C 
BRANCH   3   4
ATOM      4  C   UNL     1       5.482   1.676  12.877  1.00  0.00     0.000 C 
BRANCH   4   5
ATOM      5  C   UNL     1       6.676   0.711  12.960  1.00  0.00     0.000 C 
BRANCH   5   6
ATOM      6  C   UNL     1       6.241  -0.750  13.165  1.00  0.00     0.000 C 
BRANCH   6   7
ATOM      7  C   UNL     1       4.725  -0.945  12.996  1.00  0.00     0.000 C 
BRANCH   7   8
ATOM      8  C   UNL     1       4.186  -2.125  13.824  1.00  0.00     0.000 C 
BRANCH   8   9
ATOM      9  C   UNL     1       3.935  -1.748  15.293  1.00  0.00     0.000 C 
BRANCH   9  10
ATOM     10  C   UNL     1       2.474  -1.962  15.721  1.00  0.00     0.006 C 
BRANCH  10  11
ATOM     11  C   UNL     1       1.516  -1.682  14.560  1.00  0.00     0.053 C 
BRANCH  11  12
ATOM     12  C   UNL     1       0.904  -0.325  14.702  1.00  0.00     0.041 C 
ATOM     13  O   UNL     1       0.287   0.196  13.734  1.00  0.00    -0.550 OA
ATOM     14  O   UNL     1       1.061   0.390  15.882  1.00  0.00    -0.550 OA
ENDBRANCH  11  12
ENDBRANCH  10  11
ENDBRANCH   9  10
ENDBRANCH   8   9
ENDBRANCH   7   8
ENDBRANCH   6   7
ENDBRANCH   5   6
ENDBRANCH   4   5
ENDBRANCH   3   4
ENDBRANCH   2   3
ENDBRANCH   1   2
BRANCH   1  15
ATOM     15  C   UNL     1       2.569   3.606  14.836  1.00  0.00     0.000 C 
BRANCH  15  16
ATOM     16  C   UNL     1       3.167   3.022  16.127  1.00  0.00     0.000 C 
BRANCH  16  17
ATOM     17  C   UNL     1       3.821   1.643  15.916  1.00  0.00     0.000 C 
BRANCH  17  18
ATOM     18  C   UNL     1       5.291   1.538  16.360  1.00  0.00    -0.000 C 
BRANCH  18  19
ATOM     19  C   UNL     1       5.457   1.512  17.888  1.00  0.00    -0.000 C 
BRANCH  19  20
ATOM     20  C   UNL     1       4.111   1.731  18.591  1.00  0.00    -0.000 C 
BRANCH  20  21
ATOM     21  C   UNL     1       4.094   1.051  19.966  1.00  0.00    -0.000 C 
BRANCH  21  22
ATOM     22  C   UNL     1       4.689  -0.363  19.888  1.00  0.00    -0.000 C 
BRANCH  22  23
ATOM     23  C   UNL     1       6.173  -0.357  19.485  1.00  0.00    -0.000 C 
BRANCH  23  24
ATOM     24  C   UNL     1       6.625  -1.695  18.873  1.00  0.00    -0.000 C 
BRANCH  24  25
ATOM     25  C   UNL     1       5.841  -2.055  17.601  1.00  0.00    -0.003 C 
ATOM     26  C   UNL     1       6.720  -2.067  16.349  1.00  0.00     0.004 C 
ENDBRANCH  24  25
ENDBRANCH  23  24
ENDBRANCH  22  23
ENDBRANCH  21  22
ENDBRANCH  20  21
ENDBRANCH  19  20
ENDBRANCH  18  19
ENDBRANCH  17  18
ENDBRANCH  16  17
ENDBRANCH  15  16
ENDBRANCH   1  15
TORSDOF 22
ENDMDL
MODEL 8
REMARK VINA RESULT:    -0.501      1.140      3.732
REMARK INTER + INTRA:          -3.904
REMARK INTER:                  -2.904
REMARK INTRA:                  -1.000
REMARK UNBOUND:                -2.760
REMARK SMILES CCCCCCCCCCCCCCCCCCCCCCCC(=O)[O-]
REMARK SMILES IDX 13 1 14 2 15 3 16 4 17 5 18 6 19 7 20 8 21 9 22 10 23 11
REMARK SMILES IDX 24 12 25 13 26 14 12 15 11 16 10 17 9 18 8 19 7 20 6 21 5 22
REMARK SMILES IDX 4 23 3 24 2 25 1 26
REMARK H PARENT
REMARK Flexibility Score: inf
ROOT
ATOM      1  C   UNL     1       0.959   1.168  15.106  1.00  0.00     0.000 C 
ENDROOT
BRANCH   1   2
ATOM      2  C   UNL     1       2.337   1.853  15.131  1.00  0.00     0.000 C 
BRANCH   2   3
ATOM      3  C   UNL     1       2.269   3.354  14.811  1.00  0.00     0.000 C 
BRANCH   3   4
ATOM      4  C   UNL     1       3.193   3.704  13.636  1.00  0.00     0.000 C 
BRANCH   4   5
ATOM      5  C   UNL     1       4.236   2.610  13.350  1.00  0.00     0.000 C 
BRANCH   5   6
ATOM      6  C   UNL     1       5.596   2.906  14.006  1.00  0.00     0.000 C 
BRANCH   6   7
ATOM      7  C   UNL     1       5.991   1.847  15.050  1.00  0.00     0.000 C 
BRANCH   7   8
ATOM      8  C   UNL     1       5.671   2.288  16.489  1.00  0.00     0.000 C 
BRANCH   8   9
ATOM      9  C   UNL     1       4.409   1.610  17.046  1.00  0.00     0.000 C 
BRANCH   9  10
ATOM     10  C   UNL     1       3.717   2.445  18.135  1.00  0.00     0.006 C 
BRANCH  10  11
ATOM     11  C   UNL     1       3.213   1.553  19.273  1.00  0.00     0.053 C 
BRANCH  11  12
ATOM     12  C   UNL     1       1.743   1.739  19.473  1.00  0.00     0.041 C 
ATOM     13  O   UNL     1       1.011   2.086  18.508  1.00  0.00    -0.550 OA
ATOM     14  O   UNL     1       1.187   1.583  20.736  1.00  0.00    -0.550 OA
ENDBRANCH  11  12
ENDBRANCH  10  11
ENDBRANCH   9  10
ENDBRANCH   8   9
ENDBRANCH   7   8
ENDBRANCH   6   7
ENDBRANCH   5   6
ENDBRANCH   4   5
ENDBRANCH   3   4
ENDBRANCH   2   3
ENDBRANCH   1   2
BRANCH   1  15
ATOM     15  C   UNL     1       0.990  -0.372  15.138  1.00  0.00     0.000 C 
BRANCH  15  16
ATOM     16  C   UNL     1       2.413  -0.945  15.033  1.00  0.00     0.000 C 
BRANCH  16  17
ATOM     17  C   UNL     1       2.922  -1.028  13.581  1.00  0.00     0.000 C 
BRANCH  17  18
ATOM     18  C   UNL     1       4.271  -1.748  13.398  1.00  0.00    -0.000 C 
BRANCH  18  19
ATOM     19  C   UNL     1       5.468  -0.786  13.387  1.00  0.00    -0.000 C 
BRANCH  19  20
ATOM     20  C   UNL     1       6.689  -1.419  14.065  1.00  0.00    -0.000 C 
BRANCH  20  21
ATOM     21  C   UNL     1       6.290  -2.125  15.367  1.00  0.00    -0.000 C 
BRANCH  21  22
ATOM     22  C   UNL     1       5.418  -1.213  16.242  1.00  0.00    -0.000 C 
BRANCH  22  23
ATOM     23  C   UNL     1       5.228  -1.765  17.664  1.00  0.00    -0.000 C 
BRANCH  23  24
ATOM     24  C   UNL     1       6.545  -1.817  18.459  1.00  0.00    -0.000 C 
BRANCH  24  25
ATOM     25  C   UNL     1       6.611  -0.746  19.559  1.00  0.00    -0.003 C 
ATOM     26  C   UNL     1       5.229  -0.244  19.979  1.00  0.00     0.004 C 
ENDBRANCH  24  25
ENDBRANCH  23  24
ENDBRANCH  22  23
ENDBRANCH  21  22
ENDBRANCH  20  21
ENDBRANCH  19  20
ENDBRANCH  18  19
ENDBRANCH  17  18
ENDBRANCH  16  17
ENDBRANCH  15  16
ENDBRANCH   1  15
TORSDOF 22
ENDMDL
MODEL 9
REMARK VINA RESULT:    -0.093      1.221      4.214
REMARK INTER + INTRA:          -2.973
REMARK INTER:                  -1.989
REMARK INTRA:                  -0.984
REMARK UNBOUND:                -2.760
REMARK SMILES CCCCCCCCCCCCCCCCCCCCCCCC(=O)[O-]
REMARK SMILES IDX 13 1 14 2 15 3 16 4 17 5 18 6 19 7 20 8 21 9 22 10 23 11
REMARK SMILES IDX 24 12 25 13 26 14 12 15 11 16 10 17 9 18 8 19 7 20 6 21 5 22
REMARK SMILES IDX 4 23 3 24 2 25 1 26
REMARK H PARENT
REMARK Flexibility Score: inf
ROOT
ATOM      1  C   UNL     1       4.582   1.684  13.346  1.00  0.00     0.000 C 
ENDROOT
BRANCH   1   2
ATOM      2  C   UNL     1       3.832   0.414  12.903  1.00  0.00     0.000 C 
BRANCH   2   3
ATOM      3  C   UNL     1       4.725  -0.835  12.875  1.00  0.00     0.000 C 
BRANCH   3   4
ATOM      4  C   UNL     1       4.141  -1.943  13.763  1.00  0.00     0.000 C 
BRANCH   4   5
ATOM      5  C   UNL     1       2.622  -2.106  13.592  1.00  0.00     0.000 C 
BRANCH   5   6
ATOM      6  C   UNL     1       1.843  -1.769  14.875  1.00  0.00     0.000 C 
BRANCH   6   7
ATOM      7  C   UNL     1       2.395  -0.525  15.592  1.00  0.00     0.000 C 
BRANCH   7   8
ATOM      8  C   UNL     1       1.391   0.641  15.606  1.00  0.00     0.000 C 
BRANCH   8   9
ATOM      9  C   UNL     1       1.882   1.832  16.444  1.00  0.00     0.000 C 
BRANCH   9  10
ATOM     10  C   UNL     1       1.951   1.515  17.946  1.00  0.00     0.006 C 
BRANCH  10  11
ATOM     11  C   UNL     1       0.773   2.143  18.694  1.00  0.00     0.053 C 
BRANCH  11  12
ATOM     12  C   UNL     1       1.028   2.144  20.168  1.00  0.00     0.041 C 
ATOM     13  O   UNL     1       1.499   1.120  20.730  1.00  0.00    -0.550 OA
ATOM     14  O   UNL     1       0.696   3.256  20.931  1.00  0.00    -0.550 OA
ENDBRANCH  11  12
ENDBRANCH  10  11
ENDBRANCH   9  10
ENDBRANCH   8   9
ENDBRANCH   7   8
ENDBRANCH   6   7
ENDBRANCH   5   6
ENDBRANCH   4   5
ENDBRANCH   3   4
ENDBRANCH   2   3
ENDBRANCH   1   2
BRANCH   1  15
ATOM     15  C   UNL     1       3.688   2.889  13.690  1.00  0.00     0.000 C 
BRANCH  15  16
ATOM     16  C   UNL     1       4.311   3.813  14.751  1.00  0.00     0.000 C 
BRANCH  16  17
ATOM     17  C   UNL     1       4.803   3.051  15.997  1.00  0.00     0.000 C 
BRANCH  17  18
ATOM     18  C   UNL     1       5.879   1.983  15.731  1.00  0.00    -0.000 C 
BRANCH  18  19
ATOM     19  C   UNL     1       5.504   0.601  16.289  1.00  0.00    -0.000 C 
BRANCH  19  20
ATOM     20  C   UNL     1       6.239  -0.515  15.536  1.00  0.00    -0.000 C 
BRANCH  20  21
ATOM     21  C   UNL     1       6.352  -1.777  16.401  1.00  0.00    -0.000 C 
BRANCH  21  22
ATOM     22  C   UNL     1       5.506  -1.649  17.676  1.00  0.00    -0.000 C 
BRANCH  22  23
ATOM     23  C   UNL     1       6.362  -1.625  18.952  1.00  0.00    -0.000 C 
BRANCH  23  24
ATOM     24  C   UNL     1       6.110  -0.371  19.809  1.00  0.00    -0.000 C 
BRANCH  24  25
ATOM     25  C   UNL     1       4.655   0.115  19.729  1.00  0.00    -0.003 C 
ATOM     26  C   UNL     1       4.547   1.606  19.410  1.00  0.00     0.004 C 
ENDBRANCH  24  25
ENDBRANCH  23  24
ENDBRANCH  22  23
ENDBRANCH  21  22
ENDBRANCH  20  21
ENDBRANCH  19  20
ENDBRANCH  18  19
ENDBRANCH  17  18
ENDBRANCH  16  17
ENDBRANCH  15  16
ENDBRANCH   1  15
TORSDOF 22
ENDMDL
