MODEL 1
REMARK VINA RESULT:    -3.562      0.000      0.000
REMARK INTER + INTRA:          -5.658
REMARK INTER:                  -4.811
REMARK INTRA:                  -0.847
REMARK UNBOUND:                -0.847
REMARK SMILES O=C[C@@H](O)[C@H](O)[C@@H](O)CO
REMARK SMILES IDX 7 1 9 2 10 3 5 5 3 6 2 7 1 8 4 9 6 11 8 13
REMARK H PARENT 10 4 4 10 6 12 8 14
REMARK Flexibility Score: inf
ROOT
ATOM      1  C   UNL     1     -21.825  -3.148  11.474  1.00  0.00     0.171 C 
ENDROOT
BRANCH   1   2
ATOM      2  C   UNL     1     -22.452  -2.012  12.297  1.00  0.00     0.190 C 
BRANCH   2   3
ATOM      3  O   UNL     1     -21.531  -0.970  12.465  1.00  0.00    -0.394 OA
ATOM      4  H   UNL     1     -20.655  -1.401  12.646  1.00  0.00     0.210 HD
ENDBRANCH   2   3
ENDBRANCH   1   2
BRANCH   1   5
ATOM      5  C   UNL     1     -22.192  -3.034   9.973  1.00  0.00     0.181 C 
BRANCH   5   6
ATOM      6  C   UNL     1     -21.771  -4.294   9.175  1.00  0.00     0.209 C 
BRANCH   6   7
ATOM      7  C   UNL     1     -20.669  -3.988   8.199  1.00  0.00     0.258 C 
ATOM      8  O   UNL     1     -19.594  -3.561   8.587  1.00  0.00    -0.300 OA
ENDBRANCH   6   7
BRANCH   6   9
ATOM      9  O   UNL     1     -21.317  -5.292  10.053  1.00  0.00    -0.383 OA
ATOM     10  H   UNL     1     -22.072  -5.511  10.661  1.00  0.00     0.211 HD
ENDBRANCH   6   9
ENDBRANCH   5   6
BRANCH   5  11
ATOM     11  O   UNL     1     -21.557  -1.902   9.432  1.00  0.00    -0.387 OA
ATOM     12  H   UNL     1     -21.100  -1.436  10.180  1.00  0.00     0.211 HD
ENDBRANCH   5  11
ENDBRANCH   1   5
BRANCH   1  13
ATOM     13  O   UNL     1     -20.428  -3.114  11.619  1.00  0.00    -0.388 OA
ATOM     14  H   UNL     1     -20.230  -2.490  12.366  1.00  0.00     0.211 HD
ENDBRANCH   1  13
TORSDOF 8
ENDMDL
MODEL 2
REMARK VINA RESULT:    -3.296      1.822      2.503
REMARK INTER + INTRA:          -5.299
REMARK INTER:                  -4.659
REMARK INTRA:                  -0.640
REMARK UNBOUND:                -0.847
REMARK SMILES O=C[C@@H](O)[C@H](O)[C@@H](O)CO
REMARK SMILES IDX 7 1 9 2 10 3 5 5 3 6 2 7 1 8 4 9 6 11 8 13
REMARK H PARENT 10 4 4 10 6 12 8 14
REMARK Flexibility Score: inf
ROOT
ATOM      1  C   UNL     1     -22.034  -4.206  10.093  1.00  0.00     0.171 C 
ENDROOT
BRANCH   1   2
ATOM      2  C   UNL     1     -21.433  -2.868  10.555  1.00  0.00     0.190 C 
BRANCH   2   3
ATOM      3  O   UNL     1     -20.603  -3.068  11.665  1.00  0.00    -0.394 OA
ATOM      4  H   UNL     1     -21.112  -2.744  12.453  1.00  0.00     0.210 HD
ENDBRANCH   2   3
ENDBRANCH   1   2
BRANCH   1   5
ATOM      5  C   UNL     1     -21.330  -4.736   8.819  1.00  0.00     0.181 C 
BRANCH   5   6
ATOM      6  C   UNL     1     -21.436  -6.277   8.697  1.00  0.00     0.209 C 
BRANCH   6   7
ATOM      7  C   UNL     1     -21.147  -6.743   7.297  1.00  0.00     0.258 C 
ATOM      8  O   UNL     1     -20.088  -6.468   6.755  1.00  0.00    -0.300 OA
ENDBRANCH   6   7
BRANCH   6   9
ATOM      9  O   UNL     1     -20.519  -6.894   9.564  1.00  0.00    -0.383 OA
ATOM     10  H   UNL     1     -20.486  -6.346  10.393  1.00  0.00     0.211 HD
ENDBRANCH   6   9
ENDBRANCH   5   6
BRANCH   5  11
ATOM     11  O   UNL     1     -19.975  -4.361   8.856  1.00  0.00    -0.387 OA
ATOM     12  H   UNL     1     -19.439  -5.185   8.713  1.00  0.00     0.211 HD
ENDBRANCH   5  11
ENDBRANCH   1   5
BRANCH   1  13
ATOM     13  O   UNL     1     -21.914  -5.153  11.124  1.00  0.00    -0.388 OA
ATOM     14  H   UNL     1     -22.604  -4.929  11.803  1.00  0.00     0.211 HD
ENDBRANCH   1  13
TORSDOF 8
ENDMDL
MODEL 3
REMARK VINA RESULT:    -3.289      1.090      1.650
REMARK INTER + INTRA:          -5.289
REMARK INTER:                  -4.334
REMARK INTRA:                  -0.956
REMARK UNBOUND:                -0.847
REMARK SMILES O=C[C@@H](O)[C@H](O)[C@@H](O)CO
REMARK SMILES IDX 7 1 9 2 10 3 5 5 3 6 2 7 1 8 4 9 6 11 8 13
REMARK H PARENT 10 4 4 10 6 12 8 14
REMARK Flexibility Score: inf
ROOT
ATOM      1  C   UNL     1     -22.284  -3.460  10.763  1.00  0.00     0.171 C 
ENDROOT
BRANCH   1   2
ATOM      2  C   UNL     1     -21.664  -2.457  11.748  1.00  0.00     0.190 C 
BRANCH   2   3
ATOM      3  O   UNL     1     -20.287  -2.685  11.869  1.00  0.00    -0.394 OA
ATOM      4  H   UNL     1     -19.956  -2.028  12.536  1.00  0.00     0.210 HD
ENDBRANCH   2   3
ENDBRANCH   1   2
BRANCH   1   5
ATOM      5  C   UNL     1     -22.054  -3.029   9.292  1.00  0.00     0.181 C 
BRANCH   5   6
ATOM      6  C   UNL     1     -21.051  -3.960   8.565  1.00  0.00     0.209 C 
BRANCH   6   7
ATOM      7  C   UNL     1     -21.128  -3.800   7.072  1.00  0.00     0.258 C 
ATOM      8  O   UNL     1     -20.833  -2.740   6.544  1.00  0.00    -0.300 OA
ENDBRANCH   6   7
BRANCH   6   9
ATOM      9  O   UNL     1     -19.739  -3.667   8.972  1.00  0.00    -0.383 OA
ATOM     10  H   UNL     1     -19.451  -4.397   9.582  1.00  0.00     0.211 HD
ENDBRANCH   6   9
ENDBRANCH   5   6
BRANCH   5  11
ATOM     11  O   UNL     1     -21.568  -1.710   9.273  1.00  0.00    -0.387 OA
ATOM     12  H   UNL     1     -21.848  -1.307   8.410  1.00  0.00     0.211 HD
ENDBRANCH   5  11
ENDBRANCH   1   5
BRANCH   1  13
ATOM     13  O   UNL     1     -21.721  -4.731  10.973  1.00  0.00    -0.388 OA
ATOM     14  H   UNL     1     -21.219  -4.686  11.829  1.00  0.00     0.211 HD
ENDBRANCH   1  13
TORSDOF 8
ENDMDL
MODEL 4
REMARK VINA RESULT:    -3.248      1.035      3.917
REMARK INTER + INTRA:          -5.235
REMARK INTER:                  -4.361
REMARK INTRA:                  -0.874
REMARK UNBOUND:                -0.847
REMARK SMILES O=C[C@@H](O)[C@H](O)[C@@H](O)CO
REMARK SMILES IDX 7 1 9 2 10 3 5 5 3 6 2 7 1 8 4 9 6 11 8 13
REMARK H PARENT 10 4 4 10 6 12 8 14
REMARK Flexibility Score: inf
ROOT
ATOM      1  C   UNL     1     -20.971  -4.389   8.505  1.00  0.00     0.171 C 
ENDROOT
BRANCH   1   2
ATOM      2  C   UNL     1     -20.915  -5.862   8.068  1.00  0.00     0.190 C 
BRANCH   2   3
ATOM      3  O   UNL     1     -20.192  -6.616   9.001  1.00  0.00    -0.394 OA
ATOM      4  H   UNL     1     -19.361  -6.903   8.541  1.00  0.00     0.210 HD
ENDBRANCH   2   3
ENDBRANCH   1   2
BRANCH   1   5
ATOM      5  C   UNL     1     -21.993  -4.173   9.648  1.00  0.00     0.181 C 
BRANCH   5   6
ATOM      6  C   UNL     1     -22.108  -2.680  10.049  1.00  0.00     0.209 C 
BRANCH   6   7
ATOM      7  C   UNL     1     -21.559  -2.433  11.427  1.00  0.00     0.258 C 
ATOM      8  O   UNL     1     -20.354  -2.405  11.621  1.00  0.00    -0.300 OA
ENDBRANCH   6   7
BRANCH   6   9
ATOM      9  O   UNL     1     -21.396  -1.880   9.140  1.00  0.00    -0.383 OA
ATOM     10  H   UNL     1     -21.491  -0.939   9.443  1.00  0.00     0.211 HD
ENDBRANCH   6   9
ENDBRANCH   5   6
BRANCH   5  11
ATOM     11  O   UNL     1     -21.596  -4.929  10.766  1.00  0.00    -0.387 OA
ATOM     12  H   UNL     1     -22.207  -5.710  10.823  1.00  0.00     0.211 HD
ENDBRANCH   5  11
ENDBRANCH   1   5
BRANCH   1  13
ATOM     13  O   UNL     1     -19.696  -3.979   8.931  1.00  0.00    -0.388 OA
ATOM     14  H   UNL     1     -19.834  -3.278   9.621  1.00  0.00     0.211 HD
ENDBRANCH   1  13
TORSDOF 8
ENDMDL
MODEL 5
REMARK VINA RESULT:    -3.241      1.467      3.269
REMARK INTER + INTRA:          -5.225
REMARK INTER:                  -4.277
REMARK INTRA:                  -0.948
REMARK UNBOUND:                -0.847
REMARK SMILES O=C[C@@H](O)[C@H](O)[C@@H](O)CO
REMARK SMILES IDX 7 1 9 2 10 3 5 5 3 6 2 7 1 8 4 9 6 11 8 13
REMARK H PARENT 10 4 4 10 6 12 8 14
REMARK Flexibility Score: inf
ROOT
ATOM      1  C   UNL     1     -20.188  -2.373   9.180  1.00  0.00     0.171 C 
ENDROOT
BRANCH   1   2
ATOM      2  C   UNL     1     -19.964  -1.505   7.931  1.00  0.00     0.190 C 
BRANCH   2   3
ATOM      3  O   UNL     1     -20.909  -0.472   7.884  1.00  0.00    -0.394 OA
ATOM      4  H   UNL     1     -21.051  -0.272   6.922  1.00  0.00     0.210 HD
ENDBRANCH   2   3
ENDBRANCH   1   2
BRANCH   1   5
ATOM      5  C   UNL     1     -21.636  -2.239   9.714  1.00  0.00     0.181 C 
BRANCH   5   6
ATOM      6  C   UNL     1     -21.775  -2.789  11.156  1.00  0.00     0.209 C 
BRANCH   6   7
ATOM      7  C   UNL     1     -22.498  -4.107  11.179  1.00  0.00     0.258 C 
ATOM      8  O   UNL     1     -22.012  -5.093  10.648  1.00  0.00    -0.300 OA
ENDBRANCH   6   7
BRANCH   6   9
ATOM      9  O   UNL     1     -20.505  -2.973  11.727  1.00  0.00    -0.383 OA
ATOM     10  H   UNL     1     -20.630  -3.516  12.550  1.00  0.00     0.211 HD
ENDBRANCH   6   9
ENDBRANCH   5   6
BRANCH   5  11
ATOM     11  O   UNL     1     -22.505  -2.939   8.859  1.00  0.00    -0.387 OA
ATOM     12  H   UNL     1     -22.021  -3.747   8.546  1.00  0.00     0.211 HD
ENDBRANCH   5  11
ENDBRANCH   1   5
BRANCH   1  13
ATOM     13  O   UNL     1     -19.926  -3.717   8.867  1.00  0.00    -0.388 OA
ATOM     14  H   UNL     1     -18.969  -3.882   9.079  1.00  0.00     0.211 HD
ENDBRANCH   1  13
TORSDOF 8
ENDMDL
MODEL 6
REMARK VINA RESULT:    -3.216      1.885      3.873
REMARK INTER + INTRA:          -5.191
REMARK INTER:                  -4.502
REMARK INTRA:                  -0.689
REMARK UNBOUND:                -0.847
REMARK SMILES O=C[C@@H](O)[C@H](O)[C@@H](O)CO
REMARK SMILES IDX 7 1 9 2 10 3 5 5 3 6 2 7 1 8 4 9 6 11 8 13
REMARK H PARENT 10 4 4 10 6 12 8 14
REMARK Flexibility Score: inf
ROOT
ATOM      1  C   UNL     1     -21.829  -6.551   9.270  1.00  0.00     0.171 C 
ENDROOT
BRANCH   1   2
ATOM      2  C   UNL     1     -22.770  -7.514  10.011  1.00  0.00     0.190 C 
BRANCH   2   3
ATOM      3  O   UNL     1     -22.288  -7.764  11.302  1.00  0.00    -0.394 OA
ATOM      4  H   UNL     1     -22.910  -8.424  11.707  1.00  0.00     0.210 HD
ENDBRANCH   2   3
ENDBRANCH   1   2
BRANCH   1   5
ATOM      5  C   UNL     1     -22.091  -5.078   9.671  1.00  0.00     0.181 C 
BRANCH   5   6
ATOM      6  C   UNL     1     -21.363  -4.083   8.732  1.00  0.00     0.209 C 
BRANCH   6   7
ATOM      7  C   UNL     1     -21.813  -2.668   8.967  1.00  0.00     0.258 C 
ATOM      8  O   UNL     1     -21.408  -2.037   9.931  1.00  0.00    -0.300 OA
ENDBRANCH   6   7
BRANCH   6   9
ATOM      9  O   UNL     1     -19.976  -4.145   8.946  1.00  0.00    -0.383 OA
ATOM     10  H   UNL     1     -19.677  -5.052   8.670  1.00  0.00     0.211 HD
ENDBRANCH   6   9
ENDBRANCH   5   6
BRANCH   5  11
ATOM     11  O   UNL     1     -21.656  -4.879  10.993  1.00  0.00    -0.387 OA
ATOM     12  H   UNL     1     -20.664  -4.927  10.985  1.00  0.00     0.211 HD
ENDBRANCH   5  11
ENDBRANCH   1   5
BRANCH   1  13
ATOM     13  O   UNL     1     -20.495  -6.886   9.560  1.00  0.00    -0.388 OA
ATOM     14  H   UNL     1     -20.520  -7.674  10.163  1.00  0.00     0.211 HD
ENDBRANCH   1  13
TORSDOF 8
ENDMDL
MODEL 7
REMARK VINA RESULT:    -3.128      3.102      4.485
REMARK INTER + INTRA:          -5.072
REMARK INTER:                  -4.429
REMARK INTRA:                  -0.643
REMARK UNBOUND:                -0.847
REMARK SMILES O=C[C@@H](O)[C@H](O)[C@@H](O)CO
REMARK SMILES IDX 7 1 9 2 10 3 5 5 3 6 2 7 1 8 4 9 6 11 8 13
REMARK H PARENT 10 4 4 10 6 12 8 14
REMARK Flexibility Score: inf
ROOT
ATOM      1  C   UNL     1     -19.479  -5.337   7.612  1.00  0.00     0.171 C 
ENDROOT
BRANCH   1   2
ATOM      2  C   UNL     1     -20.525  -6.423   7.911  1.00  0.00     0.190 C 
BRANCH   2   3
ATOM      3  O   UNL     1     -20.502  -6.754   9.272  1.00  0.00    -0.394 OA
ATOM      4  H   UNL     1     -19.836  -6.151   9.693  1.00  0.00     0.210 HD
ENDBRANCH   2   3
ENDBRANCH   1   2
BRANCH   1   5
ATOM      5  C   UNL     1     -20.060  -3.915   7.818  1.00  0.00     0.181 C 
BRANCH   5   6
ATOM      6  C   UNL     1     -19.207  -2.832   7.111  1.00  0.00     0.209 C 
BRANCH   6   7
ATOM      7  C   UNL     1     -19.435  -1.471   7.707  1.00  0.00     0.258 C 
ATOM      8  O   UNL     1     -20.566  -1.033   7.845  1.00  0.00    -0.300 OA
ENDBRANCH   6   7
BRANCH   6   9
ATOM      9  O   UNL     1     -17.841  -3.141   7.228  1.00  0.00    -0.383 OA
ATOM     10  H   UNL     1     -17.336  -2.300   7.068  1.00  0.00     0.211 HD
ENDBRANCH   6   9
ENDBRANCH   5   6
BRANCH   5  11
ATOM     11  O   UNL     1     -20.117  -3.641   9.196  1.00  0.00    -0.387 OA
ATOM     12  H   UNL     1     -20.760  -2.894   9.320  1.00  0.00     0.211 HD
ENDBRANCH   5  11
ENDBRANCH   1   5
BRANCH   1  13
ATOM     13  O   UNL     1     -18.366  -5.516   8.450  1.00  0.00    -0.388 OA
ATOM     14  H   UNL     1     -17.720  -6.084   7.954  1.00  0.00     0.211 HD
ENDBRANCH   1  13
TORSDOF 8
ENDMDL
MODEL 8
REMARK VINA RESULT:    -3.087      1.788      2.963
REMARK INTER + INTRA:          -5.017
REMARK INTER:                  -4.086
REMARK INTRA:                  -0.931
REMARK UNBOUND:                -0.847
REMARK SMILES O=C[C@@H](O)[C@H](O)[C@@H](O)CO
REMARK SMILES IDX 7 1 9 2 10 3 5 5 3 6 2 7 1 8 4 9 6 11 8 13
REMARK H PARENT 10 4 4 10 6 12 8 14
REMARK Flexibility Score: inf
ROOT
ATOM      1  C   UNL     1     -21.624  -2.441   9.777  1.00  0.00     0.171 C 
ENDROOT
BRANCH   1   2
ATOM      2  C   UNL     1     -21.652  -3.089  11.170  1.00  0.00     0.190 C 
BRANCH   2   3
ATOM      3  O   UNL     1     -20.411  -2.937  11.801  1.00  0.00    -0.394 OA
ATOM      4  H   UNL     1     -20.607  -2.685  12.740  1.00  0.00     0.210 HD
ENDBRANCH   2   3
ENDBRANCH   1   2
BRANCH   1   5
ATOM      5  C   UNL     1     -20.187  -2.398   9.199  1.00  0.00     0.181 C 
BRANCH   5   6
ATOM      6  C   UNL     1     -20.080  -1.443   7.982  1.00  0.00     0.209 C 
BRANCH   6   7
ATOM      7  C   UNL     1     -20.023  -2.203   6.686  1.00  0.00     0.258 C 
ATOM      8  O   UNL     1     -20.985  -2.847   6.299  1.00  0.00    -0.300 OA
ENDBRANCH   6   7
BRANCH   6   9
ATOM      9  O   UNL     1     -21.192  -0.586   7.942  1.00  0.00    -0.383 OA
ATOM     10  H   UNL     1     -21.713  -0.744   8.773  1.00  0.00     0.211 HD
ENDBRANCH   6   9
ENDBRANCH   5   6
BRANCH   5  11
ATOM     11  O   UNL     1     -19.812  -3.696   8.810  1.00  0.00    -0.387 OA
ATOM     12  H   UNL     1     -20.304  -3.905   7.973  1.00  0.00     0.211 HD
ENDBRANCH   5  11
ENDBRANCH   1   5
BRANCH   1  13
ATOM     13  O   UNL     1     -22.459  -3.163   8.908  1.00  0.00    -0.388 OA
ATOM     14  H   UNL     1     -23.305  -3.335   9.398  1.00  0.00     0.211 HD
ENDBRANCH   1  13
TORSDOF 8
ENDMDL
MODEL 9
REMARK VINA RESULT:    -3.011      3.151      4.235
REMARK INTER + INTRA:          -4.914
REMARK INTER:                  -4.146
REMARK INTRA:                  -0.768
REMARK UNBOUND:                -0.847
REMARK SMILES O=C[C@@H](O)[C@H](O)[C@@H](O)CO
REMARK SMILES IDX 7 1 9 2 10 3 5 5 3 6 2 7 1 8 4 9 6 11 8 13
REMARK H PARENT 10 4 4 10 6 12 8 14
REMARK Flexibility Score: inf
ROOT
ATOM      1  C   UNL     1     -21.608  -6.231   7.966  1.00  0.00     0.171 C 
ENDROOT
BRANCH   1   2
ATOM      2  C   UNL     1     -22.023  -6.698   9.370  1.00  0.00     0.190 C 
BRANCH   2   3
ATOM      3  O   UNL     1     -20.921  -7.233  10.049  1.00  0.00    -0.394 OA
ATOM      4  H   UNL     1     -20.948  -8.213   9.890  1.00  0.00     0.210 HD
ENDBRANCH   2   3
ENDBRANCH   1   2
BRANCH   1   5
ATOM      5  C   UNL     1     -20.766  -4.932   8.025  1.00  0.00     0.181 C 
BRANCH   5   6
ATOM      6  C   UNL     1     -19.287  -5.181   7.634  1.00  0.00     0.209 C 
BRANCH   6   7
ATOM      7  C   UNL     1     -18.504  -3.898   7.584  1.00  0.00     0.258 C 
ATOM      8  O   UNL     1     -18.484  -3.220   6.569  1.00  0.00    -0.300 OA
ENDBRANCH   6   7
BRANCH   6   9
ATOM      9  O   UNL     1     -18.677  -6.033   8.569  1.00  0.00    -0.383 OA
ATOM     10  H   UNL     1     -19.320  -6.154   9.317  1.00  0.00     0.211 HD
ENDBRANCH   6   9
ENDBRANCH   5   6
BRANCH   5  11
ATOM     11  O   UNL     1     -20.824  -4.408   9.329  1.00  0.00    -0.387 OA
ATOM     12  H   UNL     1     -21.383  -3.588   9.291  1.00  0.00     0.211 HD
ENDBRANCH   5  11
ENDBRANCH   1   5
BRANCH   1  13
ATOM     13  O   UNL     1     -20.864  -7.244   7.338  1.00  0.00    -0.388 OA
ATOM     14  H   UNL     1     -20.035  -7.367   7.870  1.00  0.00     0.211 HD
ENDBRANCH   1  13
TORSDOF 8
ENDMDL
