MODEL 1
REMARK VINA RESULT:    -4.105      0.000      0.000
REMARK INTER + INTRA:          -6.714
REMARK INTER:                  -6.265
REMARK INTRA:                  -0.450
REMARK UNBOUND:                -0.450
REMARK SMILES O=C([O-])CCCCCCCCC(=O)[O-]
REMARK SMILES IDX 7 1 6 2 5 3 4 4 2 5 1 6 3 7 8 8 9 9 10 10 11 11 12 12 13 13
REMARK SMILES IDX 14 14
REMARK H PARENT
REMARK Flexibility Score: inf
ROOT
ATOM      1  C   UNL     1      15.117  30.804  69.221  1.00  0.00     0.000 C 
ENDROOT
BRANCH   1   2
ATOM      2  C   UNL     1      15.451  30.838  70.718  1.00  0.00     0.000 C 
BRANCH   2   3
ATOM      3  C   UNL     1      16.917  30.450  70.962  1.00  0.00     0.006 C 
BRANCH   3   4
ATOM      4  C   UNL     1      17.718  30.359  69.656  1.00  0.00     0.053 C 
BRANCH   4   5
ATOM      5  C   UNL     1      19.108  30.895  69.817  1.00  0.00     0.041 C 
ATOM      6  O   UNL     1      19.760  30.660  70.869  1.00  0.00    -0.550 OA
ATOM      7  O   UNL     1      19.670  31.682  68.820  1.00  0.00    -0.550 OA
ENDBRANCH   4   5
ENDBRANCH   3   4
ENDBRANCH   2   3
ENDBRANCH   1   2
BRANCH   1   8
ATOM      8  C   UNL     1      14.411  32.098  68.786  1.00  0.00     0.000 C 
BRANCH   8   9
ATOM      9  C   UNL     1      15.299  32.989  67.903  1.00  0.00     0.000 C 
BRANCH   9  10
ATOM     10  C   UNL     1      14.486  33.886  66.958  1.00  0.00     0.006 C 
BRANCH  10  11
ATOM     11  C   UNL     1      13.786  35.007  67.734  1.00  0.00     0.053 C 
BRANCH  11  12
ATOM     12  C   UNL     1      14.448  36.320  67.468  1.00  0.00     0.041 C 
ATOM     13  O   UNL     1      13.759  37.325  67.149  1.00  0.00    -0.550 OA
ATOM     14  O   UNL     1      15.833  36.426  67.524  1.00  0.00    -0.550 OA
ENDBRANCH  11  12
ENDBRANCH  10  11
ENDBRANCH   9  10
ENDBRANCH   8   9
ENDBRANCH   1   8
TORSDOF 9
ENDMDL
MODEL 2
REMARK VINA RESULT:    -4.097      3.277      4.954
REMARK INTER + INTRA:          -6.703
REMARK INTER:                  -6.057
REMARK INTRA:                  -0.645
REMARK UNBOUND:                -0.450
REMARK SMILES O=C([O-])CCCCCCCCC(=O)[O-]
REMARK SMILES IDX 7 1 6 2 5 3 4 4 2 5 1 6 3 7 8 8 9 9 10 10 11 11 12 12 13 13
REMARK SMILES IDX 14 14
REMARK H PARENT
REMARK Flexibility Score: inf
ROOT
ATOM      1  C   UNL     1      15.460  36.072  65.943  1.00  0.00     0.000 C 
ENDROOT
BRANCH   1   2
ATOM      2  C   UNL     1      16.993  36.109  65.894  1.00  0.00     0.000 C 
BRANCH   2   3
ATOM      3  C   UNL     1      17.587  34.735  66.239  1.00  0.00     0.006 C 
BRANCH   3   4
ATOM      4  C   UNL     1      18.664  34.299  65.235  1.00  0.00     0.053 C 
BRANCH   4   5
ATOM      5  C   UNL     1      19.763  33.527  65.898  1.00  0.00     0.041 C 
ATOM      6  O   UNL     1      19.707  32.270  65.959  1.00  0.00    -0.550 OA
ATOM      7  O   UNL     1      20.832  34.197  66.480  1.00  0.00    -0.550 OA
ENDBRANCH   4   5
ENDBRANCH   3   4
ENDBRANCH   2   3
ENDBRANCH   1   2
BRANCH   1   8
ATOM      8  C   UNL     1      14.948  36.412  67.351  1.00  0.00     0.000 C 
BRANCH   8   9
ATOM      9  C   UNL     1      13.762  35.533  67.778  1.00  0.00     0.000 C 
BRANCH   9  10
ATOM     10  C   UNL     1      13.825  34.120  67.181  1.00  0.00     0.006 C 
BRANCH  10  11
ATOM     11  C   UNL     1      14.289  33.103  68.228  1.00  0.00     0.053 C 
BRANCH  11  12
ATOM     12  C   UNL     1      15.392  32.254  67.682  1.00  0.00     0.041 C 
ATOM     13  O   UNL     1      16.383  31.961  68.402  1.00  0.00    -0.550 OA
ATOM     14  O   UNL     1      15.351  31.825  66.361  1.00  0.00    -0.550 OA
ENDBRANCH  11  12
ENDBRANCH  10  11
ENDBRANCH   9  10
ENDBRANCH   8   9
ENDBRANCH   1   8
TORSDOF 9
ENDMDL
MODEL 3
REMARK VINA RESULT:    -4.094      0.764      6.338
REMARK INTER + INTRA:          -6.697
REMARK INTER:                  -6.332
REMARK INTRA:                  -0.366
REMARK UNBOUND:                -0.450
REMARK SMILES O=C([O-])CCCCCCCCC(=O)[O-]
REMARK SMILES IDX 7 1 6 2 5 3 4 4 2 5 1 6 3 7 8 8 9 9 10 10 11 11 12 12 13 13
REMARK SMILES IDX 14 14
REMARK H PARENT
REMARK Flexibility Score: inf
ROOT
ATOM      1  C   UNL     1      15.647  31.655  69.102  1.00  0.00     0.000 C 
ENDROOT
BRANCH   1   2
ATOM      2  C   UNL     1      14.451  32.395  68.491  1.00  0.00     0.000 C 
BRANCH   2   3
ATOM      3  C   UNL     1      14.915  33.612  67.677  1.00  0.00     0.006 C 
BRANCH   3   4
ATOM      4  C   UNL     1      13.905  34.765  67.729  1.00  0.00     0.053 C 
BRANCH   4   5
ATOM      5  C   UNL     1      14.562  36.092  67.504  1.00  0.00     0.041 C 
ATOM      6  O   UNL     1      15.817  36.190  67.531  1.00  0.00    -0.550 OA
ATOM      7  O   UNL     1      13.788  37.227  67.300  1.00  0.00    -0.550 OA
ENDBRANCH   4   5
ENDBRANCH   3   4
ENDBRANCH   2   3
ENDBRANCH   1   2
BRANCH   1   8
ATOM      8  C   UNL     1      15.225  30.866  70.352  1.00  0.00     0.000 C 
BRANCH   8   9
ATOM      9  C   UNL     1      16.419  30.473  71.236  1.00  0.00     0.000 C 
BRANCH   9  10
ATOM     10  C   UNL     1      17.625  29.984  70.421  1.00  0.00     0.006 C 
BRANCH  10  11
ATOM     11  C   UNL     1      18.863  30.841  70.707  1.00  0.00     0.053 C 
BRANCH  11  12
ATOM     12  C   UNL     1      19.726  30.936  69.490  1.00  0.00     0.041 C 
ATOM     13  O   UNL     1      20.878  30.425  69.488  1.00  0.00    -0.550 OA
ATOM     14  O   UNL     1      19.281  31.633  68.373  1.00  0.00    -0.550 OA
ENDBRANCH  11  12
ENDBRANCH  10  11
ENDBRANCH   9  10
ENDBRANCH   8   9
ENDBRANCH   1   8
TORSDOF 9
ENDMDL
MODEL 4
REMARK VINA RESULT:    -4.068      3.309      5.218
REMARK INTER + INTRA:          -6.658
REMARK INTER:                  -6.035
REMARK INTRA:                  -0.623
REMARK UNBOUND:                -0.450
REMARK SMILES O=C([O-])CCCCCCCCC(=O)[O-]
REMARK SMILES IDX 7 1 6 2 5 3 4 4 2 5 1 6 3 7 8 8 9 9 10 10 11 11 12 12 13 13
REMARK SMILES IDX 14 14
REMARK H PARENT
REMARK Flexibility Score: inf
ROOT
ATOM      1  C   UNL     1      14.342  35.556  66.913  1.00  0.00     0.000 C 
ENDROOT
BRANCH   1   2
ATOM      2  C   UNL     1      13.854  34.432  67.836  1.00  0.00     0.000 C 
BRANCH   2   3
ATOM      3  C   UNL     1      14.379  33.067  67.365  1.00  0.00     0.006 C 
BRANCH   3   4
ATOM      4  C   UNL     1      15.266  32.392  68.419  1.00  0.00     0.053 C 
BRANCH   4   5
ATOM      5  C   UNL     1      14.512  31.364  69.207  1.00  0.00     0.041 C 
ATOM      6  O   UNL     1      13.361  31.006  68.842  1.00  0.00    -0.550 OA
ATOM      7  O   UNL     1      15.066  30.827  70.362  1.00  0.00    -0.550 OA
ENDBRANCH   4   5
ENDBRANCH   3   4
ENDBRANCH   2   3
ENDBRANCH   1   2
BRANCH   1   8
ATOM      8  C   UNL     1      15.754  36.016  67.306  1.00  0.00     0.000 C 
BRANCH   8   9
ATOM      9  C   UNL     1      16.767  35.865  66.161  1.00  0.00     0.000 C 
BRANCH   9  10
ATOM     10  C   UNL     1      17.594  34.575  66.265  1.00  0.00     0.006 C 
BRANCH  10  11
ATOM     11  C   UNL     1      18.908  34.702  65.488  1.00  0.00     0.053 C 
BRANCH  11  12
ATOM     12  C   UNL     1      20.055  34.217  66.317  1.00  0.00     0.041 C 
ATOM     13  O   UNL     1      19.848  33.470  67.310  1.00  0.00    -0.550 OA
ATOM     14  O   UNL     1      21.349  34.629  66.023  1.00  0.00    -0.550 OA
ENDBRANCH  11  12
ENDBRANCH  10  11
ENDBRANCH   9  10
ENDBRANCH   8   9
ENDBRANCH   1   8
TORSDOF 9
ENDMDL
MODEL 5
REMARK VINA RESULT:    -4.051     12.286     14.451
REMARK INTER + INTRA:          -6.632
REMARK INTER:                  -6.074
REMARK INTRA:                  -0.558
REMARK UNBOUND:                -0.450
REMARK SMILES O=C([O-])CCCCCCCCC(=O)[O-]
REMARK SMILES IDX 7 1 6 2 5 3 4 4 2 5 1 6 3 7 8 8 9 9 10 10 11 11 12 12 13 13
REMARK SMILES IDX 14 14
REMARK H PARENT
REMARK Flexibility Score: inf
ROOT
ATOM      1  C   UNL     1      16.619  42.642  61.695  1.00  0.00     0.000 C 
ENDROOT
BRANCH   1   2
ATOM      2  C   UNL     1      15.177  42.540  61.181  1.00  0.00     0.000 C 
BRANCH   2   3
ATOM      3  C   UNL     1      14.955  43.467  59.977  1.00  0.00     0.006 C 
BRANCH   3   4
ATOM      4  C   UNL     1      13.946  44.583  60.281  1.00  0.00     0.053 C 
BRANCH   4   5
ATOM      5  C   UNL     1      14.358  45.398  61.468  1.00  0.00     0.041 C 
ATOM      6  O   UNL     1      15.244  46.286  61.351  1.00  0.00    -0.550 OA
ATOM      7  O   UNL     1      13.789  45.154  62.712  1.00  0.00    -0.550 OA
ENDBRANCH   4   5
ENDBRANCH   3   4
ENDBRANCH   2   3
ENDBRANCH   1   2
BRANCH   1   8
ATOM      8  C   UNL     1      17.505  43.401  60.695  1.00  0.00     0.000 C 
BRANCH   8   9
ATOM      9  C   UNL     1      18.521  44.324  61.386  1.00  0.00     0.000 C 
BRANCH   9  10
ATOM     10  C   UNL     1      19.657  43.549  62.069  1.00  0.00     0.006 C 
BRANCH  10  11
ATOM     11  C   UNL     1      20.704  43.096  61.047  1.00  0.00     0.053 C 
BRANCH  11  12
ATOM     12  C   UNL     1      21.016  41.645  61.224  1.00  0.00     0.041 C 
ATOM     13  O   UNL     1      21.181  40.904  60.218  1.00  0.00    -0.550 OA
ATOM     14  O   UNL     1      21.077  41.097  62.499  1.00  0.00    -0.550 OA
ENDBRANCH  11  12
ENDBRANCH  10  11
ENDBRANCH   9  10
ENDBRANCH   8   9
ENDBRANCH   1   8
TORSDOF 9
ENDMDL
MODEL 6
REMARK VINA RESULT:    -4.049      3.448      4.840
REMARK INTER + INTRA:          -6.629
REMARK INTER:                  -5.797
REMARK INTRA:                  -0.832
REMARK UNBOUND:                -0.450
REMARK SMILES O=C([O-])CCCCCCCCC(=O)[O-]
REMARK SMILES IDX 7 1 6 2 5 3 4 4 2 5 1 6 3 7 8 8 9 9 10 10 11 11 12 12 13 13
REMARK SMILES IDX 14 14
REMARK H PARENT
REMARK Flexibility Score: inf
ROOT
ATOM      1  C   UNL     1      14.990  31.676  69.219  1.00  0.00     0.000 C 
ENDROOT
BRANCH   1   2
ATOM      2  C   UNL     1      13.718  31.105  68.581  1.00  0.00     0.000 C 
BRANCH   2   3
ATOM      3  C   UNL     1      12.507  32.004  68.869  1.00  0.00     0.006 C 
BRANCH   3   4
ATOM      4  C   UNL     1      12.010  32.729  67.611  1.00  0.00     0.053 C 
BRANCH   4   5
ATOM      5  C   UNL     1      11.875  31.795  66.447  1.00  0.00     0.041 C 
ATOM      6  O   UNL     1      12.608  31.937  65.433  1.00  0.00    -0.550 OA
ATOM      7  O   UNL     1      10.916  30.791  66.468  1.00  0.00    -0.550 OA
ENDBRANCH   4   5
ENDBRANCH   3   4
ENDBRANCH   2   3
ENDBRANCH   1   2
BRANCH   1   8
ATOM      8  C   UNL     1      16.132  31.755  68.194  1.00  0.00     0.000 C 
BRANCH   8   9
ATOM      9  C   UNL     1      15.728  32.506  66.915  1.00  0.00     0.000 C 
BRANCH   9  10
ATOM     10  C   UNL     1      16.044  34.007  66.984  1.00  0.00     0.006 C 
BRANCH  10  11
ATOM     11  C   UNL     1      14.764  34.828  67.174  1.00  0.00     0.053 C 
BRANCH  11  12
ATOM     12  C   UNL     1      14.873  36.140  66.466  1.00  0.00     0.041 C 
ATOM     13  O   UNL     1      15.647  36.266  65.480  1.00  0.00    -0.550 OA
ATOM     14  O   UNL     1      14.159  37.240  66.924  1.00  0.00    -0.550 OA
ENDBRANCH  11  12
ENDBRANCH  10  11
ENDBRANCH   9  10
ENDBRANCH   8   9
ENDBRANCH   1   8
TORSDOF 9
ENDMDL
MODEL 7
REMARK VINA RESULT:    -4.038     12.414     13.926
REMARK INTER + INTRA:          -6.612
REMARK INTER:                  -5.963
REMARK INTRA:                  -0.650
REMARK UNBOUND:                -0.450
REMARK SMILES O=C([O-])CCCCCCCCC(=O)[O-]
REMARK SMILES IDX 7 1 6 2 5 3 4 4 2 5 1 6 3 7 8 8 9 9 10 10 11 11 12 12 13 13
REMARK SMILES IDX 14 14
REMARK H PARENT
REMARK Flexibility Score: inf
ROOT
ATOM      1  C   UNL     1      15.515  43.984  59.916  1.00  0.00     0.000 C 
ENDROOT
BRANCH   1   2
ATOM      2  C   UNL     1      14.619  42.833  60.390  1.00  0.00     0.000 C 
BRANCH   2   3
ATOM      3  C   UNL     1      13.716  43.282  61.550  1.00  0.00     0.006 C 
BRANCH   3   4
ATOM      4  C   UNL     1      14.078  44.683  62.059  1.00  0.00     0.053 C 
BRANCH   4   5
ATOM      5  C   UNL     1      14.530  44.658  63.486  1.00  0.00     0.041 C 
ATOM      6  O   UNL     1      13.801  44.138  64.373  1.00  0.00    -0.550 OA
ATOM      7  O   UNL     1      15.740  45.239  63.844  1.00  0.00    -0.550 OA
ENDBRANCH   4   5
ENDBRANCH   3   4
ENDBRANCH   2   3
ENDBRANCH   1   2
BRANCH   1   8
ATOM      8  C   UNL     1      17.000  43.605  60.025  1.00  0.00     0.000 C 
BRANCH   8   9
ATOM      9  C   UNL     1      17.334  42.892  61.344  1.00  0.00     0.000 C 
BRANCH   9  10
ATOM     10  C   UNL     1      18.672  43.349  61.944  1.00  0.00     0.006 C 
BRANCH  10  11
ATOM     11  C   UNL     1      19.828  43.076  60.976  1.00  0.00     0.053 C 
BRANCH  11  12
ATOM     12  C   UNL     1      20.496  41.781  61.310  1.00  0.00     0.041 C 
ATOM     13  O   UNL     1      20.500  41.357  62.496  1.00  0.00    -0.550 OA
ATOM     14  O   UNL     1      21.157  41.063  60.320  1.00  0.00    -0.550 OA
ENDBRANCH  11  12
ENDBRANCH  10  11
ENDBRANCH   9  10
ENDBRANCH   8   9
ENDBRANCH   1   8
TORSDOF 9
ENDMDL
MODEL 8
REMARK VINA RESULT:    -3.994     12.162     13.126
REMARK INTER + INTRA:          -6.545
REMARK INTER:                  -6.072
REMARK INTRA:                  -0.472
REMARK UNBOUND:                -0.450
REMARK SMILES O=C([O-])CCCCCCCCC(=O)[O-]
REMARK SMILES IDX 7 1 6 2 5 3 4 4 2 5 1 6 3 7 8 8 9 9 10 10 11 11 12 12 13 13
REMARK SMILES IDX 14 14
REMARK H PARENT
REMARK Flexibility Score: inf
ROOT
ATOM      1  C   UNL     1      18.062  43.385  60.654  1.00  0.00     0.000 C 
ENDROOT
BRANCH   1   2
ATOM      2  C   UNL     1      19.551  43.321  61.017  1.00  0.00     0.000 C 
BRANCH   2   3
ATOM      3  C   UNL     1      20.064  41.874  60.980  1.00  0.00     0.006 C 
BRANCH   3   4
ATOM      4  C   UNL     1      21.595  41.802  60.922  1.00  0.00     0.053 C 
BRANCH   4   5
ATOM      5  C   UNL     1      22.202  41.728  62.289  1.00  0.00     0.041 C 
ATOM      6  O   UNL     1      23.125  42.520  62.617  1.00  0.00    -0.550 OA
ATOM      7  O   UNL     1      21.773  40.761  63.190  1.00  0.00    -0.550 OA
ENDBRANCH   4   5
ENDBRANCH   3   4
ENDBRANCH   2   3
ENDBRANCH   1   2
BRANCH   1   8
ATOM      8  C   UNL     1      17.194  42.830  61.794  1.00  0.00     0.000 C 
BRANCH   8   9
ATOM      9  C   UNL     1      15.747  42.553  61.357  1.00  0.00     0.000 C 
BRANCH   9  10
ATOM     10  C   UNL     1      15.371  43.277  60.056  1.00  0.00     0.006 C 
BRANCH  10  11
ATOM     11  C   UNL     1      14.140  44.166  60.260  1.00  0.00     0.053 C 
BRANCH  11  12
ATOM     12  C   UNL     1      14.399  45.185  61.322  1.00  0.00     0.041 C 
ATOM     13  O   UNL     1      13.786  45.127  62.421  1.00  0.00    -0.550 OA
ATOM     14  O   UNL     1      15.282  46.231  61.081  1.00  0.00    -0.550 OA
ENDBRANCH  11  12
ENDBRANCH  10  11
ENDBRANCH   9  10
ENDBRANCH   8   9
ENDBRANCH   1   8
TORSDOF 9
ENDMDL
MODEL 9
REMARK VINA RESULT:    -3.992     12.453     12.995
REMARK INTER + INTRA:          -6.542
REMARK INTER:                  -6.021
REMARK INTRA:                  -0.521
REMARK UNBOUND:                -0.450
REMARK SMILES O=C([O-])CCCCCCCCC(=O)[O-]
REMARK SMILES IDX 7 1 6 2 5 3 4 4 2 5 1 6 3 7 8 8 9 9 10 10 11 11 12 12 13 13
REMARK SMILES IDX 14 14
REMARK H PARENT
REMARK Flexibility Score: inf
ROOT
ATOM      1  C   UNL     1      17.113  43.742  60.221  1.00  0.00     0.000 C 
ENDROOT
BRANCH   1   2
ATOM      2  C   UNL     1      18.581  43.558  60.626  1.00  0.00     0.000 C 
BRANCH   2   3
ATOM      3  C   UNL     1      18.721  42.479  61.710  1.00  0.00     0.006 C 
BRANCH   3   4
ATOM      4  C   UNL     1      20.179  42.285  62.150  1.00  0.00     0.053 C 
BRANCH   4   5
ATOM      5  C   UNL     1      21.074  41.973  60.991  1.00  0.00     0.041 C 
ATOM      6  O   UNL     1      20.929  40.897  60.351  1.00  0.00    -0.550 OA
ATOM      7  O   UNL     1      22.089  42.852  60.638  1.00  0.00    -0.550 OA
ENDBRANCH   4   5
ENDBRANCH   3   4
ENDBRANCH   2   3
ENDBRANCH   1   2
BRANCH   1   8
ATOM      8  C   UNL     1      16.187  42.911  61.123  1.00  0.00     0.000 C 
BRANCH   8   9
ATOM      9  C   UNL     1      14.715  42.983  60.686  1.00  0.00     0.000 C 
BRANCH   9  10
ATOM     10  C   UNL     1      13.769  43.334  61.844  1.00  0.00     0.006 C 
BRANCH  10  11
ATOM     11  C   UNL     1      14.129  44.693  62.453  1.00  0.00     0.053 C 
BRANCH  11  12
ATOM     12  C   UNL     1      14.362  44.562  63.924  1.00  0.00     0.041 C 
ATOM     13  O   UNL     1      13.469  44.911  64.741  1.00  0.00    -0.550 OA
ATOM     14  O   UNL     1      15.584  44.100  64.397  1.00  0.00    -0.550 OA
ENDBRANCH  11  12
ENDBRANCH  10  11
ENDBRANCH   9  10
ENDBRANCH   8   9
ENDBRANCH   1   8
TORSDOF 9
ENDMDL
