MODEL 1
REMARK VINA RESULT:    -4.080      0.000      0.000
REMARK INTER + INTRA:          -4.200
REMARK INTER:                  -4.200
REMARK INTRA:                   0.000
REMARK UNBOUND:                 0.000
REMARK SMILES Oc1ccc2[nH]ccc2c1
REMARK SMILES IDX 3 1 4 2 5 3 9 4 8 5 7 6 6 7 10 8 2 9 1 11
REMARK H PARENT 6 10 1 12
REMARK Flexibility Score: inf
ROOT
ATOM      1  C   UNL     1       4.602  20.475  22.604  1.00  0.00     0.048 A 
ATOM      2  C   UNL     1       5.923  20.960  22.632  1.00  0.00     0.030 A 
ATOM      3  C   UNL     1       6.959  20.031  22.546  1.00  0.00     0.046 A 
ATOM      4  C   UNL     1       6.714  18.689  22.437  1.00  0.00     0.003 A 
ATOM      5  C   UNL     1       7.935  18.051  22.372  1.00  0.00     0.028 A 
ATOM      6  C   UNL     1       8.880  19.069  22.449  1.00  0.00     0.083 A 
ATOM      7  N   UNL     1       8.280  20.277  22.554  1.00  0.00    -0.361 N 
ATOM      8  C   UNL     1       5.419  18.175  22.406  1.00  0.00     0.056 A 
ATOM      9  C   UNL     1       4.347  19.089  22.492  1.00  0.00     0.116 A 
ATOM     10  H   UNL     1       8.749  21.206  22.627  1.00  0.00     0.166 HD
ENDROOT
BRANCH   9  11
ATOM     11  O   UNL     1       3.031  18.635  22.466  1.00  0.00    -0.508 OA
ATOM     12  H   UNL     1       2.664  18.121  21.674  1.00  0.00     0.293 HD
ENDBRANCH   9  11
TORSDOF 1
ENDMDL
MODEL 2
REMARK VINA RESULT:    -3.940      3.348      4.438
REMARK INTER + INTRA:          -4.056
REMARK INTER:                  -4.056
REMARK INTRA:                   0.000
REMARK UNBOUND:                 0.000
REMARK SMILES Oc1ccc2[nH]ccc2c1
REMARK SMILES IDX 3 1 4 2 5 3 9 4 8 5 7 6 6 7 10 8 2 9 1 11
REMARK H PARENT 6 10 1 12
REMARK Flexibility Score: inf
ROOT
ATOM      1  C   UNL     1      10.199  19.585  25.308  1.00  0.00     0.048 A 
ATOM      2  C   UNL     1      10.028  19.572  23.911  1.00  0.00     0.030 A 
ATOM      3  C   UNL     1       8.731  19.442  23.416  1.00  0.00     0.046 A 
ATOM      4  C   UNL     1       7.651  19.330  24.249  1.00  0.00     0.003 A 
ATOM      5  C   UNL     1       6.529  19.220  23.456  1.00  0.00     0.028 A 
ATOM      6  C   UNL     1       7.002  19.271  22.149  1.00  0.00     0.083 A 
ATOM      7  N   UNL     1       8.348  19.408  22.129  1.00  0.00    -0.361 N 
ATOM      8  C   UNL     1       7.785  19.340  25.636  1.00  0.00     0.056 A 
ATOM      9  C   UNL     1       9.085  19.469  26.171  1.00  0.00     0.116 A 
ATOM     10  H   UNL     1       8.959  19.472  21.285  1.00  0.00     0.166 HD
ENDROOT
BRANCH   9  11
ATOM     11  O   UNL     1       9.281  19.485  27.549  1.00  0.00    -0.508 OA
ATOM     12  H   UNL     1       9.907  20.151  27.986  1.00  0.00     0.293 HD
ENDBRANCH   9  11
TORSDOF 1
ENDMDL
MODEL 3
REMARK VINA RESULT:    -3.932      2.519      3.836
REMARK INTER + INTRA:          -4.047
REMARK INTER:                  -4.047
REMARK INTRA:                   0.000
REMARK UNBOUND:                 0.000
REMARK SMILES Oc1ccc2[nH]ccc2c1
REMARK SMILES IDX 3 1 4 2 5 3 9 4 8 5 7 6 6 7 10 8 2 9 1 11
REMARK H PARENT 6 10 1 12
REMARK Flexibility Score: inf
ROOT
ATOM      1  C   UNL     1       7.353  18.841  23.680  1.00  0.00     0.048 A 
ATOM      2  C   UNL     1       6.644  18.225  22.631  1.00  0.00     0.030 A 
ATOM      3  C   UNL     1       5.533  18.891  22.117  1.00  0.00     0.046 A 
ATOM      4  C   UNL     1       5.132  20.105  22.607  1.00  0.00     0.003 A 
ATOM      5  C   UNL     1       4.017  20.489  21.893  1.00  0.00     0.028 A 
ATOM      6  C   UNL     1       3.795  19.459  20.985  1.00  0.00     0.083 A 
ATOM      7  N   UNL     1       4.724  18.485  21.125  1.00  0.00    -0.361 N 
ATOM      8  C   UNL     1       5.811  20.743  23.644  1.00  0.00     0.056 A 
ATOM      9  C   UNL     1       6.941  20.095  24.187  1.00  0.00     0.116 A 
ATOM     10  H   UNL     1       4.793  17.602  20.574  1.00  0.00     0.166 HD
ENDROOT
BRANCH   9  11
ATOM     11  O   UNL     1       7.659  20.683  25.225  1.00  0.00    -0.508 OA
ATOM     12  H   UNL     1       7.798  20.207  26.108  1.00  0.00     0.293 HD
ENDBRANCH   9  11
TORSDOF 1
ENDMDL
MODEL 4
REMARK VINA RESULT:    -3.924      3.842      4.697
REMARK INTER + INTRA:          -4.039
REMARK INTER:                  -4.039
REMARK INTRA:                   0.000
REMARK UNBOUND:                 0.000
REMARK SMILES Oc1ccc2[nH]ccc2c1
REMARK SMILES IDX 3 1 4 2 5 3 9 4 8 5 7 6 6 7 10 8 2 9 1 11
REMARK H PARENT 6 10 1 12
REMARK Flexibility Score: inf
ROOT
ATOM      1  C   UNL     1       7.504  19.500  24.238  1.00  0.00     0.048 A 
ATOM      2  C   UNL     1       7.633  19.393  25.636  1.00  0.00     0.030 A 
ATOM      3  C   UNL     1       8.920  19.357  26.169  1.00  0.00     0.046 A 
ATOM      4  C   UNL     1      10.031  19.423  25.372  1.00  0.00     0.003 A 
ATOM      5  C   UNL     1      11.134  19.366  26.198  1.00  0.00     0.028 A 
ATOM      6  C   UNL     1      10.619  19.264  27.486  1.00  0.00     0.083 A 
ATOM      7  N   UNL     1       9.265  19.261  27.464  1.00  0.00    -0.361 N 
ATOM      8  C   UNL     1       9.939  19.529  23.986  1.00  0.00     0.056 A 
ATOM      9  C   UNL     1       8.650  19.567  23.413  1.00  0.00     0.116 A 
ATOM     10  H   UNL     1       8.626  19.195  28.286  1.00  0.00     0.166 HD
ENDROOT
BRANCH   9  11
ATOM     11  O   UNL     1       8.496  19.672  22.033  1.00  0.00    -0.508 OA
ATOM     12  H   UNL     1       8.881  18.978  21.404  1.00  0.00     0.293 HD
ENDBRANCH   9  11
TORSDOF 1
ENDMDL
MODEL 5
REMARK VINA RESULT:    -3.892     16.382     17.327
REMARK INTER + INTRA:          -4.006
REMARK INTER:                  -4.006
REMARK INTRA:                   0.000
REMARK UNBOUND:                 0.000
REMARK SMILES Oc1ccc2[nH]ccc2c1
REMARK SMILES IDX 3 1 4 2 5 3 9 4 8 5 7 6 6 7 10 8 2 9 1 11
REMARK H PARENT 6 10 1 12
REMARK Flexibility Score: inf
ROOT
ATOM      1  C   UNL     1      15.620  30.777  31.061  1.00  0.00     0.048 A 
ATOM      2  C   UNL     1      14.915  30.346  29.921  1.00  0.00     0.030 A 
ATOM      3  C   UNL     1      15.016  31.116  28.764  1.00  0.00     0.046 A 
ATOM      4  C   UNL     1      15.774  32.256  28.723  1.00  0.00     0.003 A 
ATOM      5  C   UNL     1      15.666  32.776  27.451  1.00  0.00     0.028 A 
ATOM      6  C   UNL     1      14.826  31.901  26.771  1.00  0.00     0.083 A 
ATOM      7  N   UNL     1      14.432  30.887  27.577  1.00  0.00    -0.361 N 
ATOM      8  C   UNL     1      16.484  32.710  29.832  1.00  0.00     0.056 A 
ATOM      9  C   UNL     1      16.402  31.954  31.021  1.00  0.00     0.116 A 
ATOM     10  H   UNL     1      13.803  30.094  27.324  1.00  0.00     0.166 HD
ENDROOT
BRANCH   9  11
ATOM     11  O   UNL     1      17.090  32.358  32.162  1.00  0.00    -0.508 OA
ATOM     12  H   UNL     1      16.600  32.697  32.982  1.00  0.00     0.293 HD
ENDBRANCH   9  11
TORSDOF 1
ENDMDL
MODEL 6
REMARK VINA RESULT:    -3.887      2.352      3.232
REMARK INTER + INTRA:          -4.001
REMARK INTER:                  -4.001
REMARK INTRA:                   0.000
REMARK UNBOUND:                 0.000
REMARK SMILES Oc1ccc2[nH]ccc2c1
REMARK SMILES IDX 3 1 4 2 5 3 9 4 8 5 7 6 6 7 10 8 2 9 1 11
REMARK H PARENT 6 10 1 12
REMARK Flexibility Score: inf
ROOT
ATOM      1  C   UNL     1       6.971  19.262  24.013  1.00  0.00     0.048 A 
ATOM      2  C   UNL     1       7.974  19.601  24.941  1.00  0.00     0.030 A 
ATOM      3  C   UNL     1       9.302  19.489  24.534  1.00  0.00     0.046 A 
ATOM      4  C   UNL     1       9.635  19.064  23.276  1.00  0.00     0.003 A 
ATOM      5  C   UNL     1      11.011  19.065  23.192  1.00  0.00     0.028 A 
ATOM      6  C   UNL     1      11.450  19.501  24.437  1.00  0.00     0.083 A 
ATOM      7  N   UNL     1      10.403  19.760  25.254  1.00  0.00    -0.361 N 
ATOM      8  C   UNL     1       8.668  18.721  22.333  1.00  0.00     0.056 A 
ATOM      9  C   UNL     1       7.313  18.823  22.713  1.00  0.00     0.116 A 
ATOM     10  H   UNL     1      10.446  20.098  26.240  1.00  0.00     0.166 HD
ENDROOT
BRANCH   9  11
ATOM     11  O   UNL     1       6.302  18.494  21.813  1.00  0.00    -0.508 OA
ATOM     12  H   UNL     1       6.426  18.608  20.814  1.00  0.00     0.293 HD
ENDBRANCH   9  11
TORSDOF 1
ENDMDL
MODEL 7
REMARK VINA RESULT:    -3.827     15.944     16.802
REMARK INTER + INTRA:          -3.939
REMARK INTER:                  -3.939
REMARK INTRA:                   0.000
REMARK UNBOUND:                 0.000
REMARK SMILES Oc1ccc2[nH]ccc2c1
REMARK SMILES IDX 3 1 4 2 5 3 9 4 8 5 7 6 6 7 10 8 2 9 1 11
REMARK H PARENT 6 10 1 12
REMARK Flexibility Score: inf
ROOT
ATOM      1  C   UNL     1      14.626  16.475  35.401  1.00  0.00     0.048 A 
ATOM      2  C   UNL     1      13.365  16.896  35.866  1.00  0.00     0.030 A 
ATOM      3  C   UNL     1      12.704  16.081  36.783  1.00  0.00     0.046 A 
ATOM      4  C   UNL     1      13.252  14.908  37.227  1.00  0.00     0.003 A 
ATOM      5  C   UNL     1      12.359  14.348  38.116  1.00  0.00     0.028 A 
ATOM      6  C   UNL     1      11.290  15.235  38.164  1.00  0.00     0.083 A 
ATOM      7  N   UNL     1      11.505  16.294  37.349  1.00  0.00    -0.361 N 
ATOM      8  C   UNL     1      14.497  14.462  36.788  1.00  0.00     0.056 A 
ATOM      9  C   UNL     1      15.193  15.263  35.858  1.00  0.00     0.116 A 
ATOM     10  H   UNL     1      10.867  17.105  37.194  1.00  0.00     0.166 HD
ENDROOT
BRANCH   9  11
ATOM     11  O   UNL     1      16.441  14.869  35.383  1.00  0.00    -0.508 OA
ATOM     12  H   UNL     1      16.620  13.914  35.098  1.00  0.00     0.293 HD
ENDBRANCH   9  11
TORSDOF 1
ENDMDL
MODEL 8
REMARK VINA RESULT:    -3.819      2.542      3.401
REMARK INTER + INTRA:          -3.931
REMARK INTER:                  -3.931
REMARK INTRA:                   0.000
REMARK UNBOUND:                 0.000
REMARK SMILES Oc1ccc2[nH]ccc2c1
REMARK SMILES IDX 3 1 4 2 5 3 9 4 8 5 7 6 6 7 10 8 2 9 1 11
REMARK H PARENT 6 10 1 12
REMARK Flexibility Score: inf
ROOT
ATOM      1  C   UNL     1       8.422  18.847  22.119  1.00  0.00     0.048 A 
ATOM      2  C   UNL     1       9.469  19.153  23.010  1.00  0.00     0.030 A 
ATOM      3  C   UNL     1       9.136  19.416  24.338  1.00  0.00     0.046 A 
ATOM      4  C   UNL     1       7.839  19.383  24.774  1.00  0.00     0.003 A 
ATOM      5  C   UNL     1       7.850  19.684  26.119  1.00  0.00     0.028 A 
ATOM      6  C   UNL     1       9.189  19.890  26.435  1.00  0.00     0.083 A 
ATOM      7  N   UNL     1       9.971  19.725  25.343  1.00  0.00    -0.361 N 
ATOM      8  C   UNL     1       6.780  19.084  23.919  1.00  0.00     0.056 A 
ATOM      9  C   UNL     1       7.082  18.813  22.568  1.00  0.00     0.116 A 
ATOM     10  H   UNL     1      11.010  19.819  25.296  1.00  0.00     0.166 HD
ENDROOT
BRANCH   9  11
ATOM     11  O   UNL     1       6.066  18.508  21.666  1.00  0.00    -0.508 OA
ATOM     12  H   UNL     1       5.851  19.118  20.886  1.00  0.00     0.293 HD
ENDBRANCH   9  11
TORSDOF 1
ENDMDL
MODEL 9
REMARK VINA RESULT:    -3.729      5.084      6.332
REMARK INTER + INTRA:          -3.838
REMARK INTER:                  -3.838
REMARK INTRA:                   0.000
REMARK UNBOUND:                 0.000
REMARK SMILES Oc1ccc2[nH]ccc2c1
REMARK SMILES IDX 3 1 4 2 5 3 9 4 8 5 7 6 6 7 10 8 2 9 1 11
REMARK H PARENT 6 10 1 12
REMARK Flexibility Score: inf
ROOT
ATOM      1  C   UNL     1      11.805  19.510  25.950  1.00  0.00     0.048 A 
ATOM      2  C   UNL     1      10.877  19.765  24.923  1.00  0.00     0.030 A 
ATOM      3  C   UNL     1       9.523  19.617  25.219  1.00  0.00     0.046 A 
ATOM      4  C   UNL     1       9.096  19.237  26.463  1.00  0.00     0.003 A 
ATOM      5  C   UNL     1       7.719  19.185  26.428  1.00  0.00     0.028 A 
ATOM      6  C   UNL     1       7.375  19.545  25.129  1.00  0.00     0.083 A 
ATOM      7  N   UNL     1       8.481  19.809  24.394  1.00  0.00    -0.361 N 
ATOM      8  C   UNL     1       9.988  18.977  27.502  1.00  0.00     0.056 A 
ATOM      9  C   UNL     1      11.366  19.117  27.236  1.00  0.00     0.116 A 
ATOM     10  H   UNL     1       8.512  20.101  23.393  1.00  0.00     0.166 HD
ENDROOT
BRANCH   9  11
ATOM     11  O   UNL     1      12.305  18.870  28.234  1.00  0.00    -0.508 OA
ATOM     12  H   UNL     1      13.060  19.519  28.422  1.00  0.00     0.293 HD
ENDBRANCH   9  11
TORSDOF 1
ENDMDL
