MODEL 1
REMARK VINA RESULT:    -5.183      0.000      0.000
REMARK INTER + INTRA:          -5.660
REMARK INTER:                  -5.486
REMARK INTRA:                  -0.174
REMARK UNBOUND:                -0.174
REMARK SMILES CC(C)[C@@H]1CC[C@@H](C)CC1=O
REMARK SMILES IDX 8 1 7 2 6 3 5 4 4 5 10 6 11 7 9 8 2 9 1 10 3 11
REMARK H PARENT
REMARK Flexibility Score: inf
ROOT
ATOM      1  C   UNL     1      -4.522  62.201   4.904  1.00  0.00     0.008 C 
ATOM      2  C   UNL     1      -5.647  62.875   4.110  1.00  0.00    -0.007 C 
ATOM      3  C   UNL     1      -6.150  64.133   4.845  1.00  0.00     0.004 C 
ATOM      4  C   UNL     1      -7.246  64.837   4.031  1.00  0.00     0.012 C 
ATOM      5  C   UNL     1      -8.453  63.902   3.778  1.00  0.00     0.058 C 
ATOM      6  C   UNL     1      -7.966  62.580   3.209  1.00  0.00     0.136 C 
ATOM      7  O   UNL     1      -8.567  62.016   2.307  1.00  0.00    -0.299 OA
ATOM      8  C   UNL     1      -6.802  61.887   3.866  1.00  0.00     0.079 C 
ENDROOT
BRANCH   5   9
ATOM      9  C   UNL     1      -9.577  64.564   2.919  1.00  0.00    -0.007 C 
ATOM     10  C   UNL     1      -9.044  65.507   1.826  1.00  0.00     0.008 C 
ATOM     11  C   UNL     1     -10.606  65.298   3.792  1.00  0.00     0.008 C 
ENDBRANCH   5   9
TORSDOF 1
ENDMDL
MODEL 2
REMARK VINA RESULT:    -4.806     14.561     17.118
REMARK INTER + INTRA:          -5.260
REMARK INTER:                  -5.084
REMARK INTRA:                  -0.177
REMARK UNBOUND:                -0.174
REMARK SMILES CC(C)[C@@H]1CC[C@@H](C)CC1=O
REMARK SMILES IDX 8 1 7 2 6 3 5 4 4 5 10 6 11 7 9 8 2 9 1 10 3 11
REMARK H PARENT
REMARK Flexibility Score: inf
ROOT
ATOM      1  C   UNL     1       3.494  54.882   4.884  1.00  0.00     0.008 C 
ATOM      2  C   UNL     1       3.619  53.958   6.100  1.00  0.00    -0.007 C 
ATOM      3  C   UNL     1       4.905  53.113   6.007  1.00  0.00     0.004 C 
ATOM      4  C   UNL     1       5.058  52.217   7.245  1.00  0.00     0.012 C 
ATOM      5  C   UNL     1       3.854  51.258   7.403  1.00  0.00     0.058 C 
ATOM      6  C   UNL     1       2.557  52.048   7.326  1.00  0.00     0.136 C 
ATOM      7  O   UNL     1       1.620  51.804   8.070  1.00  0.00    -0.299 OA
ATOM      8  C   UNL     1       2.380  53.052   6.218  1.00  0.00     0.079 C 
ENDROOT
BRANCH   5   9
ATOM      9  C   UNL     1       3.947  50.353   8.673  1.00  0.00    -0.007 C 
ATOM     10  C   UNL     1       4.657  51.027   9.860  1.00  0.00     0.008 C 
ATOM     11  C   UNL     1       4.607  49.001   8.363  1.00  0.00     0.008 C 
ENDBRANCH   5   9
TORSDOF 1
ENDMDL
MODEL 3
REMARK VINA RESULT:    -4.799     14.592     16.935
REMARK INTER + INTRA:          -5.253
REMARK INTER:                  -5.115
REMARK INTRA:                  -0.138
REMARK UNBOUND:                -0.174
REMARK SMILES CC(C)[C@@H]1CC[C@@H](C)CC1=O
REMARK SMILES IDX 8 1 7 2 6 3 5 4 4 5 10 6 11 7 9 8 2 9 1 10 3 11
REMARK H PARENT
REMARK Flexibility Score: inf
ROOT
ATOM      1  C   UNL     1       3.241  54.999   4.506  1.00  0.00     0.008 C 
ATOM      2  C   UNL     1       3.333  53.686   5.290  1.00  0.00    -0.007 C 
ATOM      3  C   UNL     1       2.294  53.660   6.428  1.00  0.00     0.004 C 
ATOM      4  C   UNL     1       2.351  52.327   7.189  1.00  0.00     0.012 C 
ATOM      5  C   UNL     1       3.752  52.084   7.800  1.00  0.00     0.058 C 
ATOM      6  C   UNL     1       4.817  52.273   6.732  1.00  0.00     0.136 C 
ATOM      7  O   UNL     1       5.778  51.522   6.654  1.00  0.00    -0.299 OA
ATOM      8  C   UNL     1       4.755  53.489   5.847  1.00  0.00     0.079 C 
ENDROOT
BRANCH   5   9
ATOM      9  C   UNL     1       3.870  50.720   8.551  1.00  0.00    -0.007 C 
ATOM     10  C   UNL     1       2.513  50.046   8.822  1.00  0.00     0.008 C 
ATOM     11  C   UNL     1       4.662  50.854   9.860  1.00  0.00     0.008 C 
ENDBRANCH   5   9
TORSDOF 1
ENDMDL
MODEL 4
REMARK VINA RESULT:    -4.775      1.714      4.604
REMARK INTER + INTRA:          -5.228
REMARK INTER:                  -5.096
REMARK INTRA:                  -0.132
REMARK UNBOUND:                -0.174
REMARK SMILES CC(C)[C@@H]1CC[C@@H](C)CC1=O
REMARK SMILES IDX 8 1 7 2 6 3 5 4 4 5 10 6 11 7 9 8 2 9 1 10 3 11
REMARK H PARENT
REMARK Flexibility Score: inf
ROOT
ATOM      1  C   UNL     1     -10.910  65.866   3.375  1.00  0.00     0.008 C 
ATOM      2  C   UNL     1      -9.561  65.142   3.301  1.00  0.00    -0.007 C 
ATOM      3  C   UNL     1      -9.754  63.621   3.451  1.00  0.00     0.004 C 
ATOM      4  C   UNL     1      -8.410  62.887   3.333  1.00  0.00     0.012 C 
ATOM      5  C   UNL     1      -7.408  63.362   4.412  1.00  0.00     0.058 C 
ATOM      6  C   UNL     1      -7.326  64.880   4.402  1.00  0.00     0.136 C 
ATOM      7  O   UNL     1      -6.257  65.459   4.528  1.00  0.00    -0.299 OA
ATOM      8  C   UNL     1      -8.602  65.679   4.379  1.00  0.00     0.079 C 
ENDROOT
BRANCH   5   9
ATOM      9  C   UNL     1      -6.011  62.670   4.306  1.00  0.00    -0.007 C 
ATOM     10  C   UNL     1      -6.008  61.424   3.402  1.00  0.00     0.008 C 
ATOM     11  C   UNL     1      -5.440  62.321   5.688  1.00  0.00     0.008 C 
ENDBRANCH   5   9
TORSDOF 1
ENDMDL
MODEL 5
REMARK VINA RESULT:    -4.740     14.129     16.566
REMARK INTER + INTRA:          -5.191
REMARK INTER:                  -5.284
REMARK INTRA:                   0.093
REMARK UNBOUND:                -0.174
REMARK SMILES CC(C)[C@@H]1CC[C@@H](C)CC1=O
REMARK SMILES IDX 8 1 7 2 6 3 5 4 4 5 10 6 11 7 9 8 2 9 1 10 3 11
REMARK H PARENT
REMARK Flexibility Score: inf
ROOT
ATOM      1  C   UNL     1       4.605  50.447   9.669  1.00  0.00     0.008 C 
ATOM      2  C   UNL     1       4.472  51.041   8.262  1.00  0.00    -0.007 C 
ATOM      3  C   UNL     1       5.682  51.937   7.936  1.00  0.00     0.004 C 
ATOM      4  C   UNL     1       5.576  52.499   6.511  1.00  0.00     0.012 C 
ATOM      5  C   UNL     1       4.285  53.333   6.325  1.00  0.00     0.058 C 
ATOM      6  C   UNL     1       3.085  52.532   6.803  1.00  0.00     0.136 C 
ATOM      7  O   UNL     1       2.031  52.539   6.185  1.00  0.00    -0.299 OA
ATOM      8  C   UNL     1       3.157  51.832   8.133  1.00  0.00     0.079 C 
ENDROOT
BRANCH   5   9
ATOM      9  C   UNL     1       4.115  53.893   4.877  1.00  0.00    -0.007 C 
ATOM     10  C   UNL     1       5.446  54.264   4.199  1.00  0.00     0.008 C 
ATOM     11  C   UNL     1       3.152  55.088   4.836  1.00  0.00     0.008 C 
ENDBRANCH   5   9
TORSDOF 1
ENDMDL
MODEL 6
REMARK VINA RESULT:    -4.669      1.820      2.711
REMARK INTER + INTRA:          -5.116
REMARK INTER:                  -4.951
REMARK INTRA:                  -0.165
REMARK UNBOUND:                -0.174
REMARK SMILES CC(C)[C@@H]1CC[C@@H](C)CC1=O
REMARK SMILES IDX 8 1 7 2 6 3 5 4 4 5 10 6 11 7 9 8 2 9 1 10 3 11
REMARK H PARENT
REMARK Flexibility Score: inf
ROOT
ATOM      1  C   UNL     1      -5.746  59.813   3.026  1.00  0.00     0.008 C 
ATOM      2  C   UNL     1      -6.518  61.015   3.579  1.00  0.00    -0.007 C 
ATOM      3  C   UNL     1      -7.679  61.393   2.639  1.00  0.00     0.004 C 
ATOM      4  C   UNL     1      -8.484  62.569   3.211  1.00  0.00     0.012 C 
ATOM      5  C   UNL     1      -7.594  63.818   3.416  1.00  0.00     0.058 C 
ATOM      6  C   UNL     1      -6.348  63.437   4.199  1.00  0.00     0.136 C 
ATOM      7  O   UNL     1      -5.903  64.162   5.076  1.00  0.00    -0.299 OA
ATOM      8  C   UNL     1      -5.574  62.213   3.787  1.00  0.00     0.079 C 
ENDROOT
BRANCH   5   9
ATOM      9  C   UNL     1      -8.362  65.029   4.034  1.00  0.00    -0.007 C 
ATOM     10  C   UNL     1      -9.864  64.766   4.243  1.00  0.00     0.008 C 
ATOM     11  C   UNL     1      -8.161  66.312   3.215  1.00  0.00     0.008 C 
ENDBRANCH   5   9
TORSDOF 1
ENDMDL
MODEL 7
REMARK VINA RESULT:    -4.599      1.404      2.176
REMARK INTER + INTRA:          -5.042
REMARK INTER:                  -4.942
REMARK INTRA:                  -0.100
REMARK UNBOUND:                -0.174
REMARK SMILES CC(C)[C@@H]1CC[C@@H](C)CC1=O
REMARK SMILES IDX 8 1 7 2 6 3 5 4 4 5 10 6 11 7 9 8 2 9 1 10 3 11
REMARK H PARENT
REMARK Flexibility Score: inf
ROOT
ATOM      1  C   UNL     1      -5.446  59.433   2.984  1.00  0.00     0.008 C 
ATOM      2  C   UNL     1      -5.938  60.884   2.949  1.00  0.00    -0.007 C 
ATOM      3  C   UNL     1      -5.452  61.651   4.194  1.00  0.00     0.004 C 
ATOM      4  C   UNL     1      -5.905  63.118   4.142  1.00  0.00     0.012 C 
ATOM      5  C   UNL     1      -7.446  63.232   4.068  1.00  0.00     0.058 C 
ATOM      6  C   UNL     1      -7.973  62.346   2.951  1.00  0.00     0.136 C 
ATOM      7  O   UNL     1      -8.871  62.722   2.212  1.00  0.00    -0.299 OA
ATOM      8  C   UNL     1      -7.474  60.930   2.847  1.00  0.00     0.079 C 
ENDROOT
BRANCH   5   9
ATOM      9  C   UNL     1      -7.952  64.707   3.973  1.00  0.00    -0.007 C 
ATOM     10  C   UNL     1      -6.912  65.746   4.428  1.00  0.00     0.008 C 
ATOM     11  C   UNL     1      -9.269  64.910   4.738  1.00  0.00     0.008 C 
ENDBRANCH   5   9
TORSDOF 1
ENDMDL
MODEL 8
REMARK VINA RESULT:    -4.539      1.145      4.272
REMARK INTER + INTRA:          -4.978
REMARK INTER:                  -4.853
REMARK INTRA:                  -0.125
REMARK UNBOUND:                -0.174
REMARK SMILES CC(C)[C@@H]1CC[C@@H](C)CC1=O
REMARK SMILES IDX 8 1 7 2 6 3 5 4 4 5 10 6 11 7 9 8 2 9 1 10 3 11
REMARK H PARENT
REMARK Flexibility Score: inf
ROOT
ATOM      1  C   UNL     1     -10.060  65.514   2.668  1.00  0.00     0.008 C 
ATOM      2  C   UNL     1      -9.044  64.777   3.548  1.00  0.00    -0.007 C 
ATOM      3  C   UNL     1      -7.754  65.607   3.696  1.00  0.00     0.004 C 
ATOM      4  C   UNL     1      -6.750  64.894   4.613  1.00  0.00     0.012 C 
ATOM      5  C   UNL     1      -6.373  63.497   4.064  1.00  0.00     0.058 C 
ATOM      6  C   UNL     1      -7.636  62.714   3.745  1.00  0.00     0.136 C 
ATOM      7  O   UNL     1      -7.729  61.525   4.008  1.00  0.00    -0.299 OA
ATOM      8  C   UNL     1      -8.733  63.387   2.964  1.00  0.00     0.079 C 
ENDROOT
BRANCH   5   9
ATOM      9  C   UNL     1      -5.382  62.718   4.985  1.00  0.00    -0.007 C 
ATOM     10  C   UNL     1      -4.687  63.604   6.034  1.00  0.00     0.008 C 
ATOM     11  C   UNL     1      -4.335  61.943   4.172  1.00  0.00     0.008 C 
ENDBRANCH   5   9
TORSDOF 1
ENDMDL
MODEL 9
REMARK VINA RESULT:    -4.519     14.085     15.649
REMARK INTER + INTRA:          -4.957
REMARK INTER:                  -4.786
REMARK INTRA:                  -0.171
REMARK UNBOUND:                -0.174
REMARK SMILES CC(C)[C@@H]1CC[C@@H](C)CC1=O
REMARK SMILES IDX 8 1 7 2 6 3 5 4 4 5 10 6 11 7 9 8 2 9 1 10 3 11
REMARK H PARENT
REMARK Flexibility Score: inf
ROOT
ATOM      1  C   UNL     1       6.483  54.245   3.683  1.00  0.00     0.008 C 
ATOM      2  C   UNL     1       5.231  53.827   4.463  1.00  0.00    -0.007 C 
ATOM      3  C   UNL     1       4.362  55.057   4.790  1.00  0.00     0.004 C 
ATOM      4  C   UNL     1       3.084  54.640   5.532  1.00  0.00     0.012 C 
ATOM      5  C   UNL     1       3.411  53.906   6.855  1.00  0.00     0.058 C 
ATOM      6  C   UNL     1       4.406  52.789   6.588  1.00  0.00     0.136 C 
ATOM      7  O   UNL     1       4.298  51.699   7.131  1.00  0.00    -0.299 OA
ATOM      8  C   UNL     1       5.623  53.079   5.750  1.00  0.00     0.079 C 
ENDROOT
BRANCH   5   9
ATOM      9  C   UNL     1       2.140  53.427   7.626  1.00  0.00    -0.007 C 
ATOM     10  C   UNL     1       0.828  53.661   6.857  1.00  0.00     0.008 C 
ATOM     11  C   UNL     1       2.051  54.054   9.025  1.00  0.00     0.008 C 
ENDBRANCH   5   9
TORSDOF 1
ENDMDL
