MODEL 1
REMARK VINA RESULT:    -3.034      0.000      0.000
REMARK INTER + INTRA:          -3.688
REMARK INTER:                  -3.566
REMARK INTRA:                  -0.122
REMARK UNBOUND:                -0.122
REMARK SMILES O=C([O-])CCC(=O)[O-]
REMARK SMILES IDX 4 1 2 2 1 3 3 4 5 5 6 6 7 7 8 8
REMARK H PARENT
REMARK Flexibility Score: inf
ROOT
ATOM      1  C   UNL     1       7.490  -5.187  42.707  1.00  0.00     0.059 C 
ENDROOT
BRANCH   1   2
ATOM      2  C   UNL     1       8.561  -4.147  42.620  1.00  0.00     0.042 C 
ATOM      3  O   UNL     1       8.258  -2.925  42.594  1.00  0.00    -0.550 OA
ATOM      4  O   UNL     1       9.893  -4.527  42.517  1.00  0.00    -0.550 OA
ENDBRANCH   1   2
BRANCH   1   5
ATOM      5  C   UNL     1       7.582  -6.150  41.522  1.00  0.00     0.059 C 
BRANCH   5   6
ATOM      6  C   UNL     1       7.907  -7.531  41.995  1.00  0.00     0.042 C 
ATOM      7  O   UNL     1       7.500  -8.534  41.351  1.00  0.00    -0.550 OA
ATOM      8  O   UNL     1       8.619  -7.713  43.175  1.00  0.00    -0.550 OA
ENDBRANCH   5   6
ENDBRANCH   1   5
TORSDOF 3
ENDMDL
MODEL 2
REMARK VINA RESULT:    -3.032      0.182      3.922
REMARK INTER + INTRA:          -3.686
REMARK INTER:                  -3.563
REMARK INTRA:                  -0.123
REMARK UNBOUND:                -0.122
REMARK SMILES O=C([O-])CCC(=O)[O-]
REMARK SMILES IDX 4 1 2 2 1 3 3 4 5 5 6 6 7 7 8 8
REMARK H PARENT
REMARK Flexibility Score: inf
ROOT
ATOM      1  C   UNL     1       7.575  -6.171  41.550  1.00  0.00     0.059 C 
ENDROOT
BRANCH   1   2
ATOM      2  C   UNL     1       7.980  -7.542  41.992  1.00  0.00     0.042 C 
ATOM      3  O   UNL     1       8.904  -7.690  42.834  1.00  0.00    -0.550 OA
ATOM      4  O   UNL     1       7.369  -8.660  41.438  1.00  0.00    -0.550 OA
ENDBRANCH   1   2
BRANCH   1   5
ATOM      5  C   UNL     1       7.510  -5.221  42.748  1.00  0.00     0.059 C 
BRANCH   5   6
ATOM      6  C   UNL     1       8.530  -4.135  42.609  1.00  0.00     0.042 C 
ATOM      7  O   UNL     1       8.169  -2.929  42.568  1.00  0.00    -0.550 OA
ATOM      8  O   UNL     1       9.875  -4.457  42.476  1.00  0.00    -0.550 OA
ENDBRANCH   5   6
ENDBRANCH   1   5
TORSDOF 3
ENDMDL
MODEL 3
REMARK VINA RESULT:    -3.016      1.402      4.228
REMARK INTER + INTRA:          -3.667
REMARK INTER:                  -3.571
REMARK INTRA:                  -0.096
REMARK UNBOUND:                -0.122
REMARK SMILES O=C([O-])CCC(=O)[O-]
REMARK SMILES IDX 4 1 2 2 1 3 3 4 5 5 6 6 7 7 8 8
REMARK H PARENT
REMARK Flexibility Score: inf
ROOT
ATOM      1  C   UNL     1       8.442  -7.879  41.634  1.00  0.00     0.059 C 
ENDROOT
BRANCH   1   2
ATOM      2  C   UNL     1       7.539  -9.066  41.750  1.00  0.00     0.042 C 
ATOM      3  O   UNL     1       6.825  -9.417  40.774  1.00  0.00    -0.550 OA
ATOM      4  O   UNL     1       7.448  -9.757  42.952  1.00  0.00    -0.550 OA
ENDBRANCH   1   2
BRANCH   1   5
ATOM      5  C   UNL     1       7.625  -6.587  41.604  1.00  0.00     0.059 C 
BRANCH   5   6
ATOM      6  C   UNL     1       7.808  -5.823  42.878  1.00  0.00     0.042 C 
ATOM      7  O   UNL     1       7.818  -6.427  43.983  1.00  0.00    -0.550 OA
ATOM      8  O   UNL     1       7.919  -4.439  42.849  1.00  0.00    -0.550 OA
ENDBRANCH   5   6
ENDBRANCH   1   5
TORSDOF 3
ENDMDL
MODEL 4
REMARK VINA RESULT:    -2.987      1.768      2.461
REMARK INTER + INTRA:          -3.633
REMARK INTER:                  -3.522
REMARK INTRA:                  -0.112
REMARK UNBOUND:                -0.122
REMARK SMILES O=C([O-])CCC(=O)[O-]
REMARK SMILES IDX 4 1 2 2 1 3 3 4 5 5 6 6 7 7 8 8
REMARK H PARENT
REMARK Flexibility Score: inf
ROOT
ATOM      1  C   UNL     1       7.853  -6.987  41.675  1.00  0.00     0.059 C 
ENDROOT
BRANCH   1   2
ATOM      2  C   UNL     1       7.761  -6.321  43.011  1.00  0.00     0.042 C 
ATOM      3  O   UNL     1       7.387  -5.122  43.098  1.00  0.00    -0.550 OA
ATOM      4  O   UNL     1       8.135  -7.010  44.159  1.00  0.00    -0.550 OA
ENDBRANCH   1   2
BRANCH   1   5
ATOM      5  C   UNL     1       8.421  -8.399  41.820  1.00  0.00     0.059 C 
BRANCH   5   6
ATOM      6  C   UNL     1       7.325  -9.414  41.741  1.00  0.00     0.042 C 
ATOM      7  O   UNL     1       6.765  -9.658  40.639  1.00  0.00    -0.550 OA
ATOM      8  O   UNL     1       6.888 -10.057  42.892  1.00  0.00    -0.550 OA
ENDBRANCH   5   6
ENDBRANCH   1   5
TORSDOF 3
ENDMDL
MODEL 5
REMARK VINA RESULT:    -2.971      1.995      4.424
REMARK INTER + INTRA:          -3.614
REMARK INTER:                  -3.495
REMARK INTRA:                  -0.119
REMARK UNBOUND:                -0.122
REMARK SMILES O=C([O-])CCC(=O)[O-]
REMARK SMILES IDX 4 1 2 2 1 3 3 4 5 5 6 6 7 7 8 8
REMARK H PARENT
REMARK Flexibility Score: inf
ROOT
ATOM      1  C   UNL     1       8.712  -8.094  43.787  1.00  0.00     0.059 C 
ENDROOT
BRANCH   1   2
ATOM      2  C   UNL     1       7.754  -9.224  43.582  1.00  0.00     0.042 C 
ATOM      3  O   UNL     1       7.436  -9.968  44.547  1.00  0.00    -0.550 OA
ATOM      4  O   UNL     1       7.249  -9.486  42.315  1.00  0.00    -0.550 OA
ENDBRANCH   1   2
BRANCH   1   5
ATOM      5  C   UNL     1       7.960  -6.764  43.873  1.00  0.00     0.059 C 
BRANCH   5   6
ATOM      6  C   UNL     1       8.227  -5.934  42.657  1.00  0.00     0.042 C 
ATOM      7  O   UNL     1       9.125  -5.051  42.676  1.00  0.00    -0.550 OA
ATOM      8  O   UNL     1       7.451  -6.102  41.516  1.00  0.00    -0.550 OA
ENDBRANCH   5   6
ENDBRANCH   1   5
TORSDOF 3
ENDMDL
MODEL 6
REMARK VINA RESULT:    -2.970      1.833      3.362
REMARK INTER + INTRA:          -3.613
REMARK INTER:                  -3.506
REMARK INTRA:                  -0.107
REMARK UNBOUND:                -0.122
REMARK SMILES O=C([O-])CCC(=O)[O-]
REMARK SMILES IDX 4 1 2 2 1 3 3 4 5 5 6 6 7 7 8 8
REMARK H PARENT
REMARK Flexibility Score: inf
ROOT
ATOM      1  C   UNL     1       7.648  -5.591  42.890  1.00  0.00     0.059 C 
ENDROOT
BRANCH   1   2
ATOM      2  C   UNL     1       8.254  -6.731  43.645  1.00  0.00     0.042 C 
ATOM      3  O   UNL     1       7.768  -7.090  44.750  1.00  0.00    -0.550 OA
ATOM      4  O   UNL     1       9.386  -7.368  43.152  1.00  0.00    -0.550 OA
ENDBRANCH   1   2
BRANCH   1   5
ATOM      5  C   UNL     1       7.587  -5.911  41.396  1.00  0.00     0.059 C 
BRANCH   5   6
ATOM      6  C   UNL     1       8.374  -4.908  40.613  1.00  0.00     0.042 C 
ATOM      7  O   UNL     1       9.582  -5.130  40.332  1.00  0.00    -0.550 OA
ATOM      8  O   UNL     1       7.789  -3.706  40.236  1.00  0.00    -0.550 OA
ENDBRANCH   5   6
ENDBRANCH   1   5
TORSDOF 3
ENDMDL
MODEL 7
REMARK VINA RESULT:    -2.909      1.812      2.349
REMARK INTER + INTRA:          -3.541
REMARK INTER:                  -3.435
REMARK INTRA:                  -0.106
REMARK UNBOUND:                -0.122
REMARK SMILES O=C([O-])CCC(=O)[O-]
REMARK SMILES IDX 4 1 2 2 1 3 3 4 5 5 6 6 7 7 8 8
REMARK H PARENT
REMARK Flexibility Score: inf
ROOT
ATOM      1  C   UNL     1       8.682  -6.908  42.768  1.00  0.00     0.059 C 
ENDROOT
BRANCH   1   2
ATOM      2  C   UNL     1       7.778  -5.756  42.461  1.00  0.00     0.042 C 
ATOM      3  O   UNL     1       7.093  -5.226  43.376  1.00  0.00    -0.550 OA
ATOM      4  O   UNL     1       7.654  -5.297  41.156  1.00  0.00    -0.550 OA
ENDBRANCH   1   2
BRANCH   1   5
ATOM      5  C   UNL     1       8.659  -7.924  41.625  1.00  0.00     0.059 C 
BRANCH   5   6
ATOM      6  C   UNL     1       7.626  -8.975  41.881  1.00  0.00     0.042 C 
ATOM      7  O   UNL     1       7.527  -9.502  43.021  1.00  0.00    -0.550 OA
ATOM      8  O   UNL     1       6.804  -9.408  40.849  1.00  0.00    -0.550 OA
ENDBRANCH   5   6
ENDBRANCH   1   5
TORSDOF 3
ENDMDL
MODEL 8
REMARK VINA RESULT:    -2.904      1.184      1.525
REMARK INTER + INTRA:          -3.536
REMARK INTER:                  -3.356
REMARK INTRA:                  -0.180
REMARK UNBOUND:                -0.122
REMARK SMILES O=C([O-])CCC(=O)[O-]
REMARK SMILES IDX 4 1 2 2 1 3 3 4 5 5 6 6 7 7 8 8
REMARK H PARENT
REMARK Flexibility Score: inf
ROOT
ATOM      1  C   UNL     1       8.442  -5.044  41.356  1.00  0.00     0.059 C 
ENDROOT
BRANCH   1   2
ATOM      2  C   UNL     1       9.086  -4.071  42.291  1.00  0.00     0.042 C 
ATOM      3  O   UNL     1       8.394  -3.190  42.866  1.00  0.00    -0.550 OA
ATOM      4  O   UNL     1      10.461  -4.106  42.493  1.00  0.00    -0.550 OA
ENDBRANCH   1   2
BRANCH   1   5
ATOM      5  C   UNL     1       7.481  -5.960  42.116  1.00  0.00     0.059 C 
BRANCH   5   6
ATOM      6  C   UNL     1       8.231  -6.807  43.095  1.00  0.00     0.042 C 
ATOM      7  O   UNL     1       7.883  -6.836  44.305  1.00  0.00    -0.550 OA
ATOM      8  O   UNL     1       9.344  -7.528  42.681  1.00  0.00    -0.550 OA
ENDBRANCH   5   6
ENDBRANCH   1   5
TORSDOF 3
ENDMDL
MODEL 9
REMARK VINA RESULT:    -2.870      7.834      8.342
REMARK INTER + INTRA:          -3.496
REMARK INTER:                  -3.456
REMARK INTRA:                  -0.039
REMARK UNBOUND:                -0.122
REMARK SMILES O=C([O-])CCC(=O)[O-]
REMARK SMILES IDX 4 1 2 2 1 3 3 4 5 5 6 6 7 7 8 8
REMARK H PARENT
REMARK Flexibility Score: inf
ROOT
ATOM      1  C   UNL     1       6.804  -1.408  35.577  1.00  0.00     0.059 C 
ENDROOT
BRANCH   1   2
ATOM      2  C   UNL     1       6.197  -0.610  34.468  1.00  0.00     0.042 C 
ATOM      3  O   UNL     1       5.333  -1.128  33.712  1.00  0.00    -0.550 OA
ATOM      4  O   UNL     1       6.619   0.694  34.237  1.00  0.00    -0.550 OA
ENDBRANCH   1   2
BRANCH   1   5
ATOM      5  C   UNL     1       6.466  -2.891  35.415  1.00  0.00     0.059 C 
BRANCH   5   6
ATOM      6  C   UNL     1       7.608  -3.741  35.876  1.00  0.00     0.042 C 
ATOM      7  O   UNL     1       8.276  -4.412  35.045  1.00  0.00    -0.550 OA
ATOM      8  O   UNL     1       7.906  -3.830  37.230  1.00  0.00    -0.550 OA
ENDBRANCH   5   6
ENDBRANCH   1   5
TORSDOF 3
ENDMDL
