MODEL 1
REMARK VINA RESULT:    -5.248      0.000      0.000
REMARK INTER + INTRA:          -6.471
REMARK INTER:                  -6.322
REMARK INTRA:                  -0.149
REMARK UNBOUND:                -0.149
REMARK SMILES O=c1c(O)c(-c2ccc(O)c(O)c2)oc2cc(O)cc(O)c12
REMARK SMILES IDX 5 1 3 2 2 3 1 4 22 5 20 6 19 7 17 8 16 9 15 10 14 11 6 12
REMARK SMILES IDX 7 13 8 14 9 15 13 16 11 17 10 18 12 20 4 22 21 24 18 26
REMARK H PARENT 10 19 12 21 4 23 21 25 18 27
REMARK Flexibility Score: inf
ROOT
ATOM      1  C   UNL     1      15.664  54.717  30.643  1.00  0.00     0.180 A 
ATOM      2  C   UNL     1      15.566  54.703  29.239  1.00  0.00     0.208 A 
ATOM      3  C   UNL     1      15.211  53.508  28.595  1.00  0.00     0.238 A 
ATOM      4  O   UNL     1      15.110  53.487  27.338  1.00  0.00    -0.285 OA
ATOM      5  C   UNL     1      14.980  52.346  29.360  1.00  0.00     0.111 A 
ATOM      6  C   UNL     1      14.623  51.101  28.787  1.00  0.00     0.134 A 
ATOM      7  C   UNL     1      14.419  49.988  29.617  1.00  0.00     0.093 A 
ATOM      8  C   UNL     1      14.566  50.096  31.005  1.00  0.00     0.123 A 
ATOM      9  C   UNL     1      14.919  51.322  31.572  1.00  0.00     0.094 A 
ATOM     10  C   UNL     1      15.124  52.444  30.764  1.00  0.00     0.146 A 
ATOM     11  O   UNL     1      15.453  53.599  31.331  1.00  0.00    -0.452 OA
ENDROOT
BRANCH   1  12
ATOM     12  C   UNL     1      16.014  55.943  31.396  1.00  0.00     0.025 A 
ATOM     13  C   UNL     1      15.062  56.527  32.246  1.00  0.00     0.016 A 
ATOM     14  C   UNL     1      15.363  57.695  32.951  1.00  0.00     0.051 A 
ATOM     15  C   UNL     1      16.616  58.306  32.803  1.00  0.00     0.157 A 
ATOM     16  C   UNL     1      17.263  56.570  31.235  1.00  0.00     0.062 A 
ATOM     17  C   UNL     1      17.568  57.742  31.938  1.00  0.00     0.158 A 
BRANCH  15  18
ATOM     18  O   UNL     1      16.914  59.470  33.509  1.00  0.00    -0.504 OA
ATOM     19  H   UNL     1      16.356  60.310  33.410  1.00  0.00     0.293 HD
ENDBRANCH  15  18
BRANCH  17  20
ATOM     20  O   UNL     1      18.818  58.334  31.758  1.00  0.00    -0.504 OA
ATOM     21  H   UNL     1      18.920  59.314  31.527  1.00  0.00     0.293 HD
ENDBRANCH  17  20
ENDBRANCH   1  12
BRANCH   2  22
ATOM     22  O   UNL     1      15.849  55.856  28.500  1.00  0.00    -0.502 OA
ATOM     23  H   UNL     1      16.719  56.365  28.601  1.00  0.00     0.293 HD
ENDBRANCH   2  22
BRANCH   6  24
ATOM     24  O   UNL     1      14.469  50.963  27.408  1.00  0.00    -0.507 OA
ATOM     25  H   UNL     1      15.099  50.392  26.856  1.00  0.00     0.293 HD
ENDBRANCH   6  24
BRANCH   8  26
ATOM     26  O   UNL     1      14.365  48.991  31.828  1.00  0.00    -0.508 OA
ATOM     27  H   UNL     1      13.655  48.299  31.622  1.00  0.00     0.293 HD
ENDBRANCH   8  26
TORSDOF 6
ENDMDL
MODEL 2
REMARK VINA RESULT:    -5.117      1.575      2.953
REMARK INTER + INTRA:          -6.314
REMARK INTER:                  -5.985
REMARK INTRA:                  -0.329
REMARK UNBOUND:                -0.149
REMARK SMILES O=c1c(O)c(-c2ccc(O)c(O)c2)oc2cc(O)cc(O)c12
REMARK SMILES IDX 5 1 3 2 2 3 1 4 22 5 20 6 19 7 17 8 16 9 15 10 14 11 6 12
REMARK SMILES IDX 7 13 8 14 9 15 13 16 11 17 10 18 12 20 4 22 21 24 18 26
REMARK H PARENT 10 19 12 21 4 23 21 25 18 27
REMARK Flexibility Score: inf
ROOT
ATOM      1  C   UNL     1      15.261  54.953  31.111  1.00  0.00     0.180 A 
ATOM      2  C   UNL     1      15.497  53.679  31.660  1.00  0.00     0.208 A 
ATOM      3  C   UNL     1      14.967  52.551  31.013  1.00  0.00     0.238 A 
ATOM      4  O   UNL     1      15.181  51.404  31.490  1.00  0.00    -0.285 OA
ATOM      5  C   UNL     1      14.195  52.717  29.844  1.00  0.00     0.111 A 
ATOM      6  C   UNL     1      13.621  51.634  29.136  1.00  0.00     0.134 A 
ATOM      7  C   UNL     1      12.858  51.883  27.985  1.00  0.00     0.093 A 
ATOM      8  C   UNL     1      12.657  53.192  27.532  1.00  0.00     0.123 A 
ATOM      9  C   UNL     1      13.221  54.262  28.228  1.00  0.00     0.094 A 
ATOM     10  C   UNL     1      13.987  54.036  29.376  1.00  0.00     0.146 A 
ATOM     11  O   UNL     1      14.517  55.073  30.015  1.00  0.00    -0.452 OA
ENDROOT
BRANCH   1  12
ATOM     12  C   UNL     1      15.803  56.187  31.723  1.00  0.00     0.025 A 
ATOM     13  C   UNL     1      14.982  56.963  32.557  1.00  0.00     0.016 A 
ATOM     14  C   UNL     1      15.465  58.142  33.129  1.00  0.00     0.051 A 
ATOM     15  C   UNL     1      16.772  58.571  32.864  1.00  0.00     0.157 A 
ATOM     16  C   UNL     1      17.107  56.632  31.442  1.00  0.00     0.062 A 
ATOM     17  C   UNL     1      17.595  57.814  32.013  1.00  0.00     0.158 A 
BRANCH  15  18
ATOM     18  O   UNL     1      17.253  59.747  33.438  1.00  0.00    -0.504 OA
ATOM     19  H   UNL     1      18.131  60.160  33.148  1.00  0.00     0.293 HD
ENDBRANCH  15  18
BRANCH  17  20
ATOM     20  O   UNL     1      18.895  58.224  31.717  1.00  0.00    -0.504 OA
ATOM     21  H   UNL     1      19.126  59.192  31.535  1.00  0.00     0.293 HD
ENDBRANCH  17  20
ENDBRANCH   1  12
BRANCH   2  22
ATOM     22  O   UNL     1      16.224  53.545  32.847  1.00  0.00    -0.502 OA
ATOM     23  H   UNL     1      16.096  54.170  33.633  1.00  0.00     0.293 HD
ENDBRANCH   2  22
BRANCH   6  24
ATOM     24  O   UNL     1      13.804  50.319  29.563  1.00  0.00    -0.507 OA
ATOM     25  H   UNL     1      13.912  50.088  30.545  1.00  0.00     0.293 HD
ENDBRANCH   6  24
BRANCH   8  26
ATOM     26  O   UNL     1      11.898  53.439  26.390  1.00  0.00    -0.508 OA
ATOM     27  H   UNL     1      10.889  53.359  26.397  1.00  0.00     0.293 HD
ENDBRANCH   8  26
TORSDOF 6
ENDMDL
MODEL 3
REMARK VINA RESULT:    -4.975      3.414      7.424
REMARK INTER + INTRA:          -6.142
REMARK INTER:                  -5.848
REMARK INTRA:                  -0.294
REMARK UNBOUND:                -0.149
REMARK SMILES O=c1c(O)c(-c2ccc(O)c(O)c2)oc2cc(O)cc(O)c12
REMARK SMILES IDX 5 1 3 2 2 3 1 4 22 5 20 6 19 7 17 8 16 9 15 10 14 11 6 12
REMARK SMILES IDX 7 13 8 14 9 15 13 16 11 17 10 18 12 20 4 22 21 24 18 26
REMARK H PARENT 10 19 12 21 4 23 21 25 18 27
REMARK Flexibility Score: inf
ROOT
ATOM      1  C   UNL     1      14.654  50.560  31.111  1.00  0.00     0.180 A 
ATOM      2  C   UNL     1      13.420  50.744  30.459  1.00  0.00     0.208 A 
ATOM      3  C   UNL     1      12.694  51.921  30.698  1.00  0.00     0.238 A 
ATOM      4  O   UNL     1      11.592  52.101  30.111  1.00  0.00    -0.285 OA
ATOM      5  C   UNL     1      13.201  52.882  31.597  1.00  0.00     0.111 A 
ATOM      6  C   UNL     1      12.530  54.092  31.896  1.00  0.00     0.134 A 
ATOM      7  C   UNL     1      13.096  54.994  32.810  1.00  0.00     0.093 A 
ATOM      8  C   UNL     1      14.319  54.708  33.429  1.00  0.00     0.123 A 
ATOM      9  C   UNL     1      14.984  53.516  33.136  1.00  0.00     0.094 A 
ATOM     10  C   UNL     1      14.437  52.605  32.227  1.00  0.00     0.146 A 
ATOM     11  O   UNL     1      15.094  51.481  31.963  1.00  0.00    -0.452 OA
ENDROOT
BRANCH   1  12
ATOM     12  C   UNL     1      15.487  49.355  30.896  1.00  0.00     0.025 A 
ATOM     13  C   UNL     1      16.554  49.407  29.985  1.00  0.00     0.016 A 
ATOM     14  C   UNL     1      17.341  48.277  29.750  1.00  0.00     0.051 A 
ATOM     15  C   UNL     1      17.062  47.073  30.411  1.00  0.00     0.157 A 
ATOM     16  C   UNL     1      15.197  48.139  31.541  1.00  0.00     0.062 A 
ATOM     17  C   UNL     1      15.982  47.004  31.307  1.00  0.00     0.158 A 
BRANCH  15  18
ATOM     18  O   UNL     1      17.850  45.947  30.176  1.00  0.00    -0.504 OA
ATOM     19  H   UNL     1      18.761  45.838  30.605  1.00  0.00     0.293 HD
ENDBRANCH  15  18
BRANCH  17  20
ATOM     20  O   UNL     1      15.670  45.816  31.968  1.00  0.00    -0.504 OA
ATOM     21  H   UNL     1      14.956  45.770  32.684  1.00  0.00     0.293 HD
ENDBRANCH  17  20
ENDBRANCH   1  12
BRANCH   2  22
ATOM     22  O   UNL     1      12.916  49.753  29.611  1.00  0.00    -0.502 OA
ATOM     23  H   UNL     1      11.922  49.599  29.489  1.00  0.00     0.293 HD
ENDBRANCH   2  22
BRANCH   6  24
ATOM     24  O   UNL     1      11.310  54.404  31.296  1.00  0.00    -0.507 OA
ATOM     25  H   UNL     1      10.617  54.978  31.763  1.00  0.00     0.293 HD
ENDBRANCH   6  24
BRANCH   8  26
ATOM     26  O   UNL     1      14.881  55.603  34.337  1.00  0.00    -0.508 OA
ATOM     27  H   UNL     1      14.718  55.519  35.332  1.00  0.00     0.293 HD
ENDBRANCH   8  26
TORSDOF 6
ENDMDL
MODEL 4
REMARK VINA RESULT:    -4.974      2.496      7.027
REMARK INTER + INTRA:          -6.141
REMARK INTER:                  -5.825
REMARK INTRA:                  -0.316
REMARK UNBOUND:                -0.149
REMARK SMILES O=c1c(O)c(-c2ccc(O)c(O)c2)oc2cc(O)cc(O)c12
REMARK SMILES IDX 5 1 3 2 2 3 1 4 22 5 20 6 19 7 17 8 16 9 15 10 14 11 6 12
REMARK SMILES IDX 7 13 8 14 9 15 13 16 11 17 10 18 12 20 4 22 21 24 18 26
REMARK H PARENT 10 19 12 21 4 23 21 25 18 27
REMARK Flexibility Score: inf
ROOT
ATOM      1  C   UNL     1      15.159  51.533  31.182  1.00  0.00     0.180 A 
ATOM      2  C   UNL     1      15.195  52.545  30.204  1.00  0.00     0.208 A 
ATOM      3  C   UNL     1      15.169  53.887  30.614  1.00  0.00     0.238 A 
ATOM      4  O   UNL     1      15.211  54.802  29.747  1.00  0.00    -0.285 OA
ATOM      5  C   UNL     1      15.090  54.194  31.988  1.00  0.00     0.111 A 
ATOM      6  C   UNL     1      15.055  55.520  32.483  1.00  0.00     0.134 A 
ATOM      7  C   UNL     1      14.966  55.743  33.866  1.00  0.00     0.093 A 
ATOM      8  C   UNL     1      14.909  54.667  34.760  1.00  0.00     0.123 A 
ATOM      9  C   UNL     1      14.943  53.359  34.274  1.00  0.00     0.094 A 
ATOM     10  C   UNL     1      15.034  53.115  32.901  1.00  0.00     0.146 A 
ATOM     11  O   UNL     1      15.070  51.860  32.467  1.00  0.00    -0.452 OA
ENDROOT
BRANCH   1  12
ATOM     12  C   UNL     1      15.203  50.096  30.829  1.00  0.00     0.025 A 
ATOM     13  C   UNL     1      14.016  49.346  30.840  1.00  0.00     0.016 A 
ATOM     14  C   UNL     1      14.036  47.983  30.531  1.00  0.00     0.051 A 
ATOM     15  C   UNL     1      15.245  47.347  30.222  1.00  0.00     0.157 A 
ATOM     16  C   UNL     1      16.417  49.449  30.539  1.00  0.00     0.062 A 
ATOM     17  C   UNL     1      16.442  48.084  30.230  1.00  0.00     0.158 A 
BRANCH  15  18
ATOM     18  O   UNL     1      15.261  45.988  29.912  1.00  0.00    -0.504 OA
ATOM     19  H   UNL     1      14.472  45.535  29.466  1.00  0.00     0.293 HD
ENDBRANCH  15  18
BRANCH  17  20
ATOM     20  O   UNL     1      17.663  47.475  29.942  1.00  0.00    -0.504 OA
ATOM     21  H   UNL     1      18.522  48.004  29.857  1.00  0.00     0.293 HD
ENDBRANCH  17  20
ENDBRANCH   1  12
BRANCH   2  22
ATOM     22  O   UNL     1      15.224  52.213  28.846  1.00  0.00    -0.502 OA
ATOM     23  H   UNL     1      14.437  51.781  28.377  1.00  0.00     0.293 HD
ENDBRANCH   2  22
BRANCH   6  24
ATOM     24  O   UNL     1      15.109  56.612  31.617  1.00  0.00    -0.507 OA
ATOM     25  H   UNL     1      14.958  57.560  31.944  1.00  0.00     0.293 HD
ENDBRANCH   6  24
BRANCH   8  26
ATOM     26  O   UNL     1      14.819  54.889  36.132  1.00  0.00    -0.508 OA
ATOM     27  H   UNL     1      14.514  54.162  36.767  1.00  0.00     0.293 HD
ENDBRANCH   8  26
TORSDOF 6
ENDMDL
MODEL 5
REMARK VINA RESULT:    -4.966      1.597      7.103
REMARK INTER + INTRA:          -6.131
REMARK INTER:                  -5.840
REMARK INTRA:                  -0.291
REMARK UNBOUND:                -0.149
REMARK SMILES O=c1c(O)c(-c2ccc(O)c(O)c2)oc2cc(O)cc(O)c12
REMARK SMILES IDX 5 1 3 2 2 3 1 4 22 5 20 6 19 7 17 8 16 9 15 10 14 11 6 12
REMARK SMILES IDX 7 13 8 14 9 15 13 16 11 17 10 18 12 20 4 22 21 24 18 26
REMARK H PARENT 10 19 12 21 4 23 21 25 18 27
REMARK Flexibility Score: inf
ROOT
ATOM      1  C   UNL     1      14.643  53.945  31.326  1.00  0.00     0.180 A 
ATOM      2  C   UNL     1      13.553  54.594  31.936  1.00  0.00     0.208 A 
ATOM      3  C   UNL     1      13.710  55.918  32.375  1.00  0.00     0.238 A 
ATOM      4  O   UNL     1      12.736  56.513  32.913  1.00  0.00    -0.285 OA
ATOM      5  C   UNL     1      14.954  56.562  32.217  1.00  0.00     0.111 A 
ATOM      6  C   UNL     1      15.196  57.893  32.636  1.00  0.00     0.134 A 
ATOM      7  C   UNL     1      16.466  58.460  32.451  1.00  0.00     0.093 A 
ATOM      8  C   UNL     1      17.496  57.723  31.857  1.00  0.00     0.123 A 
ATOM      9  C   UNL     1      17.261  56.410  31.442  1.00  0.00     0.094 A 
ATOM     10  C   UNL     1      16.003  55.827  31.615  1.00  0.00     0.146 A 
ATOM     11  O   UNL     1      15.806  54.579  31.206  1.00  0.00    -0.452 OA
ENDROOT
BRANCH   1  12
ATOM     12  C   UNL     1      14.550  52.558  30.819  1.00  0.00     0.025 A 
ATOM     13  C   UNL     1      14.665  51.485  31.717  1.00  0.00     0.016 A 
ATOM     14  C   UNL     1      14.601  50.167  31.258  1.00  0.00     0.051 A 
ATOM     15  C   UNL     1      14.437  49.902  29.892  1.00  0.00     0.157 A 
ATOM     16  C   UNL     1      14.407  52.287  29.446  1.00  0.00     0.062 A 
ATOM     17  C   UNL     1      14.344  50.968  28.982  1.00  0.00     0.158 A 
BRANCH  15  18
ATOM     18  O   UNL     1      14.371  48.586  29.438  1.00  0.00    -0.504 OA
ATOM     19  H   UNL     1      15.173  48.126  29.023  1.00  0.00     0.293 HD
ENDBRANCH  15  18
BRANCH  17  20
ATOM     20  O   UNL     1      14.196  50.736  27.615  1.00  0.00    -0.504 OA
ATOM     21  H   UNL     1      14.213  49.803  27.222  1.00  0.00     0.293 HD
ENDBRANCH  17  20
ENDBRANCH   1  12
BRANCH   2  22
ATOM     22  O   UNL     1      12.345  53.917  32.126  1.00  0.00    -0.502 OA
ATOM     23  H   UNL     1      12.134  53.044  31.657  1.00  0.00     0.293 HD
ENDBRANCH   2  22
BRANCH   6  24
ATOM     24  O   UNL     1      14.188  58.652  33.232  1.00  0.00    -0.507 OA
ATOM     25  H   UNL     1      13.377  58.963  32.711  1.00  0.00     0.293 HD
ENDBRANCH   6  24
BRANCH   8  26
ATOM     26  O   UNL     1      18.757  58.285  31.674  1.00  0.00    -0.508 OA
ATOM     27  H   UNL     1      19.252  58.203  30.795  1.00  0.00     0.293 HD
ENDBRANCH   8  26
TORSDOF 6
ENDMDL
MODEL 6
REMARK VINA RESULT:    -4.875      4.865      7.995
REMARK INTER + INTRA:          -6.021
REMARK INTER:                  -5.754
REMARK INTRA:                  -0.267
REMARK UNBOUND:                -0.149
REMARK SMILES O=c1c(O)c(-c2ccc(O)c(O)c2)oc2cc(O)cc(O)c12
REMARK SMILES IDX 5 1 3 2 2 3 1 4 22 5 20 6 19 7 17 8 16 9 15 10 14 11 6 12
REMARK SMILES IDX 7 13 8 14 9 15 13 16 11 17 10 18 12 20 4 22 21 24 18 26
REMARK H PARENT 10 19 12 21 4 23 21 25 18 27
REMARK Flexibility Score: inf
ROOT
ATOM      1  C   UNL     1      15.183  48.656  30.574  1.00  0.00     0.180 A 
ATOM      2  C   UNL     1      15.112  50.062  30.566  1.00  0.00     0.208 A 
ATOM      3  C   UNL     1      15.608  50.760  29.454  1.00  0.00     0.238 A 
ATOM      4  O   UNL     1      15.540  52.019  29.431  1.00  0.00    -0.285 OA
ATOM      5  C   UNL     1      16.183  50.046  28.382  1.00  0.00     0.111 A 
ATOM      6  C   UNL     1      16.710  50.675  27.228  1.00  0.00     0.134 A 
ATOM      7  C   UNL     1      17.274  49.894  26.208  1.00  0.00     0.093 A 
ATOM      8  C   UNL     1      17.322  48.500  26.321  1.00  0.00     0.123 A 
ATOM      9  C   UNL     1      16.804  47.877  27.458  1.00  0.00     0.094 A 
ATOM     10  C   UNL     1      16.236  48.636  28.485  1.00  0.00     0.146 A 
ATOM     11  O   UNL     1      15.745  48.017  29.552  1.00  0.00    -0.452 OA
ENDROOT
BRANCH   1  12
ATOM     12  C   UNL     1      14.664  47.848  31.700  1.00  0.00     0.025 A 
ATOM     13  C   UNL     1      15.565  47.182  32.546  1.00  0.00     0.016 A 
ATOM     14  C   UNL     1      15.097  46.397  33.603  1.00  0.00     0.051 A 
ATOM     15  C   UNL     1      13.721  46.254  33.821  1.00  0.00     0.157 A 
ATOM     16  C   UNL     1      13.282  47.684  31.909  1.00  0.00     0.062 A 
ATOM     17  C   UNL     1      12.810  46.898  32.966  1.00  0.00     0.158 A 
BRANCH  15  18
ATOM     18  O   UNL     1      13.257  45.472  34.877  1.00  0.00    -0.504 OA
ATOM     19  H   UNL     1      13.643  45.557  35.810  1.00  0.00     0.293 HD
ENDBRANCH  15  18
BRANCH  17  20
ATOM     20  O   UNL     1      11.434  46.761  33.147  1.00  0.00    -0.504 OA
ATOM     21  H   UNL     1      10.985  45.856  33.208  1.00  0.00     0.293 HD
ENDBRANCH  17  20
ENDBRANCH   1  12
BRANCH   2  22
ATOM     22  O   UNL     1      14.583  50.748  31.663  1.00  0.00    -0.502 OA
ATOM     23  H   UNL     1      14.897  50.579  32.610  1.00  0.00     0.293 HD
ENDBRANCH   2  22
BRANCH   6  24
ATOM     24  O   UNL     1      16.676  52.063  27.087  1.00  0.00    -0.507 OA
ATOM     25  H   UNL     1      15.861  52.541  26.723  1.00  0.00     0.293 HD
ENDBRANCH   6  24
BRANCH   8  26
ATOM     26  O   UNL     1      17.884  47.725  25.309  1.00  0.00    -0.508 OA
ATOM     27  H   UNL     1      17.657  46.744  25.205  1.00  0.00     0.293 HD
ENDBRANCH   8  26
TORSDOF 6
ENDMDL
MODEL 7
REMARK VINA RESULT:    -4.863      3.161      3.893
REMARK INTER + INTRA:          -6.007
REMARK INTER:                  -5.820
REMARK INTRA:                  -0.187
REMARK UNBOUND:                -0.149
REMARK SMILES O=c1c(O)c(-c2ccc(O)c(O)c2)oc2cc(O)cc(O)c12
REMARK SMILES IDX 5 1 3 2 2 3 1 4 22 5 20 6 19 7 17 8 16 9 15 10 14 11 6 12
REMARK SMILES IDX 7 13 8 14 9 15 13 16 11 17 10 18 12 20 4 22 21 24 18 26
REMARK H PARENT 10 19 12 21 4 23 21 25 18 27
REMARK Flexibility Score: inf
ROOT
ATOM      1  C   UNL     1      15.068  52.623  31.471  1.00  0.00     0.180 A 
ATOM      2  C   UNL     1      14.998  53.346  30.265  1.00  0.00     0.208 A 
ATOM      3  C   UNL     1      15.396  52.720  29.073  1.00  0.00     0.238 A 
ATOM      4  O   UNL     1      15.328  53.355  27.986  1.00  0.00    -0.285 OA
ATOM      5  C   UNL     1      15.875  51.394  29.109  1.00  0.00     0.111 A 
ATOM      6  C   UNL     1      16.301  50.694  27.954  1.00  0.00     0.134 A 
ATOM      7  C   UNL     1      16.773  49.378  28.074  1.00  0.00     0.093 A 
ATOM      8  C   UNL     1      16.830  48.752  29.325  1.00  0.00     0.123 A 
ATOM      9  C   UNL     1      16.411  49.440  30.465  1.00  0.00     0.094 A 
ATOM     10  C   UNL     1      15.935  50.751  30.367  1.00  0.00     0.146 A 
ATOM     11  O   UNL     1      15.538  51.379  31.468  1.00  0.00    -0.452 OA
ENDROOT
BRANCH   1  12
ATOM     12  C   UNL     1      14.648  53.206  32.765  1.00  0.00     0.025 A 
ATOM     13  C   UNL     1      15.588  53.346  33.797  1.00  0.00     0.016 A 
ATOM     14  C   UNL     1      15.209  53.875  35.034  1.00  0.00     0.051 A 
ATOM     15  C   UNL     1      13.881  54.258  35.261  1.00  0.00     0.157 A 
ATOM     16  C   UNL     1      13.310  53.572  33.004  1.00  0.00     0.062 A 
ATOM     17  C   UNL     1      12.926  54.101  34.241  1.00  0.00     0.158 A 
BRANCH  15  18
ATOM     18  O   UNL     1      13.506  54.787  36.495  1.00  0.00    -0.504 OA
ATOM     19  H   UNL     1      13.436  54.208  37.323  1.00  0.00     0.293 HD
ENDBRANCH  15  18
BRANCH  17  20
ATOM     20  O   UNL     1      11.593  54.458  34.442  1.00  0.00    -0.504 OA
ATOM     21  H   UNL     1      11.038  54.066  35.193  1.00  0.00     0.293 HD
ENDBRANCH  17  20
ENDBRANCH   1  12
BRANCH   2  22
ATOM     22  O   UNL     1      14.566  54.676  30.264  1.00  0.00    -0.502 OA
ATOM     23  H   UNL     1      13.652  54.949  29.924  1.00  0.00     0.293 HD
ENDBRANCH   2  22
BRANCH   6  24
ATOM     24  O   UNL     1      16.257  51.292  26.695  1.00  0.00    -0.507 OA
ATOM     25  H   UNL     1      15.507  51.100  26.040  1.00  0.00     0.293 HD
ENDBRANCH   6  24
BRANCH   8  26
ATOM     26  O   UNL     1      17.300  47.446  29.444  1.00  0.00    -0.508 OA
ATOM     27  H   UNL     1      17.697  47.103  30.310  1.00  0.00     0.293 HD
ENDBRANCH   8  26
TORSDOF 6
ENDMDL
MODEL 8
REMARK VINA RESULT:    -4.790      3.344      5.721
REMARK INTER + INTRA:          -5.919
REMARK INTER:                  -5.605
REMARK INTRA:                  -0.314
REMARK UNBOUND:                -0.149
REMARK SMILES O=c1c(O)c(-c2ccc(O)c(O)c2)oc2cc(O)cc(O)c12
REMARK SMILES IDX 5 1 3 2 2 3 1 4 22 5 20 6 19 7 17 8 16 9 15 10 14 11 6 12
REMARK SMILES IDX 7 13 8 14 9 15 13 16 11 17 10 18 12 20 4 22 21 24 18 26
REMARK H PARENT 10 19 12 21 4 23 21 25 18 27
REMARK Flexibility Score: inf
ROOT
ATOM      1  C   UNL     1      14.624  49.470  31.144  1.00  0.00     0.180 A 
ATOM      2  C   UNL     1      15.288  48.879  30.052  1.00  0.00     0.208 A 
ATOM      3  C   UNL     1      15.455  47.485  30.032  1.00  0.00     0.238 A 
ATOM      4  O   UNL     1      16.039  46.945  29.053  1.00  0.00    -0.285 OA
ATOM      5  C   UNL     1      14.976  46.711  31.108  1.00  0.00     0.111 A 
ATOM      6  C   UNL     1      15.108  45.302  31.167  1.00  0.00     0.134 A 
ATOM      7  C   UNL     1      14.613  44.603  32.278  1.00  0.00     0.093 A 
ATOM      8  C   UNL     1      13.989  45.285  33.329  1.00  0.00     0.123 A 
ATOM      9  C   UNL     1      13.858  46.674  33.275  1.00  0.00     0.094 A 
ATOM     10  C   UNL     1      14.343  47.389  32.176  1.00  0.00     0.146 A 
ATOM     11  O   UNL     1      14.198  48.709  32.148  1.00  0.00    -0.452 OA
ENDROOT
BRANCH   1  12
ATOM     12  C   UNL     1      14.392  50.929  31.228  1.00  0.00     0.025 A 
ATOM     13  C   UNL     1      13.185  51.465  30.753  1.00  0.00     0.016 A 
ATOM     14  C   UNL     1      12.952  52.842  30.803  1.00  0.00     0.051 A 
ATOM     15  C   UNL     1      13.930  53.705  31.316  1.00  0.00     0.157 A 
ATOM     16  C   UNL     1      15.379  51.801  31.722  1.00  0.00     0.062 A 
ATOM     17  C   UNL     1      15.151  53.181  31.773  1.00  0.00     0.158 A 
BRANCH  15  18
ATOM     18  O   UNL     1      13.694  55.078  31.367  1.00  0.00    -0.504 OA
ATOM     19  H   UNL     1      14.447  55.750  31.281  1.00  0.00     0.293 HD
ENDBRANCH  15  18
BRANCH  17  20
ATOM     20  O   UNL     1      16.150  54.016  32.274  1.00  0.00    -0.504 OA
ATOM     21  H   UNL     1      17.066  53.668  32.525  1.00  0.00     0.293 HD
ENDBRANCH  17  20
ENDBRANCH   1  12
BRANCH   2  22
ATOM     22  O   UNL     1      15.798  49.675  29.021  1.00  0.00    -0.502 OA
ATOM     23  H   UNL     1      15.209  50.282  28.464  1.00  0.00     0.293 HD
ENDBRANCH   2  22
BRANCH   6  24
ATOM     24  O   UNL     1      15.725  44.595  30.134  1.00  0.00    -0.507 OA
ATOM     25  H   UNL     1      16.654  44.834  29.805  1.00  0.00     0.293 HD
ENDBRANCH   6  24
BRANCH   8  26
ATOM     26  O   UNL     1      13.499  44.591  34.433  1.00  0.00    -0.508 OA
ATOM     27  H   UNL     1      13.075  43.677  34.338  1.00  0.00     0.293 HD
ENDBRANCH   8  26
TORSDOF 6
ENDMDL
MODEL 9
REMARK VINA RESULT:    -4.753      3.782      6.942
REMARK INTER + INTRA:          -5.875
REMARK INTER:                  -5.544
REMARK INTRA:                  -0.331
REMARK UNBOUND:                -0.149
REMARK SMILES O=c1c(O)c(-c2ccc(O)c(O)c2)oc2cc(O)cc(O)c12
REMARK SMILES IDX 5 1 3 2 2 3 1 4 22 5 20 6 19 7 17 8 16 9 15 10 14 11 6 12
REMARK SMILES IDX 7 13 8 14 9 15 13 16 11 17 10 18 12 20 4 22 21 24 18 26
REMARK H PARENT 10 19 12 21 4 23 21 25 18 27
REMARK Flexibility Score: inf
ROOT
ATOM      1  C   UNL     1      14.524  51.524  31.509  1.00  0.00     0.180 A 
ATOM      2  C   UNL     1      13.331  52.080  31.008  1.00  0.00     0.208 A 
ATOM      3  C   UNL     1      12.741  53.153  31.695  1.00  0.00     0.238 A 
ATOM      4  O   UNL     1      11.679  53.665  31.249  1.00  0.00    -0.285 OA
ATOM      5  C   UNL     1      13.339  53.637  32.877  1.00  0.00     0.111 A 
ATOM      6  C   UNL     1      12.805  54.710  33.630  1.00  0.00     0.134 A 
ATOM      7  C   UNL     1      13.455  55.128  34.802  1.00  0.00     0.093 A 
ATOM      8  C   UNL     1      14.625  54.492  35.234  1.00  0.00     0.123 A 
ATOM      9  C   UNL     1      15.153  53.433  34.493  1.00  0.00     0.094 A 
ATOM     10  C   UNL     1      14.523  53.003  33.322  1.00  0.00     0.146 A 
ATOM     11  O   UNL     1      15.051  51.997  32.635  1.00  0.00    -0.452 OA
ENDROOT
BRANCH   1  12
ATOM     12  C   UNL     1      15.216  50.405  30.832  1.00  0.00     0.025 A 
ATOM     13  C   UNL     1      14.968  49.087  31.246  1.00  0.00     0.016 A 
ATOM     14  C   UNL     1      15.626  48.016  30.634  1.00  0.00     0.051 A 
ATOM     15  C   UNL     1      16.553  48.249  29.610  1.00  0.00     0.157 A 
ATOM     16  C   UNL     1      16.163  50.636  29.817  1.00  0.00     0.062 A 
ATOM     17  C   UNL     1      16.825  49.567  29.203  1.00  0.00     0.158 A 
BRANCH  15  18
ATOM     18  O   UNL     1      17.206  47.179  29.000  1.00  0.00    -0.504 OA
ATOM     19  H   UNL     1      17.942  46.667  29.472  1.00  0.00     0.293 HD
ENDBRANCH  15  18
BRANCH  17  20
ATOM     20  O   UNL     1      17.754  49.831  28.197  1.00  0.00    -0.504 OA
ATOM     21  H   UNL     1      17.558  50.471  27.438  1.00  0.00     0.293 HD
ENDBRANCH  17  20
ENDBRANCH   1  12
BRANCH   2  22
ATOM     22  O   UNL     1      12.732  51.549  29.862  1.00  0.00    -0.502 OA
ATOM     23  H   UNL     1      12.803  51.998  28.957  1.00  0.00     0.293 HD
ENDBRANCH   2  22
BRANCH   6  24
ATOM     24  O   UNL     1      11.641  55.363  33.225  1.00  0.00    -0.507 OA
ATOM     25  H   UNL     1      10.961  55.704  33.895  1.00  0.00     0.293 HD
ENDBRANCH   6  24
BRANCH   8  26
ATOM     26  O   UNL     1      15.269  54.906  36.397  1.00  0.00    -0.508 OA
ATOM     27  H   UNL     1      16.059  55.538  36.369  1.00  0.00     0.293 HD
ENDBRANCH   8  26
TORSDOF 6
ENDMDL
