MODEL 1
REMARK VINA RESULT:    -6.663      0.000      0.000
REMARK INTER + INTRA:          -8.337
REMARK INTER:                  -8.027
REMARK INTRA:                  -0.310
REMARK UNBOUND:                -0.310
REMARK SMILES O=c1c(O)c(-c2ccc(O)c(O)c2)oc2cc(O)cc(O)c12
REMARK SMILES IDX 5 1 3 2 2 3 1 4 22 5 20 6 19 7 17 8 16 9 15 10 14 11 6 12
REMARK SMILES IDX 7 13 8 14 9 15 13 16 11 17 10 18 12 20 4 22 21 24 18 26
REMARK H PARENT 10 19 12 21 4 23 21 25 18 27
REMARK Flexibility Score: inf
ROOT
ATOM      1  C   UNL     1      44.123   7.806  15.847  1.00  0.00     0.180 A 
ATOM      2  C   UNL     1      42.810   8.183  15.510  1.00  0.00     0.208 A 
ATOM      3  C   UNL     1      41.840   8.246  16.522  1.00  0.00     0.238 A 
ATOM      4  O   UNL     1      40.681   8.637  16.225  1.00  0.00    -0.285 OA
ATOM      5  C   UNL     1      42.187   7.914  17.854  1.00  0.00     0.111 A 
ATOM      6  C   UNL     1      41.274   7.903  18.951  1.00  0.00     0.134 A 
ATOM      7  C   UNL     1      41.757   7.686  20.248  1.00  0.00     0.093 A 
ATOM      8  C   UNL     1      43.104   7.415  20.479  1.00  0.00     0.123 A 
ATOM      9  C   UNL     1      43.995   7.365  19.407  1.00  0.00     0.094 A 
ATOM     10  C   UNL     1      43.552   7.612  18.106  1.00  0.00     0.146 A 
ATOM     11  O   UNL     1      44.433   7.565  17.115  1.00  0.00    -0.452 OA
ENDROOT
BRANCH   1  12
ATOM     12  C   UNL     1      45.194   7.693  14.831  1.00  0.00     0.025 A 
ATOM     13  C   UNL     1      45.295   6.524  14.060  1.00  0.00     0.016 A 
ATOM     14  C   UNL     1      46.285   6.404  13.081  1.00  0.00     0.051 A 
ATOM     15  C   UNL     1      47.179   7.457  12.848  1.00  0.00     0.157 A 
ATOM     16  C   UNL     1      46.081   8.756  14.579  1.00  0.00     0.062 A 
ATOM     17  C   UNL     1      47.074   8.637  13.596  1.00  0.00     0.158 A 
BRANCH  15  18
ATOM     18  O   UNL     1      48.169   7.341  11.875  1.00  0.00    -0.504 OA
ATOM     19  H   UNL     1      48.540   6.438  11.601  1.00  0.00     0.293 HD
ENDBRANCH  15  18
BRANCH  17  20
ATOM     20  O   UNL     1      47.955   9.688  13.352  1.00  0.00    -0.504 OA
ATOM     21  H   UNL     1      48.826   9.778  13.864  1.00  0.00     0.293 HD
ENDBRANCH  17  20
ENDBRANCH   1  12
BRANCH   2  22
ATOM     22  O   UNL     1      42.494   8.528  14.193  1.00  0.00    -0.502 OA
ATOM     23  H   UNL     1      41.711   8.120  13.698  1.00  0.00     0.293 HD
ENDBRANCH   2  22
BRANCH   6  24
ATOM     24  O   UNL     1      39.894   8.072  18.819  1.00  0.00    -0.507 OA
ATOM     25  H   UNL     1      39.369   7.876  17.980  1.00  0.00     0.293 HD
ENDBRANCH   6  24
BRANCH   8  26
ATOM     26  O   UNL     1      43.547   7.188  21.781  1.00  0.00    -0.508 OA
ATOM     27  H   UNL     1      43.431   6.288  22.232  1.00  0.00     0.293 HD
ENDBRANCH   8  26
TORSDOF 6
ENDMDL
MODEL 2
REMARK VINA RESULT:    -6.630     14.952     16.377
REMARK INTER + INTRA:          -8.297
REMARK INTER:                  -7.977
REMARK INTRA:                  -0.320
REMARK UNBOUND:                -0.310
REMARK SMILES O=c1c(O)c(-c2ccc(O)c(O)c2)oc2cc(O)cc(O)c12
REMARK SMILES IDX 5 1 3 2 2 3 1 4 22 5 20 6 19 7 17 8 16 9 15 10 14 11 6 12
REMARK SMILES IDX 7 13 8 14 9 15 13 16 11 17 10 18 12 20 4 22 21 24 18 26
REMARK H PARENT 10 19 12 21 4 23 21 25 18 27
REMARK Flexibility Score: inf
ROOT
ATOM      1  C   UNL     1      56.185  -2.541  20.426  1.00  0.00     0.180 A 
ATOM      2  C   UNL     1      55.710  -3.826  20.739  1.00  0.00     0.208 A 
ATOM      3  C   UNL     1      54.843  -3.983  21.832  1.00  0.00     0.238 A 
ATOM      4  O   UNL     1      54.377  -5.127  22.075  1.00  0.00    -0.285 OA
ATOM      5  C   UNL     1      54.475  -2.857  22.608  1.00  0.00     0.111 A 
ATOM      6  C   UNL     1      53.636  -2.907  23.762  1.00  0.00     0.134 A 
ATOM      7  C   UNL     1      53.234  -1.713  24.374  1.00  0.00     0.093 A 
ATOM      8  C   UNL     1      53.692  -0.479  23.917  1.00  0.00     0.123 A 
ATOM      9  C   UNL     1      54.561  -0.423  22.826  1.00  0.00     0.094 A 
ATOM     10  C   UNL     1      54.952  -1.593  22.172  1.00  0.00     0.146 A 
ATOM     11  O   UNL     1      55.771  -1.495  21.132  1.00  0.00    -0.452 OA
ENDROOT
BRANCH   1  12
ATOM     12  C   UNL     1      57.122  -2.300  19.304  1.00  0.00     0.025 A 
ATOM     13  C   UNL     1      58.502  -2.453  19.511  1.00  0.00     0.016 A 
ATOM     14  C   UNL     1      59.402  -2.252  18.462  1.00  0.00     0.051 A 
ATOM     15  C   UNL     1      58.936  -1.909  17.187  1.00  0.00     0.157 A 
ATOM     16  C   UNL     1      56.656  -1.975  18.017  1.00  0.00     0.062 A 
ATOM     17  C   UNL     1      57.559  -1.774  16.963  1.00  0.00     0.158 A 
BRANCH  15  18
ATOM     18  O   UNL     1      59.830  -1.704  16.138  1.00  0.00    -0.504 OA
ATOM     19  H   UNL     1      59.977  -2.407  15.423  1.00  0.00     0.293 HD
ENDBRANCH  15  18
BRANCH  17  20
ATOM     20  O   UNL     1      57.097  -1.446  15.690  1.00  0.00    -0.504 OA
ATOM     21  H   UNL     1      56.147  -1.127  15.538  1.00  0.00     0.293 HD
ENDBRANCH  17  20
ENDBRANCH   1  12
BRANCH   2  22
ATOM     22  O   UNL     1      56.067  -4.920  19.947  1.00  0.00    -0.502 OA
ATOM     23  H   UNL     1      55.480  -5.262  19.196  1.00  0.00     0.293 HD
ENDBRANCH   2  22
BRANCH   6  24
ATOM     24  O   UNL     1      53.196  -4.092  24.356  1.00  0.00    -0.507 OA
ATOM     25  H   UNL     1      52.264  -4.247  24.707  1.00  0.00     0.293 HD
ENDBRANCH   6  24
BRANCH   8  26
ATOM     26  O   UNL     1      53.284   0.688  24.560  1.00  0.00    -0.508 OA
ATOM     27  H   UNL     1      53.382   1.597  24.124  1.00  0.00     0.293 HD
ENDBRANCH   8  26
TORSDOF 6
ENDMDL
MODEL 3
REMARK VINA RESULT:    -6.165     14.749     17.534
REMARK INTER + INTRA:          -7.737
REMARK INTER:                  -7.419
REMARK INTRA:                  -0.318
REMARK UNBOUND:                -0.310
REMARK SMILES O=c1c(O)c(-c2ccc(O)c(O)c2)oc2cc(O)cc(O)c12
REMARK SMILES IDX 5 1 3 2 2 3 1 4 22 5 20 6 19 7 17 8 16 9 15 10 14 11 6 12
REMARK SMILES IDX 7 13 8 14 9 15 13 16 11 17 10 18 12 20 4 22 21 24 18 26
REMARK H PARENT 10 19 12 21 4 23 21 25 18 27
REMARK Flexibility Score: inf
ROOT
ATOM      1  C   UNL     1      56.353  -2.478  18.899  1.00  0.00     0.180 A 
ATOM      2  C   UNL     1      57.756  -2.458  18.797  1.00  0.00     0.208 A 
ATOM      3  C   UNL     1      58.344  -2.214  17.547  1.00  0.00     0.238 A 
ATOM      4  O   UNL     1      59.599  -2.143  17.472  1.00  0.00    -0.285 OA
ATOM      5  C   UNL     1      57.525  -2.008  16.410  1.00  0.00     0.111 A 
ATOM      6  C   UNL     1      58.014  -1.793  15.087  1.00  0.00     0.134 A 
ATOM      7  C   UNL     1      57.115  -1.472  14.062  1.00  0.00     0.093 A 
ATOM      8  C   UNL     1      55.742  -1.423  14.298  1.00  0.00     0.123 A 
ATOM      9  C   UNL     1      55.248  -1.690  15.575  1.00  0.00     0.094 A 
ATOM     10  C   UNL     1      56.122  -1.979  16.626  1.00  0.00     0.146 A 
ATOM     11  O   UNL     1      55.613  -2.217  17.828  1.00  0.00    -0.452 OA
ENDROOT
BRANCH   1  12
ATOM     12  C   UNL     1      55.660  -2.754  20.178  1.00  0.00     0.025 A 
ATOM     13  C   UNL     1      55.446  -4.084  20.574  1.00  0.00     0.016 A 
ATOM     14  C   UNL     1      54.813  -4.368  21.787  1.00  0.00     0.051 A 
ATOM     15  C   UNL     1      54.399  -3.328  22.628  1.00  0.00     0.157 A 
ATOM     16  C   UNL     1      55.261  -1.713  21.035  1.00  0.00     0.062 A 
ATOM     17  C   UNL     1      54.627  -1.998  22.253  1.00  0.00     0.158 A 
BRANCH  15  18
ATOM     18  O   UNL     1      53.765  -3.607  23.838  1.00  0.00    -0.504 OA
ATOM     19  H   UNL     1      53.567  -4.558  24.125  1.00  0.00     0.293 HD
ENDBRANCH  15  18
BRANCH  17  20
ATOM     20  O   UNL     1      54.227  -0.965  23.099  1.00  0.00    -0.504 OA
ATOM     21  H   UNL     1      53.589  -0.242  22.786  1.00  0.00     0.293 HD
ENDBRANCH  17  20
ENDBRANCH   1  12
BRANCH   2  22
ATOM     22  O   UNL     1      58.545  -2.641  19.936  1.00  0.00    -0.502 OA
ATOM     23  H   UNL     1      58.620  -1.941  20.663  1.00  0.00     0.293 HD
ENDBRANCH   2  22
BRANCH   6  24
ATOM     24  O   UNL     1      59.359  -1.909  14.724  1.00  0.00    -0.507 OA
ATOM     25  H   UNL     1      60.122  -2.018  15.374  1.00  0.00     0.293 HD
ENDBRANCH   6  24
BRANCH   8  26
ATOM     26  O   UNL     1      54.875  -1.115  13.251  1.00  0.00    -0.508 OA
ATOM     27  H   UNL     1      54.468  -0.193  13.153  1.00  0.00     0.293 HD
ENDBRANCH   8  26
TORSDOF 6
ENDMDL
MODEL 4
REMARK VINA RESULT:    -6.107     14.842     17.778
REMARK INTER + INTRA:          -7.666
REMARK INTER:                  -7.343
REMARK INTRA:                  -0.324
REMARK UNBOUND:                -0.310
REMARK SMILES O=c1c(O)c(-c2ccc(O)c(O)c2)oc2cc(O)cc(O)c12
REMARK SMILES IDX 5 1 3 2 2 3 1 4 22 5 20 6 19 7 17 8 16 9 15 10 14 11 6 12
REMARK SMILES IDX 7 13 8 14 9 15 13 16 11 17 10 18 12 20 4 22 21 24 18 26
REMARK H PARENT 10 19 12 21 4 23 21 25 18 27
REMARK Flexibility Score: inf
ROOT
ATOM      1  C   UNL     1      56.365  -2.728  18.910  1.00  0.00     0.180 A 
ATOM      2  C   UNL     1      57.754  -2.864  18.734  1.00  0.00     0.208 A 
ATOM      3  C   UNL     1      58.306  -2.623  17.467  1.00  0.00     0.238 A 
ATOM      4  O   UNL     1      59.555  -2.692  17.329  1.00  0.00    -0.285 OA
ATOM      5  C   UNL     1      57.464  -2.266  16.386  1.00  0.00     0.111 A 
ATOM      6  C   UNL     1      57.911  -2.039  15.050  1.00  0.00     0.134 A 
ATOM      7  C   UNL     1      57.008  -1.564  14.092  1.00  0.00     0.093 A 
ATOM      8  C   UNL     1      55.662  -1.371  14.402  1.00  0.00     0.123 A 
ATOM      9  C   UNL     1      55.202  -1.646  15.690  1.00  0.00     0.094 A 
ATOM     10  C   UNL     1      56.085  -2.087  16.678  1.00  0.00     0.146 A 
ATOM     11  O   UNL     1      55.610  -2.328  17.894  1.00  0.00    -0.452 OA
ENDROOT
BRANCH   1  12
ATOM     12  C   UNL     1      55.706  -2.990  20.210  1.00  0.00     0.025 A 
ATOM     13  C   UNL     1      55.572  -1.945  21.139  1.00  0.00     0.016 A 
ATOM     14  C   UNL     1      54.936  -2.164  22.363  1.00  0.00     0.051 A 
ATOM     15  C   UNL     1      54.410  -3.425  22.670  1.00  0.00     0.157 A 
ATOM     16  C   UNL     1      55.160  -4.250  20.515  1.00  0.00     0.062 A 
ATOM     17  C   UNL     1      54.519  -4.469  21.743  1.00  0.00     0.158 A 
BRANCH  15  18
ATOM     18  O   UNL     1      53.777  -3.649  23.892  1.00  0.00    -0.504 OA
ATOM     19  H   UNL     1      53.673  -2.910  24.577  1.00  0.00     0.293 HD
ENDBRANCH  15  18
BRANCH  17  20
ATOM     20  O   UNL     1      53.983  -5.720  22.046  1.00  0.00    -0.504 OA
ATOM     21  H   UNL     1      52.997  -5.838  22.249  1.00  0.00     0.293 HD
ENDBRANCH  17  20
ENDBRANCH   1  12
BRANCH   2  22
ATOM     22  O   UNL     1      58.570  -3.195  19.820  1.00  0.00    -0.502 OA
ATOM     23  H   UNL     1      58.485  -4.074  20.315  1.00  0.00     0.293 HD
ENDBRANCH   2  22
BRANCH   6  24
ATOM     24  O   UNL     1      59.214  -2.288  14.611  1.00  0.00    -0.507 OA
ATOM     25  H   UNL     1      59.836  -1.589  14.234  1.00  0.00     0.293 HD
ENDBRANCH   6  24
BRANCH   8  26
ATOM     26  O   UNL     1      54.788  -0.912  13.419  1.00  0.00    -0.508 OA
ATOM     27  H   UNL     1      54.149  -0.145  13.593  1.00  0.00     0.293 HD
ENDBRANCH   8  26
TORSDOF 6
ENDMDL
MODEL 5
REMARK VINA RESULT:    -6.044      1.640      6.787
REMARK INTER + INTRA:          -7.591
REMARK INTER:                  -7.557
REMARK INTRA:                  -0.034
REMARK UNBOUND:                -0.310
REMARK SMILES O=c1c(O)c(-c2ccc(O)c(O)c2)oc2cc(O)cc(O)c12
REMARK SMILES IDX 5 1 3 2 2 3 1 4 22 5 20 6 19 7 17 8 16 9 15 10 14 11 6 12
REMARK SMILES IDX 7 13 8 14 9 15 13 16 11 17 10 18 12 20 4 22 21 24 18 26
REMARK H PARENT 10 19 12 21 4 23 21 25 18 27
REMARK Flexibility Score: inf
ROOT
ATOM      1  C   UNL     1      43.245   7.371  16.954  1.00  0.00     0.180 A 
ATOM      2  C   UNL     1      42.658   6.485  16.034  1.00  0.00     0.208 A 
ATOM      3  C   UNL     1      43.161   6.432  14.725  1.00  0.00     0.238 A 
ATOM      4  O   UNL     1      42.668   5.598  13.921  1.00  0.00    -0.285 OA
ATOM      5  C   UNL     1      44.232   7.277  14.346  1.00  0.00     0.111 A 
ATOM      6  C   UNL     1      44.793   7.336  13.035  1.00  0.00     0.134 A 
ATOM      7  C   UNL     1      45.935   8.114  12.808  1.00  0.00     0.093 A 
ATOM      8  C   UNL     1      46.496   8.885  13.825  1.00  0.00     0.123 A 
ATOM      9  C   UNL     1      45.921   8.880  15.095  1.00  0.00     0.094 A 
ATOM     10  C   UNL     1      44.802   8.087  15.363  1.00  0.00     0.146 A 
ATOM     11  O   UNL     1      44.291   8.103  16.588  1.00  0.00    -0.452 OA
ENDROOT
BRANCH   1  12
ATOM     12  C   UNL     1      42.754   7.501  18.345  1.00  0.00     0.025 A 
ATOM     13  C   UNL     1      41.394   7.764  18.576  1.00  0.00     0.016 A 
ATOM     14  C   UNL     1      40.904   7.870  19.880  1.00  0.00     0.051 A 
ATOM     15  C   UNL     1      41.764   7.699  20.973  1.00  0.00     0.157 A 
ATOM     16  C   UNL     1      43.609   7.312  19.446  1.00  0.00     0.062 A 
ATOM     17  C   UNL     1      43.118   7.415  20.755  1.00  0.00     0.158 A 
BRANCH  15  18
ATOM     18  O   UNL     1      41.280   7.807  22.275  1.00  0.00    -0.504 OA
ATOM     19  H   UNL     1      41.887   7.681  23.078  1.00  0.00     0.293 HD
ENDBRANCH  15  18
BRANCH  17  20
ATOM     20  O   UNL     1      43.968   7.233  21.844  1.00  0.00    -0.504 OA
ATOM     21  H   UNL     1      43.952   6.379  22.391  1.00  0.00     0.293 HD
ENDBRANCH  17  20
ENDBRANCH   1  12
BRANCH   2  22
ATOM     22  O   UNL     1      41.617   5.644  16.435  1.00  0.00    -0.502 OA
ATOM     23  H   UNL     1      41.414   4.769  15.967  1.00  0.00     0.293 HD
ENDBRANCH   2  22
BRANCH   6  24
ATOM     24  O   UNL     1      44.256   6.678  11.926  1.00  0.00    -0.507 OA
ATOM     25  H   UNL     1      44.725   6.568  11.040  1.00  0.00     0.293 HD
ENDBRANCH   6  24
BRANCH   8  26
ATOM     26  O   UNL     1      47.624   9.659  13.559  1.00  0.00    -0.508 OA
ATOM     27  H   UNL     1      48.255   9.435  12.799  1.00  0.00     0.293 HD
ENDBRANCH   8  26
TORSDOF 6
ENDMDL
MODEL 6
REMARK VINA RESULT:    -5.768      1.553      7.012
REMARK INTER + INTRA:          -7.259
REMARK INTER:                  -7.011
REMARK INTRA:                  -0.247
REMARK UNBOUND:                -0.310
REMARK SMILES O=c1c(O)c(-c2ccc(O)c(O)c2)oc2cc(O)cc(O)c12
REMARK SMILES IDX 5 1 3 2 2 3 1 4 22 5 20 6 19 7 17 8 16 9 15 10 14 11 6 12
REMARK SMILES IDX 7 13 8 14 9 15 13 16 11 17 10 18 12 20 4 22 21 24 18 26
REMARK H PARENT 10 19 12 21 4 23 21 25 18 27
REMARK Flexibility Score: inf
ROOT
ATOM      1  C   UNL     1      43.795   7.662  16.124  1.00  0.00     0.180 A 
ATOM      2  C   UNL     1      44.640   8.747  15.832  1.00  0.00     0.208 A 
ATOM      3  C   UNL     1      45.586   8.615  14.804  1.00  0.00     0.238 A 
ATOM      4  O   UNL     1      46.303   9.608  14.510  1.00  0.00    -0.285 OA
ATOM      5  C   UNL     1      45.688   7.396  14.091  1.00  0.00     0.111 A 
ATOM      6  C   UNL     1      46.638   7.138  13.057  1.00  0.00     0.134 A 
ATOM      7  C   UNL     1      46.561   5.942  12.333  1.00  0.00     0.093 A 
ATOM      8  C   UNL     1      45.613   4.969  12.646  1.00  0.00     0.123 A 
ATOM      9  C   UNL     1      44.718   5.186  13.693  1.00  0.00     0.094 A 
ATOM     10  C   UNL     1      44.745   6.383  14.412  1.00  0.00     0.146 A 
ATOM     11  O   UNL     1      43.869   6.555  15.394  1.00  0.00    -0.452 OA
ENDROOT
BRANCH   1  12
ATOM     12  C   UNL     1      42.790   7.717  17.210  1.00  0.00     0.025 A 
ATOM     13  C   UNL     1      41.423   7.715  16.887  1.00  0.00     0.016 A 
ATOM     14  C   UNL     1      40.457   7.745  17.896  1.00  0.00     0.051 A 
ATOM     15  C   UNL     1      40.843   7.762  19.242  1.00  0.00     0.157 A 
ATOM     16  C   UNL     1      43.172   7.714  18.564  1.00  0.00     0.062 A 
ATOM     17  C   UNL     1      42.203   7.742  19.577  1.00  0.00     0.158 A 
BRANCH  15  18
ATOM     18  O   UNL     1      39.883   7.794  20.252  1.00  0.00    -0.504 OA
ATOM     19  H   UNL     1      39.627   8.660  20.712  1.00  0.00     0.293 HD
ENDBRANCH  15  18
BRANCH  17  20
ATOM     20  O   UNL     1      42.584   7.745  20.917  1.00  0.00    -0.504 OA
ATOM     21  H   UNL     1      41.898   7.704  21.663  1.00  0.00     0.293 HD
ENDBRANCH  17  20
ENDBRANCH   1  12
BRANCH   2  22
ATOM     22  O   UNL     1      44.508   9.949  16.532  1.00  0.00    -0.502 OA
ATOM     23  H   UNL     1      43.932  10.712  16.199  1.00  0.00     0.293 HD
ENDBRANCH   2  22
BRANCH   6  24
ATOM     24  O   UNL     1      47.683   8.003  12.725  1.00  0.00    -0.507 OA
ATOM     25  H   UNL     1      48.641   7.720  12.585  1.00  0.00     0.293 HD
ENDBRANCH   6  24
BRANCH   8  26
ATOM     26  O   UNL     1      45.576   3.784  11.913  1.00  0.00    -0.508 OA
ATOM     27  H   UNL     1      44.819   3.581  11.271  1.00  0.00     0.293 HD
ENDBRANCH   8  26
TORSDOF 6
ENDMDL
MODEL 7
REMARK VINA RESULT:    -5.753     13.677     15.754
REMARK INTER + INTRA:          -7.241
REMARK INTER:                  -6.941
REMARK INTRA:                  -0.300
REMARK UNBOUND:                -0.310
REMARK SMILES O=c1c(O)c(-c2ccc(O)c(O)c2)oc2cc(O)cc(O)c12
REMARK SMILES IDX 5 1 3 2 2 3 1 4 22 5 20 6 19 7 17 8 16 9 15 10 14 11 6 12
REMARK SMILES IDX 7 13 8 14 9 15 13 16 11 17 10 18 12 20 4 22 21 24 18 26
REMARK H PARENT 10 19 12 21 4 23 21 25 18 27
REMARK Flexibility Score: inf
ROOT
ATOM      1  C   UNL     1      51.637  -4.803  16.518  1.00  0.00     0.180 A 
ATOM      2  C   UNL     1      52.795  -4.650  15.735  1.00  0.00     0.208 A 
ATOM      3  C   UNL     1      54.050  -4.684  16.362  1.00  0.00     0.238 A 
ATOM      4  O   UNL     1      55.084  -4.601  15.649  1.00  0.00    -0.285 OA
ATOM      5  C   UNL     1      54.133  -4.852  17.765  1.00  0.00     0.111 A 
ATOM      6  C   UNL     1      55.350  -4.860  18.511  1.00  0.00     0.134 A 
ATOM      7  C   UNL     1      55.321  -5.164  19.877  1.00  0.00     0.093 A 
ATOM      8  C   UNL     1      54.115  -5.397  20.538  1.00  0.00     0.123 A 
ATOM      9  C   UNL     1      52.914  -5.333  19.831  1.00  0.00     0.094 A 
ATOM     10  C   UNL     1      52.913  -5.067  18.460  1.00  0.00     0.146 A 
ATOM     11  O   UNL     1      51.750  -5.025  17.822  1.00  0.00    -0.452 OA
ENDROOT
BRANCH   1  12
ATOM     12  C   UNL     1      50.278  -4.754  15.932  1.00  0.00     0.025 A 
ATOM     13  C   UNL     1      49.558  -5.947  15.757  1.00  0.00     0.016 A 
ATOM     14  C   UNL     1      48.266  -5.923  15.225  1.00  0.00     0.051 A 
ATOM     15  C   UNL     1      47.670  -4.705  14.875  1.00  0.00     0.157 A 
ATOM     16  C   UNL     1      49.667  -3.532  15.597  1.00  0.00     0.062 A 
ATOM     17  C   UNL     1      48.370  -3.507  15.066  1.00  0.00     0.158 A 
BRANCH  15  18
ATOM     18  O   UNL     1      46.382  -4.676  14.342  1.00  0.00    -0.504 OA
ATOM     19  H   UNL     1      46.217  -4.449  13.368  1.00  0.00     0.293 HD
ENDBRANCH  15  18
BRANCH  17  20
ATOM     20  O   UNL     1      47.768  -2.295  14.729  1.00  0.00    -0.504 OA
ATOM     21  H   UNL     1      48.262  -1.415  14.823  1.00  0.00     0.293 HD
ENDBRANCH  17  20
ENDBRANCH   1  12
BRANCH   2  22
ATOM     22  O   UNL     1      52.692  -4.507  14.348  1.00  0.00    -0.502 OA
ATOM     23  H   UNL     1      52.501  -5.289  13.734  1.00  0.00     0.293 HD
ENDBRANCH   2  22
BRANCH   6  24
ATOM     24  O   UNL     1      56.600  -4.551  17.967  1.00  0.00    -0.507 OA
ATOM     25  H   UNL     1      57.226  -3.849  18.330  1.00  0.00     0.293 HD
ENDBRANCH   6  24
BRANCH   8  26
ATOM     26  O   UNL     1      54.122  -5.682  21.902  1.00  0.00    -0.508 OA
ATOM     27  H   UNL     1      53.367  -5.388  22.509  1.00  0.00     0.293 HD
ENDBRANCH   8  26
TORSDOF 6
ENDMDL
MODEL 8
REMARK VINA RESULT:    -5.753     14.780     16.364
REMARK INTER + INTRA:          -7.241
REMARK INTER:                  -6.969
REMARK INTRA:                  -0.272
REMARK UNBOUND:                -0.310
REMARK SMILES O=c1c(O)c(-c2ccc(O)c(O)c2)oc2cc(O)cc(O)c12
REMARK SMILES IDX 5 1 3 2 2 3 1 4 22 5 20 6 19 7 17 8 16 9 15 10 14 11 6 12
REMARK SMILES IDX 7 13 8 14 9 15 13 16 11 17 10 18 12 20 4 22 21 24 18 26
REMARK H PARENT 10 19 12 21 4 23 21 25 18 27
REMARK Flexibility Score: inf
ROOT
ATOM      1  C   UNL     1      52.952  -4.690  17.916  1.00  0.00     0.180 A 
ATOM      2  C   UNL     1      53.812  -4.747  16.805  1.00  0.00     0.208 A 
ATOM      3  C   UNL     1      53.285  -5.104  15.554  1.00  0.00     0.238 A 
ATOM      4  O   UNL     1      54.049  -5.101  14.553  1.00  0.00    -0.285 OA
ATOM      5  C   UNL     1      51.910  -5.416  15.430  1.00  0.00     0.111 A 
ATOM      6  C   UNL     1      51.277  -5.830  14.220  1.00  0.00     0.134 A 
ATOM      7  C   UNL     1      49.886  -5.986  14.186  1.00  0.00     0.093 A 
ATOM      8  C   UNL     1      49.113  -5.808  15.332  1.00  0.00     0.123 A 
ATOM      9  C   UNL     1      49.728  -5.461  16.536  1.00  0.00     0.094 A 
ATOM     10  C   UNL     1      51.110  -5.263  16.594  1.00  0.00     0.146 A 
ATOM     11  O   UNL     1      51.654  -4.924  17.756  1.00  0.00    -0.452 OA
ENDROOT
BRANCH   1  12
ATOM     12  C   UNL     1      53.438  -4.346  19.271  1.00  0.00     0.025 A 
ATOM     13  C   UNL     1      53.657  -5.370  20.207  1.00  0.00     0.016 A 
ATOM     14  C   UNL     1      54.136  -5.071  21.485  1.00  0.00     0.051 A 
ATOM     15  C   UNL     1      54.417  -3.746  21.841  1.00  0.00     0.157 A 
ATOM     16  C   UNL     1      53.741  -3.020  19.627  1.00  0.00     0.062 A 
ATOM     17  C   UNL     1      54.223  -2.719  20.909  1.00  0.00     0.158 A 
BRANCH  15  18
ATOM     18  O   UNL     1      54.892  -3.443  23.116  1.00  0.00    -0.504 OA
ATOM     19  H   UNL     1      55.752  -3.846  23.470  1.00  0.00     0.293 HD
ENDBRANCH  15  18
BRANCH  17  20
ATOM     20  O   UNL     1      54.517  -1.403  21.262  1.00  0.00    -0.504 OA
ATOM     21  H   UNL     1      54.037  -0.940  22.025  1.00  0.00     0.293 HD
ENDBRANCH  17  20
ENDBRANCH   1  12
BRANCH   2  22
ATOM     22  O   UNL     1      55.162  -4.414  16.944  1.00  0.00    -0.502 OA
ATOM     23  H   UNL     1      55.468  -3.486  17.208  1.00  0.00     0.293 HD
ENDBRANCH   2  22
BRANCH   6  24
ATOM     24  O   UNL     1      51.967  -6.124  13.041  1.00  0.00    -0.507 OA
ATOM     25  H   UNL     1      51.569  -6.078  12.116  1.00  0.00     0.293 HD
ENDBRANCH   6  24
BRANCH   8  26
ATOM     26  O   UNL     1      47.733  -5.986  15.266  1.00  0.00    -0.508 OA
ATOM     27  H   UNL     1      47.300  -6.502  14.509  1.00  0.00     0.293 HD
ENDBRANCH   8  26
TORSDOF 6
ENDMDL
MODEL 9
REMARK VINA RESULT:    -5.644     13.754     15.777
REMARK INTER + INTRA:          -7.109
REMARK INTER:                  -6.828
REMARK INTRA:                  -0.281
REMARK UNBOUND:                -0.310
REMARK SMILES O=c1c(O)c(-c2ccc(O)c(O)c2)oc2cc(O)cc(O)c12
REMARK SMILES IDX 5 1 3 2 2 3 1 4 22 5 20 6 19 7 17 8 16 9 15 10 14 11 6 12
REMARK SMILES IDX 7 13 8 14 9 15 13 16 11 17 10 18 12 20 4 22 21 24 18 26
REMARK H PARENT 10 19 12 21 4 23 21 25 18 27
REMARK Flexibility Score: inf
ROOT
ATOM      1  C   UNL     1      52.761  -4.656  17.256  1.00  0.00     0.180 A 
ATOM      2  C   UNL     1      51.646  -5.212  17.907  1.00  0.00     0.208 A 
ATOM      3  C   UNL     1      50.421  -5.274  17.224  1.00  0.00     0.238 A 
ATOM      4  O   UNL     1      49.440  -5.823  17.792  1.00  0.00    -0.285 OA
ATOM      5  C   UNL     1      50.321  -4.765  15.907  1.00  0.00     0.111 A 
ATOM      6  C   UNL     1      49.119  -4.739  15.137  1.00  0.00     0.134 A 
ATOM      7  C   UNL     1      49.166  -4.331  13.799  1.00  0.00     0.093 A 
ATOM      8  C   UNL     1      50.355  -3.887  13.222  1.00  0.00     0.123 A 
ATOM      9  C   UNL     1      51.524  -3.852  13.983  1.00  0.00     0.094 A 
ATOM     10  C   UNL     1      51.517  -4.286  15.311  1.00  0.00     0.146 A 
ATOM     11  O   UNL     1      52.652  -4.247  15.997  1.00  0.00    -0.452 OA
ENDROOT
BRANCH   1  12
ATOM     12  C   UNL     1      54.080  -4.533  17.919  1.00  0.00     0.025 A 
ATOM     13  C   UNL     1      54.919  -5.656  18.000  1.00  0.00     0.016 A 
ATOM     14  C   UNL     1      56.176  -5.558  18.602  1.00  0.00     0.051 A 
ATOM     15  C   UNL     1      56.618  -4.334  19.119  1.00  0.00     0.157 A 
ATOM     16  C   UNL     1      54.536  -3.301  18.421  1.00  0.00     0.062 A 
ATOM     17  C   UNL     1      55.798  -3.202  19.024  1.00  0.00     0.158 A 
BRANCH  15  18
ATOM     18  O   UNL     1      57.870  -4.232  19.723  1.00  0.00    -0.504 OA
ATOM     19  H   UNL     1      58.142  -4.844  20.483  1.00  0.00     0.293 HD
ENDBRANCH  15  18
BRANCH  17  20
ATOM     20  O   UNL     1      56.246  -1.982  19.527  1.00  0.00    -0.504 OA
ATOM     21  H   UNL     1      56.956  -1.440  19.047  1.00  0.00     0.293 HD
ENDBRANCH  17  20
ENDBRANCH   1  12
BRANCH   2  22
ATOM     22  O   UNL     1      51.772  -5.730  19.199  1.00  0.00    -0.502 OA
ATOM     23  H   UNL     1      51.053  -6.298  19.629  1.00  0.00     0.293 HD
ENDBRANCH   2  22
BRANCH   6  24
ATOM     24  O   UNL     1      47.861  -5.075  15.644  1.00  0.00    -0.507 OA
ATOM     25  H   UNL     1      47.699  -5.732  16.392  1.00  0.00     0.293 HD
ENDBRANCH   6  24
BRANCH   8  26
ATOM     26  O   UNL     1      50.362  -3.474  11.891  1.00  0.00    -0.508 OA
ATOM     27  H   UNL     1      50.302  -4.138  11.129  1.00  0.00     0.293 HD
ENDBRANCH   8  26
TORSDOF 6
ENDMDL
