MODEL 1
REMARK VINA RESULT:    -2.438      0.000      0.000
REMARK INTER + INTRA:          -2.438
REMARK INTER:                  -2.438
REMARK INTRA:                   0.000
REMARK UNBOUND:                 0.000
REMARK SMILES CC(=O)[O-]
REMARK SMILES IDX 1 1 2 2 3 3 4 4
REMARK H PARENT
REMARK Flexibility Score: inf
ROOT
ATOM      1  C   UNL     1      23.918   3.129  11.440  1.00  0.00     0.063 C 
ATOM      2  C   UNL     1      23.005   2.708  10.339  1.00  0.00     0.038 C 
ATOM      3  O   UNL     1      23.358   1.804   9.536  1.00  0.00    -0.550 OA
ATOM      4  O   UNL     1      21.741   3.272  10.227  1.00  0.00    -0.550 OA
ENDROOT
TORSDOF 0
ENDMDL
MODEL 2
REMARK VINA RESULT:    -2.346     14.327     14.554
REMARK INTER + INTRA:          -2.346
REMARK INTER:                  -2.346
REMARK INTRA:                   0.000
REMARK UNBOUND:                 0.000
REMARK SMILES CC(=O)[O-]
REMARK SMILES IDX 1 1 2 2 3 3 4 4
REMARK H PARENT
REMARK Flexibility Score: inf
ROOT
ATOM      1  C   UNL     1      22.006  -3.847  24.136  1.00  0.00     0.063 C 
ATOM      2  C   UNL     1      22.816  -4.332  22.982  1.00  0.00     0.038 C 
ATOM      3  O   UNL     1      22.250  -4.866  21.992  1.00  0.00    -0.550 OA
ATOM      4  O   UNL     1      24.193  -4.147  22.970  1.00  0.00    -0.550 OA
ENDROOT
TORSDOF 0
ENDMDL
MODEL 3
REMARK VINA RESULT:    -2.337     14.532     14.735
REMARK INTER + INTRA:          -2.337
REMARK INTER:                  -2.337
REMARK INTRA:                   0.000
REMARK UNBOUND:                 0.000
REMARK SMILES CC(=O)[O-]
REMARK SMILES IDX 1 1 2 2 3 3 4 4
REMARK H PARENT
REMARK Flexibility Score: inf
ROOT
ATOM      1  C   UNL     1      21.811  -3.684  24.429  1.00  0.00     0.063 C 
ATOM      2  C   UNL     1      22.738  -4.079  23.330  1.00  0.00     0.038 C 
ATOM      3  O   UNL     1      23.963  -3.797  23.404  1.00  0.00    -0.550 OA
ATOM      4  O   UNL     1      22.264  -4.807  22.246  1.00  0.00    -0.550 OA
ENDROOT
TORSDOF 0
ENDMDL
MODEL 4
REMARK VINA RESULT:    -2.328      1.771      2.607
REMARK INTER + INTRA:          -2.328
REMARK INTER:                  -2.328
REMARK INTRA:                   0.000
REMARK UNBOUND:                 0.000
REMARK SMILES CC(=O)[O-]
REMARK SMILES IDX 1 1 2 2 3 3 4 4
REMARK H PARENT
REMARK Flexibility Score: inf
ROOT
ATOM      1  C   UNL     1      23.034   2.622   9.926  1.00  0.00     0.063 C 
ATOM      2  C   UNL     1      23.662   3.076  11.200  1.00  0.00     0.038 C 
ATOM      3  O   UNL     1      23.045   3.864  11.963  1.00  0.00    -0.550 OA
ATOM      4  O   UNL     1      24.908   2.589  11.576  1.00  0.00    -0.550 OA
ENDROOT
TORSDOF 0
ENDMDL
MODEL 5
REMARK VINA RESULT:    -2.308     14.326     14.496
REMARK INTER + INTRA:          -2.308
REMARK INTER:                  -2.308
REMARK INTRA:                   0.000
REMARK UNBOUND:                 0.000
REMARK SMILES CC(=O)[O-]
REMARK SMILES IDX 1 1 2 2 3 3 4 4
REMARK H PARENT
REMARK Flexibility Score: inf
ROOT
ATOM      1  C   UNL     1      24.426  -4.237  22.861  1.00  0.00     0.063 C 
ATOM      2  C   UNL     1      22.942  -4.294  22.990  1.00  0.00     0.038 C 
ATOM      3  O   UNL     1      22.248  -4.820  22.080  1.00  0.00    -0.550 OA
ATOM      4  O   UNL     1      22.323  -3.817  24.138  1.00  0.00    -0.550 OA
ENDROOT
TORSDOF 0
ENDMDL
MODEL 6
REMARK VINA RESULT:    -2.281     14.469     14.510
REMARK INTER + INTRA:          -2.281
REMARK INTER:                  -2.281
REMARK INTRA:                   0.000
REMARK UNBOUND:                 0.000
REMARK SMILES CC(=O)[O-]
REMARK SMILES IDX 1 1 2 2 3 3 4 4
REMARK H PARENT
REMARK Flexibility Score: inf
ROOT
ATOM      1  C   UNL     1      24.874   0.155  24.547  1.00  0.00     0.063 C 
ATOM      2  C   UNL     1      25.938   1.194  24.440  1.00  0.00     0.038 C 
ATOM      3  O   UNL     1      27.123   0.861  24.177  1.00  0.00    -0.550 OA
ATOM      4  O   UNL     1      25.615   2.538  24.576  1.00  0.00    -0.550 OA
ENDROOT
TORSDOF 0
ENDMDL
MODEL 7
REMARK VINA RESULT:    -2.229      2.900      3.439
REMARK INTER + INTRA:          -2.229
REMARK INTER:                  -2.229
REMARK INTRA:                   0.000
REMARK UNBOUND:                 0.000
REMARK SMILES CC(=O)[O-]
REMARK SMILES IDX 1 1 2 2 3 3 4 4
REMARK H PARENT
REMARK Flexibility Score: inf
ROOT
ATOM      1  C   UNL     1      24.352   2.973  11.595  1.00  0.00     0.063 C 
ATOM      2  C   UNL     1      25.621   2.198  11.701  1.00  0.00     0.038 C 
ATOM      3  O   UNL     1      25.927   1.361  10.812  1.00  0.00    -0.550 OA
ATOM      4  O   UNL     1      26.498   2.437  12.752  1.00  0.00    -0.550 OA
ENDROOT
TORSDOF 0
ENDMDL
MODEL 8
REMARK VINA RESULT:    -2.228     15.200     15.429
REMARK INTER + INTRA:          -2.228
REMARK INTER:                  -2.228
REMARK INTRA:                   0.000
REMARK UNBOUND:                 0.000
REMARK SMILES CC(=O)[O-]
REMARK SMILES IDX 1 1 2 2 3 3 4 4
REMARK H PARENT
REMARK Flexibility Score: inf
ROOT
ATOM      1  C   UNL     1      22.435  -4.316  23.039  1.00  0.00     0.063 C 
ATOM      2  C   UNL     1      22.023  -3.624  24.294  1.00  0.00     0.038 C 
ATOM      3  O   UNL     1      20.966  -3.967  24.886  1.00  0.00    -0.550 OA
ATOM      4  O   UNL     1      22.830  -2.636  24.842  1.00  0.00    -0.550 OA
ENDROOT
TORSDOF 0
ENDMDL
MODEL 9
REMARK VINA RESULT:    -2.205     14.554     14.733
REMARK INTER + INTRA:          -2.205
REMARK INTER:                  -2.205
REMARK INTRA:                   0.000
REMARK UNBOUND:                 0.000
REMARK SMILES CC(=O)[O-]
REMARK SMILES IDX 1 1 2 2 3 3 4 4
REMARK H PARENT
REMARK Flexibility Score: inf
ROOT
ATOM      1  C   UNL     1      22.414  -4.655  22.208  1.00  0.00     0.063 C 
ATOM      2  C   UNL     1      22.988  -3.971  23.402  1.00  0.00     0.038 C 
ATOM      3  O   UNL     1      24.205  -3.646  23.420  1.00  0.00    -0.550 OA
ATOM      4  O   UNL     1      22.172  -3.641  24.476  1.00  0.00    -0.550 OA
ENDROOT
TORSDOF 0
ENDMDL
