MODEL 1
REMARK VINA RESULT:    -4.990      0.000      0.000
REMARK INTER + INTRA:          -7.969
REMARK INTER:                  -7.324
REMARK INTRA:                  -0.645
REMARK UNBOUND:                -0.645
REMARK SMILES O=C([O-])CCCCCCCC(=O)[O-]
REMARK SMILES IDX 7 1 6 2 5 3 4 4 2 5 1 6 3 7 8 8 9 9 10 10 11 11 12 12 13 13
REMARK H PARENT
REMARK Flexibility Score: inf
ROOT
ATOM      1  C   UNL     1      12.507  23.747  -0.529  1.00  0.00     0.000 C 
ENDROOT
BRANCH   1   2
ATOM      2  C   UNL     1      11.674  22.500  -0.862  1.00  0.00     0.000 C 
BRANCH   2   3
ATOM      3  C   UNL     1      12.538  21.246  -1.073  1.00  0.00     0.006 C 
BRANCH   3   4
ATOM      4  C   UNL     1      11.955  20.359  -2.176  1.00  0.00     0.053 C 
BRANCH   4   5
ATOM      5  C   UNL     1      12.866  20.329  -3.362  1.00  0.00     0.041 C 
ATOM      6  O   UNL     1      13.288  19.230  -3.809  1.00  0.00    -0.550 OA
ATOM      7  O   UNL     1      13.293  21.517  -3.942  1.00  0.00    -0.550 OA
ENDBRANCH   4   5
ENDBRANCH   3   4
ENDBRANCH   2   3
ENDBRANCH   1   2
BRANCH   1   8
ATOM      8  C   UNL     1      13.284  24.281  -1.744  1.00  0.00     0.000 C 
BRANCH   8   9
ATOM      9  C   UNL     1      14.803  24.311  -1.507  1.00  0.00     0.006 C 
BRANCH   9  10
ATOM     10  C   UNL     1      15.207  23.660  -0.177  1.00  0.00     0.053 C 
BRANCH  10  11
ATOM     11  C   UNL     1      15.929  22.374  -0.424  1.00  0.00     0.041 C 
ATOM     12  O   UNL     1      16.703  21.904   0.450  1.00  0.00    -0.550 OA
ATOM     13  O   UNL     1      15.785  21.718  -1.640  1.00  0.00    -0.550 OA
ENDBRANCH  10  11
ENDBRANCH   9  10
ENDBRANCH   8   9
ENDBRANCH   1   8
TORSDOF 8
ENDMDL
MODEL 2
REMARK VINA RESULT:    -4.966      0.083      4.263
REMARK INTER + INTRA:          -7.934
REMARK INTER:                  -7.325
REMARK INTRA:                  -0.608
REMARK UNBOUND:                -0.645
REMARK SMILES O=C([O-])CCCCCCCC(=O)[O-]
REMARK SMILES IDX 7 1 6 2 5 3 4 4 2 5 1 6 3 7 8 8 9 9 10 10 11 11 12 12 13 13
REMARK H PARENT
REMARK Flexibility Score: inf
ROOT
ATOM      1  C   UNL     1      12.528  23.718  -0.563  1.00  0.00     0.000 C 
ENDROOT
BRANCH   1   2
ATOM      2  C   UNL     1      13.314  24.197  -1.793  1.00  0.00     0.000 C 
BRANCH   2   3
ATOM      3  C   UNL     1      14.818  24.349  -1.516  1.00  0.00     0.006 C 
BRANCH   3   4
ATOM      4  C   UNL     1      15.202  23.673  -0.197  1.00  0.00     0.053 C 
BRANCH   4   5
ATOM      5  C   UNL     1      15.910  22.380  -0.457  1.00  0.00     0.041 C 
ATOM      6  O   UNL     1      16.669  21.887   0.419  1.00  0.00    -0.550 OA
ATOM      7  O   UNL     1      15.775  21.747  -1.686  1.00  0.00    -0.550 OA
ENDBRANCH   4   5
ENDBRANCH   3   4
ENDBRANCH   2   3
ENDBRANCH   1   2
BRANCH   1   8
ATOM      8  C   UNL     1      11.684  22.464  -0.851  1.00  0.00     0.000 C 
BRANCH   8   9
ATOM      9  C   UNL     1      12.548  21.215  -1.094  1.00  0.00     0.006 C 
BRANCH   9  10
ATOM     10  C   UNL     1      11.975  20.302  -2.186  1.00  0.00     0.053 C 
BRANCH  10  11
ATOM     11  C   UNL     1      12.863  20.308  -3.390  1.00  0.00     0.041 C 
ATOM     12  O   UNL     1      13.206  21.399  -3.918  1.00  0.00    -0.550 OA
ATOM     13  O   UNL     1      13.274  19.109  -3.958  1.00  0.00    -0.550 OA
ENDBRANCH  10  11
ENDBRANCH   9  10
ENDBRANCH   8   9
ENDBRANCH   1   8
TORSDOF 8
ENDMDL
MODEL 3
REMARK VINA RESULT:    -4.833      0.884      4.498
REMARK INTER + INTRA:          -7.738
REMARK INTER:                  -7.067
REMARK INTRA:                  -0.671
REMARK UNBOUND:                -0.645
REMARK SMILES O=C([O-])CCCCCCCC(=O)[O-]
REMARK SMILES IDX 7 1 6 2 5 3 4 4 2 5 1 6 3 7 8 8 9 9 10 10 11 11 12 12 13 13
REMARK H PARENT
REMARK Flexibility Score: inf
ROOT
ATOM      1  C   UNL     1      12.554  23.691  -0.402  1.00  0.00     0.000 C 
ENDROOT
BRANCH   1   2
ATOM      2  C   UNL     1      13.287  24.441  -1.526  1.00  0.00     0.000 C 
BRANCH   2   3
ATOM      3  C   UNL     1      14.814  24.285  -1.449  1.00  0.00     0.006 C 
BRANCH   3   4
ATOM      4  C   UNL     1      15.227  23.590  -0.149  1.00  0.00     0.053 C 
BRANCH   4   5
ATOM      5  C   UNL     1      15.977  22.329  -0.443  1.00  0.00     0.041 C 
ATOM      6  O   UNL     1      15.849  21.763  -1.561  1.00  0.00    -0.550 OA
ATOM      7  O   UNL     1      16.776  21.750   0.534  1.00  0.00    -0.550 OA
ENDBRANCH   4   5
ENDBRANCH   3   4
ENDBRANCH   2   3
ENDBRANCH   1   2
BRANCH   1   8
ATOM      8  C   UNL     1      11.666  22.552  -0.933  1.00  0.00     0.000 C 
BRANCH   8   9
ATOM      9  C   UNL     1      12.451  21.251  -1.163  1.00  0.00     0.006 C 
BRANCH   9  10
ATOM     10  C   UNL     1      12.738  20.987  -2.648  1.00  0.00     0.053 C 
BRANCH  10  11
ATOM     11  C   UNL     1      12.089  19.712  -3.086  1.00  0.00     0.041 C 
ATOM     12  O   UNL     1      12.730  18.882  -3.781  1.00  0.00    -0.550 OA
ATOM     13  O   UNL     1      10.760  19.462  -2.766  1.00  0.00    -0.550 OA
ENDBRANCH  10  11
ENDBRANCH   9  10
ENDBRANCH   8   9
ENDBRANCH   1   8
TORSDOF 8
ENDMDL
MODEL 4
REMARK VINA RESULT:    -4.429      1.250      4.339
REMARK INTER + INTRA:          -7.146
REMARK INTER:                  -6.818
REMARK INTRA:                  -0.327
REMARK UNBOUND:                -0.645
REMARK SMILES O=C([O-])CCCCCCCC(=O)[O-]
REMARK SMILES IDX 7 1 6 2 5 3 4 4 2 5 1 6 3 7 8 8 9 9 10 10 11 11 12 12 13 13
REMARK H PARENT
REMARK Flexibility Score: inf
ROOT
ATOM      1  C   UNL     1      11.756  21.910  -1.148  1.00  0.00     0.000 C 
ENDROOT
BRANCH   1   2
ATOM      2  C   UNL     1      12.675  22.790  -0.286  1.00  0.00     0.000 C 
BRANCH   2   3
ATOM      3  C   UNL     1      13.671  21.970   0.549  1.00  0.00     0.006 C 
BRANCH   3   4
ATOM      4  C   UNL     1      15.095  22.509   0.386  1.00  0.00     0.053 C 
BRANCH   4   5
ATOM      5  C   UNL     1      15.421  22.701  -1.061  1.00  0.00     0.041 C 
ATOM      6  O   UNL     1      15.697  21.709  -1.786  1.00  0.00    -0.550 OA
ATOM      7  O   UNL     1      15.472  23.981  -1.599  1.00  0.00    -0.550 OA
ENDBRANCH   4   5
ENDBRANCH   3   4
ENDBRANCH   2   3
ENDBRANCH   1   2
BRANCH   1   8
ATOM      8  C   UNL     1      12.306  20.484  -1.332  1.00  0.00     0.000 C 
BRANCH   8   9
ATOM      9  C   UNL     1      11.394  19.609  -2.207  1.00  0.00     0.006 C 
BRANCH   9  10
ATOM     10  C   UNL     1      11.572  19.882  -3.707  1.00  0.00     0.053 C 
BRANCH  10  11
ATOM     11  C   UNL     1      13.002  20.200  -4.012  1.00  0.00     0.041 C 
ATOM     12  O   UNL     1      13.847  19.273  -4.123  1.00  0.00    -0.550 OA
ATOM     13  O   UNL     1      13.412  21.522  -4.125  1.00  0.00    -0.550 OA
ENDBRANCH  10  11
ENDBRANCH   9  10
ENDBRANCH   8   9
ENDBRANCH   1   8
TORSDOF 8
ENDMDL
MODEL 5
REMARK VINA RESULT:    -4.416      1.954      4.455
REMARK INTER + INTRA:          -7.125
REMARK INTER:                  -6.571
REMARK INTRA:                  -0.554
REMARK UNBOUND:                -0.645
REMARK SMILES O=C([O-])CCCCCCCC(=O)[O-]
REMARK SMILES IDX 7 1 6 2 5 3 4 4 2 5 1 6 3 7 8 8 9 9 10 10 11 11 12 12 13 13
REMARK H PARENT
REMARK Flexibility Score: inf
ROOT
ATOM      1  C   UNL     1      13.903  21.924   0.487  1.00  0.00     0.000 C 
ENDROOT
BRANCH   1   2
ATOM      2  C   UNL     1      15.336  22.135  -0.028  1.00  0.00     0.000 C 
BRANCH   2   3
ATOM      3  C   UNL     1      15.377  22.672  -1.467  1.00  0.00     0.006 C 
BRANCH   3   4
ATOM      4  C   UNL     1      15.136  24.183  -1.495  1.00  0.00     0.053 C 
BRANCH   4   5
ATOM      5  C   UNL     1      13.845  24.496  -2.185  1.00  0.00     0.041 C 
ATOM      6  O   UNL     1      13.844  24.871  -3.387  1.00  0.00    -0.550 OA
ATOM      7  O   UNL     1      12.647  24.425  -1.485  1.00  0.00    -0.550 OA
ENDBRANCH   4   5
ENDBRANCH   3   4
ENDBRANCH   2   3
ENDBRANCH   1   2
BRANCH   1   8
ATOM      8  C   UNL     1      13.227  20.690  -0.135  1.00  0.00     0.000 C 
BRANCH   8   9
ATOM      9  C   UNL     1      12.265  21.057  -1.277  1.00  0.00     0.006 C 
BRANCH   9  10
ATOM     10  C   UNL     1      12.079  19.914  -2.285  1.00  0.00     0.053 C 
BRANCH  10  11
ATOM     11  C   UNL     1      12.936  20.140  -3.491  1.00  0.00     0.041 C 
ATOM     12  O   UNL     1      13.407  19.160  -4.125  1.00  0.00    -0.550 OA
ATOM     13  O   UNL     1      13.252  21.433  -3.888  1.00  0.00    -0.550 OA
ENDBRANCH  10  11
ENDBRANCH   9  10
ENDBRANCH   8   9
ENDBRANCH   1   8
TORSDOF 8
ENDMDL
MODEL 6
REMARK VINA RESULT:    -4.317      2.140      2.776
REMARK INTER + INTRA:          -6.980
REMARK INTER:                  -6.573
REMARK INTRA:                  -0.407
REMARK UNBOUND:                -0.645
REMARK SMILES O=C([O-])CCCCCCCC(=O)[O-]
REMARK SMILES IDX 7 1 6 2 5 3 4 4 2 5 1 6 3 7 8 8 9 9 10 10 11 11 12 12 13 13
REMARK H PARENT
REMARK Flexibility Score: inf
ROOT
ATOM      1  C   UNL     1      13.753  21.948   0.482  1.00  0.00     0.000 C 
ENDROOT
BRANCH   1   2
ATOM      2  C   UNL     1      13.328  20.727  -0.349  1.00  0.00     0.000 C 
BRANCH   2   3
ATOM      3  C   UNL     1      12.345  21.086  -1.475  1.00  0.00     0.006 C 
BRANCH   3   4
ATOM      4  C   UNL     1      11.573  19.850  -1.943  1.00  0.00     0.053 C 
BRANCH   4   5
ATOM      5  C   UNL     1      11.724  19.665  -3.420  1.00  0.00     0.041 C 
ATOM      6  O   UNL     1      10.733  19.329  -4.120  1.00  0.00    -0.550 OA
ATOM      7  O   UNL     1      12.969  19.813  -4.016  1.00  0.00    -0.550 OA
ENDBRANCH   4   5
ENDBRANCH   3   4
ENDBRANCH   2   3
ENDBRANCH   1   2
BRANCH   1   8
ATOM      8  C   UNL     1      15.217  22.351   0.233  1.00  0.00     0.000 C 
BRANCH   8   9
ATOM      9  C   UNL     1      15.447  22.886  -1.190  1.00  0.00     0.006 C 
BRANCH   9  10
ATOM     10  C   UNL     1      15.093  24.373  -1.327  1.00  0.00     0.053 C 
BRANCH  10  11
ATOM     11  C   UNL     1      13.809  24.536  -2.077  1.00  0.00     0.041 C 
ATOM     12  O   UNL     1      13.823  24.770  -3.314  1.00  0.00    -0.550 OA
ATOM     13  O   UNL     1      12.596  24.476  -1.402  1.00  0.00    -0.550 OA
ENDBRANCH  10  11
ENDBRANCH   9  10
ENDBRANCH   8   9
ENDBRANCH   1   8
TORSDOF 8
ENDMDL
MODEL 7
REMARK VINA RESULT:    -3.712      1.618      1.925
REMARK INTER + INTRA:          -6.092
REMARK INTER:                  -5.614
REMARK INTRA:                  -0.478
REMARK UNBOUND:                -0.645
REMARK SMILES O=C([O-])CCCCCCCC(=O)[O-]
REMARK SMILES IDX 7 1 6 2 5 3 4 4 2 5 1 6 3 7 8 8 9 9 10 10 11 11 12 12 13 13
REMARK H PARENT
REMARK Flexibility Score: inf
ROOT
ATOM      1  C   UNL     1      12.853  23.347  -1.841  1.00  0.00     0.000 C 
ENDROOT
BRANCH   1   2
ATOM      2  C   UNL     1      13.632  22.635  -2.958  1.00  0.00     0.000 C 
BRANCH   2   3
ATOM      3  C   UNL     1      13.644  21.107  -2.794  1.00  0.00     0.006 C 
BRANCH   3   4
ATOM      4  C   UNL     1      12.657  20.445  -3.759  1.00  0.00     0.053 C 
BRANCH   4   5
ATOM      5  C   UNL     1      11.640  19.648  -3.005  1.00  0.00     0.041 C 
ATOM      6  O   UNL     1      11.790  19.433  -1.773  1.00  0.00    -0.550 OA
ATOM      7  O   UNL     1      10.552  19.099  -3.672  1.00  0.00    -0.550 OA
ENDBRANCH   4   5
ENDBRANCH   3   4
ENDBRANCH   2   3
ENDBRANCH   1   2
BRANCH   1   8
ATOM      8  C   UNL     1      13.590  24.587  -1.304  1.00  0.00     0.000 C 
BRANCH   8   9
ATOM      9  C   UNL     1      15.105  24.360  -1.172  1.00  0.00     0.006 C 
BRANCH   9  10
ATOM     10  C   UNL     1      15.516  23.911   0.237  1.00  0.00     0.053 C 
BRANCH  10  11
ATOM     11  C   UNL     1      15.539  22.417   0.322  1.00  0.00     0.041 C 
ATOM     12  O   UNL     1      16.608  21.788   0.107  1.00  0.00    -0.550 OA
ATOM     13  O   UNL     1      14.369  21.718   0.591  1.00  0.00    -0.550 OA
ENDBRANCH  10  11
ENDBRANCH   9  10
ENDBRANCH   8   9
ENDBRANCH   1   8
TORSDOF 8
ENDMDL
MODEL 8
REMARK VINA RESULT:    -3.491      2.258      4.267
REMARK INTER + INTRA:          -5.769
REMARK INTER:                  -5.294
REMARK INTRA:                  -0.476
REMARK UNBOUND:                -0.645
REMARK SMILES O=C([O-])CCCCCCCC(=O)[O-]
REMARK SMILES IDX 7 1 6 2 5 3 4 4 2 5 1 6 3 7 8 8 9 9 10 10 11 11 12 12 13 13
REMARK H PARENT
REMARK Flexibility Score: inf
ROOT
ATOM      1  C   UNL     1      12.137  20.468  -2.014  1.00  0.00     0.000 C 
ENDROOT
BRANCH   1   2
ATOM      2  C   UNL     1      12.307  21.406  -0.809  1.00  0.00     0.000 C 
BRANCH   2   3
ATOM      3  C   UNL     1      13.564  21.092   0.017  1.00  0.00     0.006 C 
BRANCH   3   4
ATOM      4  C   UNL     1      14.045  22.332   0.776  1.00  0.00     0.053 C 
BRANCH   4   5
ATOM      5  C   UNL     1      15.451  22.670   0.393  1.00  0.00     0.041 C 
ATOM      6  O   UNL     1      15.740  23.834   0.008  1.00  0.00    -0.550 OA
ATOM      7  O   UNL     1      16.432  21.687   0.409  1.00  0.00    -0.550 OA
ENDBRANCH   4   5
ENDBRANCH   3   4
ENDBRANCH   2   3
ENDBRANCH   1   2
BRANCH   1   8
ATOM      8  C   UNL     1      13.287  20.595  -3.029  1.00  0.00     0.000 C 
BRANCH   8   9
ATOM      9  C   UNL     1      13.329  21.977  -3.701  1.00  0.00     0.006 C 
BRANCH   9  10
ATOM     10  C   UNL     1      14.261  22.959  -2.978  1.00  0.00     0.053 C 
BRANCH  10  11
ATOM     11  C   UNL     1      13.605  24.297  -2.843  1.00  0.00     0.041 C 
ATOM     12  O   UNL     1      13.656  25.124  -3.790  1.00  0.00    -0.550 OA
ATOM     13  O   UNL     1      12.980  24.649  -1.654  1.00  0.00    -0.550 OA
ENDBRANCH  10  11
ENDBRANCH   9  10
ENDBRANCH   8   9
ENDBRANCH   1   8
TORSDOF 8
ENDMDL
