MODEL 1
REMARK VINA RESULT:    -2.511      0.000      0.000
REMARK INTER + INTRA:          -4.326
REMARK INTER:                  -3.539
REMARK INTRA:                  -0.787
REMARK UNBOUND:                -0.787
REMARK SMILES CCCCCCCCC=O
REMARK SMILES IDX 5 1 4 2 3 3 2 4 1 5 6 6 7 7 8 8 9 9 10 10
REMARK H PARENT
REMARK Flexibility Score: inf
ROOT
ATOM      1  C   UNL     1     139.452 139.478 141.467  1.00  0.00     0.000 C 
ENDROOT
BRANCH   1   2
ATOM      2  C   UNL     1     140.877 138.896 141.585  1.00  0.00    -0.000 C 
BRANCH   2   3
ATOM      3  C   UNL     1     141.437 138.925 143.017  1.00  0.00    -0.000 C 
BRANCH   3   4
ATOM      4  C   UNL     1     142.766 139.685 143.124  1.00  0.00    -0.003 C 
ATOM      5  C   UNL     1     143.517 139.672 141.796  1.00  0.00     0.004 C 
ENDBRANCH   3   4
ENDBRANCH   2   3
ENDBRANCH   1   2
BRANCH   1   6
ATOM      6  C   UNL     1     139.194 140.590 142.500  1.00  0.00     0.000 C 
BRANCH   6   7
ATOM      7  C   UNL     1     139.523 141.990 141.958  1.00  0.00     0.008 C 
BRANCH   7   8
ATOM      8  C   UNL     1     140.582 142.715 142.800  1.00  0.00     0.072 C 
BRANCH   8   9
ATOM      9  C   UNL     1     141.695 143.227 141.933  1.00  0.00     0.224 C 
ATOM     10  O   UNL     1     141.974 142.664 140.887  1.00  0.00    -0.303 OA
ENDBRANCH   8   9
ENDBRANCH   7   8
ENDBRANCH   6   7
ENDBRANCH   1   6
TORSDOF 7
ENDMDL
MODEL 2
REMARK VINA RESULT:    -2.494      1.080      3.406
REMARK INTER + INTRA:          -4.301
REMARK INTER:                  -3.462
REMARK INTRA:                  -0.839
REMARK UNBOUND:                -0.787
REMARK SMILES CCCCCCCCC=O
REMARK SMILES IDX 5 1 4 2 3 3 2 4 1 5 6 6 7 7 8 8 9 9 10 10
REMARK H PARENT
REMARK Flexibility Score: inf
ROOT
ATOM      1  C   UNL     1     139.482 139.123 142.981  1.00  0.00     0.000 C 
ENDROOT
BRANCH   1   2
ATOM      2  C   UNL     1     139.120 140.620 142.884  1.00  0.00    -0.000 C 
BRANCH   2   3
ATOM      3  C   UNL     1     139.092 141.154 141.442  1.00  0.00    -0.000 C 
BRANCH   3   4
ATOM      4  C   UNL     1     139.989 142.382 141.241  1.00  0.00    -0.003 C 
ATOM      5  C   UNL     1     140.688 142.773 142.540  1.00  0.00     0.004 C 
ENDBRANCH   3   4
ENDBRANCH   2   3
ENDBRANCH   1   2
BRANCH   1   6
ATOM      6  C   UNL     1     140.826 138.807 142.300  1.00  0.00     0.000 C 
BRANCH   6   7
ATOM      7  C   UNL     1     142.034 139.279 143.125  1.00  0.00     0.008 C 
BRANCH   7   8
ATOM      8  C   UNL     1     143.267 139.565 142.256  1.00  0.00     0.072 C 
BRANCH   8   9
ATOM      9  C   UNL     1     142.864 139.907 140.853  1.00  0.00     0.224 C 
ATOM     10  O   UNL     1     143.114 141.007 140.387  1.00  0.00    -0.303 OA
ENDBRANCH   8   9
ENDBRANCH   7   8
ENDBRANCH   6   7
ENDBRANCH   1   6
TORSDOF 7
ENDMDL
MODEL 3
REMARK VINA RESULT:    -2.478      1.645      2.963
REMARK INTER + INTRA:          -4.279
REMARK INTER:                  -3.509
REMARK INTRA:                  -0.769
REMARK UNBOUND:                -0.787
REMARK SMILES CCCCCCCCC=O
REMARK SMILES IDX 5 1 4 2 3 3 2 4 1 5 6 6 7 7 8 8 9 9 10 10
REMARK H PARENT
REMARK Flexibility Score: inf
ROOT
ATOM      1  C   UNL     1     142.884 140.695 141.635  1.00  0.00     0.000 C 
ENDROOT
BRANCH   1   2
ATOM      2  C   UNL     1     142.150 139.387 141.270  1.00  0.00    -0.000 C 
BRANCH   2   3
ATOM      3  C   UNL     1     141.224 138.870 142.384  1.00  0.00    -0.000 C 
BRANCH   3   4
ATOM      4  C   UNL     1     139.833 138.477 141.871  1.00  0.00    -0.003 C 
ATOM      5  C   UNL     1     139.497 139.208 140.575  1.00  0.00     0.004 C 
ENDBRANCH   3   4
ENDBRANCH   2   3
ENDBRANCH   1   2
BRANCH   1   6
ATOM      6  C   UNL     1     142.575 141.151 143.073  1.00  0.00     0.000 C 
BRANCH   6   7
ATOM      7  C   UNL     1     141.898 142.530 143.125  1.00  0.00     0.008 C 
BRANCH   7   8
ATOM      8  C   UNL     1     140.662 142.616 142.218  1.00  0.00     0.072 C 
BRANCH   8   9
ATOM      9  C   UNL     1     139.439 142.128 142.934  1.00  0.00     0.224 C 
ATOM     10  O   UNL     1     138.354 142.121 142.374  1.00  0.00    -0.303 OA
ENDBRANCH   8   9
ENDBRANCH   7   8
ENDBRANCH   6   7
ENDBRANCH   1   6
TORSDOF 7
ENDMDL
MODEL 4
REMARK VINA RESULT:    -2.472      1.011      3.069
REMARK INTER + INTRA:          -4.270
REMARK INTER:                  -3.467
REMARK INTRA:                  -0.804
REMARK UNBOUND:                -0.787
REMARK SMILES CCCCCCCCC=O
REMARK SMILES IDX 5 1 4 2 3 3 2 4 1 5 6 6 7 7 8 8 9 9 10 10
REMARK H PARENT
REMARK Flexibility Score: inf
ROOT
ATOM      1  C   UNL     1     140.944 138.790 141.882  1.00  0.00     0.000 C 
ENDROOT
BRANCH   1   2
ATOM      2  C   UNL     1     139.573 139.487 141.752  1.00  0.00    -0.000 C 
BRANCH   2   3
ATOM      3  C   UNL     1     139.079 140.122 143.063  1.00  0.00    -0.000 C 
BRANCH   3   4
ATOM      4  C   UNL     1     138.698 141.599 142.905  1.00  0.00    -0.003 C 
ATOM      5  C   UNL     1     137.975 141.845 141.585  1.00  0.00     0.004 C 
ENDBRANCH   3   4
ENDBRANCH   2   3
ENDBRANCH   1   2
BRANCH   1   6
ATOM      6  C   UNL     1     141.781 139.370 143.037  1.00  0.00     0.000 C 
BRANCH   6   7
ATOM      7  C   UNL     1     142.771 140.448 142.568  1.00  0.00     0.008 C 
BRANCH   7   8
ATOM      8  C   UNL     1     142.362 141.859 143.012  1.00  0.00     0.072 C 
BRANCH   8   9
ATOM      9  C   UNL     1     142.104 142.739 141.825  1.00  0.00     0.224 C 
ATOM     10  O   UNL     1     141.477 142.316 140.866  1.00  0.00    -0.303 OA
ENDBRANCH   8   9
ENDBRANCH   7   8
ENDBRANCH   6   7
ENDBRANCH   1   6
TORSDOF 7
ENDMDL
MODEL 5
REMARK VINA RESULT:    -2.460      2.151      3.599
REMARK INTER + INTRA:          -4.253
REMARK INTER:                  -3.539
REMARK INTRA:                  -0.715
REMARK UNBOUND:                -0.787
REMARK SMILES CCCCCCCCC=O
REMARK SMILES IDX 5 1 4 2 3 3 2 4 1 5 6 6 7 7 8 8 9 9 10 10
REMARK H PARENT
REMARK Flexibility Score: inf
ROOT
ATOM      1  C   UNL     1     139.373 142.150 141.570  1.00  0.00     0.000 C 
ENDROOT
BRANCH   1   2
ATOM      2  C   UNL     1     140.201 142.534 142.815  1.00  0.00    -0.000 C 
BRANCH   2   3
ATOM      3  C   UNL     1     141.707 142.670 142.534  1.00  0.00    -0.000 C 
BRANCH   3   4
ATOM      4  C   UNL     1     142.522 141.473 143.041  1.00  0.00    -0.003 C 
ATOM      5  C   UNL     1     142.956 140.573 141.889  1.00  0.00     0.004 C 
ENDBRANCH   3   4
ENDBRANCH   2   3
ENDBRANCH   1   2
BRANCH   1   6
ATOM      6  C   UNL     1     139.100 140.636 141.501  1.00  0.00     0.000 C 
BRANCH   6   7
ATOM      7  C   UNL     1     139.190 139.954 142.875  1.00  0.00     0.008 C 
BRANCH   7   8
ATOM      8  C   UNL     1     139.517 138.458 142.772  1.00  0.00     0.072 C 
BRANCH   8   9
ATOM      9  C   UNL     1     140.168 138.143 141.457  1.00  0.00     0.224 C 
ATOM     10  O   UNL     1     139.782 137.200 140.786  1.00  0.00    -0.303 OA
ENDBRANCH   8   9
ENDBRANCH   7   8
ENDBRANCH   6   7
ENDBRANCH   1   6
TORSDOF 7
ENDMDL
MODEL 6
REMARK VINA RESULT:    -2.459      1.970      4.375
REMARK INTER + INTRA:          -4.253
REMARK INTER:                  -3.401
REMARK INTRA:                  -0.851
REMARK UNBOUND:                -0.787
REMARK SMILES CCCCCCCCC=O
REMARK SMILES IDX 5 1 4 2 3 3 2 4 1 5 6 6 7 7 8 8 9 9 10 10
REMARK H PARENT
REMARK Flexibility Score: inf
ROOT
ATOM      1  C   UNL     1     142.203 141.834 141.600  1.00  0.00     0.000 C 
ENDROOT
BRANCH   1   2
ATOM      2  C   UNL     1     141.052 142.858 141.687  1.00  0.00    -0.000 C 
BRANCH   2   3
ATOM      3  C   UNL     1     139.837 142.494 140.816  1.00  0.00    -0.000 C 
BRANCH   3   4
ATOM      4  C   UNL     1     138.649 141.973 141.634  1.00  0.00    -0.003 C 
ATOM      5  C   UNL     1     138.844 142.241 143.123  1.00  0.00     0.004 C 
ENDBRANCH   3   4
ENDBRANCH   2   3
ENDBRANCH   1   2
BRANCH   1   6
ATOM      6  C   UNL     1     142.450 141.125 142.944  1.00  0.00     0.000 C 
BRANCH   6   7
ATOM      7  C   UNL     1     141.932 139.678 142.956  1.00  0.00     0.008 C 
BRANCH   7   8
ATOM      8  C   UNL     1     141.534 139.182 141.559  1.00  0.00     0.072 C 
BRANCH   8   9
ATOM      9  C   UNL     1     140.151 138.601 141.572  1.00  0.00     0.224 C 
ATOM     10  O   UNL     1     139.496 138.585 142.602  1.00  0.00    -0.303 OA
ENDBRANCH   8   9
ENDBRANCH   7   8
ENDBRANCH   6   7
ENDBRANCH   1   6
TORSDOF 7
ENDMDL
MODEL 7
REMARK VINA RESULT:    -2.405      2.229      3.637
REMARK INTER + INTRA:          -4.176
REMARK INTER:                  -3.551
REMARK INTRA:                  -0.625
REMARK UNBOUND:                -0.787
REMARK SMILES CCCCCCCCC=O
REMARK SMILES IDX 5 1 4 2 3 3 2 4 1 5 6 6 7 7 8 8 9 9 10 10
REMARK H PARENT
REMARK Flexibility Score: inf
ROOT
ATOM      1  C   UNL     1     139.901 142.520 143.125  1.00  0.00     0.000 C 
ENDROOT
BRANCH   1   2
ATOM      2  C   UNL     1     138.911 141.382 142.798  1.00  0.00    -0.000 C 
BRANCH   2   3
ATOM      3  C   UNL     1     137.938 141.722 141.656  1.00  0.00    -0.000 C 
BRANCH   3   4
ATOM      4  C   UNL     1     138.370 141.133 140.307  1.00  0.00    -0.003 C 
ATOM      5  C   UNL     1     139.209 139.873 140.498  1.00  0.00     0.004 C 
ENDBRANCH   3   4
ENDBRANCH   2   3
ENDBRANCH   1   2
BRANCH   1   6
ATOM      6  C   UNL     1     141.357 142.127 142.818  1.00  0.00     0.000 C 
BRANCH   6   7
ATOM      7  C   UNL     1     142.065 143.140 141.903  1.00  0.00     0.008 C 
BRANCH   7   8
ATOM      8  C   UNL     1     141.161 143.642 140.768  1.00  0.00     0.072 C 
BRANCH   8   9
ATOM      9  C   UNL     1     141.947 144.448 139.777  1.00  0.00     0.224 C 
ATOM     10  O   UNL     1     141.692 145.628 139.597  1.00  0.00    -0.303 OA
ENDBRANCH   8   9
ENDBRANCH   7   8
ENDBRANCH   6   7
ENDBRANCH   1   6
TORSDOF 7
ENDMDL
MODEL 8
REMARK VINA RESULT:    -2.377      1.265      2.731
REMARK INTER + INTRA:          -4.137
REMARK INTER:                  -3.434
REMARK INTRA:                  -0.702
REMARK UNBOUND:                -0.787
REMARK SMILES CCCCCCCCC=O
REMARK SMILES IDX 5 1 4 2 3 3 2 4 1 5 6 6 7 7 8 8 9 9 10 10
REMARK H PARENT
REMARK Flexibility Score: inf
ROOT
ATOM      1  C   UNL     1     142.538 139.470 141.929  1.00  0.00     0.000 C 
ENDROOT
BRANCH   1   2
ATOM      2  C   UNL     1     141.486 139.074 142.986  1.00  0.00    -0.000 C 
BRANCH   2   3
ATOM      3  C   UNL     1     140.180 138.530 142.382  1.00  0.00    -0.000 C 
BRANCH   3   4
ATOM      4  C   UNL     1     139.938 139.015 140.947  1.00  0.00    -0.003 C 
ATOM      5  C   UNL     1     139.032 140.242 140.924  1.00  0.00     0.004 C 
ENDBRANCH   3   4
ENDBRANCH   2   3
ENDBRANCH   1   2
BRANCH   1   6
ATOM      6  C   UNL     1     142.843 140.979 141.952  1.00  0.00     0.000 C 
BRANCH   6   7
ATOM      7  C   UNL     1     142.027 141.732 143.015  1.00  0.00     0.008 C 
BRANCH   7   8
ATOM      8  C   UNL     1     141.305 142.961 142.444  1.00  0.00     0.072 C 
BRANCH   8   9
ATOM      9  C   UNL     1     141.833 143.305 141.083  1.00  0.00     0.224 C 
ATOM     10  O   UNL     1     141.715 144.438 140.642  1.00  0.00    -0.303 OA
ENDBRANCH   8   9
ENDBRANCH   7   8
ENDBRANCH   6   7
ENDBRANCH   1   6
TORSDOF 7
ENDMDL
MODEL 9
REMARK VINA RESULT:    -2.366      2.230      3.210
REMARK INTER + INTRA:          -4.121
REMARK INTER:                  -3.483
REMARK INTRA:                  -0.638
REMARK UNBOUND:                -0.787
REMARK SMILES CCCCCCCCC=O
REMARK SMILES IDX 5 1 4 2 3 3 2 4 1 5 6 6 7 7 8 8 9 9 10 10
REMARK H PARENT
REMARK Flexibility Score: inf
ROOT
ATOM      1  C   UNL     1     140.421 139.865 142.263  1.00  0.00     0.000 C 
ENDROOT
BRANCH   1   2
ATOM      2  C   UNL     1     141.690 140.034 143.124  1.00  0.00    -0.000 C 
BRANCH   2   3
ATOM      3  C   UNL     1     142.745 140.956 142.491  1.00  0.00    -0.000 C 
BRANCH   3   4
ATOM      4  C   UNL     1     142.164 141.875 141.408  1.00  0.00    -0.003 C 
ATOM      5  C   UNL     1     141.974 143.294 141.934  1.00  0.00     0.004 C 
ENDBRANCH   3   4
ENDBRANCH   2   3
ENDBRANCH   1   2
BRANCH   1   6
ATOM      6  C   UNL     1     139.152 140.328 143.003  1.00  0.00     0.000 C 
BRANCH   6   7
ATOM      7  C   UNL     1     138.505 141.562 142.356  1.00  0.00     0.008 C 
BRANCH   7   8
ATOM      8  C   UNL     1     138.403 141.443 140.829  1.00  0.00     0.072 C 
BRANCH   8   9
ATOM      9  C   UNL     1     137.031 141.821 140.354  1.00  0.00     0.224 C 
ATOM     10  O   UNL     1     136.864 142.251 139.223  1.00  0.00    -0.303 OA
ENDBRANCH   8   9
ENDBRANCH   7   8
ENDBRANCH   6   7
ENDBRANCH   1   6
TORSDOF 7
ENDMDL
