MODEL 1
REMARK VINA RESULT:    -3.657      0.000      0.000
REMARK INTER + INTRA:          -5.828
REMARK INTER:                  -5.368
REMARK INTRA:                  -0.460
REMARK UNBOUND:                -0.460
REMARK SMILES O=C([O-])CCCCCCCC(=O)[O-]
REMARK SMILES IDX 7 1 6 2 5 3 4 4 2 5 1 6 3 7 8 8 9 9 10 10 11 11 12 12 13 13
REMARK H PARENT
REMARK Flexibility Score: inf
ROOT
ATOM      1  C   UNL     1       9.387 -33.525  14.486  1.00  0.00     0.000 C 
ENDROOT
BRANCH   1   2
ATOM      2  C   UNL     1       7.994 -33.417  15.132  1.00  0.00     0.000 C 
BRANCH   2   3
ATOM      3  C   UNL     1       7.908 -32.268  16.157  1.00  0.00     0.006 C 
BRANCH   3   4
ATOM      4  C   UNL     1       8.505 -32.623  17.528  1.00  0.00     0.053 C 
BRANCH   4   5
ATOM      5  C   UNL     1       9.255 -31.479  18.135  1.00  0.00     0.041 C 
ATOM      6  O   UNL     1       9.098 -31.191  19.351  1.00  0.00    -0.550 OA
ATOM      7  O   UNL     1      10.145 -30.744  17.363  1.00  0.00    -0.550 OA
ENDBRANCH   4   5
ENDBRANCH   3   4
ENDBRANCH   2   3
ENDBRANCH   1   2
BRANCH   1   8
ATOM      8  C   UNL     1       9.956 -32.157  14.072  1.00  0.00     0.000 C 
BRANCH   8   9
ATOM      9  C   UNL     1      11.436 -32.228  13.668  1.00  0.00     0.006 C 
BRANCH   9  10
ATOM     10  C   UNL     1      12.253 -31.155  14.393  1.00  0.00     0.053 C 
BRANCH  10  11
ATOM     11  C   UNL     1      13.663 -31.140  13.890  1.00  0.00     0.041 C 
ATOM     12  O   UNL     1      14.244 -32.219  13.602  1.00  0.00    -0.550 OA
ATOM     13  O   UNL     1      14.317 -29.931  13.693  1.00  0.00    -0.550 OA
ENDBRANCH  10  11
ENDBRANCH   9  10
ENDBRANCH   8   9
ENDBRANCH   1   8
TORSDOF 8
ENDMDL
MODEL 2
REMARK VINA RESULT:    -3.582      0.739      5.128
REMARK INTER + INTRA:          -5.717
REMARK INTER:                  -5.231
REMARK INTRA:                  -0.486
REMARK UNBOUND:                -0.460
REMARK SMILES O=C([O-])CCCCCCCC(=O)[O-]
REMARK SMILES IDX 7 1 6 2 5 3 4 4 2 5 1 6 3 7 8 8 9 9 10 10 11 11 12 12 13 13
REMARK H PARENT
REMARK Flexibility Score: inf
ROOT
ATOM      1  C   UNL     1       8.921 -32.284  14.382  1.00  0.00     0.000 C 
ENDROOT
BRANCH   1   2
ATOM      2  C   UNL     1       9.895 -32.218  13.192  1.00  0.00     0.000 C 
BRANCH   2   3
ATOM      3  C   UNL     1      11.358 -32.460  13.615  1.00  0.00     0.006 C 
BRANCH   3   4
ATOM      4  C   UNL     1      11.984 -31.274  14.366  1.00  0.00     0.053 C 
BRANCH   4   5
ATOM      5  C   UNL     1      13.466 -31.197  14.172  1.00  0.00     0.041 C 
ATOM      6  O   UNL     1      14.129 -30.271  14.710  1.00  0.00    -0.550 OA
ATOM      7  O   UNL     1      14.119 -32.162  13.416  1.00  0.00    -0.550 OA
ENDBRANCH   4   5
ENDBRANCH   3   4
ENDBRANCH   2   3
ENDBRANCH   1   2
BRANCH   1   8
ATOM      8  C   UNL     1       8.959 -33.642  15.103  1.00  0.00     0.000 C 
BRANCH   8   9
ATOM      9  C   UNL     1       8.473 -33.554  16.558  1.00  0.00     0.006 C 
BRANCH   9  10
ATOM     10  C   UNL     1       8.122 -32.111  16.930  1.00  0.00     0.053 C 
BRANCH  10  11
ATOM     11  C   UNL     1       9.119 -31.563  17.903  1.00  0.00     0.041 C 
ATOM     12  O   UNL     1       9.027 -31.839  19.128  1.00  0.00    -0.550 OA
ATOM     13  O   UNL     1      10.178 -30.788  17.450  1.00  0.00    -0.550 OA
ENDBRANCH  10  11
ENDBRANCH   9  10
ENDBRANCH   8   9
ENDBRANCH   1   8
TORSDOF 8
ENDMDL
MODEL 3
REMARK VINA RESULT:    -3.503      1.767      2.353
REMARK INTER + INTRA:          -5.602
REMARK INTER:                  -4.822
REMARK INTRA:                  -0.779
REMARK UNBOUND:                -0.460
REMARK SMILES O=C([O-])CCCCCCCC(=O)[O-]
REMARK SMILES IDX 7 1 6 2 5 3 4 4 2 5 1 6 3 7 8 8 9 9 10 10 11 11 12 12 13 13
REMARK H PARENT
REMARK Flexibility Score: inf
ROOT
ATOM      1  C   UNL     1       8.193 -32.591  12.888  1.00  0.00     0.000 C 
ENDROOT
BRANCH   1   2
ATOM      2  C   UNL     1       6.746 -32.836  13.353  1.00  0.00     0.000 C 
BRANCH   2   3
ATOM      3  C   UNL     1       6.671 -33.292  14.824  1.00  0.00     0.006 C 
BRANCH   3   4
ATOM      4  C   UNL     1       7.102 -32.209  15.826  1.00  0.00     0.053 C 
BRANCH   4   5
ATOM      5  C   UNL     1       8.309 -32.611  16.613  1.00  0.00     0.041 C 
ATOM      6  O   UNL     1       9.120 -31.738  17.022  1.00  0.00    -0.550 OA
ATOM      7  O   UNL     1       8.529 -33.949  16.914  1.00  0.00    -0.550 OA
ENDBRANCH   4   5
ENDBRANCH   3   4
ENDBRANCH   2   3
ENDBRANCH   1   2
BRANCH   1   8
ATOM      8  C   UNL     1       9.116 -33.788  13.170  1.00  0.00     0.000 C 
BRANCH   8   9
ATOM      9  C   UNL     1      10.514 -33.359  13.643  1.00  0.00     0.006 C 
BRANCH   9  10
ATOM     10  C   UNL     1      10.621 -31.834  13.719  1.00  0.00     0.053 C 
BRANCH  10  11
ATOM     11  C   UNL     1      11.886 -31.431  14.411  1.00  0.00     0.041 C 
ATOM     12  O   UNL     1      11.841 -30.883  15.544  1.00  0.00    -0.550 OA
ATOM     13  O   UNL     1      13.116 -31.706  13.828  1.00  0.00    -0.550 OA
ENDBRANCH  10  11
ENDBRANCH   9  10
ENDBRANCH   8   9
ENDBRANCH   1   8
TORSDOF 8
ENDMDL
MODEL 4
REMARK VINA RESULT:    -3.468      1.829      4.758
REMARK INTER + INTRA:          -5.550
REMARK INTER:                  -4.843
REMARK INTRA:                  -0.708
REMARK UNBOUND:                -0.460
REMARK SMILES O=C([O-])CCCCCCCC(=O)[O-]
REMARK SMILES IDX 7 1 6 2 5 3 4 4 2 5 1 6 3 7 8 8 9 9 10 10 11 11 12 12 13 13
REMARK H PARENT
REMARK Flexibility Score: inf
ROOT
ATOM      1  C   UNL     1       6.626 -33.282  14.900  1.00  0.00     0.000 C 
ENDROOT
BRANCH   1   2
ATOM      2  C   UNL     1       6.879 -32.677  13.508  1.00  0.00     0.000 C 
BRANCH   2   3
ATOM      3  C   UNL     1       8.260 -33.064  12.941  1.00  0.00     0.006 C 
BRANCH   3   4
ATOM      4  C   UNL     1       9.283 -31.917  12.980  1.00  0.00     0.053 C 
BRANCH   4   5
ATOM      5  C   UNL     1      10.576 -32.330  13.609  1.00  0.00     0.041 C 
ATOM      6  O   UNL     1      10.914 -33.543  13.628  1.00  0.00    -0.550 OA
ATOM      7  O   UNL     1      11.421 -31.372  14.155  1.00  0.00    -0.550 OA
ENDBRANCH   4   5
ENDBRANCH   3   4
ENDBRANCH   2   3
ENDBRANCH   1   2
BRANCH   1   8
ATOM      8  C   UNL     1       7.818 -34.107  15.414  1.00  0.00     0.000 C 
BRANCH   8   9
ATOM      9  C   UNL     1       8.433 -33.526  16.696  1.00  0.00     0.006 C 
BRANCH   9  10
ATOM     10  C   UNL     1       8.455 -31.995  16.646  1.00  0.00     0.053 C 
BRANCH  10  11
ATOM     11  C   UNL     1       9.392 -31.451  17.679  1.00  0.00     0.041 C 
ATOM     12  O   UNL     1      10.366 -30.731  17.335  1.00  0.00    -0.550 OA
ATOM     13  O   UNL     1       9.160 -31.699  19.026  1.00  0.00    -0.550 OA
ENDBRANCH  10  11
ENDBRANCH   9  10
ENDBRANCH   8   9
ENDBRANCH   1   8
TORSDOF 8
ENDMDL
MODEL 5
REMARK VINA RESULT:    -3.460      1.769      2.483
REMARK INTER + INTRA:          -5.538
REMARK INTER:                  -5.126
REMARK INTRA:                  -0.412
REMARK UNBOUND:                -0.460
REMARK SMILES O=C([O-])CCCCCCCC(=O)[O-]
REMARK SMILES IDX 7 1 6 2 5 3 4 4 2 5 1 6 3 7 8 8 9 9 10 10 11 11 12 12 13 13
REMARK H PARENT
REMARK Flexibility Score: inf
ROOT
ATOM      1  C   UNL     1       6.319 -32.943  14.233  1.00  0.00     0.000 C 
ENDROOT
BRANCH   1   2
ATOM      2  C   UNL     1       7.259 -33.439  15.345  1.00  0.00     0.000 C 
BRANCH   2   3
ATOM      3  C   UNL     1       7.788 -32.288  16.225  1.00  0.00     0.006 C 
BRANCH   3   4
ATOM      4  C   UNL     1       8.626 -32.765  17.422  1.00  0.00     0.053 C 
BRANCH   4   5
ATOM      5  C   UNL     1       9.271 -31.630  18.153  1.00  0.00     0.041 C 
ATOM      6  O   UNL     1       9.072 -31.475  19.387  1.00  0.00    -0.550 OA
ATOM      7  O   UNL     1      10.111 -30.756  17.476  1.00  0.00    -0.550 OA
ENDBRANCH   4   5
ENDBRANCH   3   4
ENDBRANCH   2   3
ENDBRANCH   1   2
BRANCH   1   8
ATOM      8  C   UNL     1       7.079 -32.422  13.002  1.00  0.00     0.000 C 
BRANCH   8   9
ATOM      9  C   UNL     1       8.517 -32.957  12.923  1.00  0.00     0.006 C 
BRANCH   9  10
ATOM     10  C   UNL     1       9.527 -31.806  12.889  1.00  0.00     0.053 C 
BRANCH  10  11
ATOM     11  C   UNL     1      10.794 -32.201  13.581  1.00  0.00     0.041 C 
ATOM     12  O   UNL     1      11.294 -31.454  14.463  1.00  0.00    -0.550 OA
ATOM     13  O   UNL     1      11.397 -33.417  13.287  1.00  0.00    -0.550 OA
ENDBRANCH  10  11
ENDBRANCH   9  10
ENDBRANCH   8   9
ENDBRANCH   1   8
TORSDOF 8
ENDMDL
MODEL 6
REMARK VINA RESULT:    -3.415      1.744      4.861
REMARK INTER + INTRA:          -5.473
REMARK INTER:                  -4.755
REMARK INTRA:                  -0.717
REMARK UNBOUND:                -0.460
REMARK SMILES O=C([O-])CCCCCCCC(=O)[O-]
REMARK SMILES IDX 7 1 6 2 5 3 4 4 2 5 1 6 3 7 8 8 9 9 10 10 11 11 12 12 13 13
REMARK H PARENT
REMARK Flexibility Score: inf
ROOT
ATOM      1  C   UNL     1       8.306 -32.644  12.951  1.00  0.00     0.000 C 
ENDROOT
BRANCH   1   2
ATOM      2  C   UNL     1       9.314 -33.785  13.171  1.00  0.00     0.000 C 
BRANCH   2   3
ATOM      3  C   UNL     1      10.677 -33.276  13.681  1.00  0.00     0.006 C 
BRANCH   3   4
ATOM      4  C   UNL     1      10.763 -31.744  13.779  1.00  0.00     0.053 C 
BRANCH   4   5
ATOM      5  C   UNL     1      11.962 -31.291  14.550  1.00  0.00     0.041 C 
ATOM      6  O   UNL     1      13.104 -31.320  14.020  1.00  0.00    -0.550 OA
ATOM      7  O   UNL     1      11.816 -30.814  15.846  1.00  0.00    -0.550 OA
ENDBRANCH   4   5
ENDBRANCH   3   4
ENDBRANCH   2   3
ENDBRANCH   1   2
BRANCH   1   8
ATOM      8  C   UNL     1       6.867 -33.044  13.318  1.00  0.00     0.000 C 
BRANCH   8   9
ATOM      9  C   UNL     1       6.717 -33.427  14.798  1.00  0.00     0.006 C 
BRANCH   9  10
ATOM     10  C   UNL     1       7.191 -32.290  15.707  1.00  0.00     0.053 C 
BRANCH  10  11
ATOM     11  C   UNL     1       8.292 -32.762  16.605  1.00  0.00     0.041 C 
ATOM     12  O   UNL     1       8.496 -33.994  16.763  1.00  0.00    -0.550 OA
ATOM     13  O   UNL     1       9.124 -31.840  17.227  1.00  0.00    -0.550 OA
ENDBRANCH  10  11
ENDBRANCH   9  10
ENDBRANCH   8   9
ENDBRANCH   1   8
TORSDOF 8
ENDMDL
MODEL 7
REMARK VINA RESULT:    -3.026     14.877     16.590
REMARK INTER + INTRA:          -4.900
REMARK INTER:                  -4.545
REMARK INTRA:                  -0.355
REMARK UNBOUND:                -0.460
REMARK SMILES O=C([O-])CCCCCCCC(=O)[O-]
REMARK SMILES IDX 7 1 6 2 5 3 4 4 2 5 1 6 3 7 8 8 9 9 10 10 11 11 12 12 13 13
REMARK H PARENT
REMARK Flexibility Score: inf
ROOT
ATOM      1  C   UNL     1      15.055 -36.971  31.600  1.00  0.00     0.000 C 
ENDROOT
BRANCH   1   2
ATOM      2  C   UNL     1      14.455 -36.280  32.837  1.00  0.00     0.000 C 
BRANCH   2   3
ATOM      3  C   UNL     1      13.389 -35.230  32.466  1.00  0.00     0.006 C 
BRANCH   3   4
ATOM      4  C   UNL     1      13.690 -33.827  33.019  1.00  0.00     0.053 C 
BRANCH   4   5
ATOM      5  C   UNL     1      14.833 -33.171  32.312  1.00  0.00     0.041 C 
ATOM      6  O   UNL     1      15.780 -32.665  32.970  1.00  0.00    -0.550 OA
ATOM      7  O   UNL     1      14.865 -33.138  30.924  1.00  0.00    -0.550 OA
ENDBRANCH   4   5
ENDBRANCH   3   4
ENDBRANCH   2   3
ENDBRANCH   1   2
BRANCH   1   8
ATOM      8  C   UNL     1      16.255 -36.205  31.018  1.00  0.00     0.000 C 
BRANCH   8   9
ATOM      9  C   UNL     1      17.153 -37.090  30.140  1.00  0.00     0.006 C 
BRANCH   9  10
ATOM     10  C   UNL     1      16.641 -37.125  28.696  1.00  0.00     0.053 C 
BRANCH  10  11
ATOM     11  C   UNL     1      17.511 -36.287  27.812  1.00  0.00     0.041 C 
ATOM     12  O   UNL     1      18.072 -35.257  28.268  1.00  0.00    -0.550 OA
ATOM     13  O   UNL     1      17.742 -36.673  26.497  1.00  0.00    -0.550 OA
ENDBRANCH  10  11
ENDBRANCH   9  10
ENDBRANCH   8   9
ENDBRANCH   1   8
TORSDOF 8
ENDMDL
MODEL 8
REMARK VINA RESULT:    -3.003      2.690      3.336
REMARK INTER + INTRA:          -4.867
REMARK INTER:                  -4.387
REMARK INTRA:                  -0.481
REMARK UNBOUND:                -0.460
REMARK SMILES O=C([O-])CCCCCCCC(=O)[O-]
REMARK SMILES IDX 7 1 6 2 5 3 4 4 2 5 1 6 3 7 8 8 9 9 10 10 11 11 12 12 13 13
REMARK H PARENT
REMARK Flexibility Score: inf
ROOT
ATOM      1  C   UNL     1       9.288 -31.948  15.659  1.00  0.00     0.000 C 
ENDROOT
BRANCH   1   2
ATOM      2  C   UNL     1       7.817 -32.279  15.968  1.00  0.00     0.000 C 
BRANCH   2   3
ATOM      3  C   UNL     1       7.036 -32.713  14.712  1.00  0.00     0.006 C 
BRANCH   3   4
ATOM      4  C   UNL     1       6.135 -33.938  14.942  1.00  0.00     0.053 C 
BRANCH   4   5
ATOM      5  C   UNL     1       6.915 -35.213  15.001  1.00  0.00     0.041 C 
ATOM      6  O   UNL     1       7.729 -35.503  14.085  1.00  0.00    -0.550 OA
ATOM      7  O   UNL     1       6.760 -36.073  16.081  1.00  0.00    -0.550 OA
ENDBRANCH   4   5
ENDBRANCH   3   4
ENDBRANCH   2   3
ENDBRANCH   1   2
BRANCH   1   8
ATOM      8  C   UNL     1       9.854 -32.788  14.502  1.00  0.00     0.000 C 
BRANCH   8   9
ATOM      9  C   UNL     1      10.904 -32.029  13.676  1.00  0.00     0.006 C 
BRANCH   9  10
ATOM     10  C   UNL     1      11.809 -31.190  14.583  1.00  0.00     0.053 C 
BRANCH  10  11
ATOM     11  C   UNL     1      13.242 -31.337  14.175  1.00  0.00     0.041 C 
ATOM     12  O   UNL     1      13.604 -32.323  13.481  1.00  0.00    -0.550 OA
ATOM     13  O   UNL     1      14.167 -30.360  14.520  1.00  0.00    -0.550 OA
ENDBRANCH  10  11
ENDBRANCH   9  10
ENDBRANCH   8   9
ENDBRANCH   1   8
TORSDOF 8
ENDMDL
MODEL 9
REMARK VINA RESULT:    -2.731      3.033      5.135
REMARK INTER + INTRA:          -4.468
REMARK INTER:                  -3.839
REMARK INTRA:                  -0.629
REMARK UNBOUND:                -0.460
REMARK SMILES O=C([O-])CCCCCCCC(=O)[O-]
REMARK SMILES IDX 7 1 6 2 5 3 4 4 2 5 1 6 3 7 8 8 9 9 10 10 11 11 12 12 13 13
REMARK H PARENT
REMARK Flexibility Score: inf
ROOT
ATOM      1  C   UNL     1       9.979 -32.817  13.233  1.00  0.00     0.000 C 
ENDROOT
BRANCH   1   2
ATOM      2  C   UNL     1       9.704 -34.288  12.875  1.00  0.00     0.000 C 
BRANCH   2   3
ATOM      3  C   UNL     1       8.206 -34.644  12.961  1.00  0.00     0.006 C 
BRANCH   3   4
ATOM      4  C   UNL     1       7.897 -35.762  13.970  1.00  0.00     0.053 C 
BRANCH   4   5
ATOM      5  C   UNL     1       6.920 -35.330  15.017  1.00  0.00     0.041 C 
ATOM      6  O   UNL     1       6.194 -34.318  14.828  1.00  0.00    -0.550 OA
ATOM      7  O   UNL     1       6.793 -36.057  16.193  1.00  0.00    -0.550 OA
ENDBRANCH   4   5
ENDBRANCH   3   4
ENDBRANCH   2   3
ENDBRANCH   1   2
BRANCH   1   8
ATOM      8  C   UNL     1       8.986 -32.263  14.269  1.00  0.00     0.000 C 
BRANCH   8   9
ATOM      9  C   UNL     1       9.539 -32.305  15.701  1.00  0.00     0.006 C 
BRANCH   9  10
ATOM     10  C   UNL     1       8.403 -32.259  16.727  1.00  0.00     0.053 C 
BRANCH  10  11
ATOM     11  C   UNL     1       8.900 -31.732  18.037  1.00  0.00     0.041 C 
ATOM     12  O   UNL     1       9.834 -30.889  18.067  1.00  0.00    -0.550 OA
ATOM     13  O   UNL     1       8.298 -32.137  19.222  1.00  0.00    -0.550 OA
ENDBRANCH  10  11
ENDBRANCH   9  10
ENDBRANCH   8   9
ENDBRANCH   1   8
TORSDOF 8
ENDMDL
