MODEL 1
REMARK VINA RESULT:    -4.205      0.000      0.000
REMARK INTER + INTRA:          -9.958
REMARK INTER:                  -7.893
REMARK INTRA:                  -2.065
REMARK UNBOUND:                -2.065
REMARK SMILES O=C([O-])CCCCCCCCCCCCCCC(=O)[O-]
REMARK SMILES IDX 10 1 9 2 8 3 7 4 6 5 5 6 4 7 2 8 1 9 3 10 11 11 12 12 13 13
REMARK SMILES IDX 14 14 15 15 16 16 17 17 18 18 19 19 20 20
REMARK H PARENT
REMARK Flexibility Score: inf
ROOT
ATOM      1  C   UNL     1     -23.520 118.168  -0.680  1.00  0.00     0.000 C 
ENDROOT
BRANCH   1   2
ATOM      2  C   UNL     1     -23.031 117.582   0.655  1.00  0.00     0.000 C 
BRANCH   2   3
ATOM      3  C   UNL     1     -21.972 116.477   0.474  1.00  0.00     0.000 C 
BRANCH   3   4
ATOM      4  C   UNL     1     -22.130 115.617  -0.794  1.00  0.00     0.000 C 
BRANCH   4   5
ATOM      5  C   UNL     1     -20.946 114.663  -1.023  1.00  0.00     0.000 C 
BRANCH   5   6
ATOM      6  C   UNL     1     -19.664 115.134  -0.318  1.00  0.00     0.006 C 
BRANCH   6   7
ATOM      7  C   UNL     1     -18.469 114.208  -0.580  1.00  0.00     0.053 C 
BRANCH   7   8
ATOM      8  C   UNL     1     -17.260 115.008  -0.946  1.00  0.00     0.041 C 
ATOM      9  O   UNL     1     -16.110 114.589  -0.650  1.00  0.00    -0.550 OA
ATOM     10  O   UNL     1     -17.403 116.239  -1.571  1.00  0.00    -0.550 OA
ENDBRANCH   7   8
ENDBRANCH   6   7
ENDBRANCH   5   6
ENDBRANCH   4   5
ENDBRANCH   3   4
ENDBRANCH   2   3
ENDBRANCH   1   2
BRANCH   1  11
ATOM     11  C   UNL     1     -24.116 119.577  -0.522  1.00  0.00     0.000 C 
BRANCH  11  12
ATOM     12  C   UNL     1     -23.281 120.657  -1.228  1.00  0.00     0.000 C 
BRANCH  12  13
ATOM     13  C   UNL     1     -21.890 120.779  -0.588  1.00  0.00     0.000 C 
BRANCH  13  14
ATOM     14  C   UNL     1     -20.776 120.993  -1.625  1.00  0.00     0.000 C 
BRANCH  14  15
ATOM     15  C   UNL     1     -19.641 119.967  -1.497  1.00  0.00     0.000 C 
BRANCH  15  16
ATOM     16  C   UNL     1     -20.125 118.561  -1.878  1.00  0.00     0.006 C 
BRANCH  16  17
ATOM     17  C   UNL     1     -20.931 118.557  -3.184  1.00  0.00     0.053 C 
BRANCH  17  18
ATOM     18  C   UNL     1     -20.879 117.223  -3.865  1.00  0.00     0.041 C 
ATOM     19  O   UNL     1     -21.901 116.766  -4.443  1.00  0.00    -0.550 OA
ATOM     20  O   UNL     1     -19.694 116.498  -3.888  1.00  0.00    -0.550 OA
ENDBRANCH  17  18
ENDBRANCH  16  17
ENDBRANCH  15  16
ENDBRANCH  14  15
ENDBRANCH  13  14
ENDBRANCH  12  13
ENDBRANCH  11  12
ENDBRANCH   1  11
TORSDOF 15
ENDMDL
MODEL 2
REMARK VINA RESULT:    -4.185      2.722      5.345
REMARK INTER + INTRA:          -9.921
REMARK INTER:                  -7.472
REMARK INTRA:                  -2.449
REMARK UNBOUND:                -2.065
REMARK SMILES O=C([O-])CCCCCCCCCCCCCCC(=O)[O-]
REMARK SMILES IDX 10 1 9 2 8 3 7 4 6 5 5 6 4 7 2 8 1 9 3 10 11 11 12 12 13 13
REMARK SMILES IDX 14 14 15 15 16 16 17 17 18 18 19 19 20 20
REMARK H PARENT
REMARK Flexibility Score: inf
ROOT
ATOM      1  C   UNL     1     -17.405 115.411  -1.360  1.00  0.00     0.000 C 
ENDROOT
BRANCH   1   2
ATOM      2  C   UNL     1     -17.806 114.049  -0.767  1.00  0.00     0.000 C 
BRANCH   2   3
ATOM      3  C   UNL     1     -19.255 114.024  -0.247  1.00  0.00     0.000 C 
BRANCH   3   4
ATOM      4  C   UNL     1     -20.079 115.293  -0.534  1.00  0.00     0.000 C 
BRANCH   4   5
ATOM      5  C   UNL     1     -21.580 115.006  -0.712  1.00  0.00     0.000 C 
BRANCH   5   6
ATOM      6  C   UNL     1     -22.459 115.878   0.198  1.00  0.00     0.006 C 
BRANCH   6   7
ATOM      7  C   UNL     1     -21.665 116.987   0.902  1.00  0.00     0.053 C 
BRANCH   7   8
ATOM      8  C   UNL     1     -22.171 118.332   0.488  1.00  0.00     0.041 C 
ATOM      9  O   UNL     1     -23.178 118.427  -0.263  1.00  0.00    -0.550 OA
ATOM     10  O   UNL     1     -21.502 119.480   0.891  1.00  0.00    -0.550 OA
ENDBRANCH   7   8
ENDBRANCH   6   7
ENDBRANCH   5   6
ENDBRANCH   4   5
ENDBRANCH   3   4
ENDBRANCH   2   3
ENDBRANCH   1   2
BRANCH   1  11
ATOM     11  C   UNL     1     -17.262 115.370  -2.890  1.00  0.00     0.000 C 
BRANCH  11  12
ATOM     12  C   UNL     1     -18.054 114.219  -3.529  1.00  0.00     0.000 C 
BRANCH  12  13
ATOM     13  C   UNL     1     -19.354 114.734  -4.163  1.00  0.00     0.000 C 
BRANCH  13  14
ATOM     14  C   UNL     1     -19.409 116.268  -4.239  1.00  0.00     0.000 C 
BRANCH  14  15
ATOM     15  C   UNL     1     -20.819 116.797  -4.542  1.00  0.00     0.000 C 
BRANCH  15  16
ATOM     16  C   UNL     1     -21.409 117.519  -3.322  1.00  0.00     0.006 C 
BRANCH  16  17
ATOM     17  C   UNL     1     -20.359 118.353  -2.575  1.00  0.00     0.053 C 
BRANCH  17  18
ATOM     18  C   UNL     1     -20.713 119.809  -2.562  1.00  0.00     0.041 C 
ATOM     19  O   UNL     1     -21.817 120.197  -3.026  1.00  0.00    -0.550 OA
ATOM     20  O   UNL     1     -19.835 120.734  -2.010  1.00  0.00    -0.550 OA
ENDBRANCH  17  18
ENDBRANCH  16  17
ENDBRANCH  15  16
ENDBRANCH  14  15
ENDBRANCH  13  14
ENDBRANCH  12  13
ENDBRANCH  11  12
ENDBRANCH   1  11
TORSDOF 15
ENDMDL
MODEL 3
REMARK VINA RESULT:    -4.177      2.694      6.157
REMARK INTER + INTRA:          -9.906
REMARK INTER:                  -7.578
REMARK INTRA:                  -2.328
REMARK UNBOUND:                -2.065
REMARK SMILES O=C([O-])CCCCCCCCCCCCCCC(=O)[O-]
REMARK SMILES IDX 10 1 9 2 8 3 7 4 6 5 5 6 4 7 2 8 1 9 3 10 11 11 12 12 13 13
REMARK SMILES IDX 14 14 15 15 16 16 17 17 18 18 19 19 20 20
REMARK H PARENT
REMARK Flexibility Score: inf
ROOT
ATOM      1  C   UNL     1     -17.623 114.580  -3.502  1.00  0.00     0.000 C 
ENDROOT
BRANCH   1   2
ATOM      2  C   UNL     1     -19.001 114.598  -4.186  1.00  0.00     0.000 C 
BRANCH   2   3
ATOM      3  C   UNL     1     -19.377 115.985  -4.741  1.00  0.00     0.000 C 
BRANCH   3   4
ATOM      4  C   UNL     1     -20.666 116.597  -4.162  1.00  0.00     0.000 C 
BRANCH   4   5
ATOM      5  C   UNL     1     -20.399 117.801  -3.243  1.00  0.00     0.000 C 
BRANCH   5   6
ATOM      6  C   UNL     1     -21.670 118.613  -2.950  1.00  0.00     0.006 C 
BRANCH   6   7
ATOM      7  C   UNL     1     -21.423 120.128  -2.969  1.00  0.00     0.053 C 
BRANCH   7   8
ATOM      8  C   UNL     1     -21.183 120.635  -1.583  1.00  0.00     0.041 C 
ATOM      9  O   UNL     1     -22.079 121.288  -0.984  1.00  0.00    -0.550 OA
ATOM     10  O   UNL     1     -19.955 120.430  -0.971  1.00  0.00    -0.550 OA
ENDBRANCH   7   8
ENDBRANCH   6   7
ENDBRANCH   5   6
ENDBRANCH   4   5
ENDBRANCH   3   4
ENDBRANCH   2   3
ENDBRANCH   1   2
BRANCH   1  11
ATOM     11  C   UNL     1     -17.561 115.503  -2.274  1.00  0.00     0.000 C 
BRANCH  11  12
ATOM     12  C   UNL     1     -17.281 114.739  -0.971  1.00  0.00     0.000 C 
BRANCH  12  13
ATOM     13  C   UNL     1     -18.589 114.418  -0.232  1.00  0.00     0.000 C 
BRANCH  13  14
ATOM     14  C   UNL     1     -19.717 115.406  -0.568  1.00  0.00     0.000 C 
BRANCH  14  15
ATOM     15  C   UNL     1     -21.021 114.702  -0.972  1.00  0.00     0.000 C 
BRANCH  15  16
ATOM     16  C   UNL     1     -22.223 115.648  -0.831  1.00  0.00     0.006 C 
BRANCH  16  17
ATOM     17  C   UNL     1     -22.359 116.208   0.591  1.00  0.00     0.053 C 
BRANCH  17  18
ATOM     18  C   UNL     1     -22.473 117.703   0.591  1.00  0.00     0.041 C 
ATOM     19  O   UNL     1     -23.449 118.264   0.028  1.00  0.00    -0.550 OA
ATOM     20  O   UNL     1     -21.517 118.474   1.242  1.00  0.00    -0.550 OA
ENDBRANCH  17  18
ENDBRANCH  16  17
ENDBRANCH  15  16
ENDBRANCH  14  15
ENDBRANCH  13  14
ENDBRANCH  12  13
ENDBRANCH  11  12
ENDBRANCH   1  11
TORSDOF 15
ENDMDL
MODEL 4
REMARK VINA RESULT:    -4.163      2.900      6.712
REMARK INTER + INTRA:          -9.879
REMARK INTER:                  -7.847
REMARK INTRA:                  -2.032
REMARK UNBOUND:                -2.065
REMARK SMILES O=C([O-])CCCCCCCCCCCCCCC(=O)[O-]
REMARK SMILES IDX 10 1 9 2 8 3 7 4 6 5 5 6 4 7 2 8 1 9 3 10 11 11 12 12 13 13
REMARK SMILES IDX 14 14 15 15 16 16 17 17 18 18 19 19 20 20
REMARK H PARENT
REMARK Flexibility Score: inf
ROOT
ATOM      1  C   UNL     1     -20.135 118.553  -1.682  1.00  0.00     0.000 C 
ENDROOT
BRANCH   1   2
ATOM      2  C   UNL     1     -19.613 120.000  -1.682  1.00  0.00     0.000 C 
BRANCH   2   3
ATOM      3  C   UNL     1     -20.576 120.986  -0.994  1.00  0.00     0.000 C 
BRANCH   3   4
ATOM      4  C   UNL     1     -21.784 120.341  -0.289  1.00  0.00     0.000 C 
BRANCH   4   5
ATOM      5  C   UNL     1     -23.134 120.847  -0.827  1.00  0.00     0.000 C 
BRANCH   5   6
ATOM      6  C   UNL     1     -23.272 120.656  -2.346  1.00  0.00     0.006 C 
BRANCH   6   7
ATOM      7  C   UNL     1     -24.704 120.302  -2.770  1.00  0.00     0.053 C 
BRANCH   7   8
ATOM      8  C   UNL     1     -25.492 121.546  -3.035  1.00  0.00     0.041 C 
ATOM      9  O   UNL     1     -25.319 122.188  -4.105  1.00  0.00    -0.550 OA
ATOM     10  O   UNL     1     -26.381 122.023  -2.082  1.00  0.00    -0.550 OA
ENDBRANCH   7   8
ENDBRANCH   6   7
ENDBRANCH   5   6
ENDBRANCH   4   5
ENDBRANCH   3   4
ENDBRANCH   2   3
ENDBRANCH   1   2
BRANCH   1  11
ATOM     11  C   UNL     1     -20.763 118.153  -3.028  1.00  0.00     0.000 C 
BRANCH  11  12
ATOM     12  C   UNL     1     -20.237 116.807  -3.551  1.00  0.00     0.000 C 
BRANCH  12  13
ATOM     13  C   UNL     1     -19.332 116.131  -2.511  1.00  0.00     0.000 C 
BRANCH  13  14
ATOM     14  C   UNL     1     -19.845 114.744  -2.090  1.00  0.00     0.000 C 
BRANCH  14  15
ATOM     15  C   UNL     1     -20.448 114.738  -0.677  1.00  0.00     0.000 C 
BRANCH  15  16
ATOM     16  C   UNL     1     -21.922 115.169  -0.706  1.00  0.00     0.006 C 
BRANCH  16  17
ATOM     17  C   UNL     1     -22.233 116.250   0.338  1.00  0.00     0.053 C 
BRANCH  17  18
ATOM     18  C   UNL     1     -23.384 117.112  -0.082  1.00  0.00     0.041 C 
ATOM     19  O   UNL     1     -23.705 117.193  -1.297  1.00  0.00    -0.550 OA
ATOM     20  O   UNL     1     -24.123 117.800   0.873  1.00  0.00    -0.550 OA
ENDBRANCH  17  18
ENDBRANCH  16  17
ENDBRANCH  15  16
ENDBRANCH  14  15
ENDBRANCH  13  14
ENDBRANCH  12  13
ENDBRANCH  11  12
ENDBRANCH   1  11
TORSDOF 15
ENDMDL
MODEL 5
REMARK VINA RESULT:    -4.154      2.348      4.104
REMARK INTER + INTRA:          -9.861
REMARK INTER:                  -7.607
REMARK INTRA:                  -2.255
REMARK UNBOUND:                -2.065
REMARK SMILES O=C([O-])CCCCCCCCCCCCCCC(=O)[O-]
REMARK SMILES IDX 10 1 9 2 8 3 7 4 6 5 5 6 4 7 2 8 1 9 3 10 11 11 12 12 13 13
REMARK SMILES IDX 14 14 15 15 16 16 17 17 18 18 19 19 20 20
REMARK H PARENT
REMARK Flexibility Score: inf
ROOT
ATOM      1  C   UNL     1     -22.074 115.576  -1.756  1.00  0.00     0.000 C 
ENDROOT
BRANCH   1   2
ATOM      2  C   UNL     1     -21.360 115.113  -0.475  1.00  0.00     0.000 C 
BRANCH   2   3
ATOM      3  C   UNL     1     -20.174 114.171  -0.756  1.00  0.00     0.000 C 
BRANCH   3   4
ATOM      4  C   UNL     1     -18.820 114.630  -0.183  1.00  0.00     0.000 C 
BRANCH   4   5
ATOM      5  C   UNL     1     -17.848 115.127  -1.267  1.00  0.00     0.000 C 
BRANCH   5   6
ATOM      6  C   UNL     1     -18.193 114.583  -2.663  1.00  0.00     0.006 C 
BRANCH   6   7
ATOM      7  C   UNL     1     -18.502 115.697  -3.672  1.00  0.00     0.053 C 
BRANCH   7   8
ATOM      8  C   UNL     1     -19.567 115.257  -4.625  1.00  0.00     0.041 C 
ATOM      9  O   UNL     1     -20.019 116.059  -5.485  1.00  0.00    -0.550 OA
ATOM     10  O   UNL     1     -20.097 113.977  -4.533  1.00  0.00    -0.550 OA
ENDBRANCH   7   8
ENDBRANCH   6   7
ENDBRANCH   5   6
ENDBRANCH   4   5
ENDBRANCH   3   4
ENDBRANCH   2   3
ENDBRANCH   1   2
BRANCH   1  11
ATOM     11  C   UNL     1     -21.684 117.006  -2.165  1.00  0.00     0.000 C 
BRANCH  11  12
ATOM     12  C   UNL     1     -20.899 117.743  -1.070  1.00  0.00     0.000 C 
BRANCH  12  13
ATOM     13  C   UNL     1     -19.695 118.488  -1.665  1.00  0.00     0.000 C 
BRANCH  13  14
ATOM     14  C   UNL     1     -19.792 120.011  -1.485  1.00  0.00     0.000 C 
BRANCH  14  15
ATOM     15  C   UNL     1     -20.786 120.417  -0.387  1.00  0.00     0.000 C 
BRANCH  15  16
ATOM     16  C   UNL     1     -21.834 121.400  -0.930  1.00  0.00     0.006 C 
BRANCH  16  17
ATOM     17  C   UNL     1     -22.857 120.714  -1.845  1.00  0.00     0.053 C 
BRANCH  17  18
ATOM     18  C   UNL     1     -24.123 120.385  -1.114  1.00  0.00     0.041 C 
ATOM     19  O   UNL     1     -24.217 119.312  -0.460  1.00  0.00    -0.550 OA
ATOM     20  O   UNL     1     -25.187 121.278  -1.127  1.00  0.00    -0.550 OA
ENDBRANCH  17  18
ENDBRANCH  16  17
ENDBRANCH  15  16
ENDBRANCH  14  15
ENDBRANCH  13  14
ENDBRANCH  12  13
ENDBRANCH  11  12
ENDBRANCH   1  11
TORSDOF 15
ENDMDL
MODEL 6
REMARK VINA RESULT:    -4.120      1.802      3.224
REMARK INTER + INTRA:          -9.799
REMARK INTER:                  -7.787
REMARK INTRA:                  -2.012
REMARK UNBOUND:                -2.065
REMARK SMILES O=C([O-])CCCCCCCCCCCCCCC(=O)[O-]
REMARK SMILES IDX 10 1 9 2 8 3 7 4 6 5 5 6 4 7 2 8 1 9 3 10 11 11 12 12 13 13
REMARK SMILES IDX 14 14 15 15 16 16 17 17 18 18 19 19 20 20
REMARK H PARENT
REMARK Flexibility Score: inf
ROOT
ATOM      1  C   UNL     1     -21.055 118.537  -3.241  1.00  0.00     0.000 C 
ENDROOT
BRANCH   1   2
ATOM      2  C   UNL     1     -21.247 117.099  -3.752  1.00  0.00     0.000 C 
BRANCH   2   3
ATOM      3  C   UNL     1     -20.413 116.067  -2.969  1.00  0.00     0.000 C 
BRANCH   3   4
ATOM      4  C   UNL     1     -21.216 114.908  -2.348  1.00  0.00     0.000 C 
BRANCH   4   5
ATOM      5  C   UNL     1     -20.621 114.410  -1.020  1.00  0.00     0.000 C 
BRANCH   5   6
ATOM      6  C   UNL     1     -19.334 115.156  -0.634  1.00  0.00     0.006 C 
BRANCH   6   7
ATOM      7  C   UNL     1     -18.188 114.206  -0.261  1.00  0.00     0.053 C 
BRANCH   7   8
ATOM      8  C   UNL     1     -16.954 114.550  -1.031  1.00  0.00     0.041 C 
ATOM      9  O   UNL     1     -15.818 114.399  -0.507  1.00  0.00    -0.550 OA
ATOM     10  O   UNL     1     -17.057 115.084  -2.309  1.00  0.00    -0.550 OA
ENDBRANCH   7   8
ENDBRANCH   6   7
ENDBRANCH   5   6
ENDBRANCH   4   5
ENDBRANCH   3   4
ENDBRANCH   2   3
ENDBRANCH   1   2
BRANCH   1  11
ATOM     11  C   UNL     1     -20.139 118.608  -2.008  1.00  0.00     0.000 C 
BRANCH  11  12
ATOM     12  C   UNL     1     -19.750 120.048  -1.639  1.00  0.00     0.000 C 
BRANCH  12  13
ATOM     13  C   UNL     1     -20.659 120.593  -0.528  1.00  0.00     0.000 C 
BRANCH  13  14
ATOM     14  C   UNL     1     -21.887 121.337  -1.076  1.00  0.00     0.000 C 
BRANCH  14  15
ATOM     15  C   UNL     1     -23.209 120.638  -0.727  1.00  0.00     0.000 C 
BRANCH  15  16
ATOM     16  C   UNL     1     -22.959 119.381   0.119  1.00  0.00     0.006 C 
BRANCH  16  17
ATOM     17  C   UNL     1     -23.512 118.113  -0.546  1.00  0.00     0.053 C 
BRANCH  17  18
ATOM     18  C   UNL     1     -23.107 116.875   0.195  1.00  0.00     0.041 C 
ATOM     19  O   UNL     1     -23.760 115.808   0.052  1.00  0.00    -0.550 OA
ATOM     20  O   UNL     1     -21.989 116.892   1.020  1.00  0.00    -0.550 OA
ENDBRANCH  17  18
ENDBRANCH  16  17
ENDBRANCH  15  16
ENDBRANCH  14  15
ENDBRANCH  13  14
ENDBRANCH  12  13
ENDBRANCH  11  12
ENDBRANCH   1  11
TORSDOF 15
ENDMDL
MODEL 7
REMARK VINA RESULT:    -4.095      2.788      5.560
REMARK INTER + INTRA:          -9.751
REMARK INTER:                  -7.265
REMARK INTRA:                  -2.486
REMARK UNBOUND:                -2.065
REMARK SMILES O=C([O-])CCCCCCCCCCCCCCC(=O)[O-]
REMARK SMILES IDX 10 1 9 2 8 3 7 4 6 5 5 6 4 7 2 8 1 9 3 10 11 11 12 12 13 13
REMARK SMILES IDX 14 14 15 15 16 16 17 17 18 18 19 19 20 20
REMARK H PARENT
REMARK Flexibility Score: inf
ROOT
ATOM      1  C   UNL     1     -17.793 115.146  -2.640  1.00  0.00     0.000 C 
ENDROOT
BRANCH   1   2
ATOM      2  C   UNL     1     -17.544 114.185  -1.466  1.00  0.00     0.000 C 
BRANCH   2   3
ATOM      3  C   UNL     1     -18.810 113.914  -0.632  1.00  0.00     0.000 C 
BRANCH   3   4
ATOM      4  C   UNL     1     -19.688 115.148  -0.350  1.00  0.00     0.000 C 
BRANCH   4   5
ATOM      5  C   UNL     1     -21.151 114.956  -0.785  1.00  0.00     0.000 C 
BRANCH   5   6
ATOM      6  C   UNL     1     -22.122 115.853  -0.000  1.00  0.00     0.006 C 
BRANCH   6   7
ATOM      7  C   UNL     1     -23.396 116.179  -0.790  1.00  0.00     0.053 C 
BRANCH   7   8
ATOM      8  C   UNL     1     -23.983 117.473  -0.324  1.00  0.00     0.041 C 
ATOM      9  O   UNL     1     -24.236 118.388  -1.152  1.00  0.00    -0.550 OA
ATOM     10  O   UNL     1     -24.204 117.689   1.029  1.00  0.00    -0.550 OA
ENDBRANCH   7   8
ENDBRANCH   6   7
ENDBRANCH   5   6
ENDBRANCH   4   5
ENDBRANCH   3   4
ENDBRANCH   2   3
ENDBRANCH   1   2
BRANCH   1  11
ATOM     11  C   UNL     1     -18.362 114.432  -3.878  1.00  0.00     0.000 C 
BRANCH  11  12
ATOM     12  C   UNL     1     -19.444 115.255  -4.594  1.00  0.00     0.000 C 
BRANCH  12  13
ATOM     13  C   UNL     1     -19.622 116.625  -3.923  1.00  0.00     0.000 C 
BRANCH  13  14
ATOM     14  C   UNL     1     -21.089 117.083  -3.891  1.00  0.00     0.000 C 
BRANCH  14  15
ATOM     15  C   UNL     1     -21.303 118.328  -3.018  1.00  0.00     0.000 C 
BRANCH  15  16
ATOM     16  C   UNL     1     -20.191 118.462  -1.968  1.00  0.00     0.006 C 
BRANCH  16  17
ATOM     17  C   UNL     1     -20.024 119.906  -1.475  1.00  0.00     0.053 C 
BRANCH  17  18
ATOM     18  C   UNL     1     -21.148 120.318  -0.574  1.00  0.00     0.041 C 
ATOM     19  O   UNL     1     -21.931 121.242  -0.918  1.00  0.00    -0.550 OA
ATOM     20  O   UNL     1     -21.350 119.659   0.633  1.00  0.00    -0.550 OA
ENDBRANCH  17  18
ENDBRANCH  16  17
ENDBRANCH  15  16
ENDBRANCH  14  15
ENDBRANCH  13  14
ENDBRANCH  12  13
ENDBRANCH  11  12
ENDBRANCH   1  11
TORSDOF 15
ENDMDL
MODEL 8
REMARK VINA RESULT:    -4.017      2.385      5.548
REMARK INTER + INTRA:          -9.604
REMARK INTER:                  -7.379
REMARK INTRA:                  -2.225
REMARK UNBOUND:                -2.065
REMARK SMILES O=C([O-])CCCCCCCCCCCCCCC(=O)[O-]
REMARK SMILES IDX 10 1 9 2 8 3 7 4 6 5 5 6 4 7 2 8 1 9 3 10 11 11 12 12 13 13
REMARK SMILES IDX 14 14 15 15 16 16 17 17 18 18 19 19 20 20
REMARK H PARENT
REMARK Flexibility Score: inf
ROOT
ATOM      1  C   UNL     1     -20.002 119.749  -1.748  1.00  0.00     0.000 C 
ENDROOT
BRANCH   1   2
ATOM      2  C   UNL     1     -20.535 120.600  -0.582  1.00  0.00     0.000 C 
BRANCH   2   3
ATOM      3  C   UNL     1     -21.782 119.990   0.086  1.00  0.00     0.000 C 
BRANCH   3   4
ATOM      4  C   UNL     1     -21.521 118.741   0.948  1.00  0.00     0.000 C 
BRANCH   4   5
ATOM      5  C   UNL     1     -22.477 117.580   0.627  1.00  0.00     0.000 C 
BRANCH   5   6
ATOM      6  C   UNL     1     -23.483 117.933  -0.479  1.00  0.00     0.006 C 
BRANCH   6   7
ATOM      7  C   UNL     1     -24.422 116.768  -0.820  1.00  0.00     0.053 C 
BRANCH   7   8
ATOM      8  C   UNL     1     -25.208 116.362   0.386  1.00  0.00     0.041 C 
ATOM      9  O   UNL     1     -25.279 115.148   0.716  1.00  0.00    -0.550 OA
ATOM     10  O   UNL     1     -25.903 117.315   1.117  1.00  0.00    -0.550 OA
ENDBRANCH   7   8
ENDBRANCH   6   7
ENDBRANCH   5   6
ENDBRANCH   4   5
ENDBRANCH   3   4
ENDBRANCH   2   3
ENDBRANCH   1   2
BRANCH   1  11
ATOM     11  C   UNL     1     -21.013 119.628  -2.900  1.00  0.00     0.000 C 
BRANCH  11  12
ATOM     12  C   UNL     1     -21.299 118.169  -3.287  1.00  0.00     0.000 C 
BRANCH  12  13
ATOM     13  C   UNL     1     -20.334 117.213  -2.571  1.00  0.00     0.000 C 
BRANCH  13  14
ATOM     14  C   UNL     1     -20.781 115.745  -2.656  1.00  0.00     0.000 C 
BRANCH  14  15
ATOM     15  C   UNL     1     -20.784 115.045  -1.289  1.00  0.00     0.000 C 
BRANCH  15  16
ATOM     16  C   UNL     1     -19.594 114.081  -1.162  1.00  0.00     0.006 C 
BRANCH  16  17
ATOM     17  C   UNL     1     -18.500 114.625  -0.234  1.00  0.00     0.053 C 
BRANCH  17  18
ATOM     18  C   UNL     1     -17.215 114.860  -0.969  1.00  0.00     0.041 C 
ATOM     19  O   UNL     1     -16.160 114.279  -0.601  1.00  0.00    -0.550 OA
ATOM     20  O   UNL     1     -17.190 115.695  -2.079  1.00  0.00    -0.550 OA
ENDBRANCH  17  18
ENDBRANCH  16  17
ENDBRANCH  15  16
ENDBRANCH  14  15
ENDBRANCH  13  14
ENDBRANCH  12  13
ENDBRANCH  11  12
ENDBRANCH   1  11
TORSDOF 15
ENDMDL
MODEL 9
REMARK VINA RESULT:    -4.008      2.414      3.261
REMARK INTER + INTRA:          -9.588
REMARK INTER:                  -7.296
REMARK INTRA:                  -2.292
REMARK UNBOUND:                -2.065
REMARK SMILES O=C([O-])CCCCCCCCCCCCCCC(=O)[O-]
REMARK SMILES IDX 10 1 9 2 8 3 7 4 6 5 5 6 4 7 2 8 1 9 3 10 11 11 12 12 13 13
REMARK SMILES IDX 14 14 15 15 16 16 17 17 18 18 19 19 20 20
REMARK H PARENT
REMARK Flexibility Score: inf
ROOT
ATOM      1  C   UNL     1     -22.798 117.714   0.471  1.00  0.00     0.000 C 
ENDROOT
BRANCH   1   2
ATOM      2  C   UNL     1     -22.622 116.212   0.189  1.00  0.00     0.000 C 
BRANCH   2   3
ATOM      3  C   UNL     1     -21.239 115.870  -0.398  1.00  0.00     0.000 C 
BRANCH   3   4
ATOM      4  C   UNL     1     -21.231 115.513  -1.897  1.00  0.00     0.000 C 
BRANCH   4   5
ATOM      5  C   UNL     1     -19.943 115.955  -2.612  1.00  0.00     0.000 C 
BRANCH   5   6
ATOM      6  C   UNL     1     -18.859 116.432  -1.633  1.00  0.00     0.006 C 
BRANCH   6   7
ATOM      7  C   UNL     1     -17.495 115.779  -1.896  1.00  0.00     0.053 C 
BRANCH   7   8
ATOM      8  C   UNL     1     -17.170 114.797  -0.816  1.00  0.00     0.041 C 
ATOM      9  O   UNL     1     -18.079 114.366  -0.057  1.00  0.00    -0.550 OA
ATOM     10  O   UNL     1     -15.857 114.395  -0.614  1.00  0.00    -0.550 OA
ENDBRANCH   7   8
ENDBRANCH   6   7
ENDBRANCH   5   6
ENDBRANCH   4   5
ENDBRANCH   3   4
ENDBRANCH   2   3
ENDBRANCH   1   2
BRANCH   1  11
ATOM     11  C   UNL     1     -21.480 118.399   0.865  1.00  0.00     0.000 C 
BRANCH  11  12
ATOM     12  C   UNL     1     -21.397 119.854   0.376  1.00  0.00     0.000 C 
BRANCH  12  13
ATOM     13  C   UNL     1     -20.337 120.002  -0.724  1.00  0.00     0.000 C 
BRANCH  13  14
ATOM     14  C   UNL     1     -20.945 120.354  -2.091  1.00  0.00     0.000 C 
BRANCH  14  15
ATOM     15  C   UNL     1     -21.628 119.154  -2.763  1.00  0.00     0.000 C 
BRANCH  15  16
ATOM     16  C   UNL     1     -23.144 119.371  -2.868  1.00  0.00     0.006 C 
BRANCH  16  17
ATOM     17  C   UNL     1     -23.517 120.858  -2.926  1.00  0.00     0.053 C 
BRANCH  17  18
ATOM     18  C   UNL     1     -24.618 121.193  -1.966  1.00  0.00     0.041 C 
ATOM     19  O   UNL     1     -25.636 121.819  -2.363  1.00  0.00    -0.550 OA
ATOM     20  O   UNL     1     -24.535 120.784  -0.641  1.00  0.00    -0.550 OA
ENDBRANCH  17  18
ENDBRANCH  16  17
ENDBRANCH  15  16
ENDBRANCH  14  15
ENDBRANCH  13  14
ENDBRANCH  12  13
ENDBRANCH  11  12
ENDBRANCH   1  11
TORSDOF 15
ENDMDL
