MODEL 1
REMARK VINA RESULT:    -3.841      0.000      0.000
REMARK INTER + INTRA:         -14.528
REMARK INTER:                 -10.129
REMARK INTRA:                  -4.399
REMARK UNBOUND:                -4.399
REMARK SMILES CCCCCCCCCCCCCCCCCCCCCCCCCCCCCC(=O)[O-]
REMARK SMILES IDX 16 1 17 2 18 3 19 4 20 5 21 6 22 7 23 8 24 9 25 10 26 11
REMARK SMILES IDX 27 12 28 13 29 14 30 15 31 16 32 17 15 18 14 19 13 20 12 21
REMARK SMILES IDX 11 22 10 23 9 24 8 25 7 26 6 27 5 28 4 29 3 30 2 31 1 32
REMARK H PARENT
REMARK Flexibility Score: inf
ROOT
ATOM      1  C   UNL     1      -4.932  -8.472 -17.378  1.00  0.00     0.000 C 
ENDROOT
BRANCH   1   2
ATOM      2  C   UNL     1      -4.501  -9.470 -18.471  1.00  0.00     0.000 C 
BRANCH   2   3
ATOM      3  C   UNL     1      -4.858 -10.932 -18.132  1.00  0.00     0.000 C 
BRANCH   3   4
ATOM      4  C   UNL     1      -3.643 -11.867 -18.246  1.00  0.00     0.000 C 
BRANCH   4   5
ATOM      5  C   UNL     1      -2.357 -11.071 -18.517  1.00  0.00     0.000 C 
BRANCH   5   6
ATOM      6  C   UNL     1      -1.493 -11.680 -19.640  1.00  0.00     0.000 C 
BRANCH   6   7
ATOM      7  C   UNL     1      -1.057 -10.689 -20.742  1.00  0.00     0.000 C 
BRANCH   7   8
ATOM      8  C   UNL     1      -1.592  -9.258 -20.549  1.00  0.00     0.000 C 
BRANCH   8   9
ATOM      9  C   UNL     1      -0.475  -8.194 -20.594  1.00  0.00     0.000 C 
BRANCH   9  10
ATOM     10  C   UNL     1      -0.970  -6.829 -21.099  1.00  0.00     0.000 C 
BRANCH  10  11
ATOM     11  C   UNL     1      -1.262  -6.764 -22.616  1.00  0.00     0.000 C 
BRANCH  11  12
ATOM     12  C   UNL     1      -0.028  -7.027 -23.509  1.00  0.00     0.000 C 
BRANCH  12  13
ATOM     13  C   UNL     1      -0.362  -7.891 -24.745  1.00  0.00     0.006 C 
BRANCH  13  14
ATOM     14  C   UNL     1      -1.352  -9.019 -24.422  1.00  0.00     0.053 C 
BRANCH  14  15
ATOM     15  C   UNL     1      -1.881  -9.672 -25.662  1.00  0.00     0.041 C 
ATOM     16  O   UNL     1      -1.087 -10.132 -26.528  1.00  0.00    -0.550 OA
ATOM     17  O   UNL     1      -3.251  -9.773 -25.867  1.00  0.00    -0.550 OA
ENDBRANCH  14  15
ENDBRANCH  13  14
ENDBRANCH  12  13
ENDBRANCH  11  12
ENDBRANCH  10  11
ENDBRANCH   9  10
ENDBRANCH   8   9
ENDBRANCH   7   8
ENDBRANCH   6   7
ENDBRANCH   5   6
ENDBRANCH   4   5
ENDBRANCH   3   4
ENDBRANCH   2   3
ENDBRANCH   1   2
BRANCH   1  18
ATOM     18  C   UNL     1      -4.583  -7.011 -17.720  1.00  0.00     0.000 C 
BRANCH  18  19
ATOM     19  C   UNL     1      -3.354  -6.511 -16.940  1.00  0.00     0.000 C 
BRANCH  19  20
ATOM     20  C   UNL     1      -2.030  -6.918 -17.606  1.00  0.00     0.000 C 
BRANCH  20  21
ATOM     21  C   UNL     1      -1.242  -7.933 -16.762  1.00  0.00     0.000 C 
BRANCH  21  22
ATOM     22  C   UNL     1      -0.682  -7.319 -15.466  1.00  0.00     0.000 C 
BRANCH  22  23
ATOM     23  C   UNL     1      -1.124  -8.073 -14.191  1.00  0.00     0.000 C 
BRANCH  23  24
ATOM     24  C   UNL     1      -0.175  -9.234 -13.836  1.00  0.00    -0.000 C 
BRANCH  24  25
ATOM     25  C   UNL     1      -0.755 -10.128 -12.727  1.00  0.00    -0.000 C 
BRANCH  25  26
ATOM     26  C   UNL     1      -0.963 -11.580 -13.195  1.00  0.00    -0.000 C 
BRANCH  26  27
ATOM     27  C   UNL     1      -2.417 -12.050 -13.020  1.00  0.00    -0.000 C 
BRANCH  27  28
ATOM     28  C   UNL     1      -3.211 -11.951 -14.335  1.00  0.00    -0.000 C 
BRANCH  28  29
ATOM     29  C   UNL     1      -3.658 -10.514 -14.659  1.00  0.00    -0.000 C 
BRANCH  29  30
ATOM     30  C   UNL     1      -5.141 -10.224 -14.372  1.00  0.00    -0.000 C 
BRANCH  30  31
ATOM     31  C   UNL     1      -5.954 -11.493 -14.071  1.00  0.00    -0.003 C 
ATOM     32  C   UNL     1      -6.928 -11.260 -12.920  1.00  0.00     0.004 C 
ENDBRANCH  30  31
ENDBRANCH  29  30
ENDBRANCH  28  29
ENDBRANCH  27  28
ENDBRANCH  26  27
ENDBRANCH  25  26
ENDBRANCH  24  25
ENDBRANCH  23  24
ENDBRANCH  22  23
ENDBRANCH  21  22
ENDBRANCH  20  21
ENDBRANCH  19  20
ENDBRANCH  18  19
ENDBRANCH   1  18
TORSDOF 28
ENDMDL
MODEL 2
REMARK VINA RESULT:    -3.610      7.373     11.308
REMARK INTER + INTRA:         -13.919
REMARK INTER:                 -11.898
REMARK INTRA:                  -2.021
REMARK UNBOUND:                -4.399
REMARK SMILES CCCCCCCCCCCCCCCCCCCCCCCCCCCCCC(=O)[O-]
REMARK SMILES IDX 16 1 17 2 18 3 19 4 20 5 21 6 22 7 23 8 24 9 25 10 26 11
REMARK SMILES IDX 27 12 28 13 29 14 30 15 31 16 32 17 15 18 14 19 13 20 12 21
REMARK SMILES IDX 11 22 10 23 9 24 8 25 7 26 6 27 5 28 4 29 3 30 2 31 1 32
REMARK H PARENT
REMARK Flexibility Score: inf
ROOT
ATOM      1  C   UNL     1     -10.159 -11.001 -12.046  1.00  0.00     0.000 C 
ENDROOT
BRANCH   1   2
ATOM      2  C   UNL     1      -9.097 -10.960 -13.165  1.00  0.00     0.000 C 
BRANCH   2   3
ATOM      3  C   UNL     1      -7.651 -10.997 -12.628  1.00  0.00     0.000 C 
BRANCH   3   4
ATOM      4  C   UNL     1      -6.648 -11.453 -13.699  1.00  0.00     0.000 C 
BRANCH   4   5
ATOM      5  C   UNL     1      -6.552 -10.428 -14.840  1.00  0.00     0.000 C 
BRANCH   5   6
ATOM      6  C   UNL     1      -6.068  -9.041 -14.370  1.00  0.00     0.000 C 
BRANCH   6   7
ATOM      7  C   UNL     1      -4.654  -8.644 -14.849  1.00  0.00     0.000 C 
BRANCH   7   8
ATOM      8  C   UNL     1      -3.754  -9.840 -15.215  1.00  0.00     0.000 C 
BRANCH   8   9
ATOM      9  C   UNL     1      -2.319  -9.694 -14.666  1.00  0.00     0.000 C 
BRANCH   9  10
ATOM     10  C   UNL     1      -2.039  -8.295 -14.092  1.00  0.00     0.000 C 
BRANCH  10  11
ATOM     11  C   UNL     1      -0.914  -7.512 -14.808  1.00  0.00     0.000 C 
BRANCH  11  12
ATOM     12  C   UNL     1      -0.907  -7.678 -16.345  1.00  0.00     0.000 C 
BRANCH  12  13
ATOM     13  C   UNL     1      -1.973  -6.804 -17.041  1.00  0.00     0.006 C 
BRANCH  13  14
ATOM     14  C   UNL     1      -2.509  -7.447 -18.329  1.00  0.00     0.053 C 
BRANCH  14  15
ATOM     15  C   UNL     1      -4.004  -7.547 -18.325  1.00  0.00     0.041 C 
ATOM     16  O   UNL     1      -4.709  -6.539 -18.048  1.00  0.00    -0.550 OA
ATOM     17  O   UNL     1      -4.622  -8.755 -18.625  1.00  0.00    -0.550 OA
ENDBRANCH  14  15
ENDBRANCH  13  14
ENDBRANCH  12  13
ENDBRANCH  11  12
ENDBRANCH  10  11
ENDBRANCH   9  10
ENDBRANCH   8   9
ENDBRANCH   7   8
ENDBRANCH   6   7
ENDBRANCH   5   6
ENDBRANCH   4   5
ENDBRANCH   3   4
ENDBRANCH   2   3
ENDBRANCH   1   2
BRANCH   1  18
ATOM     18  C   UNL     1     -11.565 -10.600 -12.532  1.00  0.00     0.000 C 
BRANCH  18  19
ATOM     19  C   UNL     1     -12.519 -11.806 -12.601  1.00  0.00     0.000 C 
BRANCH  19  20
ATOM     20  C   UNL     1     -13.998 -11.385 -12.591  1.00  0.00     0.000 C 
BRANCH  20  21
ATOM     21  C   UNL     1     -14.178  -9.901 -12.233  1.00  0.00     0.000 C 
BRANCH  21  22
ATOM     22  C   UNL     1     -15.041  -9.143 -13.257  1.00  0.00     0.000 C 
BRANCH  22  23
ATOM     23  C   UNL     1     -16.559  -9.320 -13.029  1.00  0.00     0.000 C 
BRANCH  23  24
ATOM     24  C   UNL     1     -17.403  -8.497 -14.022  1.00  0.00    -0.000 C 
BRANCH  24  25
ATOM     25  C   UNL     1     -16.571  -7.397 -14.704  1.00  0.00    -0.000 C 
BRANCH  25  26
ATOM     26  C   UNL     1     -17.287  -6.036 -14.704  1.00  0.00    -0.000 C 
BRANCH  26  27
ATOM     27  C   UNL     1     -16.315  -4.861 -14.905  1.00  0.00    -0.000 C 
BRANCH  27  28
ATOM     28  C   UNL     1     -16.774  -3.928 -16.041  1.00  0.00    -0.000 C 
BRANCH  28  29
ATOM     29  C   UNL     1     -16.296  -2.477 -15.853  1.00  0.00    -0.000 C 
BRANCH  29  30
ATOM     30  C   UNL     1     -15.110  -2.073 -16.747  1.00  0.00    -0.000 C 
BRANCH  30  31
ATOM     31  C   UNL     1     -15.548  -1.436 -18.075  1.00  0.00    -0.003 C 
ATOM     32  C   UNL     1     -15.536  -2.461 -19.204  1.00  0.00     0.004 C 
ENDBRANCH  30  31
ENDBRANCH  29  30
ENDBRANCH  28  29
ENDBRANCH  27  28
ENDBRANCH  26  27
ENDBRANCH  25  26
ENDBRANCH  24  25
ENDBRANCH  23  24
ENDBRANCH  22  23
ENDBRANCH  21  22
ENDBRANCH  20  21
ENDBRANCH  19  20
ENDBRANCH  18  19
ENDBRANCH   1  18
TORSDOF 28
ENDMDL
MODEL 3
REMARK VINA RESULT:    -3.429      6.956      9.124
REMARK INTER + INTRA:         -13.440
REMARK INTER:                 -10.678
REMARK INTRA:                  -2.763
REMARK UNBOUND:                -4.399
REMARK SMILES CCCCCCCCCCCCCCCCCCCCCCCCCCCCCC(=O)[O-]
REMARK SMILES IDX 16 1 17 2 18 3 19 4 20 5 21 6 22 7 23 8 24 9 25 10 26 11
REMARK SMILES IDX 27 12 28 13 29 14 30 15 31 16 32 17 15 18 14 19 13 20 12 21
REMARK SMILES IDX 11 22 10 23 9 24 8 25 7 26 6 27 5 28 4 29 3 30 2 31 1 32
REMARK H PARENT
REMARK Flexibility Score: inf
ROOT
ATOM      1  C   UNL     1      -1.347  -6.236 -22.540  1.00  0.00     0.000 C 
ENDROOT
BRANCH   1   2
ATOM      2  C   UNL     1      -0.592  -6.164 -23.883  1.00  0.00     0.000 C 
BRANCH   2   3
ATOM      3  C   UNL     1      -0.352  -4.719 -24.366  1.00  0.00     0.000 C 
BRANCH   3   4
ATOM      4  C   UNL     1      -1.389  -3.738 -23.798  1.00  0.00     0.000 C 
BRANCH   4   5
ATOM      5  C   UNL     1      -1.395  -2.419 -24.587  1.00  0.00     0.000 C 
BRANCH   5   6
ATOM      6  C   UNL     1      -0.231  -2.310 -25.593  1.00  0.00     0.000 C 
BRANCH   6   7
ATOM      7  C   UNL     1      -0.639  -1.901 -27.026  1.00  0.00     0.000 C 
BRANCH   7   8
ATOM      8  C   UNL     1      -2.056  -1.305 -27.131  1.00  0.00     0.000 C 
BRANCH   8   9
ATOM      9  C   UNL     1      -2.089   0.011 -27.937  1.00  0.00     0.000 C 
BRANCH   9  10
ATOM     10  C   UNL     1      -0.686   0.550 -28.258  1.00  0.00     0.000 C 
BRANCH  10  11
ATOM     11  C   UNL     1      -0.488   2.058 -27.975  1.00  0.00     0.000 C 
BRANCH  11  12
ATOM     12  C   UNL     1      -1.119   2.987 -29.037  1.00  0.00     0.000 C 
BRANCH  12  13
ATOM     13  C   UNL     1      -2.050   4.052 -28.417  1.00  0.00     0.006 C 
BRANCH  13  14
ATOM     14  C   UNL     1      -3.018   4.655 -29.444  1.00  0.00     0.053 C 
BRANCH  14  15
ATOM     15  C   UNL     1      -4.386   4.861 -28.871  1.00  0.00     0.041 C 
ATOM     16  O   UNL     1      -4.813   4.109 -27.953  1.00  0.00    -0.550 OA
ATOM     17  O   UNL     1      -5.197   5.882 -29.353  1.00  0.00    -0.550 OA
ENDBRANCH  14  15
ENDBRANCH  13  14
ENDBRANCH  12  13
ENDBRANCH  11  12
ENDBRANCH  10  11
ENDBRANCH   9  10
ENDBRANCH   8   9
ENDBRANCH   7   8
ENDBRANCH   6   7
ENDBRANCH   5   6
ENDBRANCH   4   5
ENDBRANCH   3   4
ENDBRANCH   2   3
ENDBRANCH   1   2
BRANCH   1  18
ATOM     18  C   UNL     1      -2.115  -7.557 -22.348  1.00  0.00     0.000 C 
BRANCH  18  19
ATOM     19  C   UNL     1      -1.759  -8.246 -21.018  1.00  0.00     0.000 C 
BRANCH  19  20
ATOM     20  C   UNL     1      -1.627  -7.249 -19.856  1.00  0.00     0.000 C 
BRANCH  20  21
ATOM     21  C   UNL     1      -2.100  -7.846 -18.521  1.00  0.00     0.000 C 
BRANCH  21  22
ATOM     22  C   UNL     1      -3.576  -8.283 -18.555  1.00  0.00     0.000 C 
BRANCH  22  23
ATOM     23  C   UNL     1      -3.775  -9.791 -18.276  1.00  0.00     0.000 C 
BRANCH  23  24
ATOM     24  C   UNL     1      -5.262 -10.174 -18.150  1.00  0.00    -0.000 C 
BRANCH  24  25
ATOM     25  C   UNL     1      -5.485 -11.256 -17.080  1.00  0.00    -0.000 C 
BRANCH  25  26
ATOM     26  C   UNL     1      -6.237 -10.717 -15.850  1.00  0.00    -0.000 C 
BRANCH  26  27
ATOM     27  C   UNL     1      -5.284 -10.228 -14.747  1.00  0.00    -0.000 C 
BRANCH  27  28
ATOM     28  C   UNL     1      -5.104  -8.699 -14.785  1.00  0.00    -0.000 C 
BRANCH  28  29
ATOM     29  C   UNL     1      -3.629  -8.272 -14.887  1.00  0.00    -0.000 C 
BRANCH  29  30
ATOM     30  C   UNL     1      -2.619  -9.429 -14.785  1.00  0.00    -0.000 C 
BRANCH  30  31
ATOM     31  C   UNL     1      -1.174  -8.991 -15.068  1.00  0.00    -0.003 C 
ATOM     32  C   UNL     1      -1.019  -7.481 -14.919  1.00  0.00     0.004 C 
ENDBRANCH  30  31
ENDBRANCH  29  30
ENDBRANCH  28  29
ENDBRANCH  27  28
ENDBRANCH  26  27
ENDBRANCH  25  26
ENDBRANCH  24  25
ENDBRANCH  23  24
ENDBRANCH  22  23
ENDBRANCH  21  22
ENDBRANCH  20  21
ENDBRANCH  19  20
ENDBRANCH  18  19
ENDBRANCH   1  18
TORSDOF 28
ENDMDL
MODEL 4
REMARK VINA RESULT:    -3.404      8.015     11.802
REMARK INTER + INTRA:         -13.374
REMARK INTER:                 -11.636
REMARK INTRA:                  -1.738
REMARK UNBOUND:                -4.399
REMARK SMILES CCCCCCCCCCCCCCCCCCCCCCCCCCCCCC(=O)[O-]
REMARK SMILES IDX 16 1 17 2 18 3 19 4 20 5 21 6 22 7 23 8 24 9 25 10 26 11
REMARK SMILES IDX 27 12 28 13 29 14 30 15 31 16 32 17 15 18 14 19 13 20 12 21
REMARK SMILES IDX 11 22 10 23 9 24 8 25 7 26 6 27 5 28 4 29 3 30 2 31 1 32
REMARK H PARENT
REMARK Flexibility Score: inf
ROOT
ATOM      1  C   UNL     1     -10.010 -10.989 -12.017  1.00  0.00     0.000 C 
ENDROOT
BRANCH   1   2
ATOM      2  C   UNL     1      -8.897 -10.978 -13.085  1.00  0.00     0.000 C 
BRANCH   2   3
ATOM      3  C   UNL     1      -7.478 -10.986 -12.481  1.00  0.00     0.000 C 
BRANCH   3   4
ATOM      4  C   UNL     1      -6.415 -11.415 -13.505  1.00  0.00     0.000 C 
BRANCH   4   5
ATOM      5  C   UNL     1      -6.855 -11.070 -14.936  1.00  0.00     0.000 C 
BRANCH   5   6
ATOM      6  C   UNL     1      -5.890 -10.103 -15.652  1.00  0.00     0.000 C 
BRANCH   6   7
ATOM      7  C   UNL     1      -5.911  -8.649 -15.128  1.00  0.00     0.000 C 
BRANCH   7   8
ATOM      8  C   UNL     1      -4.762  -7.771 -15.659  1.00  0.00     0.000 C 
BRANCH   8   9
ATOM      9  C   UNL     1      -4.879  -7.488 -17.171  1.00  0.00     0.000 C 
BRANCH   9  10
ATOM     10  C   UNL     1      -3.514  -7.436 -17.876  1.00  0.00     0.000 C 
BRANCH  10  11
ATOM     11  C   UNL     1      -2.409  -6.683 -17.097  1.00  0.00     0.000 C 
BRANCH  11  12
ATOM     12  C   UNL     1      -1.240  -7.579 -16.633  1.00  0.00     0.000 C 
BRANCH  12  13
ATOM     13  C   UNL     1      -0.692  -7.172 -15.247  1.00  0.00     0.006 C 
BRANCH  13  14
ATOM     14  C   UNL     1      -1.411  -7.891 -14.097  1.00  0.00     0.053 C 
BRANCH  14  15
ATOM     15  C   UNL     1      -1.382  -9.380 -14.262  1.00  0.00     0.041 C 
ATOM     16  O   UNL     1      -0.289  -9.978 -14.459  1.00  0.00    -0.550 OA
ATOM     17  O   UNL     1      -2.562 -10.111 -14.203  1.00  0.00    -0.550 OA
ENDBRANCH  14  15
ENDBRANCH  13  14
ENDBRANCH  12  13
ENDBRANCH  11  12
ENDBRANCH  10  11
ENDBRANCH   9  10
ENDBRANCH   8   9
ENDBRANCH   7   8
ENDBRANCH   6   7
ENDBRANCH   5   6
ENDBRANCH   4   5
ENDBRANCH   3   4
ENDBRANCH   2   3
ENDBRANCH   1   2
BRANCH   1  18
ATOM     18  C   UNL     1     -11.386 -10.576 -12.573  1.00  0.00     0.000 C 
BRANCH  18  19
ATOM     19  C   UNL     1     -12.433 -11.694 -12.420  1.00  0.00     0.000 C 
BRANCH  19  20
ATOM     20  C   UNL     1     -13.846 -11.145 -12.168  1.00  0.00     0.000 C 
BRANCH  20  21
ATOM     21  C   UNL     1     -13.991  -9.683 -12.620  1.00  0.00     0.000 C 
BRANCH  21  22
ATOM     22  C   UNL     1     -15.243  -9.450 -13.484  1.00  0.00     0.000 C 
BRANCH  22  23
ATOM     23  C   UNL     1     -15.667  -7.965 -13.561  1.00  0.00     0.000 C 
BRANCH  23  24
ATOM     24  C   UNL     1     -16.495  -7.655 -14.823  1.00  0.00    -0.000 C 
BRANCH  24  25
ATOM     25  C   UNL     1     -17.523  -6.539 -14.572  1.00  0.00    -0.000 C 
BRANCH  25  26
ATOM     26  C   UNL     1     -18.248  -6.111 -15.860  1.00  0.00    -0.000 C 
BRANCH  26  27
ATOM     27  C   UNL     1     -17.520  -4.972 -16.594  1.00  0.00    -0.000 C 
BRANCH  27  28
ATOM     28  C   UNL     1     -18.502  -4.059 -17.350  1.00  0.00    -0.000 C 
BRANCH  28  29
ATOM     29  C   UNL     1     -17.793  -3.065 -18.288  1.00  0.00    -0.000 C 
BRANCH  29  30
ATOM     30  C   UNL     1     -17.124  -1.877 -17.575  1.00  0.00    -0.000 C 
BRANCH  30  31
ATOM     31  C   UNL     1     -15.594  -1.996 -17.517  1.00  0.00    -0.003 C 
ATOM     32  C   UNL     1     -15.086  -1.835 -16.087  1.00  0.00     0.004 C 
ENDBRANCH  30  31
ENDBRANCH  29  30
ENDBRANCH  28  29
ENDBRANCH  27  28
ENDBRANCH  26  27
ENDBRANCH  25  26
ENDBRANCH  24  25
ENDBRANCH  23  24
ENDBRANCH  22  23
ENDBRANCH  21  22
ENDBRANCH  20  21
ENDBRANCH  19  20
ENDBRANCH  18  19
ENDBRANCH   1  18
TORSDOF 28
ENDMDL
MODEL 5
REMARK VINA RESULT:    -3.346      8.774     12.804
REMARK INTER + INTRA:         -13.221
REMARK INTER:                 -11.264
REMARK INTRA:                  -1.957
REMARK UNBOUND:                -4.399
REMARK SMILES CCCCCCCCCCCCCCCCCCCCCCCCCCCCCC(=O)[O-]
REMARK SMILES IDX 16 1 17 2 18 3 19 4 20 5 21 6 22 7 23 8 24 9 25 10 26 11
REMARK SMILES IDX 27 12 28 13 29 14 30 15 31 16 32 17 15 18 14 19 13 20 12 21
REMARK SMILES IDX 11 22 10 23 9 24 8 25 7 26 6 27 5 28 4 29 3 30 2 31 1 32
REMARK H PARENT
REMARK Flexibility Score: inf
ROOT
ATOM      1  C   UNL     1     -13.948  -9.759 -12.279  1.00  0.00     0.000 C 
ENDROOT
BRANCH   1   2
ATOM      2  C   UNL     1     -13.116 -10.621 -13.250  1.00  0.00     0.000 C 
BRANCH   2   3
ATOM      3  C   UNL     1     -12.359 -11.767 -12.546  1.00  0.00     0.000 C 
BRANCH   3   4
ATOM      4  C   UNL     1     -11.055 -11.284 -11.892  1.00  0.00     0.000 C 
BRANCH   4   5
ATOM      5  C   UNL     1     -10.123 -10.638 -12.928  1.00  0.00     0.000 C 
BRANCH   5   6
ATOM      6  C   UNL     1      -8.643 -11.029 -12.740  1.00  0.00     0.000 C 
BRANCH   6   7
ATOM      7  C   UNL     1      -7.749 -10.830 -13.984  1.00  0.00     0.000 C 
BRANCH   7   8
ATOM      8  C   UNL     1      -6.540  -9.904 -13.749  1.00  0.00     0.000 C 
BRANCH   8   9
ATOM      9  C   UNL     1      -6.264  -8.971 -14.946  1.00  0.00     0.000 C 
BRANCH   9  10
ATOM     10  C   UNL     1      -4.904  -8.260 -14.847  1.00  0.00     0.000 C 
BRANCH  10  11
ATOM     11  C   UNL     1      -3.677  -9.202 -14.846  1.00  0.00     0.000 C 
BRANCH  11  12
ATOM     12  C   UNL     1      -2.318  -8.469 -14.890  1.00  0.00     0.000 C 
BRANCH  12  13
ATOM     13  C   UNL     1      -2.104  -7.692 -16.207  1.00  0.00     0.006 C 
BRANCH  13  14
ATOM     14  C   UNL     1      -2.173  -8.600 -17.443  1.00  0.00     0.053 C 
BRANCH  14  15
ATOM     15  C   UNL     1      -3.326  -8.250 -18.332  1.00  0.00     0.041 C 
ATOM     16  O   UNL     1      -3.269  -7.234 -19.079  1.00  0.00    -0.550 OA
ATOM     17  O   UNL     1      -4.469  -9.041 -18.338  1.00  0.00    -0.550 OA
ENDBRANCH  14  15
ENDBRANCH  13  14
ENDBRANCH  12  13
ENDBRANCH  11  12
ENDBRANCH  10  11
ENDBRANCH   9  10
ENDBRANCH   8   9
ENDBRANCH   7   8
ENDBRANCH   6   7
ENDBRANCH   5   6
ENDBRANCH   4   5
ENDBRANCH   3   4
ENDBRANCH   2   3
ENDBRANCH   1   2
BRANCH   1  18
ATOM     18  C   UNL     1     -14.936  -8.821 -12.997  1.00  0.00     0.000 C 
BRANCH  18  19
ATOM     19  C   UNL     1     -16.399  -9.252 -12.790  1.00  0.00     0.000 C 
BRANCH  19  20
ATOM     20  C   UNL     1     -17.107  -9.580 -14.115  1.00  0.00     0.000 C 
BRANCH  20  21
ATOM     21  C   UNL     1     -17.357  -8.325 -14.967  1.00  0.00     0.000 C 
BRANCH  21  22
ATOM     22  C   UNL     1     -18.652  -7.590 -14.577  1.00  0.00     0.000 C 
BRANCH  22  23
ATOM     23  C   UNL     1     -18.485  -6.056 -14.493  1.00  0.00     0.000 C 
BRANCH  23  24
ATOM     24  C   UNL     1     -17.102  -5.588 -14.985  1.00  0.00    -0.000 C 
BRANCH  24  25
ATOM     25  C   UNL     1     -17.213  -4.651 -16.199  1.00  0.00    -0.000 C 
BRANCH  25  26
ATOM     26  C   UNL     1     -17.863  -3.303 -15.841  1.00  0.00    -0.000 C 
BRANCH  26  27
ATOM     27  C   UNL     1     -16.823  -2.214 -15.531  1.00  0.00    -0.000 C 
BRANCH  27  28
ATOM     28  C   UNL     1     -15.506  -2.448 -16.292  1.00  0.00    -0.000 C 
BRANCH  28  29
ATOM     29  C   UNL     1     -15.408  -1.623 -17.588  1.00  0.00    -0.000 C 
BRANCH  29  30
ATOM     30  C   UNL     1     -15.533  -2.447 -18.882  1.00  0.00    -0.000 C 
BRANCH  30  31
ATOM     31  C   UNL     1     -16.757  -2.058 -19.726  1.00  0.00    -0.003 C 
ATOM     32  C   UNL     1     -16.614  -0.645 -20.280  1.00  0.00     0.004 C 
ENDBRANCH  30  31
ENDBRANCH  29  30
ENDBRANCH  28  29
ENDBRANCH  27  28
ENDBRANCH  26  27
ENDBRANCH  25  26
ENDBRANCH  24  25
ENDBRANCH  23  24
ENDBRANCH  22  23
ENDBRANCH  21  22
ENDBRANCH  20  21
ENDBRANCH  19  20
ENDBRANCH  18  19
ENDBRANCH   1  18
TORSDOF 28
ENDMDL
MODEL 6
REMARK VINA RESULT:    -3.326      7.257     10.871
REMARK INTER + INTRA:         -13.168
REMARK INTER:                 -11.795
REMARK INTRA:                  -1.373
REMARK UNBOUND:                -4.399
REMARK SMILES CCCCCCCCCCCCCCCCCCCCCCCCCCCCCC(=O)[O-]
REMARK SMILES IDX 16 1 17 2 18 3 19 4 20 5 21 6 22 7 23 8 24 9 25 10 26 11
REMARK SMILES IDX 27 12 28 13 29 14 30 15 31 16 32 17 15 18 14 19 13 20 12 21
REMARK SMILES IDX 11 22 10 23 9 24 8 25 7 26 6 27 5 28 4 29 3 30 2 31 1 32
REMARK H PARENT
REMARK Flexibility Score: inf
ROOT
ATOM      1  C   UNL     1      -9.864 -11.003 -12.060  1.00  0.00     0.000 C 
ENDROOT
BRANCH   1   2
ATOM      2  C   UNL     1      -8.836 -11.235 -13.186  1.00  0.00     0.000 C 
BRANCH   2   3
ATOM      3  C   UNL     1      -7.398 -10.848 -12.783  1.00  0.00     0.000 C 
BRANCH   3   4
ATOM      4  C   UNL     1      -6.343 -11.551 -13.652  1.00  0.00     0.000 C 
BRANCH   4   5
ATOM      5  C   UNL     1      -6.660 -11.388 -15.147  1.00  0.00     0.000 C 
BRANCH   5   6
ATOM      6  C   UNL     1      -5.896 -10.221 -15.805  1.00  0.00     0.000 C 
BRANCH   6   7
ATOM      7  C   UNL     1      -5.176  -9.272 -14.821  1.00  0.00     0.000 C 
BRANCH   7   8
ATOM      8  C   UNL     1      -4.269  -8.229 -15.502  1.00  0.00     0.000 C 
BRANCH   8   9
ATOM      9  C   UNL     1      -5.033  -7.345 -16.511  1.00  0.00     0.000 C 
BRANCH   9  10
ATOM     10  C   UNL     1      -4.111  -6.707 -17.562  1.00  0.00     0.000 C 
BRANCH  10  11
ATOM     11  C   UNL     1      -2.617  -7.090 -17.436  1.00  0.00     0.000 C 
BRANCH  11  12
ATOM     12  C   UNL     1      -1.891  -7.259 -18.789  1.00  0.00     0.000 C 
BRANCH  12  13
ATOM     13  C   UNL     1      -1.928  -8.715 -19.305  1.00  0.00     0.006 C 
BRANCH  13  14
ATOM     14  C   UNL     1      -2.475  -8.816 -20.736  1.00  0.00     0.053 C 
BRANCH  14  15
ATOM     15  C   UNL     1      -1.898  -7.764 -21.632  1.00  0.00     0.041 C 
ATOM     16  O   UNL     1      -2.620  -6.819 -22.053  1.00  0.00    -0.550 OA
ATOM     17  O   UNL     1      -0.561  -7.824 -22.008  1.00  0.00    -0.550 OA
ENDBRANCH  14  15
ENDBRANCH  13  14
ENDBRANCH  12  13
ENDBRANCH  11  12
ENDBRANCH  10  11
ENDBRANCH   9  10
ENDBRANCH   8   9
ENDBRANCH   7   8
ENDBRANCH   6   7
ENDBRANCH   5   6
ENDBRANCH   4   5
ENDBRANCH   3   4
ENDBRANCH   2   3
ENDBRANCH   1   2
BRANCH   1  18
ATOM     18  C   UNL     1     -11.260 -10.617 -12.586  1.00  0.00     0.000 C 
BRANCH  18  19
ATOM     19  C   UNL     1     -12.298 -11.727 -12.342  1.00  0.00     0.000 C 
BRANCH  19  20
ATOM     20  C   UNL     1     -13.724 -11.175 -12.193  1.00  0.00     0.000 C 
BRANCH  20  21
ATOM     21  C   UNL     1     -13.818  -9.692 -12.591  1.00  0.00     0.000 C 
BRANCH  21  22
ATOM     22  C   UNL     1     -14.872  -9.436 -13.683  1.00  0.00     0.000 C 
BRANCH  22  23
ATOM     23  C   UNL     1     -15.856  -8.297 -13.329  1.00  0.00     0.000 C 
BRANCH  23  24
ATOM     24  C   UNL     1     -16.747  -7.899 -14.521  1.00  0.00    -0.000 C 
BRANCH  24  25
ATOM     25  C   UNL     1     -17.946  -7.044 -14.079  1.00  0.00    -0.000 C 
BRANCH  25  26
ATOM     26  C   UNL     1     -18.106  -5.773 -14.930  1.00  0.00    -0.000 C 
BRANCH  26  27
ATOM     27  C   UNL     1     -16.804  -4.960 -15.023  1.00  0.00    -0.000 C 
BRANCH  27  28
ATOM     28  C   UNL     1     -17.055  -3.537 -15.554  1.00  0.00    -0.000 C 
BRANCH  28  29
ATOM     29  C   UNL     1     -15.960  -2.539 -15.132  1.00  0.00    -0.000 C 
BRANCH  29  30
ATOM     30  C   UNL     1     -15.179  -1.915 -16.301  1.00  0.00    -0.000 C 
BRANCH  30  31
ATOM     31  C   UNL     1     -15.530  -2.539 -17.661  1.00  0.00    -0.003 C 
ATOM     32  C   UNL     1     -15.268  -1.557 -18.798  1.00  0.00     0.004 C 
ENDBRANCH  30  31
ENDBRANCH  29  30
ENDBRANCH  28  29
ENDBRANCH  27  28
ENDBRANCH  26  27
ENDBRANCH  25  26
ENDBRANCH  24  25
ENDBRANCH  23  24
ENDBRANCH  22  23
ENDBRANCH  21  22
ENDBRANCH  20  21
ENDBRANCH  19  20
ENDBRANCH  18  19
ENDBRANCH   1  18
TORSDOF 28
ENDMDL
MODEL 7
REMARK VINA RESULT:    -3.302     13.515     16.868
REMARK INTER + INTRA:         -13.107
REMARK INTER:                  -9.600
REMARK INTRA:                  -3.507
REMARK UNBOUND:                -4.399
REMARK SMILES CCCCCCCCCCCCCCCCCCCCCCCCCCCCCC(=O)[O-]
REMARK SMILES IDX 16 1 17 2 18 3 19 4 20 5 21 6 22 7 23 8 24 9 25 10 26 11
REMARK SMILES IDX 27 12 28 13 29 14 30 15 31 16 32 17 15 18 14 19 13 20 12 21
REMARK SMILES IDX 11 22 10 23 9 24 8 25 7 26 6 27 5 28 4 29 3 30 2 31 1 32
REMARK H PARENT
REMARK Flexibility Score: inf
ROOT
ATOM      1  C   UNL     1     -19.716  -3.018 -18.645  1.00  0.00     0.000 C 
ENDROOT
BRANCH   1   2
ATOM      2  C   UNL     1     -19.414  -1.755 -17.812  1.00  0.00     0.000 C 
BRANCH   2   3
ATOM      3  C   UNL     1     -19.888  -0.454 -18.491  1.00  0.00     0.000 C 
BRANCH   3   4
ATOM      4  C   UNL     1     -18.773   0.602 -18.564  1.00  0.00     0.000 C 
BRANCH   4   5
ATOM      5  C   UNL     1     -18.903   1.457 -19.833  1.00  0.00     0.000 C 
BRANCH   5   6
ATOM      6  C   UNL     1     -19.852   0.844 -20.883  1.00  0.00     0.000 C 
BRANCH   6   7
ATOM      7  C   UNL     1     -19.209   0.556 -22.258  1.00  0.00     0.000 C 
BRANCH   7   8
ATOM      8  C   UNL     1     -17.707   0.219 -22.194  1.00  0.00     0.000 C 
BRANCH   8   9
ATOM      9  C   UNL     1     -17.439  -1.300 -22.175  1.00  0.00     0.000 C 
BRANCH   9  10
ATOM     10  C   UNL     1     -17.280  -1.860 -20.752  1.00  0.00     0.000 C 
BRANCH  10  11
ATOM     11  C   UNL     1     -15.818  -2.076 -20.297  1.00  0.00     0.000 C 
BRANCH  11  12
ATOM     12  C   UNL     1     -15.432  -1.297 -19.019  1.00  0.00     0.000 C 
BRANCH  12  13
ATOM     13  C   UNL     1     -15.286  -2.215 -17.785  1.00  0.00     0.006 C 
BRANCH  13  14
ATOM     14  C   UNL     1     -16.037  -1.674 -16.560  1.00  0.00     0.053 C 
BRANCH  14  15
ATOM     15  C   UNL     1     -15.428  -2.147 -15.276  1.00  0.00     0.041 C 
ATOM     16  O   UNL     1     -14.358  -1.632 -14.851  1.00  0.00    -0.550 OA
ATOM     17  O   UNL     1     -16.038  -3.160 -14.546  1.00  0.00    -0.550 OA
ENDBRANCH  14  15
ENDBRANCH  13  14
ENDBRANCH  12  13
ENDBRANCH  11  12
ENDBRANCH  10  11
ENDBRANCH   9  10
ENDBRANCH   8   9
ENDBRANCH   7   8
ENDBRANCH   6   7
ENDBRANCH   5   6
ENDBRANCH   4   5
ENDBRANCH   3   4
ENDBRANCH   2   3
ENDBRANCH   1   2
BRANCH   1  18
ATOM     18  C   UNL     1     -19.528  -4.325 -17.853  1.00  0.00     0.000 C 
BRANCH  18  19
ATOM     19  C   UNL     1     -18.665  -4.120 -16.595  1.00  0.00     0.000 C 
BRANCH  19  20
ATOM     20  C   UNL     1     -19.416  -4.478 -15.302  1.00  0.00     0.000 C 
BRANCH  20  21
ATOM     21  C   UNL     1     -18.854  -5.743 -14.634  1.00  0.00     0.000 C 
BRANCH  21  22
ATOM     22  C   UNL     1     -17.865  -6.502 -15.536  1.00  0.00     0.000 C 
BRANCH  22  23
ATOM     23  C   UNL     1     -16.552  -6.888 -14.817  1.00  0.00     0.000 C 
BRANCH  23  24
ATOM     24  C   UNL     1     -16.727  -8.106 -13.889  1.00  0.00    -0.000 C 
BRANCH  24  25
ATOM     25  C   UNL     1     -18.011  -8.890 -14.211  1.00  0.00    -0.000 C 
BRANCH  25  26
ATOM     26  C   UNL     1     -17.755 -10.061 -15.177  1.00  0.00    -0.000 C 
BRANCH  26  27
ATOM     27  C   UNL     1     -17.532 -11.392 -14.440  1.00  0.00    -0.000 C 
BRANCH  27  28
ATOM     28  C   UNL     1     -16.253 -12.103 -14.918  1.00  0.00    -0.000 C 
BRANCH  28  29
ATOM     29  C   UNL     1     -15.009 -11.712 -14.099  1.00  0.00    -0.000 C 
BRANCH  29  30
ATOM     30  C   UNL     1     -15.314 -11.167 -12.693  1.00  0.00    -0.000 C 
BRANCH  30  31
ATOM     31  C   UNL     1     -14.123 -10.428 -12.063  1.00  0.00    -0.003 C 
ATOM     32  C   UNL     1     -12.949 -10.356 -13.034  1.00  0.00     0.004 C 
ENDBRANCH  30  31
ENDBRANCH  29  30
ENDBRANCH  28  29
ENDBRANCH  27  28
ENDBRANCH  26  27
ENDBRANCH  25  26
ENDBRANCH  24  25
ENDBRANCH  23  24
ENDBRANCH  22  23
ENDBRANCH  21  22
ENDBRANCH  20  21
ENDBRANCH  19  20
ENDBRANCH  18  19
ENDBRANCH   1  18
TORSDOF 28
ENDMDL
MODEL 8
REMARK VINA RESULT:    -3.276     13.709     17.198
REMARK INTER + INTRA:         -13.036
REMARK INTER:                  -9.142
REMARK INTRA:                  -3.895
REMARK UNBOUND:                -4.399
REMARK SMILES CCCCCCCCCCCCCCCCCCCCCCCCCCCCCC(=O)[O-]
REMARK SMILES IDX 16 1 17 2 18 3 19 4 20 5 21 6 22 7 23 8 24 9 25 10 26 11
REMARK SMILES IDX 27 12 28 13 29 14 30 15 31 16 32 17 15 18 14 19 13 20 12 21
REMARK SMILES IDX 11 22 10 23 9 24 8 25 7 26 6 27 5 28 4 29 3 30 2 31 1 32
REMARK H PARENT
REMARK Flexibility Score: inf
ROOT
ATOM      1  C   UNL     1     -19.687  -3.207 -16.154  1.00  0.00     0.000 C 
ENDROOT
BRANCH   1   2
ATOM      2  C   UNL     1     -20.098  -1.983 -16.998  1.00  0.00     0.000 C 
BRANCH   2   3
ATOM      3  C   UNL     1     -19.952  -0.647 -16.239  1.00  0.00     0.000 C 
BRANCH   3   4
ATOM      4  C   UNL     1     -19.069   0.356 -16.997  1.00  0.00     0.000 C 
BRANCH   4   5
ATOM      5  C   UNL     1     -19.791   0.898 -18.240  1.00  0.00     0.000 C 
BRANCH   5   6
ATOM      6  C   UNL     1     -18.826   1.457 -19.306  1.00  0.00     0.000 C 
BRANCH   6   7
ATOM      7  C   UNL     1     -18.525   0.502 -20.482  1.00  0.00     0.000 C 
BRANCH   7   8
ATOM      8  C   UNL     1     -19.627  -0.543 -20.744  1.00  0.00     0.000 C 
BRANCH   8   9
ATOM      9  C   UNL     1     -19.094  -1.990 -20.711  1.00  0.00     0.000 C 
BRANCH   9  10
ATOM     10  C   UNL     1     -17.966  -2.188 -19.686  1.00  0.00     0.000 C 
BRANCH  10  11
ATOM     11  C   UNL     1     -16.538  -2.178 -20.281  1.00  0.00     0.000 C 
BRANCH  11  12
ATOM     12  C   UNL     1     -15.464  -1.590 -19.338  1.00  0.00     0.000 C 
BRANCH  12  13
ATOM     13  C   UNL     1     -15.976  -1.417 -17.890  1.00  0.00     0.006 C 
BRANCH  13  14
ATOM     14  C   UNL     1     -15.419  -2.487 -16.940  1.00  0.00     0.053 C 
BRANCH  14  15
ATOM     15  C   UNL     1     -16.056  -2.420 -15.586  1.00  0.00     0.041 C 
ATOM     16  O   UNL     1     -16.087  -3.440 -14.845  1.00  0.00    -0.550 OA
ATOM     17  O   UNL     1     -16.619  -1.230 -15.139  1.00  0.00    -0.550 OA
ENDBRANCH  14  15
ENDBRANCH  13  14
ENDBRANCH  12  13
ENDBRANCH  11  12
ENDBRANCH  10  11
ENDBRANCH   9  10
ENDBRANCH   8   9
ENDBRANCH   7   8
ENDBRANCH   6   7
ENDBRANCH   5   6
ENDBRANCH   4   5
ENDBRANCH   3   4
ENDBRANCH   2   3
ENDBRANCH   1   2
BRANCH   1  18
ATOM     18  C   UNL     1     -19.665  -4.518 -16.962  1.00  0.00     0.000 C 
BRANCH  18  19
ATOM     19  C   UNL     1     -18.248  -5.110 -17.068  1.00  0.00     0.000 C 
BRANCH  19  20
ATOM     20  C   UNL     1     -18.160  -6.530 -16.486  1.00  0.00     0.000 C 
BRANCH  20  21
ATOM     21  C   UNL     1     -19.548  -7.141 -16.230  1.00  0.00     0.000 C 
BRANCH  21  22
ATOM     22  C   UNL     1     -19.806  -8.403 -17.072  1.00  0.00     0.000 C 
BRANCH  22  23
ATOM     23  C   UNL     1     -18.596  -9.363 -17.123  1.00  0.00     0.000 C 
BRANCH  23  24
ATOM     24  C   UNL     1     -18.936 -10.765 -16.581  1.00  0.00    -0.000 C 
BRANCH  24  25
ATOM     25  C   UNL     1     -18.322 -11.006 -15.191  1.00  0.00    -0.000 C 
BRANCH  25  26
ATOM     26  C   UNL     1     -17.460  -9.822 -14.719  1.00  0.00    -0.000 C 
BRANCH  26  27
ATOM     27  C   UNL     1     -17.795  -9.388 -13.282  1.00  0.00    -0.000 C 
BRANCH  27  28
ATOM     28  C   UNL     1     -16.525  -9.174 -12.439  1.00  0.00    -0.000 C 
BRANCH  28  29
ATOM     29  C   UNL     1     -15.236  -9.202 -13.281  1.00  0.00    -0.000 C 
BRANCH  29  30
ATOM     30  C   UNL     1     -14.076  -9.992 -12.650  1.00  0.00    -0.000 C 
BRANCH  30  31
ATOM     31  C   UNL     1     -13.476 -11.039 -13.601  1.00  0.00    -0.003 C 
ATOM     32  C   UNL     1     -12.607 -12.036 -12.840  1.00  0.00     0.004 C 
ENDBRANCH  30  31
ENDBRANCH  29  30
ENDBRANCH  28  29
ENDBRANCH  27  28
ENDBRANCH  26  27
ENDBRANCH  25  26
ENDBRANCH  24  25
ENDBRANCH  23  24
ENDBRANCH  22  23
ENDBRANCH  21  22
ENDBRANCH  20  21
ENDBRANCH  19  20
ENDBRANCH  18  19
ENDBRANCH   1  18
TORSDOF 28
ENDMDL
MODEL 9
REMARK VINA RESULT:    -3.184     14.072     18.645
REMARK INTER + INTRA:         -12.796
REMARK INTER:                 -10.402
REMARK INTRA:                  -2.394
REMARK UNBOUND:                -4.399
REMARK SMILES CCCCCCCCCCCCCCCCCCCCCCCCCCCCCC(=O)[O-]
REMARK SMILES IDX 16 1 17 2 18 3 19 4 20 5 21 6 22 7 23 8 24 9 25 10 26 11
REMARK SMILES IDX 27 12 28 13 29 14 30 15 31 16 32 17 15 18 14 19 13 20 12 21
REMARK SMILES IDX 11 22 10 23 9 24 8 25 7 26 6 27 5 28 4 29 3 30 2 31 1 32
REMARK H PARENT
REMARK Flexibility Score: inf
ROOT
ATOM      1  C   UNL     1     -16.108  -2.757 -16.274  1.00  0.00     0.000 C 
ENDROOT
BRANCH   1   2
ATOM      2  C   UNL     1     -16.896  -4.071 -16.094  1.00  0.00     0.000 C 
BRANCH   2   3
ATOM      3  C   UNL     1     -16.407  -4.911 -14.896  1.00  0.00     0.000 C 
BRANCH   3   4
ATOM      4  C   UNL     1     -16.476  -6.420 -15.180  1.00  0.00     0.000 C 
BRANCH   4   5
ATOM      5  C   UNL     1     -17.896  -6.841 -15.587  1.00  0.00     0.000 C 
BRANCH   5   6
ATOM      6  C   UNL     1     -17.921  -7.800 -16.795  1.00  0.00     0.000 C 
BRANCH   6   7
ATOM      7  C   UNL     1     -19.104  -8.793 -16.819  1.00  0.00     0.000 C 
BRANCH   7   8
ATOM      8  C   UNL     1     -19.004  -9.920 -15.774  1.00  0.00     0.000 C 
BRANCH   8   9
ATOM      9  C   UNL     1     -17.793 -10.846 -16.012  1.00  0.00     0.000 C 
BRANCH   9  10
ATOM     10  C   UNL     1     -17.351 -11.589 -14.741  1.00  0.00     0.000 C 
BRANCH  10  11
ATOM     11  C   UNL     1     -17.298 -10.717 -13.464  1.00  0.00     0.000 C 
BRANCH  11  12
ATOM     12  C   UNL     1     -16.296  -9.543 -13.541  1.00  0.00     0.000 C 
BRANCH  12  13
ATOM     13  C   UNL     1     -15.405  -9.439 -12.284  1.00  0.00     0.006 C 
BRANCH  13  14
ATOM     14  C   UNL     1     -14.612 -10.726 -12.018  1.00  0.00     0.053 C 
BRANCH  14  15
ATOM     15  C   UNL     1     -13.491 -10.905 -12.995  1.00  0.00     0.041 C 
ATOM     16  O   UNL     1     -12.422 -10.248 -12.866  1.00  0.00    -0.550 OA
ATOM     17  O   UNL     1     -13.624 -11.797 -14.053  1.00  0.00    -0.550 OA
ENDBRANCH  14  15
ENDBRANCH  13  14
ENDBRANCH  12  13
ENDBRANCH  11  12
ENDBRANCH  10  11
ENDBRANCH   9  10
ENDBRANCH   8   9
ENDBRANCH   7   8
ENDBRANCH   6   7
ENDBRANCH   5   6
ENDBRANCH   4   5
ENDBRANCH   3   4
ENDBRANCH   2   3
ENDBRANCH   1   2
BRANCH   1  18
ATOM     18  C   UNL     1     -16.549  -1.649 -15.300  1.00  0.00     0.000 C 
BRANCH  18  19
ATOM     19  C   UNL     1     -18.077  -1.457 -15.293  1.00  0.00     0.000 C 
BRANCH  19  20
ATOM     20  C   UNL     1     -18.636  -1.145 -16.690  1.00  0.00     0.000 C 
BRANCH  20  21
ATOM     21  C   UNL     1     -18.469   0.337 -17.065  1.00  0.00     0.000 C 
BRANCH  21  22
ATOM     22  C   UNL     1     -18.510   0.573 -18.585  1.00  0.00     0.000 C 
BRANCH  22  23
ATOM     23  C   UNL     1     -17.481  -0.277 -19.365  1.00  0.00     0.000 C 
BRANCH  23  24
ATOM     24  C   UNL     1     -18.150  -1.381 -20.207  1.00  0.00    -0.000 C 
BRANCH  24  25
ATOM     25  C   UNL     1     -17.617  -1.401 -21.650  1.00  0.00    -0.000 C 
BRANCH  25  26
ATOM     26  C   UNL     1     -18.744  -1.539 -22.689  1.00  0.00    -0.000 C 
BRANCH  26  27
ATOM     27  C   UNL     1     -19.572  -0.251 -22.830  1.00  0.00    -0.000 C 
BRANCH  27  28
ATOM     28  C   UNL     1     -18.688   0.963 -23.169  1.00  0.00    -0.000 C 
BRANCH  28  29
ATOM     29  C   UNL     1     -19.462   2.294 -23.143  1.00  0.00    -0.000 C 
BRANCH  29  30
ATOM     30  C   UNL     1     -19.161   3.232 -24.325  1.00  0.00    -0.000 C 
BRANCH  30  31
ATOM     31  C   UNL     1     -17.709   3.734 -24.340  1.00  0.00    -0.003 C 
ATOM     32  C   UNL     1     -17.622   5.142 -24.919  1.00  0.00     0.004 C 
ENDBRANCH  30  31
ENDBRANCH  29  30
ENDBRANCH  28  29
ENDBRANCH  27  28
ENDBRANCH  26  27
ENDBRANCH  25  26
ENDBRANCH  24  25
ENDBRANCH  23  24
ENDBRANCH  22  23
ENDBRANCH  21  22
ENDBRANCH  20  21
ENDBRANCH  19  20
ENDBRANCH  18  19
ENDBRANCH   1  18
TORSDOF 28
ENDMDL
