MODEL 1
REMARK VINA RESULT:    -4.854      0.000      0.000
REMARK INTER + INTRA:          -7.386
REMARK INTER:                  -7.408
REMARK INTRA:                   0.022
REMARK UNBOUND:                 0.022
REMARK SMILES CC1=CCC[C@@H](C)C(=O)C[C@H](C(C)C)C(=O)C1
REMARK SMILES IDX 8 1 9 2 6 3 7 4 5 5 4 6 3 7 2 8 1 9 10 11 11 12 15 13 16 14
REMARK SMILES IDX 17 15 12 17 13 18 14 19
REMARK H PARENT
REMARK Flexibility Score: 70.00
ROOT
ATOM      1  C   UNL     1      -8.134  30.423  23.552  1.00  0.00     0.136 C 
ATOM      2  O   UNL     1      -8.435  29.521  22.784  1.00  0.00    -0.299 OA
ENDROOT
BRANCH   1   3
ATOM      3  C   UNL     1      -8.493  30.276  25.017  1.00  0.00     0.053 C 
ATOM      4  C   UNL     1      -9.391  29.048  25.213  1.00  0.00     0.016 C 
BRANCH   3   5
ATOM      5  C   UNL     1      -9.160  31.539  25.616  1.00  0.00     0.015 C 
BRANCH   5   6
ATOM      6  C   UNL     1      -8.250  32.520  26.407  1.00  0.00     0.028 C 
BRANCH   6   7
ATOM      7  C   UNL     1      -8.585  33.988  26.261  1.00  0.00    -0.028 C 
ATOM      8  C   UNL     1      -8.179  34.804  25.257  1.00  0.00    -0.070 CG0
ATOM      9  C   UNL     1      -8.598  36.251  25.313  1.00  0.00     0.039 C 
ATOM     10  G   UNL     1      -7.286  34.359  24.112  1.00  0.00     0.000 G0
ENDBRANCH   6   7
ENDBRANCH   5   6
ENDBRANCH   3   5
ENDBRANCH   1   3
BRANCH   1  11
ATOM     11  C   UNL     1      -7.484  31.670  22.987  1.00  0.00     0.087 C 
BRANCH  11  12
ATOM     12  C   UNL     1      -8.505  32.722  22.476  1.00  0.00     0.066 C 
BRANCH  12  13
ATOM     13  C   UNL     1      -8.071  34.126  22.861  1.00  0.00     0.140 C 
ATOM     14  O   UNL     1      -8.351  35.067  22.132  1.00  0.00    -0.299 OA
BRANCH  13  15
ATOM     15  C   UNL     1      -7.274  34.377  24.113  1.00  0.00     0.106 CG0
ATOM     16  G   UNL     1      -8.187  34.779  25.259  1.00  0.00     0.000 G0
ENDBRANCH  13  15
ENDBRANCH  12  13
BRANCH  12  17
ATOM     17  C   UNL     1      -8.733  32.620  20.936  1.00  0.00    -0.006 C 
ATOM     18  C   UNL     1      -9.775  31.537  20.597  1.00  0.00     0.008 C 
ATOM     19  C   UNL     1      -7.430  32.312  20.178  1.00  0.00     0.008 C 
ENDBRANCH  12  17
ENDBRANCH  11  12
ENDBRANCH   1  11
TORSDOF 1
ENDMDL
MODEL 2
REMARK VINA RESULT:    -4.645      1.953      4.426
REMARK INTER + INTRA:          -7.068
REMARK INTER:                  -7.428
REMARK INTRA:                   0.360
REMARK UNBOUND:                 0.022
REMARK SMILES CC1=CCC[C@@H](C)C(=O)C[C@H](C(C)C)C(=O)C1
REMARK SMILES IDX 8 1 9 2 6 3 7 4 5 5 4 6 3 7 2 8 1 9 10 11 11 12 15 13 16 14
REMARK SMILES IDX 17 15 12 17 13 18 14 19
REMARK H PARENT
REMARK Flexibility Score: 70.00
ROOT
ATOM      1  C   UNL     1      -8.469  33.303  25.071  1.00  0.00     0.136 C 
ATOM      2  O   UNL     1      -9.484  33.017  25.690  1.00  0.00    -0.299 OA
ENDROOT
BRANCH   1   3
ATOM      3  C   UNL     1      -7.900  34.700  25.222  1.00  0.00     0.053 C 
ATOM      4  C   UNL     1      -9.024  35.689  25.550  1.00  0.00     0.016 C 
BRANCH   3   5
ATOM      5  C   UNL     1      -7.102  35.174  23.982  1.00  0.00     0.015 C 
BRANCH   5   6
ATOM      6  C   UNL     1      -7.898  35.412  22.669  1.00  0.00     0.028 C 
BRANCH   6   7
ATOM      7  C   UNL     1      -7.449  34.601  21.473  1.00  0.00    -0.028 C 
ATOM      8  C   UNL     1      -8.081  33.516  20.961  1.00  0.00    -0.070 CG0
ATOM      9  C   UNL     1      -7.450  32.827  19.778  1.00  0.00     0.039 C 
ATOM     10  G   UNL     1      -9.355  32.926  21.541  1.00  0.00     0.000 G0
ENDBRANCH   6   7
ENDBRANCH   5   6
ENDBRANCH   3   5
ENDBRANCH   1   3
BRANCH   1  11
ATOM     11  C   UNL     1      -7.878  32.271  24.132  1.00  0.00     0.087 C 
BRANCH  11  12
ATOM     12  C   UNL     1      -8.931  31.288  23.553  1.00  0.00     0.066 C 
BRANCH  12  13
ATOM     13  C   UNL     1      -9.130  31.525  22.066  1.00  0.00     0.140 C 
ATOM     14  O   UNL     1      -9.075  30.582  21.290  1.00  0.00    -0.299 OA
BRANCH  13  15
ATOM     15  C   UNL     1      -9.368  32.910  21.525  1.00  0.00     0.106 CG0
ATOM     16  G   UNL     1      -8.085  33.494  20.961  1.00  0.00     0.000 G0
ENDBRANCH  13  15
ENDBRANCH  12  13
BRANCH  12  17
ATOM     17  C   UNL     1      -8.555  29.798  23.826  1.00  0.00    -0.006 C 
ATOM     18  C   UNL     1      -8.911  29.389  25.268  1.00  0.00     0.008 C 
ATOM     19  C   UNL     1      -7.060  29.526  23.585  1.00  0.00     0.008 C 
ENDBRANCH  12  17
ENDBRANCH  11  12
ENDBRANCH   1  11
TORSDOF 1
ENDMDL
MODEL 3
REMARK VINA RESULT:    -4.634      1.602      3.838
REMARK INTER + INTRA:          -7.051
REMARK INTER:                  -7.179
REMARK INTRA:                   0.128
REMARK UNBOUND:                 0.022
REMARK SMILES CC1=CCC[C@@H](C)C(=O)C[C@H](C(C)C)C(=O)C1
REMARK SMILES IDX 8 1 9 2 6 3 7 4 5 5 4 6 3 7 2 8 1 9 10 11 11 12 15 13 16 14
REMARK SMILES IDX 17 15 12 17 13 18 14 19
REMARK H PARENT
REMARK Flexibility Score: 70.00
ROOT
ATOM      1  C   UNL     1      -8.143  31.796  22.110  1.00  0.00     0.136 C 
ATOM      2  O   UNL     1      -7.155  31.083  22.005  1.00  0.00    -0.299 OA
ENDROOT
BRANCH   1   3
ATOM      3  C   UNL     1      -8.313  32.944  21.135  1.00  0.00     0.053 C 
ATOM      4  C   UNL     1      -7.312  32.801  19.981  1.00  0.00     0.016 C 
BRANCH   3   5
ATOM      5  C   UNL     1      -8.183  34.337  21.799  1.00  0.00     0.015 C 
BRANCH   5   6
ATOM      6  C   UNL     1      -7.097  34.506  22.897  1.00  0.00     0.028 C 
BRANCH   6   7
ATOM      7  C   UNL     1      -7.489  35.361  24.081  1.00  0.00    -0.028 C 
ATOM      8  C   UNL     1      -8.472  35.087  24.975  1.00  0.00    -0.070 CG0
ATOM      9  C   UNL     1      -8.727  36.089  26.071  1.00  0.00     0.039 C 
ATOM     10  G   UNL     1      -9.362  33.859  24.903  1.00  0.00     0.000 G0
ENDBRANCH   6   7
ENDBRANCH   5   6
ENDBRANCH   3   5
ENDBRANCH   1   3
BRANCH   1  11
ATOM     11  C   UNL     1      -9.105  31.538  23.252  1.00  0.00     0.087 C 
BRANCH  11  12
ATOM     12  C   UNL     1      -8.407  31.420  24.633  1.00  0.00     0.066 C 
BRANCH  12  13
ATOM     13  C   UNL     1      -8.679  32.650  25.482  1.00  0.00     0.140 C 
ATOM     14  O   UNL     1      -8.340  32.662  26.657  1.00  0.00    -0.299 OA
BRANCH  13  15
ATOM     15  C   UNL     1      -9.385  33.850  24.908  1.00  0.00     0.106 CG0
ATOM     16  G   UNL     1      -8.491  35.076  24.962  1.00  0.00     0.000 G0
ENDBRANCH  13  15
ENDBRANCH  12  13
BRANCH  12  17
ATOM     17  C   UNL     1      -8.826  30.124  25.395  1.00  0.00    -0.006 C 
ATOM     18  C   UNL     1      -7.608  29.446  26.052  1.00  0.00     0.008 C 
ATOM     19  C   UNL     1      -9.521  29.110  24.469  1.00  0.00     0.008 C 
ENDBRANCH  12  17
ENDBRANCH  11  12
ENDBRANCH   1  11
TORSDOF 1
ENDMDL
MODEL 4
REMARK VINA RESULT:    -4.523      1.939      4.060
REMARK INTER + INTRA:          -6.881
REMARK INTER:                  -7.005
REMARK INTRA:                   0.124
REMARK UNBOUND:                 0.022
REMARK SMILES CC1=CCC[C@@H](C)C(=O)C[C@H](C(C)C)C(=O)C1
REMARK SMILES IDX 8 1 9 2 6 3 7 4 5 5 4 6 3 7 2 8 1 9 10 11 11 12 15 13 16 14
REMARK SMILES IDX 17 15 12 17 13 18 14 19
REMARK H PARENT
REMARK Flexibility Score: 70.00
ROOT
ATOM      1  C   UNL     1      -9.235  31.950  25.614  1.00  0.00     0.136 C 
ATOM      2  O   UNL     1      -9.186  32.344  26.770  1.00  0.00    -0.299 OA
ENDROOT
BRANCH   1   3
ATOM      3  C   UNL     1      -9.035  30.473  25.343  1.00  0.00     0.053 C 
ATOM      4  C   UNL     1      -9.299  29.668  26.622  1.00  0.00     0.016 C 
BRANCH   3   5
ATOM      5  C   UNL     1      -7.636  30.138  24.768  1.00  0.00     0.015 C 
BRANCH   5   6
ATOM      6  C   UNL     1      -7.572  29.614  23.307  1.00  0.00     0.028 C 
BRANCH   6   7
ATOM      7  C   UNL     1      -8.628  30.157  22.369  1.00  0.00    -0.028 C 
ATOM      8  C   UNL     1      -8.586  31.348  21.722  1.00  0.00    -0.070 CG0
ATOM      9  C   UNL     1      -9.760  31.718  20.852  1.00  0.00     0.039 C 
ATOM     10  G   UNL     1      -7.455  32.350  21.866  1.00  0.00     0.000 G0
ENDBRANCH   6   7
ENDBRANCH   5   6
ENDBRANCH   3   5
ENDBRANCH   1   3
BRANCH   1  11
ATOM     11  C   UNL     1      -9.419  32.971  24.508  1.00  0.00     0.087 C 
BRANCH  11  12
ATOM     12  C   UNL     1      -8.096  33.655  24.072  1.00  0.00     0.066 C 
BRANCH  12  13
ATOM     13  C   UNL     1      -7.938  33.610  22.562  1.00  0.00     0.140 C 
ATOM     14  O   UNL     1      -8.227  34.593  21.894  1.00  0.00    -0.299 OA
BRANCH  13  15
ATOM     15  C   UNL     1      -7.457  32.364  21.867  1.00  0.00     0.106 CG0
ATOM     16  G   UNL     1      -8.585  31.357  21.728  1.00  0.00     0.000 G0
ENDBRANCH  13  15
ENDBRANCH  12  13
BRANCH  12  17
ATOM     17  C   UNL     1      -7.994  35.123  24.592  1.00  0.00    -0.006 C 
ATOM     18  C   UNL     1      -7.413  35.169  26.018  1.00  0.00     0.008 C 
ATOM     19  C   UNL     1      -9.359  35.834  24.586  1.00  0.00     0.008 C 
ENDBRANCH  12  17
ENDBRANCH  11  12
ENDBRANCH   1  11
TORSDOF 1
ENDMDL
MODEL 5
REMARK VINA RESULT:    -4.404      2.016      5.051
REMARK INTER + INTRA:          -6.700
REMARK INTER:                  -6.804
REMARK INTRA:                   0.103
REMARK UNBOUND:                 0.022
REMARK SMILES CC1=CCC[C@@H](C)C(=O)C[C@H](C(C)C)C(=O)C1
REMARK SMILES IDX 8 1 9 2 6 3 7 4 5 5 4 6 3 7 2 8 1 9 10 11 11 12 15 13 16 14
REMARK SMILES IDX 17 15 12 17 13 18 14 19
REMARK H PARENT
REMARK Flexibility Score: 70.00
ROOT
ATOM      1  C   UNL     1      -8.232  34.072  26.133  1.00  0.00     0.136 C 
ATOM      2  O   UNL     1      -8.654  34.286  27.260  1.00  0.00    -0.299 OA
ENDROOT
BRANCH   1   3
ATOM      3  C   UNL     1      -7.949  35.255  25.229  1.00  0.00     0.053 C 
ATOM      4  C   UNL     1      -9.262  35.962  24.869  1.00  0.00     0.016 C 
BRANCH   3   5
ATOM      5  C   UNL     1      -7.166  34.875  23.947  1.00  0.00     0.015 C 
BRANCH   5   6
ATOM      6  C   UNL     1      -7.947  34.887  22.604  1.00  0.00     0.028 C 
BRANCH   6   7
ATOM      7  C   UNL     1      -7.965  33.580  21.844  1.00  0.00    -0.028 C 
ATOM      8  C   UNL     1      -8.842  32.561  22.026  1.00  0.00    -0.070 CG0
ATOM      9  C   UNL     1      -8.668  31.324  21.183  1.00  0.00     0.039 C 
ATOM     10  G   UNL     1      -9.951  32.574  23.063  1.00  0.00     0.000 G0
ENDBRANCH   6   7
ENDBRANCH   5   6
ENDBRANCH   3   5
ENDBRANCH   1   3
BRANCH   1  11
ATOM     11  C   UNL     1      -8.085  32.634  25.676  1.00  0.00     0.087 C 
BRANCH  11  12
ATOM     12  C   UNL     1      -9.436  31.880  25.562  1.00  0.00     0.066 C 
BRANCH  12  13
ATOM     13  C   UNL     1      -9.720  31.496  24.120  1.00  0.00     0.140 C 
ATOM     14  O   UNL     1      -9.726  30.317  23.798  1.00  0.00    -0.299 OA
BRANCH  13  15
ATOM     15  C   UNL     1      -9.969  32.546  23.071  1.00  0.00     0.106 CG0
ATOM     16  G   UNL     1      -8.843  32.565  22.052  1.00  0.00     0.000 G0
ENDBRANCH  13  15
ENDBRANCH  12  13
BRANCH  12  17
ATOM     17  C   UNL     1      -9.487  30.623  26.486  1.00  0.00    -0.006 C 
ATOM     18  C   UNL     1     -10.082  30.969  27.865  1.00  0.00     0.008 C 
ATOM     19  C   UNL     1      -8.096  29.997  26.686  1.00  0.00     0.008 C 
ENDBRANCH  12  17
ENDBRANCH  11  12
ENDBRANCH   1  11
TORSDOF 1
ENDMDL
MODEL 6
REMARK VINA RESULT:    -3.928      1.764      3.184
REMARK INTER + INTRA:          -5.974
REMARK INTER:                  -6.674
REMARK INTRA:                   0.700
REMARK UNBOUND:                 0.022
REMARK SMILES CC1=CCC[C@@H](C)C(=O)C[C@H](C(C)C)C(=O)C1
REMARK SMILES IDX 8 1 9 2 6 3 7 4 5 5 4 6 3 7 2 8 1 9 10 11 11 12 15 13 16 14
REMARK SMILES IDX 17 15 12 17 13 18 14 19
REMARK H PARENT
REMARK Flexibility Score: 70.00
ROOT
ATOM      1  C   UNL     1      -8.749  31.407  26.323  1.00  0.00     0.136 C 
ATOM      2  O   UNL     1      -9.965  31.320  26.414  1.00  0.00    -0.299 OA
ENDROOT
BRANCH   1   3
ATOM      3  C   UNL     1      -8.028  32.408  27.204  1.00  0.00     0.053 C 
ATOM      4  C   UNL     1      -8.534  32.291  28.648  1.00  0.00     0.016 C 
BRANCH   3   5
ATOM      5  C   UNL     1      -8.148  33.868  26.701  1.00  0.00     0.015 C 
BRANCH   5   6
ATOM      6  C   UNL     1      -9.070  34.127  25.478  1.00  0.00     0.028 C 
BRANCH   6   7
ATOM      7  C   UNL     1      -8.417  34.814  24.299  1.00  0.00    -0.028 C 
ATOM      8  C   UNL     1      -8.346  34.334  23.032  1.00  0.00    -0.070 CG0
ATOM      9  C   UNL     1      -7.620  35.164  22.004  1.00  0.00     0.039 C 
ATOM     10  G   UNL     1      -8.907  32.989  22.604  1.00  0.00     0.000 G0
ENDBRANCH   6   7
ENDBRANCH   5   6
ENDBRANCH   3   5
ENDBRANCH   1   3
BRANCH   1  11
ATOM     11  C   UNL     1      -8.038  30.564  25.284  1.00  0.00     0.087 C 
BRANCH  11  12
ATOM     12  C   UNL     1      -8.654  30.682  23.865  1.00  0.00     0.066 C 
BRANCH  12  13
ATOM     13  C   UNL     1      -8.054  31.856  23.111  1.00  0.00     0.140 C 
ATOM     14  O   UNL     1      -6.847  31.903  22.926  1.00  0.00    -0.299 OA
BRANCH  13  15
ATOM     15  C   UNL     1      -8.919  32.982  22.611  1.00  0.00     0.106 CG0
ATOM     16  G   UNL     1      -8.342  34.326  23.021  1.00  0.00     0.000 G0
ENDBRANCH  13  15
ENDBRANCH  12  13
BRANCH  12  17
ATOM     17  C   UNL     1      -8.496  29.364  23.044  1.00  0.00    -0.006 C 
ATOM     18  C   UNL     1      -7.028  28.897  23.018  1.00  0.00     0.008 C 
ATOM     19  C   UNL     1      -8.996  29.520  21.597  1.00  0.00     0.008 C 
ENDBRANCH  12  17
ENDBRANCH  11  12
ENDBRANCH   1  11
TORSDOF 1
ENDMDL
MODEL 7
REMARK VINA RESULT:    -3.915      2.222      5.379
REMARK INTER + INTRA:          -5.953
REMARK INTER:                  -7.075
REMARK INTRA:                   1.122
REMARK UNBOUND:                 0.022
REMARK SMILES CC1=CCC[C@@H](C)C(=O)C[C@H](C(C)C)C(=O)C1
REMARK SMILES IDX 8 1 9 2 6 3 7 4 5 5 4 6 3 7 2 8 1 9 10 11 11 12 15 13 16 14
REMARK SMILES IDX 17 15 12 17 13 18 14 19
REMARK H PARENT
REMARK Flexibility Score: 70.00
ROOT
ATOM      1  C   UNL     1      -8.990  33.542  24.314  1.00  0.00     0.136 C 
ATOM      2  O   UNL     1      -9.066  34.418  25.163  1.00  0.00    -0.299 OA
ENDROOT
BRANCH   1   3
ATOM      3  C   UNL     1      -7.929  33.667  23.239  1.00  0.00     0.053 C 
ATOM      4  C   UNL     1      -7.123  34.954  23.449  1.00  0.00     0.016 C 
BRANCH   3   5
ATOM      5  C   UNL     1      -8.503  33.611  21.801  1.00  0.00     0.015 C 
BRANCH   5   6
ATOM      6  C   UNL     1      -8.366  32.270  21.029  1.00  0.00     0.028 C 
BRANCH   6   7
ATOM      7  C   UNL     1      -7.475  31.230  21.674  1.00  0.00    -0.028 C 
ATOM      8  C   UNL     1      -7.881  30.226  22.491  1.00  0.00    -0.070 CG0
ATOM      9  C   UNL     1      -6.827  29.310  23.058  1.00  0.00     0.039 C 
ATOM     10  G   UNL     1      -9.325  30.004  22.907  1.00  0.00     0.000 G0
ENDBRANCH   6   7
ENDBRANCH   5   6
ENDBRANCH   3   5
ENDBRANCH   1   3
BRANCH   1  11
ATOM     11  C   UNL     1     -10.007  32.419  24.339  1.00  0.00     0.087 C 
BRANCH  11  12
ATOM     12  C   UNL     1      -9.591  31.229  25.246  1.00  0.00     0.066 C 
BRANCH  12  13
ATOM     13  C   UNL     1      -9.446  29.955  24.432  1.00  0.00     0.140 C 
ATOM     14  O   UNL     1      -9.393  28.875  25.002  1.00  0.00    -0.299 OA
BRANCH  13  15
ATOM     15  C   UNL     1      -9.338  30.000  22.930  1.00  0.00     0.106 CG0
ATOM     16  G   UNL     1      -7.898  30.224  22.502  1.00  0.00     0.000 G0
ENDBRANCH  13  15
ENDBRANCH  12  13
BRANCH  12  17
ATOM     17  C   UNL     1      -8.281  31.526  26.040  1.00  0.00    -0.006 C 
ATOM     18  C   UNL     1      -7.526  30.225  26.375  1.00  0.00     0.008 C 
ATOM     19  C   UNL     1      -8.558  32.292  27.346  1.00  0.00     0.008 C 
ENDBRANCH  12  17
ENDBRANCH  11  12
ENDBRANCH   1  11
TORSDOF 1
ENDMDL
MODEL 8
REMARK VINA RESULT:    -3.779      2.228      4.295
REMARK INTER + INTRA:          -5.746
REMARK INTER:                  -7.415
REMARK INTRA:                   1.668
REMARK UNBOUND:                 0.022
REMARK SMILES CC1=CCC[C@@H](C)C(=O)C[C@H](C(C)C)C(=O)C1
REMARK SMILES IDX 8 1 9 2 6 3 7 4 5 5 4 6 3 7 2 8 1 9 10 11 11 12 15 13 16 14
REMARK SMILES IDX 17 15 12 17 13 18 14 19
REMARK H PARENT
REMARK Flexibility Score: 70.00
ROOT
ATOM      1  C   UNL     1      -8.153  31.935  22.825  1.00  0.00     0.136 C 
ATOM      2  O   UNL     1      -7.102  32.262  23.355  1.00  0.00    -0.299 OA
ENDROOT
BRANCH   1   3
ATOM      3  C   UNL     1      -8.136  30.790  21.832  1.00  0.00     0.053 C 
ATOM      4  C   UNL     1      -9.231  30.998  20.778  1.00  0.00     0.016 C 
BRANCH   3   5
ATOM      5  C   UNL     1      -8.278  29.398  22.497  1.00  0.00     0.015 C 
BRANCH   5   6
ATOM      6  C   UNL     1      -9.307  29.262  23.654  1.00  0.00     0.028 C 
BRANCH   6   7
ATOM      7  C   UNL     1      -8.723  29.231  25.050  1.00  0.00    -0.028 C 
ATOM      8  C   UNL     1      -8.957  30.133  26.035  1.00  0.00    -0.070 CG0
ATOM      9  C   UNL     1      -8.250  29.938  27.351  1.00  0.00     0.039 C 
ATOM     10  G   UNL     1      -9.845  31.355  25.870  1.00  0.00     0.000 G0
ENDBRANCH   6   7
ENDBRANCH   5   6
ENDBRANCH   3   5
ENDBRANCH   1   3
BRANCH   1  11
ATOM     11  C   UNL     1      -9.401  32.738  23.132  1.00  0.00     0.087 C 
BRANCH  11  12
ATOM     12  C   UNL     1      -9.311  33.535  24.461  1.00  0.00     0.066 C 
BRANCH  12  13
ATOM     13  C   UNL     1      -9.022  32.606  25.628  1.00  0.00     0.140 C 
ATOM     14  O   UNL     1      -8.090  32.852  26.381  1.00  0.00    -0.299 OA
BRANCH  13  15
ATOM     15  C   UNL     1      -9.847  31.369  25.860  1.00  0.00     0.106 CG0
ATOM     16  G   UNL     1      -8.955  30.152  26.035  1.00  0.00     0.000 G0
ENDBRANCH  13  15
ENDBRANCH  12  13
BRANCH  12  17
ATOM     17  C   UNL     1      -8.250  34.677  24.392  1.00  0.00    -0.006 C 
ATOM     18  C   UNL     1      -8.665  35.877  25.264  1.00  0.00     0.008 C 
ATOM     19  C   UNL     1      -8.019  35.164  22.950  1.00  0.00     0.008 C 
ENDBRANCH  12  17
ENDBRANCH  11  12
ENDBRANCH   1  11
TORSDOF 1
ENDMDL
MODEL 9
REMARK VINA RESULT:    -3.399     17.367     19.003
REMARK INTER + INTRA:          -5.166
REMARK INTER:                  -5.137
REMARK INTRA:                  -0.029
REMARK UNBOUND:                 0.022
REMARK SMILES CC1=CCC[C@@H](C)C(=O)C[C@H](C(C)C)C(=O)C1
REMARK SMILES IDX 8 1 9 2 6 3 7 4 5 5 4 6 3 7 2 8 1 9 10 11 11 12 15 13 16 14
REMARK SMILES IDX 17 15 12 17 13 18 14 19
REMARK H PARENT
REMARK Flexibility Score: 70.00
ROOT
ATOM      1  C   UNL     1       1.758  48.037  15.502  1.00  0.00     0.136 C 
ATOM      2  O   UNL     1       1.858  47.331  14.509  1.00  0.00    -0.299 OA
ENDROOT
BRANCH   1   3
ATOM      3  C   UNL     1       2.984  48.245  16.369  1.00  0.00     0.053 C 
ATOM      4  C   UNL     1       4.140  47.378  15.853  1.00  0.00     0.016 C 
BRANCH   3   5
ATOM      5  C   UNL     1       2.726  47.971  17.871  1.00  0.00     0.015 C 
BRANCH   5   6
ATOM      6  C   UNL     1       2.059  49.105  18.699  1.00  0.00     0.028 C 
BRANCH   6   7
ATOM      7  C   UNL     1       1.047  48.656  19.729  1.00  0.00    -0.028 C 
ATOM      8  C   UNL     1      -0.299  48.623  19.566  1.00  0.00    -0.070 CG0
ATOM      9  C   UNL     1      -1.139  48.171  20.733  1.00  0.00     0.039 C 
ATOM     10  G   UNL     1      -1.009  49.065  18.299  1.00  0.00     0.000 G0
ENDBRANCH   6   7
ENDBRANCH   5   6
ENDBRANCH   3   5
ENDBRANCH   1   3
BRANCH   1  11
ATOM     11  C   UNL     1       0.398  48.607  15.851  1.00  0.00     0.087 C 
BRANCH  11  12
ATOM     12  C   UNL     1      -0.654  47.523  16.207  1.00  0.00     0.066 C 
BRANCH  12  13
ATOM     13  C   UNL     1      -1.440  47.920  17.445  1.00  0.00     0.140 C 
ATOM     14  O   UNL     1      -2.457  47.309  17.738  1.00  0.00    -0.299 OA
BRANCH  13  15
ATOM     15  C   UNL     1      -1.003  49.076  18.305  1.00  0.00     0.106 CG0
ATOM     16  G   UNL     1      -0.300  48.579  19.556  1.00  0.00     0.000 G0
ENDBRANCH  13  15
ENDBRANCH  12  13
BRANCH  12  17
ATOM     17  C   UNL     1      -1.617  47.225  15.016  1.00  0.00    -0.006 C 
ATOM     18  C   UNL     1      -1.331  45.842  14.401  1.00  0.00     0.008 C 
ATOM     19  C   UNL     1      -1.518  48.292  13.912  1.00  0.00     0.008 C 
ENDBRANCH  12  17
ENDBRANCH  11  12
ENDBRANCH   1  11
TORSDOF 1
ENDMDL
