MODEL 1
REMARK VINA RESULT:    -2.512      0.000      0.000
REMARK INTER + INTRA:          -2.585
REMARK INTER:                  -2.585
REMARK INTRA:                   0.000
REMARK UNBOUND:                 0.000
REMARK SMILES Nc1ncnc2nc[nH]c12
REMARK SMILES IDX 8 1 7 2 6 3 5 4 4 5 3 6 2 7 10 8 9 9 1 11
REMARK H PARENT 9 10 1 12 1 13
REMARK Flexibility Score: inf
ROOT
ATOM      1  C   UNL     1       1.125  49.104  26.841  1.00  0.00     0.199 A 
ATOM      2  N   UNL     1       1.061  48.634  25.565  1.00  0.00    -0.217 NA
ATOM      3  C   UNL     1       1.020  49.767  24.845  1.00  0.00     0.182 A 
ATOM      4  N   UNL     1       0.950  49.864  23.496  1.00  0.00    -0.215 NA
ATOM      5  C   UNL     1       0.918  51.115  22.941  1.00  0.00     0.226 A 
ATOM      6  N   UNL     1       0.955  52.232  23.736  1.00  0.00    -0.217 NA
ATOM      7  C   UNL     1       1.025  52.134  25.098  1.00  0.00     0.152 A 
ATOM      8  C   UNL     1       1.058  50.855  25.648  1.00  0.00     0.127 A 
ATOM      9  N   UNL     1       1.124  50.458  26.924  1.00  0.00    -0.340 N 
ATOM     10  H   UNL     1       1.167  51.042  27.788  1.00  0.00     0.168 HD
ENDROOT
BRANCH   7  11
ATOM     11  N   UNL     1       1.064  53.311  25.906  1.00  0.00    -0.382 N 
ATOM     12  H   UNL     1       0.247  53.959  25.962  1.00  0.00     0.158 HD
ATOM     13  H   UNL     1       1.921  53.538  26.457  1.00  0.00     0.158 HD
ENDBRANCH   7  11
TORSDOF 1
ENDMDL
MODEL 2
REMARK VINA RESULT:    -2.464      1.966      3.100
REMARK INTER + INTRA:          -2.536
REMARK INTER:                  -2.536
REMARK INTRA:                   0.000
REMARK UNBOUND:                 0.000
REMARK SMILES Nc1ncnc2nc[nH]c12
REMARK SMILES IDX 8 1 7 2 6 3 5 4 4 5 3 6 2 7 10 8 9 9 1 11
REMARK H PARENT 9 10 1 12 1 13
REMARK Flexibility Score: inf
ROOT
ATOM      1  C   UNL     1       0.729  48.519  29.439  1.00  0.00     0.199 A 
ATOM      2  N   UNL     1       0.738  47.356  28.734  1.00  0.00    -0.217 NA
ATOM      3  C   UNL     1       0.863  47.790  27.469  1.00  0.00     0.182 A 
ATOM      4  N   UNL     1       0.924  47.024  26.353  1.00  0.00    -0.215 NA
ATOM      5  C   UNL     1       1.053  47.653  25.145  1.00  0.00     0.226 A 
ATOM      6  N   UNL     1       1.117  49.022  25.075  1.00  0.00    -0.217 NA
ATOM      7  C   UNL     1       1.056  49.796  26.200  1.00  0.00     0.152 A 
ATOM      8  C   UNL     1       0.925  49.141  27.422  1.00  0.00     0.127 A 
ATOM      9  N   UNL     1       0.840  49.628  28.666  1.00  0.00    -0.340 N 
ATOM     10  H   UNL     1       0.857  50.624  28.980  1.00  0.00     0.168 HD
ENDROOT
BRANCH   7  11
ATOM     11  N   UNL     1       1.125  51.218  26.103  1.00  0.00    -0.382 N 
ATOM     12  H   UNL     1       1.650  51.787  26.804  1.00  0.00     0.158 HD
ATOM     13  H   UNL     1       0.645  51.713  25.318  1.00  0.00     0.158 HD
ENDBRANCH   7  11
TORSDOF 1
ENDMDL
MODEL 3
REMARK VINA RESULT:    -2.398      2.094      4.020
REMARK INTER + INTRA:          -2.468
REMARK INTER:                  -2.468
REMARK INTRA:                   0.000
REMARK UNBOUND:                 0.000
REMARK SMILES Nc1ncnc2nc[nH]c12
REMARK SMILES IDX 8 1 7 2 6 3 5 4 4 5 3 6 2 7 10 8 9 9 1 11
REMARK H PARENT 9 10 1 12 1 13
REMARK Flexibility Score: inf
ROOT
ATOM      1  C   UNL     1       0.724  48.224  29.441  1.00  0.00     0.199 A 
ATOM      2  N   UNL     1       0.794  49.482  28.927  1.00  0.00    -0.217 NA
ATOM      3  C   UNL     1       0.909  49.246  27.610  1.00  0.00     0.182 A 
ATOM      4  N   UNL     1       1.016  50.174  26.629  1.00  0.00    -0.215 NA
ATOM      5  C   UNL     1       1.124  49.737  25.337  1.00  0.00     0.226 A 
ATOM      6  N   UNL     1       1.124  48.395  25.053  1.00  0.00    -0.217 NA
ATOM      7  C   UNL     1       1.017  47.458  26.042  1.00  0.00     0.152 A 
ATOM      8  C   UNL     1       0.907  47.918  27.351  1.00  0.00     0.127 A 
ATOM      9  N   UNL     1       0.790  47.246  28.503  1.00  0.00    -0.340 N 
ATOM     10  H   UNL     1       0.756  46.214  28.657  1.00  0.00     0.168 HD
ENDROOT
BRANCH   7  11
ATOM     11  N   UNL     1       1.018  46.066  25.722  1.00  0.00    -0.382 N 
ATOM     12  H   UNL     1       0.274  45.644  25.125  1.00  0.00     0.158 HD
ATOM     13  H   UNL     1       1.776  45.447  26.088  1.00  0.00     0.158 HD
ENDBRANCH   7  11
TORSDOF 1
ENDMDL
MODEL 4
REMARK VINA RESULT:    -2.363      0.948      3.009
REMARK INTER + INTRA:          -2.433
REMARK INTER:                  -2.433
REMARK INTRA:                   0.000
REMARK UNBOUND:                 0.000
REMARK SMILES Nc1ncnc2nc[nH]c12
REMARK SMILES IDX 8 1 7 2 6 3 5 4 4 5 3 6 2 7 10 8 9 9 1 11
REMARK H PARENT 9 10 1 12 1 13
REMARK Flexibility Score: inf
ROOT
ATOM      1  C   UNL     1       1.058  52.543  24.379  1.00  0.00     0.199 A 
ATOM      2  N   UNL     1       1.068  51.598  23.400  1.00  0.00    -0.217 NA
ATOM      3  C   UNL     1       1.088  50.456  24.107  1.00  0.00     0.182 A 
ATOM      4  N   UNL     1       1.105  49.197  23.607  1.00  0.00    -0.215 NA
ATOM      5  C   UNL     1       1.123  48.153  24.491  1.00  0.00     0.226 A 
ATOM      6  N   UNL     1       1.125  48.384  25.843  1.00  0.00    -0.217 NA
ATOM      7  C   UNL     1       1.108  49.654  26.348  1.00  0.00     0.152 A 
ATOM      8  C   UNL     1       1.089  50.706  25.436  1.00  0.00     0.127 A 
ATOM      9  N   UNL     1       1.071  52.029  25.634  1.00  0.00    -0.340 N 
ATOM     10  H   UNL     1       1.066  52.554  26.537  1.00  0.00     0.168 HD
ENDROOT
BRANCH   7  11
ATOM     11  N   UNL     1       1.110  49.870  27.759  1.00  0.00    -0.382 N 
ATOM     12  H   UNL     1       1.532  50.729  28.177  1.00  0.00     0.158 HD
ATOM     13  H   UNL     1       0.682  49.162  28.397  1.00  0.00     0.158 HD
ENDBRANCH   7  11
TORSDOF 1
ENDMDL
MODEL 5
REMARK VINA RESULT:    -2.240      3.973      5.705
REMARK INTER + INTRA:          -2.305
REMARK INTER:                  -2.305
REMARK INTRA:                   0.000
REMARK UNBOUND:                 0.000
REMARK SMILES Nc1ncnc2nc[nH]c12
REMARK SMILES IDX 8 1 7 2 6 3 5 4 4 5 3 6 2 7 10 8 9 9 1 11
REMARK H PARENT 9 10 1 12 1 13
REMARK Flexibility Score: inf
ROOT
ATOM      1  C   UNL     1       1.043  45.686  30.685  1.00  0.00     0.199 A 
ATOM      2  N   UNL     1       0.985  46.950  31.184  1.00  0.00    -0.217 NA
ATOM      3  C   UNL     1       0.991  47.698  30.069  1.00  0.00     0.182 A 
ATOM      4  N   UNL     1       0.947  49.051  30.002  1.00  0.00    -0.215 NA
ATOM      5  C   UNL     1       0.961  49.636  28.766  1.00  0.00     0.226 A 
ATOM      6  N   UNL     1       1.019  48.867  27.631  1.00  0.00    -0.217 NA
ATOM      7  C   UNL     1       1.065  47.503  27.697  1.00  0.00     0.152 A 
ATOM      8  C   UNL     1       1.049  46.922  28.962  1.00  0.00     0.127 A 
ATOM      9  N   UNL     1       1.083  45.635  29.329  1.00  0.00    -0.340 N 
ATOM     10  H   UNL     1       1.129  44.785  28.726  1.00  0.00     0.168 HD
ENDROOT
BRANCH   7  11
ATOM     11  N   UNL     1       1.125  46.723  26.502  1.00  0.00    -0.382 N 
ATOM     12  H   UNL     1       1.886  46.026  26.346  1.00  0.00     0.158 HD
ATOM     13  H   UNL     1       0.398  46.844  25.762  1.00  0.00     0.158 HD
ENDBRANCH   7  11
TORSDOF 1
ENDMDL
MODEL 6
REMARK VINA RESULT:    -2.123      2.166      3.760
REMARK INTER + INTRA:          -2.185
REMARK INTER:                  -2.185
REMARK INTRA:                   0.000
REMARK UNBOUND:                 0.000
REMARK SMILES Nc1ncnc2nc[nH]c12
REMARK SMILES IDX 8 1 7 2 6 3 5 4 4 5 3 6 2 7 10 8 9 9 1 11
REMARK H PARENT 9 10 1 12 1 13
REMARK Flexibility Score: inf
ROOT
ATOM      1  C   UNL     1       1.120  45.895  24.480  1.00  0.00     0.199 A 
ATOM      2  N   UNL     1       1.075  47.049  23.760  1.00  0.00    -0.217 NA
ATOM      3  C   UNL     1       1.031  47.984  24.723  1.00  0.00     0.182 A 
ATOM      4  N   UNL     1       0.976  49.326  24.544  1.00  0.00    -0.215 NA
ATOM      5  C   UNL     1       0.938  50.124  25.655  1.00  0.00     0.226 A 
ATOM      6  N   UNL     1       0.955  49.571  26.910  1.00  0.00    -0.217 NA
ATOM      7  C   UNL     1       1.010  48.218  27.092  1.00  0.00     0.152 A 
ATOM      8  C   UNL     1       1.049  47.420  25.952  1.00  0.00     0.127 A 
ATOM      9  N   UNL     1       1.104  46.089  25.823  1.00  0.00    -0.340 N 
ATOM     10  H   UNL     1       1.132  45.361  26.571  1.00  0.00     0.168 HD
ENDROOT
BRANCH   7  11
ATOM     11  N   UNL     1       1.027  47.666  28.409  1.00  0.00    -0.382 N 
ATOM     12  H   UNL     1       1.590  46.817  28.635  1.00  0.00     0.158 HD
ATOM     13  H   UNL     1       0.468  48.112  29.170  1.00  0.00     0.158 HD
ENDBRANCH   7  11
TORSDOF 1
ENDMDL
MODEL 7
REMARK VINA RESULT:    -1.675      2.164      4.600
REMARK INTER + INTRA:          -1.724
REMARK INTER:                  -1.724
REMARK INTRA:                   0.000
REMARK UNBOUND:                 0.000
REMARK SMILES Nc1ncnc2nc[nH]c12
REMARK SMILES IDX 8 1 7 2 6 3 5 4 4 5 3 6 2 7 10 8 9 9 1 11
REMARK H PARENT 9 10 1 12 1 13
REMARK Flexibility Score: inf
ROOT
ATOM      1  C   UNL     1       0.856  50.222  25.223  1.00  0.00     0.199 A 
ATOM      2  N   UNL     1       0.907  49.680  26.471  1.00  0.00    -0.217 NA
ATOM      3  C   UNL     1       0.968  48.365  26.208  1.00  0.00     0.182 A 
ATOM      4  N   UNL     1       1.035  47.361  27.117  1.00  0.00    -0.215 NA
ATOM      5  C   UNL     1       1.092  46.075  26.654  1.00  0.00     0.226 A 
ATOM      6  N   UNL     1       1.079  45.818  25.306  1.00  0.00    -0.217 NA
ATOM      7  C   UNL     1       1.011  46.829  24.389  1.00  0.00     0.152 A 
ATOM      8  C   UNL     1       0.955  48.132  24.875  1.00  0.00     0.127 A 
ATOM      9  N   UNL     1       0.883  49.301  24.227  1.00  0.00    -0.340 N 
ATOM     10  H   UNL     1       0.855  49.476  23.198  1.00  0.00     0.168 HD
ENDROOT
BRANCH   7  11
ATOM     11  N   UNL     1       1.000  46.537  22.992  1.00  0.00    -0.382 N 
ATOM     12  H   UNL     1       1.729  45.931  22.556  1.00  0.00     0.158 HD
ATOM     13  H   UNL     1       0.250  46.933  22.381  1.00  0.00     0.158 HD
ENDBRANCH   7  11
TORSDOF 1
ENDMDL
MODEL 8
REMARK VINA RESULT:    -1.434      3.641      5.058
REMARK INTER + INTRA:          -1.476
REMARK INTER:                  -1.476
REMARK INTRA:                   0.000
REMARK UNBOUND:                 0.000
REMARK SMILES Nc1ncnc2nc[nH]c12
REMARK SMILES IDX 8 1 7 2 6 3 5 4 4 5 3 6 2 7 10 8 9 9 1 11
REMARK H PARENT 9 10 1 12 1 13
REMARK Flexibility Score: inf
ROOT
ATOM      1  C   UNL     1       1.066  46.961  31.064  1.00  0.00     0.199 A 
ATOM      2  N   UNL     1       1.077  45.866  30.257  1.00  0.00    -0.217 NA
ATOM      3  C   UNL     1       1.093  46.416  29.032  1.00  0.00     0.182 A 
ATOM      4  N   UNL     1       1.109  45.754  27.849  1.00  0.00    -0.215 NA
ATOM      5  C   UNL     1       1.125  46.492  26.697  1.00  0.00     0.226 A 
ATOM      6  N   UNL     1       1.124  47.863  26.748  1.00  0.00    -0.217 NA
ATOM      7  C   UNL     1       1.108  48.532  27.940  1.00  0.00     0.152 A 
ATOM      8  C   UNL     1       1.092  47.767  29.103  1.00  0.00     0.127 A 
ATOM      9  N   UNL     1       1.074  48.138  30.389  1.00  0.00    -0.340 N 
ATOM     10  H   UNL     1       1.069  49.102  30.790  1.00  0.00     0.168 HD
ENDROOT
BRANCH   7  11
ATOM     11  N   UNL     1       1.107  49.959  27.968  1.00  0.00    -0.382 N 
ATOM     12  H   UNL     1       0.823  50.520  27.135  1.00  0.00     0.158 HD
ATOM     13  H   UNL     1       1.396  50.465  28.836  1.00  0.00     0.158 HD
ENDBRANCH   7  11
TORSDOF 1
ENDMDL
