MODEL 1
REMARK VINA RESULT:     5.801      0.000      0.000
REMARK INTER + INTRA:           6.484
REMARK INTER:                   6.480
REMARK INTRA:                   0.005
REMARK UNBOUND:                 0.005
REMARK SMILES CC1(C)CC[C@@]2(C(=O)[O-])[C@H](O)C[C@@]3(C)C(=CC[C@H]4[C@@]5(C)CC[C@@H](O)C(C)(C)[C@@H]5CC[C@@]43C)[C@H]2C1
REMARK SMILES IDX 6 1 5 2 33 3 10 4 4 5 34 6 15 7 12 8 2 9 16 10 13 11 1 12
REMARK SMILES IDX 3 13 17 14 31 15 14 16 18 17 30 18 32 19 19 20 29 21 21 22
REMARK SMILES IDX 20 23 28 24 22 25 25 26 23 27 26 28 27 29 7 30 8 31 9 32
REMARK SMILES IDX 11 33 24 35
REMARK H PARENT 11 34 24 36
REMARK Flexibility Score: inf
ROOT
ATOM      1  C   UNL     1     100.961 114.428 115.692  1.00  0.00     0.042 C 
ATOM      2  C   UNL     1     100.974 113.971 114.202  1.00  0.00     0.017 C 
ATOM      3  C   UNL     1     100.299 113.322 116.580  1.00  0.00     0.030 C 
ATOM      4  C   UNL     1     100.167 115.759 115.871  1.00  0.00     0.127 C 
ATOM      5  C   UNL     1      99.616 113.480 113.682  1.00  0.00     0.007 C 
ATOM      6  C   UNL     1      98.951 112.793 116.022  1.00  0.00     0.015 C 
ATOM      7  C   UNL     1     100.114 113.776 118.034  1.00  0.00    -0.063 C 
ATOM      8  C   UNL     1     100.190 116.244 117.342  1.00  0.00     0.044 C 
ATOM      9  C   UNL     1      99.015 112.345 114.542  1.00  0.00    -0.035 C 
ATOM     10  C   UNL     1     100.193 112.820 118.996  1.00  0.00    -0.027 C 
ATOM     11  C   UNL     1      99.637 115.206 118.383  1.00  0.00    -0.003 C 
ATOM     12  C   UNL     1      97.579 112.062 114.049  1.00  0.00     0.011 C 
ATOM     13  C   UNL     1      99.831 111.038 114.392  1.00  0.00     0.011 C 
ATOM     14  C   UNL     1     100.150 113.088 120.480  1.00  0.00     0.032 C 
ATOM     15  C   UNL     1     100.119 115.591 119.872  1.00  0.00    -0.020 C 
ATOM     16  C   UNL     1      98.068 115.195 118.274  1.00  0.00     0.017 C 
ATOM     17  C   UNL     1      99.573 114.474 120.853  1.00  0.00     0.006 C 
ATOM     18  C   UNL     1      99.599 117.036 120.274  1.00  0.00     0.008 C 
ATOM     19  C   UNL     1     101.690 115.593 119.943  1.00  0.00     0.012 C 
ATOM     20  C   UNL     1      99.556 114.781 122.432  1.00  0.00    -0.025 C 
ATOM     21  C   UNL     1      98.975 117.149 121.676  1.00  0.00     0.005 C 
ATOM     22  C   UNL     1     100.655 114.019 123.234  1.00  0.00     0.010 C 
ATOM     23  C   UNL     1      98.164 114.284 122.947  1.00  0.00     0.012 C 
ATOM     24  C   UNL     1      99.798 116.315 122.674  1.00  0.00     0.003 C 
ATOM     25  C   UNL     1     100.710 114.412 124.728  1.00  0.00     0.033 C 
ATOM     26  C   UNL     1      99.831 116.801 124.174  1.00  0.00    -0.006 C 
ATOM     27  C   UNL     1     100.879 115.930 124.952  1.00  0.00     0.120 C 
ATOM     28  C   UNL     1      98.445 116.752 124.874  1.00  0.00     0.014 C 
ATOM     29  C   UNL     1     100.308 118.284 124.240  1.00  0.00     0.014 C 
ENDROOT
BRANCH   1  30
ATOM     30  C   UNL     1     102.425 114.622 116.094  1.00  0.00     0.051 C 
ATOM     31  O   UNL     1     103.236 113.661 116.022  1.00  0.00    -0.549 OA
ATOM     32  O   UNL     1     102.880 115.835 116.601  1.00  0.00    -0.549 OA
ENDBRANCH   1  30
BRANCH   4  33
ATOM     33  O   UNL     1     100.624 116.765 114.994  1.00  0.00    -0.392 OA
ATOM     34  H   UNL     1     101.475 116.470 114.579  1.00  0.00     0.210 HD
ENDBRANCH   4  33
BRANCH  27  35
ATOM     35  O   UNL     1     102.187 116.293 124.575  1.00  0.00    -0.393 OA
ATOM     36  H   UNL     1     102.375 117.178 124.984  1.00  0.00     0.210 HD
ENDBRANCH  27  35
TORSDOF 3
ENDMDL
MODEL 2
REMARK VINA RESULT:     6.605      2.579      4.812
REMARK INTER + INTRA:           7.382
REMARK INTER:                   7.701
REMARK INTRA:                  -0.319
REMARK UNBOUND:                 0.005
REMARK SMILES CC1(C)CC[C@@]2(C(=O)[O-])[C@H](O)C[C@@]3(C)C(=CC[C@H]4[C@@]5(C)CC[C@@H](O)C(C)(C)[C@@H]5CC[C@@]43C)[C@H]2C1
REMARK SMILES IDX 6 1 5 2 33 3 10 4 4 5 34 6 15 7 12 8 2 9 16 10 13 11 1 12
REMARK SMILES IDX 3 13 17 14 31 15 14 16 18 17 30 18 32 19 19 20 29 21 21 22
REMARK SMILES IDX 20 23 28 24 22 25 25 26 23 27 26 28 27 29 7 30 8 31 9 32
REMARK SMILES IDX 11 33 24 35
REMARK H PARENT 11 34 24 36
REMARK Flexibility Score: inf
ROOT
ATOM      1  C   UNL     1      99.082 112.115 113.150  1.00  0.00     0.042 C 
ATOM      2  C   UNL     1      99.083 111.674 111.655  1.00  0.00     0.017 C 
ATOM      3  C   UNL     1      99.744 113.526 113.289  1.00  0.00     0.030 C 
ATOM      4  C   UNL     1      99.866 111.101 114.041  1.00  0.00     0.127 C 
ATOM      5  C   UNL     1     100.449 111.796 110.964  1.00  0.00     0.007 C 
ATOM      6  C   UNL     1     101.099 113.658 112.546  1.00  0.00     0.015 C 
ATOM      7  C   UNL     1      99.914 113.948 114.754  1.00  0.00    -0.063 C 
ATOM      8  C   UNL     1      99.828 111.507 115.536  1.00  0.00     0.044 C 
ATOM      9  C   UNL     1     101.050 113.217 111.063  1.00  0.00    -0.035 C 
ATOM     10  C   UNL     1      99.834 115.275 115.029  1.00  0.00    -0.027 C 
ATOM     11  C   UNL     1     100.380 112.946 115.838  1.00  0.00    -0.003 C 
ATOM     12  C   UNL     1     102.492 113.179 110.509  1.00  0.00     0.011 C 
ATOM     13  C   UNL     1     100.243 114.226 110.209  1.00  0.00     0.011 C 
ATOM     14  C   UNL     1      99.864 115.870 116.415  1.00  0.00     0.032 C 
ATOM     15  C   UNL     1      99.884 113.447 117.288  1.00  0.00    -0.020 C 
ATOM     16  C   UNL     1     101.950 112.894 115.757  1.00  0.00     0.017 C 
ATOM     17  C   UNL     1     100.429 114.918 117.496  1.00  0.00     0.006 C 
ATOM     18  C   UNL     1     100.391 112.462 118.425  1.00  0.00     0.008 C 
ATOM     19  C   UNL     1      98.312 113.485 117.332  1.00  0.00     0.012 C 
ATOM     20  C   UNL     1     100.431 115.532 118.983  1.00  0.00    -0.025 C 
ATOM     21  C   UNL     1     101.003 113.140 119.663  1.00  0.00     0.005 C 
ATOM     22  C   UNL     1      99.331 116.612 119.222  1.00  0.00     0.010 C 
ATOM     23  C   UNL     1     101.823 116.229 119.153  1.00  0.00     0.012 C 
ATOM     24  C   UNL     1     100.178 114.386 120.028  1.00  0.00     0.003 C 
ATOM     25  C   UNL     1      99.263 117.107 120.684  1.00  0.00     0.033 C 
ATOM     26  C   UNL     1     100.131 114.807 121.547  1.00  0.00    -0.006 C 
ATOM     27  C   UNL     1      99.081 115.964 121.706  1.00  0.00     0.120 C 
ATOM     28  C   UNL     1     101.511 115.232 122.118  1.00  0.00     0.014 C 
ATOM     29  C   UNL     1      99.643 113.606 122.414  1.00  0.00     0.014 C 
ENDROOT
BRANCH   1  30
ATOM     30  C   UNL     1      97.614 112.175 113.578  1.00  0.00     0.051 C 
ATOM     31  O   UNL     1      96.952 111.114 113.729  1.00  0.00    -0.549 OA
ATOM     32  O   UNL     1      96.961 113.391 113.751  1.00  0.00    -0.549 OA
ENDBRANCH   1  30
BRANCH   4  33
ATOM     33  O   UNL     1      99.409 109.779 113.859  1.00  0.00    -0.392 OA
ATOM     34  H   UNL     1     100.025 109.306 113.243  1.00  0.00     0.210 HD
ENDBRANCH   4  33
BRANCH  27  35
ATOM     35  O   UNL     1      97.774 115.454 121.578  1.00  0.00    -0.393 OA
ATOM     36  H   UNL     1      97.758 114.890 120.761  1.00  0.00     0.210 HD
ENDBRANCH  27  35
TORSDOF 3
ENDMDL
MODEL 3
REMARK VINA RESULT:     6.785      2.372      8.765
REMARK INTER + INTRA:           7.583
REMARK INTER:                   7.373
REMARK INTRA:                   0.210
REMARK UNBOUND:                 0.005
REMARK SMILES CC1(C)CC[C@@]2(C(=O)[O-])[C@H](O)C[C@@]3(C)C(=CC[C@H]4[C@@]5(C)CC[C@@H](O)C(C)(C)[C@@H]5CC[C@@]43C)[C@H]2C1
REMARK SMILES IDX 6 1 5 2 33 3 10 4 4 5 34 6 15 7 12 8 2 9 16 10 13 11 1 12
REMARK SMILES IDX 3 13 17 14 31 15 14 16 18 17 30 18 32 19 19 20 29 21 21 22
REMARK SMILES IDX 20 23 28 24 22 25 25 26 23 27 26 28 27 29 7 30 8 31 9 32
REMARK SMILES IDX 11 33 24 35
REMARK H PARENT 11 34 24 36
REMARK Flexibility Score: inf
ROOT
ATOM      1  C   UNL     1     100.185 115.812 118.585  1.00  0.00     0.042 C 
ATOM      2  C   UNL     1     100.342 116.254 120.071  1.00  0.00     0.017 C 
ATOM      3  C   UNL     1      99.498 114.408 118.518  1.00  0.00     0.030 C 
ATOM      4  C   UNL     1     101.569 115.731 117.868  1.00  0.00     0.127 C 
ATOM      5  C   UNL     1     100.988 115.197 120.977  1.00  0.00     0.007 C 
ATOM      6  C   UNL     1     100.123 113.358 119.473  1.00  0.00     0.015 C 
ATOM      7  C   UNL     1      99.456 113.847 117.090  1.00  0.00    -0.063 C 
ATOM      8  C   UNL     1     101.417 115.338 116.377  1.00  0.00     0.044 C 
ATOM      9  C   UNL     1     100.251 113.838 120.939  1.00  0.00    -0.035 C 
ATOM     10  C   UNL     1      98.401 113.056 116.767  1.00  0.00    -0.027 C 
ATOM     11  C   UNL     1     100.662 113.984 116.129  1.00  0.00    -0.003 C 
ATOM     12  C   UNL     1     101.086 112.805 121.728  1.00  0.00     0.011 C 
ATOM     13  C   UNL     1      98.862 113.937 121.616  1.00  0.00     0.011 C 
ATOM     14  C   UNL     1      98.129 112.507 115.388  1.00  0.00     0.032 C 
ATOM     15  C   UNL     1     100.152 113.894 114.603  1.00  0.00    -0.020 C 
ATOM     16  C   UNL     1     101.646 112.807 116.474  1.00  0.00     0.017 C 
ATOM     17  C   UNL     1      99.355 112.535 114.446  1.00  0.00     0.006 C 
ATOM     18  C   UNL     1     101.376 113.982 113.597  1.00  0.00     0.008 C 
ATOM     19  C   UNL     1      99.172 115.086 114.295  1.00  0.00     0.012 C 
ATOM     20  C   UNL     1      99.064 111.984 112.963  1.00  0.00    -0.025 C 
ATOM     21  C   UNL     1     101.374 112.945 112.459  1.00  0.00     0.005 C 
ATOM     22  C   UNL     1      97.579 112.142 112.512  1.00  0.00     0.010 C 
ATOM     23  C   UNL     1      99.384 110.452 113.008  1.00  0.00     0.012 C 
ATOM     24  C   UNL     1      99.941 112.772 111.924  1.00  0.00     0.003 C 
ATOM     25  C   UNL     1      97.334 111.722 111.045  1.00  0.00     0.033 C 
ATOM     26  C   UNL     1      99.774 112.375 110.407  1.00  0.00    -0.006 C 
ATOM     27  C   UNL     1      98.250 112.455 110.041  1.00  0.00     0.120 C 
ATOM     28  C   UNL     1     100.352 110.975 110.063  1.00  0.00     0.014 C 
ATOM     29  C   UNL     1     100.530 113.399 109.506  1.00  0.00     0.014 C 
ENDROOT
BRANCH   1  30
ATOM     30  C   UNL     1      99.300 116.867 117.915  1.00  0.00     0.051 C 
ATOM     31  O   UNL     1      98.245 117.261 118.479  1.00  0.00    -0.549 OA
ATOM     32  O   UNL     1      99.601 117.367 116.653  1.00  0.00    -0.549 OA
ENDBRANCH   1  30
BRANCH   4  33
ATOM     33  O   UNL     1     102.306 116.925 118.010  1.00  0.00    -0.392 OA
ATOM     34  H   UNL     1     101.679 117.694 118.008  1.00  0.00     0.210 HD
ENDBRANCH   4  33
BRANCH  27  35
ATOM     35  O   UNL     1      97.840 113.800 109.963  1.00  0.00    -0.393 OA
ATOM     36  H   UNL     1      98.623 114.361 110.207  1.00  0.00     0.210 HD
ENDBRANCH  27  35
TORSDOF 3
ENDMDL
