MODEL 1
REMARK VINA RESULT:    -3.870      0.000      0.000
REMARK INTER + INTRA:          -7.847
REMARK INTER:                  -7.037
REMARK INTRA:                  -0.810
REMARK UNBOUND:                -0.810
REMARK SMILES CCCCCCCCCCCCCCCCC
REMARK SMILES IDX 9 1 8 2 7 3 6 4 5 5 4 6 3 7 2 8 1 9 10 10 11 11 12 12 13 13
REMARK SMILES IDX 14 14 15 15 16 16 17 17
REMARK H PARENT
REMARK Flexibility Score: inf
ROOT
ATOM      1  C   UNL     1      20.868   7.474  -4.687  1.00  0.00    -0.000 C 
ENDROOT
BRANCH   1   2
ATOM      2  C   UNL     1      21.389   7.786  -6.096  1.00  0.00    -0.000 C 
BRANCH   2   3
ATOM      3  C   UNL     1      20.496   8.823  -6.794  1.00  0.00    -0.000 C 
BRANCH   3   4
ATOM      4  C   UNL     1      20.281  10.087  -5.945  1.00  0.00    -0.000 C 
BRANCH   4   5
ATOM      5  C   UNL     1      19.211  11.019  -6.534  1.00  0.00    -0.000 C 
BRANCH   5   6
ATOM      6  C   UNL     1      18.714  10.558  -7.916  1.00  0.00    -0.000 C 
BRANCH   6   7
ATOM      7  C   UNL     1      19.282  11.387  -9.087  1.00  0.00    -0.000 C 
BRANCH   7   8
ATOM      8  C   UNL     1      18.198  11.772 -10.105  1.00  0.00    -0.003 C 
ATOM      9  C   UNL     1      17.022  10.800 -10.051  1.00  0.00     0.004 C 
ENDBRANCH   7   8
ENDBRANCH   6   7
ENDBRANCH   5   6
ENDBRANCH   4   5
ENDBRANCH   3   4
ENDBRANCH   2   3
ENDBRANCH   1   2
BRANCH   1  10
ATOM     10  C   UNL     1      21.548   6.227  -4.111  1.00  0.00    -0.000 C 
BRANCH  10  11
ATOM     11  C   UNL     1      20.913   5.819  -2.776  1.00  0.00    -0.000 C 
BRANCH  11  12
ATOM     12  C   UNL     1      20.957   6.976  -1.768  1.00  0.00    -0.000 C 
BRANCH  12  13
ATOM     13  C   UNL     1      20.066   6.735  -0.536  1.00  0.00    -0.000 C 
BRANCH  13  14
ATOM     14  C   UNL     1      19.233   5.441  -0.583  1.00  0.00    -0.000 C 
BRANCH  14  15
ATOM     15  C   UNL     1      17.752   5.694  -0.908  1.00  0.00    -0.000 C 
BRANCH  15  16
ATOM     16  C   UNL     1      16.913   4.408  -0.877  1.00  0.00    -0.003 C 
ATOM     17  C   UNL     1      17.667   3.228  -0.261  1.00  0.00     0.004 C 
ENDBRANCH  15  16
ENDBRANCH  14  15
ENDBRANCH  13  14
ENDBRANCH  12  13
ENDBRANCH  11  12
ENDBRANCH  10  11
ENDBRANCH   1  10
TORSDOF 14
ENDMDL
MODEL 2
REMARK VINA RESULT:    -3.835      0.182      8.405
REMARK INTER + INTRA:          -7.784
REMARK INTER:                  -6.978
REMARK INTRA:                  -0.806
REMARK UNBOUND:                -0.810
REMARK SMILES CCCCCCCCCCCCCCCCC
REMARK SMILES IDX 9 1 8 2 7 3 6 4 5 5 4 6 3 7 2 8 1 9 10 10 11 11 12 12 13 13
REMARK SMILES IDX 14 14 15 15 16 16 17 17
REMARK H PARENT
REMARK Flexibility Score: inf
ROOT
ATOM      1  C   UNL     1      20.721   7.412  -4.641  1.00  0.00    -0.000 C 
ENDROOT
BRANCH   1   2
ATOM      2  C   UNL     1      21.489   6.203  -4.092  1.00  0.00    -0.000 C 
BRANCH   2   3
ATOM      3  C   UNL     1      21.003   5.839  -2.680  1.00  0.00    -0.000 C 
BRANCH   3   4
ATOM      4  C   UNL     1      20.930   7.058  -1.747  1.00  0.00    -0.000 C 
BRANCH   4   5
ATOM      5  C   UNL     1      20.011   6.820  -0.537  1.00  0.00    -0.000 C 
BRANCH   5   6
ATOM      6  C   UNL     1      19.223   5.503  -0.637  1.00  0.00    -0.000 C 
BRANCH   6   7
ATOM      7  C   UNL     1      17.730   5.699  -0.979  1.00  0.00    -0.000 C 
BRANCH   7   8
ATOM      8  C   UNL     1      16.897   4.446  -0.674  1.00  0.00    -0.003 C 
ATOM      9  C   UNL     1      17.787   3.279  -0.255  1.00  0.00     0.004 C 
ENDBRANCH   7   8
ENDBRANCH   6   7
ENDBRANCH   5   6
ENDBRANCH   4   5
ENDBRANCH   3   4
ENDBRANCH   2   3
ENDBRANCH   1   2
BRANCH   1  10
ATOM     10  C   UNL     1      21.333   7.902  -5.958  1.00  0.00    -0.000 C 
BRANCH  10  11
ATOM     11  C   UNL     1      20.364   8.825  -6.707  1.00  0.00    -0.000 C 
BRANCH  11  12
ATOM     12  C   UNL     1      20.310  10.213  -6.054  1.00  0.00    -0.000 C 
BRANCH  12  13
ATOM     13  C   UNL     1      19.150  11.080  -6.578  1.00  0.00    -0.000 C 
BRANCH  13  14
ATOM     14  C   UNL     1      18.590  10.652  -7.947  1.00  0.00    -0.000 C 
BRANCH  14  15
ATOM     15  C   UNL     1      19.256  11.387  -9.121  1.00  0.00    -0.000 C 
BRANCH  15  16
ATOM     16  C   UNL     1      18.233  12.001 -10.089  1.00  0.00    -0.003 C 
ATOM     17  C   UNL     1      17.131  11.017 -10.482  1.00  0.00     0.004 C 
ENDBRANCH  15  16
ENDBRANCH  14  15
ENDBRANCH  13  14
ENDBRANCH  12  13
ENDBRANCH  11  12
ENDBRANCH  10  11
ENDBRANCH   1  10
TORSDOF 14
ENDMDL
MODEL 3
REMARK VINA RESULT:    -3.564      0.683      8.576
REMARK INTER + INTRA:          -7.290
REMARK INTER:                  -6.545
REMARK INTRA:                  -0.745
REMARK UNBOUND:                -0.810
REMARK SMILES CCCCCCCCCCCCCCCCC
REMARK SMILES IDX 9 1 8 2 7 3 6 4 5 5 4 6 3 7 2 8 1 9 10 10 11 11 12 12 13 13
REMARK SMILES IDX 14 14 15 15 16 16 17 17
REMARK H PARENT
REMARK Flexibility Score: inf
ROOT
ATOM      1  C   UNL     1      21.405   7.743  -6.265  1.00  0.00    -0.000 C 
ENDROOT
BRANCH   1   2
ATOM      2  C   UNL     1      20.881   7.592  -4.831  1.00  0.00    -0.000 C 
BRANCH   2   3
ATOM      3  C   UNL     1      21.534   6.389  -4.132  1.00  0.00    -0.000 C 
BRANCH   3   4
ATOM      4  C   UNL     1      20.784   5.964  -2.859  1.00  0.00    -0.000 C 
BRANCH   4   5
ATOM      5  C   UNL     1      20.869   7.020  -1.745  1.00  0.00    -0.000 C 
BRANCH   5   6
ATOM      6  C   UNL     1      19.986   6.678  -0.531  1.00  0.00    -0.000 C 
BRANCH   6   7
ATOM      7  C   UNL     1      19.180   5.373  -0.700  1.00  0.00    -0.000 C 
BRANCH   7   8
ATOM      8  C   UNL     1      17.677   5.639  -0.873  1.00  0.00    -0.003 C 
ATOM      9  C   UNL     1      16.899   4.334  -1.016  1.00  0.00     0.004 C 
ENDBRANCH   7   8
ENDBRANCH   6   7
ENDBRANCH   5   6
ENDBRANCH   4   5
ENDBRANCH   3   4
ENDBRANCH   2   3
ENDBRANCH   1   2
BRANCH   1  10
ATOM     10  C   UNL     1      20.870   9.024  -6.915  1.00  0.00    -0.000 C 
BRANCH  10  11
ATOM     11  C   UNL     1      20.434  10.041  -5.854  1.00  0.00    -0.000 C 
BRANCH  11  12
ATOM     12  C   UNL     1      19.299  10.931  -6.377  1.00  0.00    -0.000 C 
BRANCH  12  13
ATOM     13  C   UNL     1      18.730  10.452  -7.726  1.00  0.00    -0.000 C 
BRANCH  13  14
ATOM     14  C   UNL     1      19.264  11.206  -8.957  1.00  0.00    -0.000 C 
BRANCH  14  15
ATOM     15  C   UNL     1      18.160  11.556  -9.968  1.00  0.00    -0.000 C 
BRANCH  15  16
ATOM     16  C   UNL     1      18.245  13.011 -10.454  1.00  0.00    -0.003 C 
ATOM     17  C   UNL     1      18.961  13.923  -9.458  1.00  0.00     0.004 C 
ENDBRANCH  15  16
ENDBRANCH  14  15
ENDBRANCH  13  14
ENDBRANCH  12  13
ENDBRANCH  11  12
ENDBRANCH  10  11
ENDBRANCH   1  10
TORSDOF 14
ENDMDL
MODEL 4
REMARK VINA RESULT:    -3.284      1.229      2.188
REMARK INTER + INTRA:          -6.782
REMARK INTER:                  -6.114
REMARK INTRA:                  -0.668
REMARK UNBOUND:                -0.810
REMARK SMILES CCCCCCCCCCCCCCCCC
REMARK SMILES IDX 9 1 8 2 7 3 6 4 5 5 4 6 3 7 2 8 1 9 10 10 11 11 12 12 13 13
REMARK SMILES IDX 14 14 15 15 16 16 17 17
REMARK H PARENT
REMARK Flexibility Score: inf
ROOT
ATOM      1  C   UNL     1      20.831   8.065  -5.986  1.00  0.00    -0.000 C 
ENDROOT
BRANCH   1   2
ATOM      2  C   UNL     1      20.638   9.567  -6.227  1.00  0.00    -0.000 C 
BRANCH   2   3
ATOM      3  C   UNL     1      20.168   9.837  -7.665  1.00  0.00    -0.000 C 
BRANCH   3   4
ATOM      4  C   UNL     1      19.032  10.871  -7.732  1.00  0.00    -0.000 C 
BRANCH   4   5
ATOM      5  C   UNL     1      18.508  11.080  -9.162  1.00  0.00    -0.000 C 
BRANCH   5   6
ATOM      6  C   UNL     1      19.277  12.173  -9.926  1.00  0.00    -0.000 C 
BRANCH   6   7
ATOM      7  C   UNL     1      18.405  12.956 -10.930  1.00  0.00    -0.000 C 
BRANCH   7   8
ATOM      8  C   UNL     1      18.276  14.438 -10.552  1.00  0.00    -0.003 C 
ATOM      9  C   UNL     1      19.232  14.805  -9.421  1.00  0.00     0.004 C 
ENDBRANCH   7   8
ENDBRANCH   6   7
ENDBRANCH   5   6
ENDBRANCH   4   5
ENDBRANCH   3   4
ENDBRANCH   2   3
ENDBRANCH   1   2
BRANCH   1  10
ATOM     10  C   UNL     1      20.950   7.757  -4.490  1.00  0.00    -0.000 C 
BRANCH  10  11
ATOM     11  C   UNL     1      21.381   6.304  -4.257  1.00  0.00    -0.000 C 
BRANCH  11  12
ATOM     12  C   UNL     1      20.879   5.790  -2.901  1.00  0.00    -0.000 C 
BRANCH  12  13
ATOM     13  C   UNL     1      21.011   6.833  -1.776  1.00  0.00    -0.000 C 
BRANCH  13  14
ATOM     14  C   UNL     1      19.942   6.732  -0.673  1.00  0.00    -0.000 C 
BRANCH  14  15
ATOM     15  C   UNL     1      19.245   5.362  -0.639  1.00  0.00    -0.000 C 
BRANCH  15  16
ATOM     16  C   UNL     1      17.739   5.460  -0.927  1.00  0.00    -0.003 C 
ATOM     17  C   UNL     1      17.064   4.090  -1.001  1.00  0.00     0.004 C 
ENDBRANCH  15  16
ENDBRANCH  14  15
ENDBRANCH  13  14
ENDBRANCH  12  13
ENDBRANCH  11  12
ENDBRANCH  10  11
ENDBRANCH   1  10
TORSDOF 14
ENDMDL
MODEL 5
REMARK VINA RESULT:    -3.262      0.799      2.156
REMARK INTER + INTRA:          -6.742
REMARK INTER:                  -5.998
REMARK INTRA:                  -0.745
REMARK UNBOUND:                -0.810
REMARK SMILES CCCCCCCCCCCCCCCCC
REMARK SMILES IDX 9 1 8 2 7 3 6 4 5 5 4 6 3 7 2 8 1 9 10 10 11 11 12 12 13 13
REMARK SMILES IDX 14 14 15 15 16 16 17 17
REMARK H PARENT
REMARK Flexibility Score: inf
ROOT
ATOM      1  C   UNL     1      21.122   5.872  -2.874  1.00  0.00    -0.000 C 
ENDROOT
BRANCH   1   2
ATOM      2  C   UNL     1      21.522   6.278  -4.298  1.00  0.00    -0.000 C 
BRANCH   2   3
ATOM      3  C   UNL     1      20.608   7.395  -4.828  1.00  0.00    -0.000 C 
BRANCH   3   4
ATOM      4  C   UNL     1      21.226   8.154  -6.013  1.00  0.00    -0.000 C 
BRANCH   4   5
ATOM      5  C   UNL     1      20.520   9.490  -6.291  1.00  0.00    -0.000 C 
BRANCH   5   6
ATOM      6  C   UNL     1      20.090   9.644  -7.760  1.00  0.00    -0.000 C 
BRANCH   6   7
ATOM      7  C   UNL     1      18.959  10.672  -7.971  1.00  0.00    -0.000 C 
BRANCH   7   8
ATOM      8  C   UNL     1      19.179  11.526  -9.228  1.00  0.00    -0.003 C 
ATOM      9  C   UNL     1      17.944  11.515 -10.125  1.00  0.00     0.004 C 
ENDBRANCH   7   8
ENDBRANCH   6   7
ENDBRANCH   5   6
ENDBRANCH   4   5
ENDBRANCH   3   4
ENDBRANCH   2   3
ENDBRANCH   1   2
BRANCH   1  10
ATOM     10  C   UNL     1      20.874   7.106  -1.998  1.00  0.00    -0.000 C 
BRANCH  10  11
ATOM     11  C   UNL     1      20.327   6.706  -0.623  1.00  0.00    -0.000 C 
BRANCH  11  12
ATOM     12  C   UNL     1      19.418   5.473  -0.729  1.00  0.00    -0.000 C 
BRANCH  12  13
ATOM     13  C   UNL     1      17.963   5.826  -1.087  1.00  0.00    -0.000 C 
BRANCH  13  14
ATOM     14  C   UNL     1      16.911   4.821  -0.583  1.00  0.00    -0.000 C 
BRANCH  14  15
ATOM     15  C   UNL     1      17.508   3.441  -0.261  1.00  0.00    -0.000 C 
BRANCH  15  16
ATOM     16  C   UNL     1      16.965   2.336  -1.179  1.00  0.00    -0.003 C 
ATOM     17  C   UNL     1      16.383   2.885  -2.482  1.00  0.00     0.004 C 
ENDBRANCH  15  16
ENDBRANCH  14  15
ENDBRANCH  13  14
ENDBRANCH  12  13
ENDBRANCH  11  12
ENDBRANCH  10  11
ENDBRANCH   1  10
TORSDOF 14
ENDMDL
MODEL 6
REMARK VINA RESULT:    -3.229      0.831      8.024
REMARK INTER + INTRA:          -6.681
REMARK INTER:                  -5.788
REMARK INTRA:                  -0.893
REMARK UNBOUND:                -0.810
REMARK SMILES CCCCCCCCCCCCCCCCC
REMARK SMILES IDX 9 1 8 2 7 3 6 4 5 5 4 6 3 7 2 8 1 9 10 10 11 11 12 12 13 13
REMARK SMILES IDX 14 14 15 15 16 16 17 17
REMARK H PARENT
REMARK Flexibility Score: inf
ROOT
ATOM      1  C   UNL     1      20.729   6.146  -3.038  1.00  0.00    -0.000 C 
ENDROOT
BRANCH   1   2
ATOM      2  C   UNL     1      21.295   6.706  -1.726  1.00  0.00    -0.000 C 
BRANCH   2   3
ATOM      3  C   UNL     1      20.214   6.746  -0.635  1.00  0.00    -0.000 C 
BRANCH   3   4
ATOM      4  C   UNL     1      19.286   5.520  -0.675  1.00  0.00    -0.000 C 
BRANCH   4   5
ATOM      5  C   UNL     1      17.809   5.904  -0.855  1.00  0.00    -0.000 C 
BRANCH   5   6
ATOM      6  C   UNL     1      16.859   4.702  -0.714  1.00  0.00    -0.000 C 
BRANCH   6   7
ATOM      7  C   UNL     1      17.577   3.383  -0.356  1.00  0.00    -0.000 C 
BRANCH   7   8
ATOM      8  C   UNL     1      17.303   2.276  -1.385  1.00  0.00    -0.003 C 
ATOM      9  C   UNL     1      16.361   2.764  -2.482  1.00  0.00     0.004 C 
ENDBRANCH   7   8
ENDBRANCH   6   7
ENDBRANCH   5   6
ENDBRANCH   4   5
ENDBRANCH   3   4
ENDBRANCH   2   3
ENDBRANCH   1   2
BRANCH   1  10
ATOM     10  C   UNL     1      21.855   5.705  -3.980  1.00  0.00    -0.000 C 
BRANCH  10  11
ATOM     11  C   UNL     1      21.924   6.606  -5.218  1.00  0.00    -0.000 C 
BRANCH  11  12
ATOM     12  C   UNL     1      20.885   7.733  -5.138  1.00  0.00    -0.000 C 
BRANCH  12  13
ATOM     13  C   UNL     1      20.867   8.625  -6.393  1.00  0.00    -0.000 C 
BRANCH  13  14
ATOM     14  C   UNL     1      20.751  10.134  -6.113  1.00  0.00    -0.000 C 
BRANCH  14  15
ATOM     15  C   UNL     1      19.343  10.687  -6.387  1.00  0.00    -0.000 C 
BRANCH  15  16
ATOM     16  C   UNL     1      18.783  10.228  -7.743  1.00  0.00    -0.003 C 
ATOM     17  C   UNL     1      18.999  11.261  -8.849  1.00  0.00     0.004 C 
ENDBRANCH  15  16
ENDBRANCH  14  15
ENDBRANCH  13  14
ENDBRANCH  12  13
ENDBRANCH  11  12
ENDBRANCH  10  11
ENDBRANCH   1  10
TORSDOF 14
ENDMDL
MODEL 7
REMARK VINA RESULT:    -3.165      4.847      8.826
REMARK INTER + INTRA:          -6.565
REMARK INTER:                  -5.394
REMARK INTRA:                  -1.170
REMARK UNBOUND:                -0.810
REMARK SMILES CCCCCCCCCCCCCCCCC
REMARK SMILES IDX 9 1 8 2 7 3 6 4 5 5 4 6 3 7 2 8 1 9 10 10 11 11 12 12 13 13
REMARK SMILES IDX 14 14 15 15 16 16 17 17
REMARK H PARENT
REMARK Flexibility Score: inf
ROOT
ATOM      1  C   UNL     1      21.771  10.232  -8.936  1.00  0.00    -0.000 C 
ENDROOT
BRANCH   1   2
ATOM      2  C   UNL     1      21.955   9.118  -7.897  1.00  0.00    -0.000 C 
BRANCH   2   3
ATOM      3  C   UNL     1      20.685   8.944  -7.049  1.00  0.00    -0.000 C 
BRANCH   3   4
ATOM      4  C   UNL     1      20.419  10.147  -6.130  1.00  0.00    -0.000 C 
BRANCH   4   5
ATOM      5  C   UNL     1      19.180  10.952  -6.557  1.00  0.00    -0.000 C 
BRANCH   5   6
ATOM      6  C   UNL     1      18.731  10.638  -7.995  1.00  0.00    -0.000 C 
BRANCH   6   7
ATOM      7  C   UNL     1      18.787  11.856  -8.941  1.00  0.00    -0.000 C 
BRANCH   7   8
ATOM      8  C   UNL     1      17.920  11.657 -10.193  1.00  0.00    -0.003 C 
ATOM      9  C   UNL     1      17.861  12.931 -11.032  1.00  0.00     0.004 C 
ENDBRANCH   7   8
ENDBRANCH   6   7
ENDBRANCH   5   6
ENDBRANCH   4   5
ENDBRANCH   3   4
ENDBRANCH   2   3
ENDBRANCH   1   2
BRANCH   1  10
ATOM     10  C   UNL     1      23.125  10.776  -9.406  1.00  0.00    -0.000 C 
BRANCH  10  11
ATOM     11  C   UNL     1      23.008  11.429 -10.788  1.00  0.00    -0.000 C 
BRANCH  11  12
ATOM     12  C   UNL     1      21.943  12.534 -10.787  1.00  0.00    -0.000 C 
BRANCH  12  13
ATOM     13  C   UNL     1      22.545  13.950 -10.724  1.00  0.00    -0.000 C 
BRANCH  13  14
ATOM     14  C   UNL     1      21.536  15.093 -10.942  1.00  0.00    -0.000 C 
BRANCH  14  15
ATOM     15  C   UNL     1      21.457  16.056  -9.746  1.00  0.00    -0.000 C 
BRANCH  15  16
ATOM     16  C   UNL     1      20.023  16.529  -9.464  1.00  0.00    -0.003 C 
ATOM     17  C   UNL     1      19.223  15.525  -8.634  1.00  0.00     0.004 C 
ENDBRANCH  15  16
ENDBRANCH  14  15
ENDBRANCH  13  14
ENDBRANCH  12  13
ENDBRANCH  11  12
ENDBRANCH  10  11
ENDBRANCH   1  10
TORSDOF 14
ENDMDL
MODEL 8
REMARK VINA RESULT:    -2.942      5.077      7.777
REMARK INTER + INTRA:          -6.159
REMARK INTER:                  -4.467
REMARK INTRA:                  -1.692
REMARK UNBOUND:                -0.810
REMARK SMILES CCCCCCCCCCCCCCCCC
REMARK SMILES IDX 9 1 8 2 7 3 6 4 5 5 4 6 3 7 2 8 1 9 10 10 11 11 12 12 13 13
REMARK SMILES IDX 14 14 15 15 16 16 17 17
REMARK H PARENT
REMARK Flexibility Score: inf
ROOT
ATOM      1  C   UNL     1      22.681  10.460  -9.974  1.00  0.00    -0.000 C 
ENDROOT
BRANCH   1   2
ATOM      2  C   UNL     1      22.930  11.969 -10.090  1.00  0.00    -0.000 C 
BRANCH   2   3
ATOM      3  C   UNL     1      21.902  12.624 -11.026  1.00  0.00    -0.000 C 
BRANCH   3   4
ATOM      4  C   UNL     1      22.055  14.152 -11.097  1.00  0.00    -0.000 C 
BRANCH   4   5
ATOM      5  C   UNL     1      23.125  14.683 -10.129  1.00  0.00    -0.000 C 
BRANCH   5   6
ATOM      6  C   UNL     1      22.808  16.095  -9.606  1.00  0.00    -0.000 C 
BRANCH   6   7
ATOM      7  C   UNL     1      21.431  16.627 -10.055  1.00  0.00    -0.000 C 
BRANCH   7   8
ATOM      8  C   UNL     1      20.418  16.662  -8.901  1.00  0.00    -0.003 C 
ATOM      9  C   UNL     1      19.435  15.498  -8.995  1.00  0.00     0.004 C 
ENDBRANCH   7   8
ENDBRANCH   6   7
ENDBRANCH   5   6
ENDBRANCH   4   5
ENDBRANCH   3   4
ENDBRANCH   2   3
ENDBRANCH   1   2
BRANCH   1  10
ATOM     10  C   UNL     1      22.574  10.030  -8.506  1.00  0.00    -0.000 C 
BRANCH  10  11
ATOM     11  C   UNL     1      21.274   9.258  -8.250  1.00  0.00    -0.000 C 
BRANCH  11  12
ATOM     12  C   UNL     1      20.708   9.578  -6.860  1.00  0.00    -0.000 C 
BRANCH  12  13
ATOM     13  C   UNL     1      19.437  10.445  -6.912  1.00  0.00    -0.000 C 
BRANCH  13  14
ATOM     14  C   UNL     1      18.729  10.475  -8.278  1.00  0.00    -0.000 C 
BRANCH  14  15
ATOM     15  C   UNL     1      18.665  11.885  -8.888  1.00  0.00    -0.000 C 
BRANCH  15  16
ATOM     16  C   UNL     1      18.449  11.861 -10.408  1.00  0.00    -0.003 C 
ATOM     17  C   UNL     1      16.970  11.911 -10.794  1.00  0.00     0.004 C 
ENDBRANCH  15  16
ENDBRANCH  14  15
ENDBRANCH  13  14
ENDBRANCH  12  13
ENDBRANCH  11  12
ENDBRANCH  10  11
ENDBRANCH   1  10
TORSDOF 14
ENDMDL
MODEL 9
REMARK VINA RESULT:    -2.596      2.038      9.490
REMARK INTER + INTRA:          -5.530
REMARK INTER:                  -5.054
REMARK INTRA:                  -0.476
REMARK UNBOUND:                -0.810
REMARK SMILES CCCCCCCCCCCCCCCCC
REMARK SMILES IDX 9 1 8 2 7 3 6 4 5 5 4 6 3 7 2 8 1 9 10 10 11 11 12 12 13 13
REMARK SMILES IDX 14 14 15 15 16 16 17 17
REMARK H PARENT
REMARK Flexibility Score: inf
ROOT
ATOM      1  C   UNL     1      20.531   9.681  -5.826  1.00  0.00    -0.000 C 
ENDROOT
BRANCH   1   2
ATOM      2  C   UNL     1      20.481   8.150  -5.898  1.00  0.00    -0.000 C 
BRANCH   2   3
ATOM      3  C   UNL     1      21.599   7.524  -5.050  1.00  0.00    -0.000 C 
BRANCH   3   4
ATOM      4  C   UNL     1      21.166   6.212  -4.376  1.00  0.00    -0.000 C 
BRANCH   4   5
ATOM      5  C   UNL     1      21.121   6.323  -2.844  1.00  0.00    -0.000 C 
BRANCH   5   6
ATOM      6  C   UNL     1      19.948   5.544  -2.223  1.00  0.00    -0.000 C 
BRANCH   6   7
ATOM      7  C   UNL     1      19.653   5.930  -0.758  1.00  0.00    -0.000 C 
BRANCH   7   8
ATOM      8  C   UNL     1      18.147   5.969  -0.461  1.00  0.00    -0.003 C 
ATOM      9  C   UNL     1      17.411   4.848  -1.190  1.00  0.00     0.004 C 
ENDBRANCH   7   8
ENDBRANCH   6   7
ENDBRANCH   5   6
ENDBRANCH   4   5
ENDBRANCH   3   4
ENDBRANCH   2   3
ENDBRANCH   1   2
BRANCH   1  10
ATOM     10  C   UNL     1      19.408  10.310  -6.660  1.00  0.00    -0.000 C 
BRANCH  10  11
ATOM     11  C   UNL     1      19.837  10.484  -8.121  1.00  0.00    -0.000 C 
BRANCH  11  12
ATOM     12  C   UNL     1      18.721  11.133  -8.950  1.00  0.00    -0.000 C 
BRANCH  12  13
ATOM     13  C   UNL     1      19.243  12.192  -9.939  1.00  0.00    -0.000 C 
BRANCH  13  14
ATOM     14  C   UNL     1      18.701  13.614  -9.711  1.00  0.00    -0.000 C 
BRANCH  14  15
ATOM     15  C   UNL     1      19.756  14.704  -9.962  1.00  0.00    -0.000 C 
BRANCH  15  16
ATOM     16  C   UNL     1      19.694  15.835  -8.926  1.00  0.00    -0.003 C 
ATOM     17  C   UNL     1      18.633  16.884  -9.262  1.00  0.00     0.004 C 
ENDBRANCH  15  16
ENDBRANCH  14  15
ENDBRANCH  13  14
ENDBRANCH  12  13
ENDBRANCH  11  12
ENDBRANCH  10  11
ENDBRANCH   1  10
TORSDOF 14
ENDMDL
