MODEL 1
REMARK VINA RESULT:    -2.996      0.000      0.000
REMARK INTER + INTRA:          -3.917
REMARK INTER:                  -4.221
REMARK INTRA:                   0.305
REMARK UNBOUND:                 0.305
REMARK SMILES CC1=CCC(=C(C)C)C(=O)CC(C)=CCC1
REMARK SMILES IDX 12 1 14 2 13 3 15 4 16 5 2 6 1 7 3 8 11 10 9 11 10 12 5 13
REMARK SMILES IDX 6 14 7 15 8 16 4 17
REMARK H PARENT
REMARK Flexibility Score: 60.00
ROOT
ATOM      1  C   UNL     1      62.674  14.938  -2.254  1.00  0.00    -0.070 C 
ATOM      2  C   UNL     1      62.759  13.622  -1.960  1.00  0.00    -0.027 C 
ATOM      3  C   UNL     1      63.527  15.465  -3.381  1.00  0.00     0.039 C 
ENDROOT
BRANCH   2   4
ATOM      4  C   UNL     1      62.062  12.927  -0.810  1.00  0.00     0.032 C 
BRANCH   4   5
ATOM      5  C   UNL     1      62.738  13.114   0.564  1.00  0.00     0.034 C 
BRANCH   5   6
ATOM      6  C   UNL     1      61.746  13.311   1.696  1.00  0.00    -0.077 C 
ATOM      7  C   UNL     1      60.832  12.160   2.037  1.00  0.00     0.039 C 
ATOM      8  C   UNL     1      61.579  14.473   2.373  1.00  0.00    -0.023 CG0
ATOM      9  G   UNL     1      62.388  15.746   2.217  1.00  0.00     0.000 G0
ENDBRANCH   5   6
ENDBRANCH   4   5
ENDBRANCH   2   4
BRANCH   1  10
ATOM     10  C   UNL     1      61.840  15.917  -1.453  1.00  0.00     0.111 C 
BRANCH  10  11
ATOM     11  C   UNL     1      62.583  16.421  -0.245  1.00  0.00     0.163 C 
ATOM     12  O   UNL     1      63.827  16.608  -0.348  1.00  0.00    -0.294 OA
BRANCH  11  13
ATOM     13  C   UNL     1      61.916  16.644   1.073  1.00  0.00    -0.002 C 
ATOM     14  C   UNL     1      61.005  17.650   1.233  1.00  0.00    -0.069 C 
ATOM     15  C   UNL     1      60.432  18.002   2.589  1.00  0.00     0.039 C 
ATOM     16  C   UNL     1      60.525  18.470   0.055  1.00  0.00     0.039 C 
BRANCH  13  17
ATOM     17  C   UNL     1      62.363  15.771   2.234  1.00  0.00     0.066 CG0
ATOM     18  G   UNL     1      61.560  14.489   2.335  1.00  0.00     0.000 G0
ENDBRANCH  13  17
ENDBRANCH  11  13
ENDBRANCH  10  11
ENDBRANCH   1  10
TORSDOF 0
ENDMDL
MODEL 2
REMARK VINA RESULT:    -2.701     11.380     13.109
REMARK INTER + INTRA:          -3.502
REMARK INTER:                  -3.778
REMARK INTRA:                   0.276
REMARK UNBOUND:                 0.305
REMARK SMILES CC1=CCC(=C(C)C)C(=O)CC(C)=CCC1
REMARK SMILES IDX 12 1 14 2 13 3 15 4 16 5 2 6 1 7 3 8 11 10 9 11 10 12 5 13
REMARK SMILES IDX 6 14 7 15 8 16 4 17
REMARK H PARENT
REMARK Flexibility Score: 60.00
ROOT
ATOM      1  C   UNL     1      54.415   7.986   4.796  1.00  0.00    -0.070 C 
ATOM      2  C   UNL     1      55.187   8.682   5.658  1.00  0.00    -0.027 C 
ATOM      3  C   UNL     1      53.770   8.740   3.660  1.00  0.00     0.039 C 
ENDROOT
BRANCH   2   4
ATOM      4  C   UNL     1      55.837   8.128   6.908  1.00  0.00     0.032 C 
BRANCH   4   5
ATOM      5  C   UNL     1      57.213   7.467   6.683  1.00  0.00     0.034 C 
BRANCH   5   6
ATOM      6  C   UNL     1      57.293   6.053   7.230  1.00  0.00    -0.077 C 
ATOM      7  C   UNL     1      57.438   5.886   8.723  1.00  0.00     0.039 C 
ATOM      8  C   UNL     1      57.312   4.936   6.464  1.00  0.00    -0.023 CG0
ATOM      9  G   UNL     1      57.163   4.858   4.957  1.00  0.00     0.000 G0
ENDBRANCH   5   6
ENDBRANCH   4   5
ENDBRANCH   2   4
BRANCH   1  10
ATOM     10  C   UNL     1      54.095   6.515   4.967  1.00  0.00     0.111 C 
BRANCH  10  11
ATOM     11  C   UNL     1      54.905   5.658   4.031  1.00  0.00     0.163 C 
ATOM     12  O   UNL     1      54.814   5.881   2.792  1.00  0.00    -0.294 OA
BRANCH  11  13
ATOM     13  C   UNL     1      55.752   4.525   4.510  1.00  0.00    -0.002 C 
ATOM     14  C   UNL     1      55.238   3.263   4.613  1.00  0.00    -0.069 C 
ATOM     15  C   UNL     1      56.020   2.130   5.242  1.00  0.00     0.039 C 
ATOM     16  C   UNL     1      53.852   2.936   4.103  1.00  0.00     0.039 C 
BRANCH  13  17
ATOM     17  C   UNL     1      57.166   4.857   4.961  1.00  0.00     0.066 CG0
ATOM     18  G   UNL     1      57.286   4.936   6.470  1.00  0.00     0.000 G0
ENDBRANCH  13  17
ENDBRANCH  11  13
ENDBRANCH  10  11
ENDBRANCH   1  10
TORSDOF 0
ENDMDL
MODEL 3
REMARK VINA RESULT:    -2.597      2.129      3.569
REMARK INTER + INTRA:          -3.355
REMARK INTER:                  -3.905
REMARK INTRA:                   0.550
REMARK UNBOUND:                 0.305
REMARK SMILES CC1=CCC(=C(C)C)C(=O)CC(C)=CCC1
REMARK SMILES IDX 12 1 14 2 13 3 15 4 16 5 2 6 1 7 3 8 11 10 9 11 10 12 5 13
REMARK SMILES IDX 6 14 7 15 8 16 4 17
REMARK H PARENT
REMARK Flexibility Score: 60.00
ROOT
ATOM      1  C   UNL     1      64.550  15.629   1.716  1.00  0.00    -0.070 C 
ATOM      2  C   UNL     1      64.976  15.487   0.443  1.00  0.00    -0.027 C 
ATOM      3  C   UNL     1      65.007  14.611   2.731  1.00  0.00     0.039 C 
ENDROOT
BRANCH   2   4
ATOM      4  C   UNL     1      64.553  16.342  -0.732  1.00  0.00     0.032 C 
BRANCH   4   5
ATOM      5  C   UNL     1      63.869  15.571  -1.880  1.00  0.00     0.034 C 
BRANCH   5   6
ATOM      6  C   UNL     1      62.615  14.836  -1.443  1.00  0.00    -0.077 C 
ATOM      7  C   UNL     1      62.557  13.346  -1.677  1.00  0.00     0.039 C 
ATOM      8  C   UNL     1      61.519  15.437  -0.919  1.00  0.00    -0.023 CG0
ATOM      9  G   UNL     1      61.357  16.906  -0.580  1.00  0.00     0.000 G0
ENDBRANCH   5   6
ENDBRANCH   4   5
ENDBRANCH   2   4
BRANCH   1  10
ATOM     10  C   UNL     1      63.569  16.699   2.151  1.00  0.00     0.111 C 
BRANCH  10  11
ATOM     11  C   UNL     1      62.151  16.323   1.812  1.00  0.00     0.163 C 
ATOM     12  O   UNL     1      61.704  15.231   2.259  1.00  0.00    -0.294 OA
BRANCH  11  13
ATOM     13  C   UNL     1      61.289  17.159   0.925  1.00  0.00    -0.002 C 
ATOM     14  C   UNL     1      60.412  18.064   1.453  1.00  0.00    -0.069 C 
ATOM     15  C   UNL     1      59.415  18.810   0.592  1.00  0.00     0.039 C 
ATOM     16  C   UNL     1      60.391  18.363   2.936  1.00  0.00     0.039 C 
BRANCH  13  17
ATOM     17  C   UNL     1      61.365  16.892  -0.570  1.00  0.00     0.066 CG0
ATOM     18  G   UNL     1      61.505  15.415  -0.885  1.00  0.00     0.000 G0
ENDBRANCH  13  17
ENDBRANCH  11  13
ENDBRANCH  10  11
ENDBRANCH   1  10
TORSDOF 0
ENDMDL
MODEL 4
REMARK VINA RESULT:    -2.596     12.886     14.543
REMARK INTER + INTRA:          -3.354
REMARK INTER:                  -3.639
REMARK INTRA:                   0.285
REMARK UNBOUND:                 0.305
REMARK SMILES CC1=CCC(=C(C)C)C(=O)CC(C)=CCC1
REMARK SMILES IDX 12 1 14 2 13 3 15 4 16 5 2 6 1 7 3 8 11 10 9 11 10 12 5 13
REMARK SMILES IDX 6 14 7 15 8 16 4 17
REMARK H PARENT
REMARK Flexibility Score: 60.00
ROOT
ATOM      1  C   UNL     1      55.703   1.967   4.673  1.00  0.00    -0.070 C 
ATOM      2  C   UNL     1      55.002   1.065   3.951  1.00  0.00    -0.027 C 
ATOM      3  C   UNL     1      57.019   1.528   5.265  1.00  0.00     0.039 C 
ENDROOT
BRANCH   2   4
ATOM      4  C   UNL     1      53.626   1.281   3.362  1.00  0.00     0.032 C 
BRANCH   4   5
ATOM      5  C   UNL     1      53.618   1.854   1.930  1.00  0.00     0.034 C 
BRANCH   5   6
ATOM      6  C   UNL     1      52.575   2.940   1.726  1.00  0.00    -0.077 C 
ATOM      7  C   UNL     1      51.144   2.508   1.524  1.00  0.00     0.039 C 
ATOM      8  C   UNL     1      52.856   4.263   1.645  1.00  0.00    -0.023 CG0
ATOM      9  G   UNL     1      54.206   4.925   1.834  1.00  0.00     0.000 G0
ENDBRANCH   5   6
ENDBRANCH   4   5
ENDBRANCH   2   4
BRANCH   1  10
ATOM     10  C   UNL     1      55.190   3.357   4.990  1.00  0.00     0.111 C 
BRANCH  10  11
ATOM     11  C   UNL     1      55.566   4.345   3.918  1.00  0.00     0.163 C 
ATOM     12  O   UNL     1      56.784   4.450   3.607  1.00  0.00    -0.294 OA
BRANCH  11  13
ATOM     13  C   UNL     1      54.564   5.239   3.263  1.00  0.00    -0.002 C 
ATOM     14  C   UNL     1      53.938   6.225   3.974  1.00  0.00    -0.069 C 
ATOM     15  C   UNL     1      52.808   7.041   3.385  1.00  0.00     0.039 C 
ATOM     16  C   UNL     1      54.345   6.547   5.395  1.00  0.00     0.039 C 
BRANCH  13  17
ATOM     17  C   UNL     1      54.210   4.944   1.815  1.00  0.00     0.066 CG0
ATOM     18  G   UNL     1      52.863   4.262   1.678  1.00  0.00     0.000 G0
ENDBRANCH  13  17
ENDBRANCH  11  13
ENDBRANCH  10  11
ENDBRANCH   1  10
TORSDOF 0
ENDMDL
MODEL 5
REMARK VINA RESULT:    -2.529      2.232      3.714
REMARK INTER + INTRA:          -3.259
REMARK INTER:                  -3.434
REMARK INTRA:                   0.175
REMARK UNBOUND:                 0.305
REMARK SMILES CC1=CCC(=C(C)C)C(=O)CC(C)=CCC1
REMARK SMILES IDX 12 1 14 2 13 3 15 4 16 5 2 6 1 7 3 8 11 10 9 11 10 12 5 13
REMARK SMILES IDX 6 14 7 15 8 16 4 17
REMARK H PARENT
REMARK Flexibility Score: 60.00
ROOT
ATOM      1  C   UNL     1      61.035  12.343  -1.316  1.00  0.00    -0.070 C 
ATOM      2  C   UNL     1      62.069  12.607  -2.144  1.00  0.00    -0.027 C 
ATOM      3  C   UNL     1      59.875  11.551  -1.866  1.00  0.00     0.039 C 
ENDROOT
BRANCH   2   4
ATOM      4  C   UNL     1      63.271  13.463  -1.811  1.00  0.00     0.032 C 
BRANCH   4   5
ATOM      5  C   UNL     1      63.163  14.935  -2.263  1.00  0.00     0.034 C 
BRANCH   5   6
ATOM      6  C   UNL     1      63.480  15.925  -1.157  1.00  0.00    -0.077 C 
ATOM      7  C   UNL     1      64.932  16.237  -0.890  1.00  0.00     0.039 C 
ATOM      8  C   UNL     1      62.551  16.493  -0.350  1.00  0.00    -0.023 CG0
ATOM      9  G   UNL     1      61.045  16.342  -0.442  1.00  0.00     0.000 G0
ENDBRANCH   5   6
ENDBRANCH   4   5
ENDBRANCH   2   4
BRANCH   1  10
ATOM     10  C   UNL     1      60.944  12.880   0.098  1.00  0.00     0.111 C 
BRANCH  10  11
ATOM     11  C   UNL     1      60.014  14.062   0.184  1.00  0.00     0.163 C 
ATOM     12  O   UNL     1      58.819  13.906  -0.189  1.00  0.00    -0.294 OA
BRANCH  11  13
ATOM     13  C   UNL     1      60.472  15.411   0.631  1.00  0.00    -0.002 C 
ATOM     14  C   UNL     1      60.313  15.808   1.929  1.00  0.00    -0.069 C 
ATOM     15  C   UNL     1      60.620  17.221   2.377  1.00  0.00     0.039 C 
ATOM     16  C   UNL     1      59.816  14.848   2.988  1.00  0.00     0.039 C 
BRANCH  13  17
ATOM     17  C   UNL     1      61.028  16.344  -0.432  1.00  0.00     0.066 CG0
ATOM     18  G   UNL     1      62.536  16.480  -0.349  1.00  0.00     0.000 G0
ENDBRANCH  13  17
ENDBRANCH  11  13
ENDBRANCH  10  11
ENDBRANCH   1  10
TORSDOF 0
ENDMDL
MODEL 6
REMARK VINA RESULT:    -2.487      1.835      2.315
REMARK INTER + INTRA:          -3.200
REMARK INTER:                  -3.333
REMARK INTRA:                   0.133
REMARK UNBOUND:                 0.305
REMARK SMILES CC1=CCC(=C(C)C)C(=O)CC(C)=CCC1
REMARK SMILES IDX 12 1 14 2 13 3 15 4 16 5 2 6 1 7 3 8 11 10 9 11 10 12 5 13
REMARK SMILES IDX 6 14 7 15 8 16 4 17
REMARK H PARENT
REMARK Flexibility Score: 60.00
ROOT
ATOM      1  C   UNL     1      63.497  15.555  -0.971  1.00  0.00    -0.070 C 
ATOM      2  C   UNL     1      63.537  14.331  -1.540  1.00  0.00    -0.027 C 
ATOM      3  C   UNL     1      64.806  16.191  -0.574  1.00  0.00     0.039 C 
ENDROOT
BRANCH   2   4
ATOM      4  C   UNL     1      62.335  13.492  -1.916  1.00  0.00     0.032 C 
BRANCH   4   5
ATOM      5  C   UNL     1      61.772  12.619  -0.774  1.00  0.00     0.034 C 
BRANCH   5   6
ATOM      6  C   UNL     1      60.273  12.771  -0.590  1.00  0.00    -0.077 C 
ATOM      7  C   UNL     1      59.371  12.126  -1.613  1.00  0.00     0.039 C 
ATOM      8  C   UNL     1      59.694  13.503   0.393  1.00  0.00    -0.023 CG0
ATOM      9  G   UNL     1      60.392  14.218   1.533  1.00  0.00     0.000 G0
ENDBRANCH   5   6
ENDBRANCH   4   5
ENDBRANCH   2   4
BRANCH   1  10
ATOM     10  C   UNL     1      62.207  16.273  -0.631  1.00  0.00     0.111 C 
BRANCH  10  11
ATOM     11  C   UNL     1      61.884  16.171   0.836  1.00  0.00     0.163 C 
ATOM     12  O   UNL     1      62.795  16.445   1.665  1.00  0.00    -0.294 OA
BRANCH  11  13
ATOM     13  C   UNL     1      60.558  15.701   1.335  1.00  0.00    -0.002 C 
ATOM     14  C   UNL     1      59.574  16.594   1.653  1.00  0.00    -0.069 C 
ATOM     15  C   UNL     1      58.280  16.161   2.308  1.00  0.00     0.039 C 
ATOM     16  C   UNL     1      59.733  18.072   1.368  1.00  0.00     0.039 C 
BRANCH  13  17
ATOM     17  C   UNL     1      60.390  14.206   1.559  1.00  0.00     0.066 CG0
ATOM     18  G   UNL     1      59.711  13.521   0.389  1.00  0.00     0.000 G0
ENDBRANCH  13  17
ENDBRANCH  11  13
ENDBRANCH  10  11
ENDBRANCH   1  10
TORSDOF 0
ENDMDL
MODEL 7
REMARK VINA RESULT:    -2.465     12.104     14.130
REMARK INTER + INTRA:          -3.169
REMARK INTER:                  -3.580
REMARK INTRA:                   0.412
REMARK UNBOUND:                 0.305
REMARK SMILES CC1=CCC(=C(C)C)C(=O)CC(C)=CCC1
REMARK SMILES IDX 12 1 14 2 13 3 15 4 16 5 2 6 1 7 3 8 11 10 9 11 10 12 5 13
REMARK SMILES IDX 6 14 7 15 8 16 4 17
REMARK H PARENT
REMARK Flexibility Score: 60.00
ROOT
ATOM      1  C   UNL     1      55.282   5.669   5.041  1.00  0.00    -0.070 C 
ATOM      2  C   UNL     1      55.987   4.518   5.000  1.00  0.00    -0.027 C 
ATOM      3  C   UNL     1      56.011   6.931   5.431  1.00  0.00     0.039 C 
ENDROOT
BRANCH   2   4
ATOM      4  C   UNL     1      55.419   3.142   4.729  1.00  0.00     0.032 C 
BRANCH   4   5
ATOM      5  C   UNL     1      55.299   2.775   3.235  1.00  0.00     0.034 C 
BRANCH   5   6
ATOM      6  C   UNL     1      53.872   2.485   2.804  1.00  0.00    -0.077 C 
ATOM      7  C   UNL     1      53.294   1.136   3.156  1.00  0.00     0.039 C 
ATOM      8  C   UNL     1      53.109   3.328   2.067  1.00  0.00    -0.023 CG0
ATOM      9  G   UNL     1      53.470   4.730   1.617  1.00  0.00     0.000 G0
ENDBRANCH   5   6
ENDBRANCH   4   5
ENDBRANCH   2   4
BRANCH   1  10
ATOM     10  C   UNL     1      53.786   5.737   4.807  1.00  0.00     0.111 C 
BRANCH  10  11
ATOM     11  C   UNL     1      53.457   6.458   3.527  1.00  0.00     0.163 C 
ATOM     12  O   UNL     1      53.781   7.673   3.429  1.00  0.00    -0.294 OA
BRANCH  11  13
ATOM     13  C   UNL     1      52.711   5.807   2.408  1.00  0.00    -0.002 C 
ATOM     14  C   UNL     1      51.397   6.102   2.179  1.00  0.00    -0.069 C 
ATOM     15  C   UNL     1      50.573   5.347   1.159  1.00  0.00     0.039 C 
ATOM     16  C   UNL     1      50.696   7.204   2.942  1.00  0.00     0.039 C 
BRANCH  13  17
ATOM     17  C   UNL     1      53.448   4.745   1.607  1.00  0.00     0.066 CG0
ATOM     18  G   UNL     1      53.098   3.339   2.055  1.00  0.00     0.000 G0
ENDBRANCH  13  17
ENDBRANCH  11  13
ENDBRANCH  10  11
ENDBRANCH   1  10
TORSDOF 0
ENDMDL
MODEL 8
REMARK VINA RESULT:    -2.427     12.273     13.279
REMARK INTER + INTRA:          -3.116
REMARK INTER:                  -3.584
REMARK INTRA:                   0.468
REMARK UNBOUND:                 0.305
REMARK SMILES CC1=CCC(=C(C)C)C(=O)CC(C)=CCC1
REMARK SMILES IDX 12 1 14 2 13 3 15 4 16 5 2 6 1 7 3 8 11 10 9 11 10 12 5 13
REMARK SMILES IDX 6 14 7 15 8 16 4 17
REMARK H PARENT
REMARK Flexibility Score: 60.00
ROOT
ATOM      1  C   UNL     1      53.921   5.797   4.335  1.00  0.00    -0.070 C 
ATOM      2  C   UNL     1      53.731   4.517   3.949  1.00  0.00    -0.027 C 
ATOM      3  C   UNL     1      53.556   6.889   3.361  1.00  0.00     0.039 C 
ENDROOT
BRANCH   2   4
ATOM      4  C   UNL     1      54.123   3.288   4.740  1.00  0.00     0.032 C 
BRANCH   4   5
ATOM      5  C   UNL     1      55.226   2.425   4.091  1.00  0.00     0.034 C 
BRANCH   5   6
ATOM      6  C   UNL     1      56.401   3.242   3.584  1.00  0.00    -0.077 C 
ATOM      7  C   UNL     1      56.624   3.299   2.092  1.00  0.00     0.039 C 
ATOM      8  C   UNL     1      57.302   3.864   4.383  1.00  0.00    -0.023 CG0
ATOM      9  G   UNL     1      57.271   3.957   5.896  1.00  0.00     0.000 G0
ENDBRANCH   5   6
ENDBRANCH   4   5
ENDBRANCH   2   4
BRANCH   1  10
ATOM     10  C   UNL     1      54.564   6.182   5.652  1.00  0.00     0.111 C 
BRANCH  10  11
ATOM     11  C   UNL     1      56.066   6.213   5.548  1.00  0.00     0.163 C 
ATOM     12  O   UNL     1      56.585   6.945   4.661  1.00  0.00    -0.294 OA
BRANCH  11  13
ATOM     13  C   UNL     1      56.948   5.369   6.408  1.00  0.00    -0.002 C 
ATOM     14  C   UNL     1      57.496   5.872   7.554  1.00  0.00    -0.069 C 
ATOM     15  C   UNL     1      58.516   5.098   8.361  1.00  0.00     0.039 C 
ATOM     16  C   UNL     1      57.112   7.240   8.073  1.00  0.00     0.039 C 
BRANCH  13  17
ATOM     17  C   UNL     1      57.277   3.972   5.906  1.00  0.00     0.066 CG0
ATOM     18  G   UNL     1      57.290   3.892   4.392  1.00  0.00     0.000 G0
ENDBRANCH  13  17
ENDBRANCH  11  13
ENDBRANCH  10  11
ENDBRANCH   1  10
TORSDOF 0
ENDMDL
MODEL 9
REMARK VINA RESULT:    -2.380      1.756      4.223
REMARK INTER + INTRA:          -3.050
REMARK INTER:                  -3.492
REMARK INTRA:                   0.442
REMARK UNBOUND:                 0.305
REMARK SMILES CC1=CCC(=C(C)C)C(=O)CC(C)=CCC1
REMARK SMILES IDX 12 1 14 2 13 3 15 4 16 5 2 6 1 7 3 8 11 10 9 11 10 12 5 13
REMARK SMILES IDX 6 14 7 15 8 16 4 17
REMARK H PARENT
REMARK Flexibility Score: 60.00
ROOT
ATOM      1  C   UNL     1      63.507  14.836  -1.922  1.00  0.00    -0.070 C 
ATOM      2  C   UNL     1      63.665  15.846  -1.039  1.00  0.00    -0.027 C 
ATOM      3  C   UNL     1      63.257  15.194  -3.366  1.00  0.00     0.039 C 
ENDROOT
BRANCH   2   4
ATOM      4  C   UNL     1      63.826  15.693   0.458  1.00  0.00     0.032 C 
BRANCH   4   5
ATOM      5  C   UNL     1      62.707  16.343   1.298  1.00  0.00     0.034 C 
BRANCH   5   6
ATOM      6  C   UNL     1      61.315  15.910   0.877  1.00  0.00    -0.077 C 
ATOM      7  C   UNL     1      60.367  16.977   0.386  1.00  0.00     0.039 C 
ATOM      8  C   UNL     1      60.845  14.643   0.976  1.00  0.00    -0.023 CG0
ATOM      9  G   UNL     1      61.615  13.415   1.420  1.00  0.00     0.000 G0
ENDBRANCH   5   6
ENDBRANCH   4   5
ENDBRANCH   2   4
BRANCH   1  10
ATOM     10  C   UNL     1      63.476  13.376  -1.520  1.00  0.00     0.111 C 
BRANCH  10  11
ATOM     11  C   UNL     1      62.104  12.954  -1.064  1.00  0.00     0.163 C 
ATOM     12  O   UNL     1      61.137  13.126  -1.855  1.00  0.00    -0.294 OA
BRANCH  11  13
ATOM     13  C   UNL     1      61.846  12.404   0.300  1.00  0.00    -0.002 C 
ATOM     14  C   UNL     1      61.733  11.057   0.500  1.00  0.00    -0.069 C 
ATOM     15  C   UNL     1      61.315  10.478   1.835  1.00  0.00     0.039 C 
ATOM     16  C   UNL     1      62.018  10.071  -0.612  1.00  0.00     0.039 C 
BRANCH  13  17
ATOM     17  C   UNL     1      61.623  13.405   1.422  1.00  0.00     0.066 CG0
ATOM     18  G   UNL     1      60.849  14.625   0.961  1.00  0.00     0.000 G0
ENDBRANCH  13  17
ENDBRANCH  11  13
ENDBRANCH  10  11
ENDBRANCH   1  10
TORSDOF 0
ENDMDL
