MODEL 1
REMARK VINA RESULT:    -3.807      0.000      0.000
REMARK INTER + INTRA:          -9.184
REMARK INTER:                  -7.146
REMARK INTRA:                  -2.038
REMARK UNBOUND:                -2.038
REMARK SMILES O=C([O-])CCCCCCCCCCCCCCC(=O)[O-]
REMARK SMILES IDX 10 1 9 2 8 3 7 4 6 5 5 6 4 7 2 8 1 9 3 10 11 11 12 12 13 13
REMARK SMILES IDX 14 14 15 15 16 16 17 17 18 18 19 19 20 20
REMARK H PARENT
REMARK Flexibility Score: inf
ROOT
ATOM      1  C   UNL     1     -31.043   3.356  -1.303  1.00  0.00     0.000 C 
ENDROOT
BRANCH   1   2
ATOM      2  C   UNL     1     -31.317   4.396  -0.201  1.00  0.00     0.000 C 
BRANCH   2   3
ATOM      3  C   UNL     1     -32.530   5.287  -0.526  1.00  0.00     0.000 C 
BRANCH   3   4
ATOM      4  C   UNL     1     -32.204   6.791  -0.579  1.00  0.00     0.000 C 
BRANCH   4   5
ATOM      5  C   UNL     1     -31.975   7.289  -2.016  1.00  0.00     0.000 C 
BRANCH   5   6
ATOM      6  C   UNL     1     -30.543   7.801  -2.255  1.00  0.00     0.006 C 
BRANCH   6   7
ATOM      7  C   UNL     1     -29.747   8.058  -0.963  1.00  0.00     0.053 C 
BRANCH   7   8
ATOM      8  C   UNL     1     -28.436   8.737  -1.217  1.00  0.00     0.041 C 
ATOM      9  O   UNL     1     -27.918   9.471  -0.334  1.00  0.00    -0.550 OA
ATOM     10  O   UNL     1     -27.801   8.589  -2.443  1.00  0.00    -0.550 OA
ENDBRANCH   7   8
ENDBRANCH   6   7
ENDBRANCH   5   6
ENDBRANCH   4   5
ENDBRANCH   3   4
ENDBRANCH   2   3
ENDBRANCH   1   2
BRANCH   1  11
ATOM     11  C   UNL     1     -30.198   3.923  -2.455  1.00  0.00     0.000 C 
BRANCH  11  12
ATOM     12  C   UNL     1     -28.692   3.712  -2.247  1.00  0.00     0.000 C 
BRANCH  12  13
ATOM     13  C   UNL     1     -27.985   5.041  -1.942  1.00  0.00     0.000 C 
BRANCH  13  14
ATOM     14  C   UNL     1     -27.364   5.066  -0.529  1.00  0.00     0.000 C 
BRANCH  14  15
ATOM     15  C   UNL     1     -27.432   3.713   0.204  1.00  0.00     0.000 C 
BRANCH  15  16
ATOM     16  C   UNL     1     -26.585   3.625   1.488  1.00  0.00     0.006 C 
BRANCH  16  17
ATOM     17  C   UNL     1     -25.069   3.725   1.254  1.00  0.00     0.053 C 
BRANCH  17  18
ATOM     18  C   UNL     1     -24.422   4.697   2.192  1.00  0.00     0.041 C 
ATOM     19  O   UNL     1     -24.862   5.873   2.290  1.00  0.00    -0.550 OA
ATOM     20  O   UNL     1     -23.311   4.314   2.933  1.00  0.00    -0.550 OA
ENDBRANCH  17  18
ENDBRANCH  16  17
ENDBRANCH  15  16
ENDBRANCH  14  15
ENDBRANCH  13  14
ENDBRANCH  12  13
ENDBRANCH  11  12
ENDBRANCH   1  11
TORSDOF 15
ENDMDL
MODEL 2
REMARK VINA RESULT:    -3.682      7.425     10.455
REMARK INTER + INTRA:          -8.948
REMARK INTER:                  -7.447
REMARK INTRA:                  -1.501
REMARK UNBOUND:                -2.038
REMARK SMILES O=C([O-])CCCCCCCCCCCCCCC(=O)[O-]
REMARK SMILES IDX 10 1 9 2 8 3 7 4 6 5 5 6 4 7 2 8 1 9 3 10 11 11 12 12 13 13
REMARK SMILES IDX 14 14 15 15 16 16 17 17 18 18 19 19 20 20
REMARK H PARENT
REMARK Flexibility Score: inf
ROOT
ATOM      1  C   UNL     1     -36.609   1.856   3.704  1.00  0.00     0.000 C 
ENDROOT
BRANCH   1   2
ATOM      2  C   UNL     1     -36.228   0.412   3.331  1.00  0.00     0.000 C 
BRANCH   2   3
ATOM      3  C   UNL     1     -36.700   0.029   1.916  1.00  0.00     0.000 C 
BRANCH   3   4
ATOM      4  C   UNL     1     -35.551  -0.283   0.938  1.00  0.00     0.000 C 
BRANCH   4   5
ATOM      5  C   UNL     1     -34.441  -1.125   1.591  1.00  0.00     0.000 C 
BRANCH   5   6
ATOM      6  C   UNL     1     -33.736  -2.065   0.597  1.00  0.00     0.006 C 
BRANCH   6   7
ATOM      7  C   UNL     1     -34.541  -2.337  -0.686  1.00  0.00     0.053 C 
BRANCH   7   8
ATOM      8  C   UNL     1     -34.923  -3.778  -0.835  1.00  0.00     0.041 C 
ATOM      9  O   UNL     1     -36.053  -4.179  -0.451  1.00  0.00    -0.550 OA
ATOM     10  O   UNL     1     -34.017  -4.686  -1.367  1.00  0.00    -0.550 OA
ENDBRANCH   7   8
ENDBRANCH   6   7
ENDBRANCH   5   6
ENDBRANCH   4   5
ENDBRANCH   3   4
ENDBRANCH   2   3
ENDBRANCH   1   2
BRANCH   1  11
ATOM     11  C   UNL     1     -35.632   2.893   3.128  1.00  0.00     0.000 C 
BRANCH  11  12
ATOM     12  C   UNL     1     -34.168   2.589   3.478  1.00  0.00     0.000 C 
BRANCH  12  13
ATOM     13  C   UNL     1     -33.273   2.683   2.233  1.00  0.00     0.000 C 
BRANCH  13  14
ATOM     14  C   UNL     1     -34.079   2.968   0.948  1.00  0.00     0.000 C 
BRANCH  14  15
ATOM     15  C   UNL     1     -33.485   4.093   0.079  1.00  0.00     0.000 C 
BRANCH  15  16
ATOM     16  C   UNL     1     -34.364   4.531  -1.108  1.00  0.00     0.006 C 
BRANCH  16  17
ATOM     17  C   UNL     1     -34.728   6.025  -1.108  1.00  0.00     0.053 C 
BRANCH  17  18
ATOM     18  C   UNL     1     -36.172   6.248  -1.438  1.00  0.00     0.041 C 
ATOM     19  O   UNL     1     -36.785   7.239  -0.960  1.00  0.00    -0.550 OA
ATOM     20  O   UNL     1     -36.849   5.344  -2.246  1.00  0.00    -0.550 OA
ENDBRANCH  17  18
ENDBRANCH  16  17
ENDBRANCH  15  16
ENDBRANCH  14  15
ENDBRANCH  13  14
ENDBRANCH  12  13
ENDBRANCH  11  12
ENDBRANCH   1  11
TORSDOF 15
ENDMDL
MODEL 3
REMARK VINA RESULT:    -3.680      5.387      7.512
REMARK INTER + INTRA:          -8.945
REMARK INTER:                  -6.572
REMARK INTRA:                  -2.373
REMARK UNBOUND:                -2.038
REMARK SMILES O=C([O-])CCCCCCCCCCCCCCC(=O)[O-]
REMARK SMILES IDX 10 1 9 2 8 3 7 4 6 5 5 6 4 7 2 8 1 9 3 10 11 11 12 12 13 13
REMARK SMILES IDX 14 14 15 15 16 16 17 17 18 18 19 19 20 20
REMARK H PARENT
REMARK Flexibility Score: inf
ROOT
ATOM      1  C   UNL     1     -34.430   8.537  -2.918  1.00  0.00     0.000 C 
ENDROOT
BRANCH   1   2
ATOM      2  C   UNL     1     -35.806   7.858  -2.792  1.00  0.00     0.000 C 
BRANCH   2   3
ATOM      3  C   UNL     1     -35.985   7.144  -1.440  1.00  0.00     0.000 C 
BRANCH   3   4
ATOM      4  C   UNL     1     -36.191   5.622  -1.559  1.00  0.00     0.000 C 
BRANCH   4   5
ATOM      5  C   UNL     1     -36.160   5.142  -3.020  1.00  0.00     0.000 C 
BRANCH   5   6
ATOM      6  C   UNL     1     -35.037   4.125  -3.296  1.00  0.00     0.006 C 
BRANCH   6   7
ATOM      7  C   UNL     1     -35.425   3.023  -4.299  1.00  0.00     0.053 C 
BRANCH   7   8
ATOM      8  C   UNL     1     -35.604   1.686  -3.649  1.00  0.00     0.041 C 
ATOM      9  O   UNL     1     -35.597   0.635  -4.343  1.00  0.00    -0.550 OA
ATOM     10  O   UNL     1     -35.814   1.601  -2.279  1.00  0.00    -0.550 OA
ENDBRANCH   7   8
ENDBRANCH   6   7
ENDBRANCH   5   6
ENDBRANCH   4   5
ENDBRANCH   3   4
ENDBRANCH   2   3
ENDBRANCH   1   2
BRANCH   1  11
ATOM     11  C   UNL     1     -33.494   7.803  -3.892  1.00  0.00     0.000 C 
BRANCH  11  12
ATOM     12  C   UNL     1     -32.572   6.799  -3.187  1.00  0.00     0.000 C 
BRANCH  12  13
ATOM     13  C   UNL     1     -31.460   7.522  -2.412  1.00  0.00     0.000 C 
BRANCH  13  14
ATOM     14  C   UNL     1     -31.404   7.097  -0.929  1.00  0.00     0.000 C 
BRANCH  14  15
ATOM     15  C   UNL     1     -32.591   6.219  -0.489  1.00  0.00     0.000 C 
BRANCH  15  16
ATOM     16  C   UNL     1     -32.205   4.835   0.069  1.00  0.00     0.006 C 
BRANCH  16  17
ATOM     17  C   UNL     1     -33.337   3.796   0.019  1.00  0.00     0.053 C 
BRANCH  17  18
ATOM     18  C   UNL     1     -32.900   2.525  -0.642  1.00  0.00     0.041 C 
ATOM     19  O   UNL     1     -33.117   1.415  -0.088  1.00  0.00    -0.550 OA
ATOM     20  O   UNL     1     -32.221   2.568  -1.853  1.00  0.00    -0.550 OA
ENDBRANCH  17  18
ENDBRANCH  16  17
ENDBRANCH  15  16
ENDBRANCH  14  15
ENDBRANCH  13  14
ENDBRANCH  12  13
ENDBRANCH  11  12
ENDBRANCH   1  11
TORSDOF 15
ENDMDL
MODEL 4
REMARK VINA RESULT:    -3.667      6.393      7.960
REMARK INTER + INTRA:          -8.921
REMARK INTER:                  -6.506
REMARK INTRA:                  -2.415
REMARK UNBOUND:                -2.038
REMARK SMILES O=C([O-])CCCCCCCCCCCCCCC(=O)[O-]
REMARK SMILES IDX 10 1 9 2 8 3 7 4 6 5 5 6 4 7 2 8 1 9 3 10 11 11 12 12 13 13
REMARK SMILES IDX 14 14 15 15 16 16 17 17 18 18 19 19 20 20
REMARK H PARENT
REMARK Flexibility Score: inf
ROOT
ATOM      1  C   UNL     1     -34.587   2.167  -3.359  1.00  0.00     0.000 C 
ENDROOT
BRANCH   1   2
ATOM      2  C   UNL     1     -35.229   3.316  -2.562  1.00  0.00     0.000 C 
BRANCH   2   3
ATOM      3  C   UNL     1     -36.506   3.854  -3.234  1.00  0.00     0.000 C 
BRANCH   3   4
ATOM      4  C   UNL     1     -36.767   5.349  -2.972  1.00  0.00     0.000 C 
BRANCH   4   5
ATOM      5  C   UNL     1     -36.385   5.767  -1.541  1.00  0.00     0.000 C 
BRANCH   5   6
ATOM      6  C   UNL     1     -35.937   7.236  -1.442  1.00  0.00     0.006 C 
BRANCH   6   7
ATOM      7  C   UNL     1     -34.470   7.471  -1.848  1.00  0.00     0.053 C 
BRANCH   7   8
ATOM      8  C   UNL     1     -34.323   8.534  -2.894  1.00  0.00     0.041 C 
ATOM      9  O   UNL     1     -35.212   8.689  -3.773  1.00  0.00    -0.550 OA
ATOM     10  O   UNL     1     -33.187   9.332  -2.919  1.00  0.00    -0.550 OA
ENDBRANCH   7   8
ENDBRANCH   6   7
ENDBRANCH   5   6
ENDBRANCH   4   5
ENDBRANCH   3   4
ENDBRANCH   2   3
ENDBRANCH   1   2
BRANCH   1  11
ATOM     11  C   UNL     1     -35.608   1.099  -3.785  1.00  0.00     0.000 C 
BRANCH  11  12
ATOM     12  C   UNL     1     -35.431   0.656  -5.244  1.00  0.00     0.000 C 
BRANCH  12  13
ATOM     13  C   UNL     1     -36.161   1.609  -6.202  1.00  0.00     0.000 C 
BRANCH  13  14
ATOM     14  C   UNL     1     -35.186   2.432  -7.071  1.00  0.00     0.000 C 
BRANCH  14  15
ATOM     15  C   UNL     1     -35.076   3.910  -6.651  1.00  0.00     0.000 C 
BRANCH  15  16
ATOM     16  C   UNL     1     -33.683   4.343  -6.154  1.00  0.00     0.006 C 
BRANCH  16  17
ATOM     17  C   UNL     1     -33.702   5.529  -5.175  1.00  0.00     0.053 C 
BRANCH  17  18
ATOM     18  C   UNL     1     -32.429   5.628  -4.393  1.00  0.00     0.041 C 
ATOM     19  O   UNL     1     -31.666   6.618  -4.547  1.00  0.00    -0.550 OA
ATOM     20  O   UNL     1     -32.066   4.609  -3.521  1.00  0.00    -0.550 OA
ENDBRANCH  17  18
ENDBRANCH  16  17
ENDBRANCH  15  16
ENDBRANCH  14  15
ENDBRANCH  13  14
ENDBRANCH  12  13
ENDBRANCH  11  12
ENDBRANCH   1  11
TORSDOF 15
ENDMDL
MODEL 5
REMARK VINA RESULT:    -3.665      5.948      9.208
REMARK INTER + INTRA:          -8.918
REMARK INTER:                  -6.796
REMARK INTRA:                  -2.122
REMARK UNBOUND:                -2.038
REMARK SMILES O=C([O-])CCCCCCCCCCCCCCC(=O)[O-]
REMARK SMILES IDX 10 1 9 2 8 3 7 4 6 5 5 6 4 7 2 8 1 9 3 10 11 11 12 12 13 13
REMARK SMILES IDX 14 14 15 15 16 16 17 17 18 18 19 19 20 20
REMARK H PARENT
REMARK Flexibility Score: inf
ROOT
ATOM      1  C   UNL     1     -33.716   7.536  -2.100  1.00  0.00     0.000 C 
ENDROOT
BRANCH   1   2
ATOM      2  C   UNL     1     -32.451   6.684  -1.889  1.00  0.00     0.000 C 
BRANCH   2   3
ATOM      3  C   UNL     1     -32.117   6.492  -0.398  1.00  0.00     0.000 C 
BRANCH   3   4
ATOM      4  C   UNL     1     -31.954   5.019   0.021  1.00  0.00     0.000 C 
BRANCH   4   5
ATOM      5  C   UNL     1     -32.762   4.065  -0.875  1.00  0.00     0.000 C 
BRANCH   5   6
ATOM      6  C   UNL     1     -34.110   3.653  -0.256  1.00  0.00     0.006 C 
BRANCH   6   7
ATOM      7  C   UNL     1     -33.981   2.916   1.090  1.00  0.00     0.053 C 
BRANCH   7   8
ATOM      8  C   UNL     1     -34.157   1.435   0.956  1.00  0.00     0.041 C 
ATOM      9  O   UNL     1     -33.347   0.758   0.268  1.00  0.00    -0.550 OA
ATOM     10  O   UNL     1     -35.234   0.804   1.564  1.00  0.00    -0.550 OA
ENDBRANCH   7   8
ENDBRANCH   6   7
ENDBRANCH   5   6
ENDBRANCH   4   5
ENDBRANCH   3   4
ENDBRANCH   2   3
ENDBRANCH   1   2
BRANCH   1  11
ATOM     11  C   UNL     1     -34.821   7.217  -1.079  1.00  0.00     0.000 C 
BRANCH  11  12
ATOM     12  C   UNL     1     -36.210   7.104  -1.723  1.00  0.00     0.000 C 
BRANCH  12  13
ATOM     13  C   UNL     1     -36.516   5.653  -2.121  1.00  0.00     0.000 C 
BRANCH  13  14
ATOM     14  C   UNL     1     -36.631   5.473  -3.650  1.00  0.00     0.000 C 
BRANCH  14  15
ATOM     15  C   UNL     1     -35.325   5.004  -4.320  1.00  0.00     0.000 C 
BRANCH  15  16
ATOM     16  C   UNL     1     -34.847   3.600  -3.902  1.00  0.00     0.006 C 
BRANCH  16  17
ATOM     17  C   UNL     1     -35.933   2.514  -3.975  1.00  0.00     0.053 C 
BRANCH  17  18
ATOM     18  C   UNL     1     -35.742   1.612  -5.154  1.00  0.00     0.041 C 
ATOM     19  O   UNL     1     -36.066   0.397  -5.081  1.00  0.00    -0.550 OA
ATOM     20  O   UNL     1     -35.172   2.103  -6.322  1.00  0.00    -0.550 OA
ENDBRANCH  17  18
ENDBRANCH  16  17
ENDBRANCH  15  16
ENDBRANCH  14  15
ENDBRANCH  13  14
ENDBRANCH  12  13
ENDBRANCH  11  12
ENDBRANCH   1  11
TORSDOF 15
ENDMDL
MODEL 6
REMARK VINA RESULT:    -3.636      4.010      6.110
REMARK INTER + INTRA:          -8.863
REMARK INTER:                  -6.913
REMARK INTRA:                  -1.950
REMARK UNBOUND:                -2.038
REMARK SMILES O=C([O-])CCCCCCCCCCCCCCC(=O)[O-]
REMARK SMILES IDX 10 1 9 2 8 3 7 4 6 5 5 6 4 7 2 8 1 9 3 10 11 11 12 12 13 13
REMARK SMILES IDX 14 14 15 15 16 16 17 17 18 18 19 19 20 20
REMARK H PARENT
REMARK Flexibility Score: inf
ROOT
ATOM      1  C   UNL     1     -32.496   7.619  -3.514  1.00  0.00     0.000 C 
ENDROOT
BRANCH   1   2
ATOM      2  C   UNL     1     -33.454   8.617  -2.840  1.00  0.00     0.000 C 
BRANCH   2   3
ATOM      3  C   UNL     1     -34.796   8.736  -3.587  1.00  0.00     0.000 C 
BRANCH   3   4
ATOM      4  C   UNL     1     -35.744   7.543  -3.360  1.00  0.00     0.000 C 
BRANCH   4   5
ATOM      5  C   UNL     1     -36.108   7.360  -1.876  1.00  0.00     0.000 C 
BRANCH   5   6
ATOM      6  C   UNL     1     -36.003   5.898  -1.406  1.00  0.00     0.006 C 
BRANCH   6   7
ATOM      7  C   UNL     1     -36.004   4.871  -2.553  1.00  0.00     0.053 C 
BRANCH   7   8
ATOM      8  C   UNL     1     -34.945   3.823  -2.392  1.00  0.00     0.041 C 
ATOM      9  O   UNL     1     -34.541   3.169  -3.389  1.00  0.00    -0.550 OA
ATOM     10  O   UNL     1     -34.428   3.544  -1.133  1.00  0.00    -0.550 OA
ENDBRANCH   7   8
ENDBRANCH   6   7
ENDBRANCH   5   6
ENDBRANCH   4   5
ENDBRANCH   3   4
ENDBRANCH   2   3
ENDBRANCH   1   2
BRANCH   1  11
ATOM     11  C   UNL     1     -32.269   6.355  -2.670  1.00  0.00     0.000 C 
BRANCH  11  12
ATOM     12  C   UNL     1     -32.434   6.607  -1.165  1.00  0.00     0.000 C 
BRANCH  12  13
ATOM     13  C   UNL     1     -31.141   7.167  -0.554  1.00  0.00     0.000 C 
BRANCH  13  14
ATOM     14  C   UNL     1     -29.944   6.208  -0.730  1.00  0.00     0.000 C 
BRANCH  14  15
ATOM     15  C   UNL     1     -28.753   6.833  -1.482  1.00  0.00     0.000 C 
BRANCH  15  16
ATOM     16  C   UNL     1     -27.870   5.830  -2.249  1.00  0.00     0.006 C 
BRANCH  16  17
ATOM     17  C   UNL     1     -28.513   5.269  -3.528  1.00  0.00     0.053 C 
BRANCH  17  18
ATOM     18  C   UNL     1     -28.642   3.778  -3.481  1.00  0.00     0.041 C 
ATOM     19  O   UNL     1     -29.196   3.221  -2.497  1.00  0.00    -0.550 OA
ATOM     20  O   UNL     1     -28.119   3.002  -4.507  1.00  0.00    -0.550 OA
ENDBRANCH  17  18
ENDBRANCH  16  17
ENDBRANCH  15  16
ENDBRANCH  14  15
ENDBRANCH  13  14
ENDBRANCH  12  13
ENDBRANCH  11  12
ENDBRANCH   1  11
TORSDOF 15
ENDMDL
MODEL 7
REMARK VINA RESULT:    -3.631      5.550      8.494
REMARK INTER + INTRA:          -8.853
REMARK INTER:                  -6.546
REMARK INTRA:                  -2.307
REMARK UNBOUND:                -2.038
REMARK SMILES O=C([O-])CCCCCCCCCCCCCCC(=O)[O-]
REMARK SMILES IDX 10 1 9 2 8 3 7 4 6 5 5 6 4 7 2 8 1 9 3 10 11 11 12 12 13 13
REMARK SMILES IDX 14 14 15 15 16 16 17 17 18 18 19 19 20 20
REMARK H PARENT
REMARK Flexibility Score: inf
ROOT
ATOM      1  C   UNL     1     -32.311   6.620  -2.602  1.00  0.00     0.000 C 
ENDROOT
BRANCH   1   2
ATOM      2  C   UNL     1     -32.509   6.928  -1.107  1.00  0.00     0.000 C 
BRANCH   2   3
ATOM      3  C   UNL     1     -31.600   6.069  -0.208  1.00  0.00     0.000 C 
BRANCH   3   4
ATOM      4  C   UNL     1     -31.152   4.745  -0.856  1.00  0.00     0.000 C 
BRANCH   4   5
ATOM      5  C   UNL     1     -32.068   3.569  -0.477  1.00  0.00     0.000 C 
BRANCH   5   6
ATOM      6  C   UNL     1     -32.621   3.675   0.956  1.00  0.00     0.006 C 
BRANCH   6   7
ATOM      7  C   UNL     1     -34.093   3.245   1.091  1.00  0.00     0.053 C 
BRANCH   7   8
ATOM      8  C   UNL     1     -34.444   2.813   2.482  1.00  0.00     0.041 C 
ATOM      9  O   UNL     1     -35.578   3.078   2.963  1.00  0.00    -0.550 OA
ATOM     10  O   UNL     1     -33.507   2.147   3.261  1.00  0.00    -0.550 OA
ENDBRANCH   7   8
ENDBRANCH   6   7
ENDBRANCH   5   6
ENDBRANCH   4   5
ENDBRANCH   3   4
ENDBRANCH   2   3
ENDBRANCH   1   2
BRANCH   1  11
ATOM     11  C   UNL     1     -33.374   7.289  -3.489  1.00  0.00     0.000 C 
BRANCH  11  12
ATOM     12  C   UNL     1     -34.298   8.230  -2.704  1.00  0.00     0.000 C 
BRANCH  12  13
ATOM     13  C   UNL     1     -35.739   7.700  -2.684  1.00  0.00     0.000 C 
BRANCH  13  14
ATOM     14  C   UNL     1     -36.130   7.108  -1.313  1.00  0.00     0.000 C 
BRANCH  14  15
ATOM     15  C   UNL     1     -35.943   5.582  -1.220  1.00  0.00     0.000 C 
BRANCH  15  16
ATOM     16  C   UNL     1     -35.994   4.836  -2.567  1.00  0.00     0.006 C 
BRANCH  16  17
ATOM     17  C   UNL     1     -34.846   3.835  -2.779  1.00  0.00     0.053 C 
BRANCH  17  18
ATOM     18  C   UNL     1     -35.346   2.426  -2.876  1.00  0.00     0.041 C 
ATOM     19  O   UNL     1     -35.961   2.041  -3.905  1.00  0.00    -0.550 OA
ATOM     20  O   UNL     1     -35.162   1.548  -1.815  1.00  0.00    -0.550 OA
ENDBRANCH  17  18
ENDBRANCH  16  17
ENDBRANCH  15  16
ENDBRANCH  14  15
ENDBRANCH  13  14
ENDBRANCH  12  13
ENDBRANCH  11  12
ENDBRANCH   1  11
TORSDOF 15
ENDMDL
MODEL 8
REMARK VINA RESULT:    -3.628      3.448      7.666
REMARK INTER + INTRA:          -8.848
REMARK INTER:                  -6.756
REMARK INTRA:                  -2.091
REMARK UNBOUND:                -2.038
REMARK SMILES O=C([O-])CCCCCCCCCCCCCCC(=O)[O-]
REMARK SMILES IDX 10 1 9 2 8 3 7 4 6 5 5 6 4 7 2 8 1 9 3 10 11 11 12 12 13 13
REMARK SMILES IDX 14 14 15 15 16 16 17 17 18 18 19 19 20 20
REMARK H PARENT
REMARK Flexibility Score: inf
ROOT
ATOM      1  C   UNL     1     -29.854   7.518  -1.531  1.00  0.00     0.000 C 
ENDROOT
BRANCH   1   2
ATOM      2  C   UNL     1     -29.378   7.122  -2.941  1.00  0.00     0.000 C 
BRANCH   2   3
ATOM      3  C   UNL     1     -30.433   6.302  -3.706  1.00  0.00     0.000 C 
BRANCH   3   4
ATOM      4  C   UNL     1     -30.024   4.838  -3.958  1.00  0.00     0.000 C 
BRANCH   4   5
ATOM      5  C   UNL     1     -28.699   4.474  -3.266  1.00  0.00     0.000 C 
BRANCH   5   6
ATOM      6  C   UNL     1     -28.850   3.345  -2.231  1.00  0.00     0.006 C 
BRANCH   6   7
ATOM      7  C   UNL     1     -28.971   3.840  -0.779  1.00  0.00     0.053 C 
BRANCH   7   8
ATOM      8  C   UNL     1     -27.700   3.674  -0.003  1.00  0.00     0.041 C 
ATOM      9  O   UNL     1     -26.730   4.454  -0.197  1.00  0.00    -0.550 OA
ATOM     10  O   UNL     1     -27.573   2.636   0.910  1.00  0.00    -0.550 OA
ENDBRANCH   7   8
ENDBRANCH   6   7
ENDBRANCH   5   6
ENDBRANCH   4   5
ENDBRANCH   3   4
ENDBRANCH   2   3
ENDBRANCH   1   2
BRANCH   1  11
ATOM     11  C   UNL     1     -31.378   7.403  -1.368  1.00  0.00     0.000 C 
BRANCH  11  12
ATOM     12  C   UNL     1     -31.784   6.620  -0.112  1.00  0.00     0.000 C 
BRANCH  12  13
ATOM     13  C   UNL     1     -32.335   5.235  -0.480  1.00  0.00     0.000 C 
BRANCH  13  14
ATOM     14  C   UNL     1     -33.400   5.301  -1.595  1.00  0.00     0.000 C 
BRANCH  14  15
ATOM     15  C   UNL     1     -34.847   5.182  -1.079  1.00  0.00     0.000 C 
BRANCH  15  16
ATOM     16  C   UNL     1     -35.713   6.443  -1.271  1.00  0.00     0.006 C 
BRANCH  16  17
ATOM     17  C   UNL     1     -35.019   7.574  -2.048  1.00  0.00     0.053 C 
BRANCH  17  18
ATOM     18  C   UNL     1     -35.762   7.931  -3.298  1.00  0.00     0.041 C 
ATOM     19  O   UNL     1     -36.106   9.124  -3.511  1.00  0.00    -0.550 OA
ATOM     20  O   UNL     1     -36.105   6.942  -4.210  1.00  0.00    -0.550 OA
ENDBRANCH  17  18
ENDBRANCH  16  17
ENDBRANCH  15  16
ENDBRANCH  14  15
ENDBRANCH  13  14
ENDBRANCH  12  13
ENDBRANCH  11  12
ENDBRANCH   1  11
TORSDOF 15
ENDMDL
MODEL 9
REMARK VINA RESULT:    -3.571      8.851     11.025
REMARK INTER + INTRA:          -8.740
REMARK INTER:                  -6.014
REMARK INTRA:                  -2.726
REMARK UNBOUND:                -2.038
REMARK SMILES O=C([O-])CCCCCCCCCCCCCCC(=O)[O-]
REMARK SMILES IDX 10 1 9 2 8 3 7 4 6 5 5 6 4 7 2 8 1 9 3 10 11 11 12 12 13 13
REMARK SMILES IDX 14 14 15 15 16 16 17 17 18 18 19 19 20 20
REMARK H PARENT
REMARK Flexibility Score: inf
ROOT
ATOM      1  C   UNL     1     -37.105  -1.941   3.724  1.00  0.00     0.000 C 
ENDROOT
BRANCH   1   2
ATOM      2  C   UNL     1     -35.911  -2.882   3.965  1.00  0.00     0.000 C 
BRANCH   2   3
ATOM      3  C   UNL     1     -35.627  -3.788   2.752  1.00  0.00     0.000 C 
BRANCH   3   4
ATOM      4  C   UNL     1     -36.812  -3.914   1.776  1.00  0.00     0.000 C 
BRANCH   4   5
ATOM      5  C   UNL     1     -36.369  -3.829   0.305  1.00  0.00     0.000 C 
BRANCH   5   6
ATOM      6  C   UNL     1     -34.839  -3.866   0.134  1.00  0.00     0.006 C 
BRANCH   6   7
ATOM      7  C   UNL     1     -34.344  -3.261  -1.192  1.00  0.00     0.053 C 
BRANCH   7   8
ATOM      8  C   UNL     1     -33.627  -4.258  -2.051  1.00  0.00     0.041 C 
ATOM      9  O   UNL     1     -33.234  -3.938  -3.204  1.00  0.00    -0.550 OA
ATOM     10  O   UNL     1     -33.424  -5.553  -1.592  1.00  0.00    -0.550 OA
ENDBRANCH   7   8
ENDBRANCH   6   7
ENDBRANCH   5   6
ENDBRANCH   4   5
ENDBRANCH   3   4
ENDBRANCH   2   3
ENDBRANCH   1   2
BRANCH   1  11
ATOM     11  C   UNL     1     -36.842  -0.512   4.227  1.00  0.00     0.000 C 
BRANCH  11  12
ATOM     12  C   UNL     1     -36.563   0.477   3.087  1.00  0.00     0.000 C 
BRANCH  12  13
ATOM     13  C   UNL     1     -36.826  -0.169   1.719  1.00  0.00     0.000 C 
BRANCH  13  14
ATOM     14  C   UNL     1     -35.558  -0.226   0.840  1.00  0.00     0.000 C 
BRANCH  14  15
ATOM     15  C   UNL     1     -34.270   0.175   1.583  1.00  0.00     0.000 C 
BRANCH  15  16
ATOM     16  C   UNL     1     -33.293  -0.983   1.864  1.00  0.00     0.006 C 
BRANCH  16  17
ATOM     17  C   UNL     1     -32.768  -1.032   3.308  1.00  0.00     0.053 C 
BRANCH  17  18
ATOM     18  C   UNL     1     -32.473   0.336   3.842  1.00  0.00     0.041 C 
ATOM     19  O   UNL     1     -33.231   0.858   4.701  1.00  0.00    -0.550 OA
ATOM     20  O   UNL     1     -31.381   1.048   3.364  1.00  0.00    -0.550 OA
ENDBRANCH  17  18
ENDBRANCH  16  17
ENDBRANCH  15  16
ENDBRANCH  14  15
ENDBRANCH  13  14
ENDBRANCH  12  13
ENDBRANCH  11  12
ENDBRANCH   1  11
TORSDOF 15
ENDMDL
