MODEL 1
REMARK VINA RESULT:    -6.630      0.000      0.000
REMARK INTER + INTRA:         -11.095
REMARK INTER:                  -9.730
REMARK INTRA:                  -1.365
REMARK UNBOUND:                -1.365
REMARK SMILES CC(C)COC(=O)c1ccccc1C(=O)OCC(C)C
REMARK SMILES IDX 8 1 9 2 10 3 11 4 12 5 13 6 6 7 7 8 5 9 4 10 2 11 1 12 3 13
REMARK SMILES IDX 14 14 15 15 16 16 17 17 18 18 19 19 20 20
REMARK H PARENT
REMARK Flexibility Score: inf
ROOT
ATOM      1  C   UNL     1     132.303 127.456 138.057  1.00  0.00     0.074 A 
ATOM      2  C   UNL     1     131.200 126.730 137.575  1.00  0.00     0.016 A 
ATOM      3  C   UNL     1     129.906 127.032 138.003  1.00  0.00     0.001 A 
ATOM      4  C   UNL     1     129.694 128.058 138.920  1.00  0.00     0.001 A 
ATOM      5  C   UNL     1     130.773 128.804 139.395  1.00  0.00     0.016 A 
ATOM      6  C   UNL     1     132.082 128.533 138.958  1.00  0.00     0.074 A 
ENDROOT
BRANCH   1   7
ATOM      7  C   UNL     1     133.656 127.009 137.653  1.00  0.00     0.339 C 
ATOM      8  O   UNL     1     134.184 126.003 138.200  1.00  0.00    -0.246 OA
BRANCH   7   9
ATOM      9  O   UNL     1     134.320 127.680 136.618  1.00  0.00    -0.462 OA
BRANCH   9  10
ATOM     10  C   UNL     1     135.602 127.302 136.115  1.00  0.00     0.236 C 
BRANCH  10  11
ATOM     11  C   UNL     1     135.499 126.662 134.717  1.00  0.00     0.021 C 
ATOM     12  C   UNL     1     135.455 127.716 133.605  1.00  0.00     0.011 C 
ATOM     13  C   UNL     1     136.641 125.667 134.475  1.00  0.00     0.011 C 
ENDBRANCH  10  11
ENDBRANCH   9  10
ENDBRANCH   7   9
ENDBRANCH   1   7
BRANCH   6  14
ATOM     14  C   UNL     1     133.165 129.429 139.420  1.00  0.00     0.339 C 
ATOM     15  O   UNL     1     133.723 129.231 140.534  1.00  0.00    -0.246 OA
BRANCH  14  16
ATOM     16  O   UNL     1     133.604 130.465 138.586  1.00  0.00    -0.462 OA
BRANCH  16  17
ATOM     17  C   UNL     1     132.844 131.647 138.334  1.00  0.00     0.236 C 
BRANCH  17  18
ATOM     18  C   UNL     1     132.391 131.714 136.863  1.00  0.00     0.021 C 
ATOM     19  C   UNL     1     133.300 130.846 135.985  1.00  0.00     0.011 C 
ATOM     20  C   UNL     1     130.929 131.273 136.716  1.00  0.00     0.011 C 
ENDBRANCH  17  18
ENDBRANCH  16  17
ENDBRANCH  14  16
ENDBRANCH   6  14
TORSDOF 8
ENDMDL
MODEL 2
REMARK VINA RESULT:    -6.613      0.128      4.559
REMARK INTER + INTRA:         -11.070
REMARK INTER:                  -9.686
REMARK INTRA:                  -1.384
REMARK UNBOUND:                -1.365
REMARK SMILES CC(C)COC(=O)c1ccccc1C(=O)OCC(C)C
REMARK SMILES IDX 8 1 9 2 10 3 11 4 12 5 13 6 6 7 7 8 5 9 4 10 2 11 1 12 3 13
REMARK SMILES IDX 14 14 15 15 16 16 17 17 18 18 19 19 20 20
REMARK H PARENT
REMARK Flexibility Score: inf
ROOT
ATOM      1  C   UNL     1     132.147 128.534 139.063  1.00  0.00     0.074 A 
ATOM      2  C   UNL     1     130.854 128.842 139.523  1.00  0.00     0.016 A 
ATOM      3  C   UNL     1     129.744 128.139 139.054  1.00  0.00     0.001 A 
ATOM      4  C   UNL     1     129.905 127.122 138.116  1.00  0.00     0.001 A 
ATOM      5  C   UNL     1     131.181 126.786 137.662  1.00  0.00     0.016 A 
ATOM      6  C   UNL     1     132.316 127.465 138.141  1.00  0.00     0.074 A 
ENDROOT
BRANCH   1   7
ATOM      7  C   UNL     1     133.265 129.394 139.513  1.00  0.00     0.339 C 
ATOM      8  O   UNL     1     133.853 129.156 140.603  1.00  0.00    -0.246 OA
BRANCH   7   9
ATOM      9  O   UNL     1     133.700 130.440 138.689  1.00  0.00    -0.462 OA
BRANCH   9  10
ATOM     10  C   UNL     1     132.917 131.595 138.385  1.00  0.00     0.236 C 
BRANCH  10  11
ATOM     11  C   UNL     1     132.529 131.644 136.895  1.00  0.00     0.021 C 
ATOM     12  C   UNL     1     133.452 130.776 136.032  1.00  0.00     0.011 C 
ATOM     13  C   UNL     1     131.062 131.246 136.688  1.00  0.00     0.011 C 
ENDBRANCH  10  11
ENDBRANCH   9  10
ENDBRANCH   7   9
ENDBRANCH   1   7
BRANCH   6  14
ATOM     14  C   UNL     1     133.645 126.989 137.698  1.00  0.00     0.339 C 
ATOM     15  O   UNL     1     134.201 126.019 138.285  1.00  0.00    -0.246 OA
BRANCH  14  16
ATOM     16  O   UNL     1     134.257 127.587 136.590  1.00  0.00    -0.462 OA
BRANCH  16  17
ATOM     17  C   UNL     1     135.543 127.206 136.101  1.00  0.00     0.236 C 
BRANCH  17  18
ATOM     18  C   UNL     1     135.444 126.605 134.686  1.00  0.00     0.021 C 
ATOM     19  C   UNL     1     135.519 127.713 133.630  1.00  0.00     0.011 C 
ATOM     20  C   UNL     1     136.550 125.568 134.450  1.00  0.00     0.011 C 
ENDBRANCH  17  18
ENDBRANCH  16  17
ENDBRANCH  14  16
ENDBRANCH   6  14
TORSDOF 8
ENDMDL
MODEL 3
REMARK VINA RESULT:    -6.488      0.987      1.198
REMARK INTER + INTRA:         -10.888
REMARK INTER:                  -9.288
REMARK INTRA:                  -1.600
REMARK UNBOUND:                -1.365
REMARK SMILES CC(C)COC(=O)c1ccccc1C(=O)OCC(C)C
REMARK SMILES IDX 8 1 9 2 10 3 11 4 12 5 13 6 6 7 7 8 5 9 4 10 2 11 1 12 3 13
REMARK SMILES IDX 14 14 15 15 16 16 17 17 18 18 19 19 20 20
REMARK H PARENT
REMARK Flexibility Score: inf
ROOT
ATOM      1  C   UNL     1     132.449 127.332 138.302  1.00  0.00     0.074 A 
ATOM      2  C   UNL     1     131.402 126.804 137.526  1.00  0.00     0.016 A 
ATOM      3  C   UNL     1     130.073 127.117 137.812  1.00  0.00     0.001 A 
ATOM      4  C   UNL     1     129.768 127.959 138.879  1.00  0.00     0.001 A 
ATOM      5  C   UNL     1     130.792 128.510 139.649  1.00  0.00     0.016 A 
ATOM      6  C   UNL     1     132.139 128.227 139.362  1.00  0.00     0.074 A 
ENDROOT
BRANCH   1   7
ATOM      7  C   UNL     1     133.825 126.866 138.017  1.00  0.00     0.339 C 
ATOM      8  O   UNL     1     134.203 125.724 138.397  1.00  0.00    -0.246 OA
BRANCH   7   9
ATOM      9  O   UNL     1     134.686 127.684 137.274  1.00  0.00    -0.462 OA
BRANCH   9  10
ATOM     10  C   UNL     1     135.379 127.256 136.100  1.00  0.00     0.236 C 
BRANCH  10  11
ATOM     11  C   UNL     1     135.134 128.209 134.915  1.00  0.00     0.021 C 
ATOM     12  C   UNL     1     135.991 129.476 135.011  1.00  0.00     0.011 C 
ATOM     13  C   UNL     1     135.364 127.500 133.574  1.00  0.00     0.011 C 
ENDBRANCH  10  11
ENDBRANCH   9  10
ENDBRANCH   7   9
ENDBRANCH   1   7
BRANCH   6  14
ATOM     14  C   UNL     1     133.177 128.928 140.151  1.00  0.00     0.339 C 
ATOM     15  O   UNL     1     133.798 128.320 141.066  1.00  0.00    -0.246 OA
BRANCH  14  16
ATOM     16  O   UNL     1     133.503 130.252 139.836  1.00  0.00    -0.462 OA
BRANCH  16  17
ATOM     17  C   UNL     1     134.159 130.635 138.628  1.00  0.00     0.236 C 
BRANCH  17  18
ATOM     18  C   UNL     1     133.217 131.442 137.714  1.00  0.00     0.021 C 
ATOM     19  C   UNL     1     132.738 130.575 136.544  1.00  0.00     0.011 C 
ATOM     20  C   UNL     1     132.017 131.983 138.502  1.00  0.00     0.011 C 
ENDBRANCH  17  18
ENDBRANCH  16  17
ENDBRANCH  14  16
ENDBRANCH   6  14
TORSDOF 8
ENDMDL
MODEL 4
REMARK VINA RESULT:    -6.371      1.752      3.449
REMARK INTER + INTRA:         -10.715
REMARK INTER:                  -9.305
REMARK INTRA:                  -1.410
REMARK UNBOUND:                -1.365
REMARK SMILES CC(C)COC(=O)c1ccccc1C(=O)OCC(C)C
REMARK SMILES IDX 8 1 9 2 10 3 11 4 12 5 13 6 6 7 7 8 5 9 4 10 2 11 1 12 3 13
REMARK SMILES IDX 14 14 15 15 16 16 17 17 18 18 19 19 20 20
REMARK H PARENT
REMARK Flexibility Score: inf
ROOT
ATOM      1  C   UNL     1     132.462 128.070 137.692  1.00  0.00     0.074 A 
ATOM      2  C   UNL     1     131.360 127.539 136.998  1.00  0.00     0.016 A 
ATOM      3  C   UNL     1     130.218 127.122 137.683  1.00  0.00     0.001 A 
ATOM      4  C   UNL     1     130.159 127.225 139.071  1.00  0.00     0.001 A 
ATOM      5  C   UNL     1     131.233 127.767 139.777  1.00  0.00     0.016 A 
ATOM      6  C   UNL     1     132.383 128.216 139.104  1.00  0.00     0.074 A 
ENDROOT
BRANCH   1   7
ATOM      7  C   UNL     1     133.683 128.383 136.916  1.00  0.00     0.339 C 
ATOM      8  O   UNL     1     133.778 129.474 136.290  1.00  0.00    -0.246 OA
BRANCH   7   9
ATOM      9  O   UNL     1     134.755 127.482 136.931  1.00  0.00    -0.462 OA
BRANCH   9  10
ATOM     10  C   UNL     1     135.823 127.496 135.982  1.00  0.00     0.236 C 
BRANCH  10  11
ATOM     11  C   UNL     1     135.497 126.637 134.745  1.00  0.00     0.021 C 
ATOM     12  C   UNL     1     135.394 127.483 133.470  1.00  0.00     0.011 C 
ATOM     13  C   UNL     1     136.521 125.509 134.565  1.00  0.00     0.011 C 
ENDBRANCH  10  11
ENDBRANCH   9  10
ENDBRANCH   7   9
ENDBRANCH   1   7
BRANCH   6  14
ATOM     14  C   UNL     1     133.439 128.877 139.903  1.00  0.00     0.339 C 
ATOM     15  O   UNL     1     133.626 130.121 139.804  1.00  0.00    -0.246 OA
BRANCH  14  16
ATOM     16  O   UNL     1     134.192 128.120 140.808  1.00  0.00    -0.462 OA
BRANCH  16  17
ATOM     17  C   UNL     1     135.279 127.280 140.419  1.00  0.00     0.236 C 
BRANCH  17  18
ATOM     18  C   UNL     1     134.935 125.793 140.628  1.00  0.00     0.021 C 
ATOM     19  C   UNL     1     133.808 125.646 141.655  1.00  0.00     0.011 C 
ATOM     20  C   UNL     1     134.538 125.129 139.303  1.00  0.00     0.011 C 
ENDBRANCH  17  18
ENDBRANCH  16  17
ENDBRANCH  14  16
ENDBRANCH   6  14
TORSDOF 8
ENDMDL
MODEL 5
REMARK VINA RESULT:    -6.361      1.858      3.097
REMARK INTER + INTRA:         -10.701
REMARK INTER:                  -8.977
REMARK INTRA:                  -1.724
REMARK UNBOUND:                -1.365
REMARK SMILES CC(C)COC(=O)c1ccccc1C(=O)OCC(C)C
REMARK SMILES IDX 8 1 9 2 10 3 11 4 12 5 13 6 6 7 7 8 5 9 4 10 2 11 1 12 3 13
REMARK SMILES IDX 14 14 15 15 16 16 17 17 18 18 19 19 20 20
REMARK H PARENT
REMARK Flexibility Score: inf
ROOT
ATOM      1  C   UNL     1     132.341 127.768 138.210  1.00  0.00     0.074 A 
ATOM      2  C   UNL     1     131.395 126.890 137.651  1.00  0.00     0.016 A 
ATOM      3  C   UNL     1     130.048 126.975 138.003  1.00  0.00     0.001 A 
ATOM      4  C   UNL     1     129.624 127.933 138.921  1.00  0.00     0.001 A 
ATOM      5  C   UNL     1     130.543 128.827 139.472  1.00  0.00     0.016 A 
ATOM      6  C   UNL     1     131.901 128.775 139.112  1.00  0.00     0.074 A 
ENDROOT
BRANCH   1   7
ATOM      7  C   UNL     1     133.768 127.548 137.882  1.00  0.00     0.339 C 
ATOM      8  O   UNL     1     134.226 127.902 136.761  1.00  0.00    -0.246 OA
BRANCH   7   9
ATOM      9  O   UNL     1     134.617 126.995 138.849  1.00  0.00    -0.462 OA
BRANCH   9  10
ATOM     10  C   UNL     1     134.489 125.667 139.358  1.00  0.00     0.236 C 
BRANCH  10  11
ATOM     11  C   UNL     1     134.478 125.645 140.899  1.00  0.00     0.021 C 
ATOM     12  C   UNL     1     133.251 126.361 141.474  1.00  0.00     0.011 C 
ATOM     13  C   UNL     1     134.570 124.211 141.435  1.00  0.00     0.011 C 
ENDBRANCH  10  11
ENDBRANCH   9  10
ENDBRANCH   7   9
ENDBRANCH   1   7
BRANCH   6  14
ATOM     14  C   UNL     1     132.801 129.818 139.652  1.00  0.00     0.339 C 
ATOM     15  O   UNL     1     133.152 129.789 140.864  1.00  0.00    -0.246 OA
BRANCH  14  16
ATOM     16  O   UNL     1     133.303 130.804 138.796  1.00  0.00    -0.462 OA
BRANCH  16  17
ATOM     17  C   UNL     1     132.561 131.961 138.408  1.00  0.00     0.236 C 
BRANCH  17  18
ATOM     18  C   UNL     1     132.201 131.914 136.910  1.00  0.00     0.021 C 
ATOM     19  C   UNL     1     133.269 131.141 136.129  1.00  0.00     0.011 C 
ATOM     20  C   UNL     1     130.821 131.281 136.695  1.00  0.00     0.011 C 
ENDBRANCH  17  18
ENDBRANCH  16  17
ENDBRANCH  14  16
ENDBRANCH   6  14
TORSDOF 8
ENDMDL
MODEL 6
REMARK VINA RESULT:    -6.360      1.908      5.104
REMARK INTER + INTRA:         -10.699
REMARK INTER:                  -8.918
REMARK INTRA:                  -1.781
REMARK UNBOUND:                -1.365
REMARK SMILES CC(C)COC(=O)c1ccccc1C(=O)OCC(C)C
REMARK SMILES IDX 8 1 9 2 10 3 11 4 12 5 13 6 6 7 7 8 5 9 4 10 2 11 1 12 3 13
REMARK SMILES IDX 14 14 15 15 16 16 17 17 18 18 19 19 20 20
REMARK H PARENT
REMARK Flexibility Score: inf
ROOT
ATOM      1  C   UNL     1     131.954 128.835 139.187  1.00  0.00     0.074 A 
ATOM      2  C   UNL     1     130.582 128.886 139.492  1.00  0.00     0.016 A 
ATOM      3  C   UNL     1     129.685 127.998 138.897  1.00  0.00     0.001 A 
ATOM      4  C   UNL     1     130.141 127.048 137.987  1.00  0.00     0.001 A 
ATOM      5  C   UNL     1     131.501 126.966 137.686  1.00  0.00     0.016 A 
ATOM      6  C   UNL     1     132.426 127.835 138.292  1.00  0.00     0.074 A 
ENDROOT
BRANCH   1   7
ATOM      7  C   UNL     1     132.831 129.879 139.762  1.00  0.00     0.339 C 
ATOM      8  O   UNL     1     133.223 129.793 140.958  1.00  0.00    -0.246 OA
BRANCH   7   9
ATOM      9  O   UNL     1     133.268 130.933 138.950  1.00  0.00    -0.462 OA
BRANCH   9  10
ATOM     10  C   UNL     1     132.428 132.002 138.510  1.00  0.00     0.236 C 
BRANCH  10  11
ATOM     11  C   UNL     1     132.176 131.941 136.991  1.00  0.00     0.021 C 
ATOM     12  C   UNL     1     133.317 131.238 136.247  1.00  0.00     0.011 C 
ATOM     13  C   UNL     1     130.832 131.271 136.678  1.00  0.00     0.011 C 
ENDBRANCH  10  11
ENDBRANCH   9  10
ENDBRANCH   7   9
ENDBRANCH   1   7
BRANCH   6  14
ATOM     14  C   UNL     1     133.863 127.624 138.009  1.00  0.00     0.339 C 
ATOM     15  O   UNL     1     134.353 127.992 136.906  1.00  0.00    -0.246 OA
BRANCH  14  16
ATOM     16  O   UNL     1     134.683 127.065 138.995  1.00  0.00    -0.462 OA
BRANCH  16  17
ATOM     17  C   UNL     1     134.551 125.722 139.459  1.00  0.00     0.236 C 
BRANCH  17  18
ATOM     18  C   UNL     1     134.495 125.668 140.998  1.00  0.00     0.021 C 
ATOM     19  C   UNL     1     133.216 126.340 141.508  1.00  0.00     0.011 C 
ATOM     20  C   UNL     1     134.575 124.221 141.502  1.00  0.00     0.011 C 
ENDBRANCH  17  18
ENDBRANCH  16  17
ENDBRANCH  14  16
ENDBRANCH   6  14
TORSDOF 8
ENDMDL
MODEL 7
REMARK VINA RESULT:    -6.348      1.845      5.058
REMARK INTER + INTRA:         -10.682
REMARK INTER:                  -9.310
REMARK INTRA:                  -1.372
REMARK UNBOUND:                -1.365
REMARK SMILES CC(C)COC(=O)c1ccccc1C(=O)OCC(C)C
REMARK SMILES IDX 8 1 9 2 10 3 11 4 12 5 13 6 6 7 7 8 5 9 4 10 2 11 1 12 3 13
REMARK SMILES IDX 14 14 15 15 16 16 17 17 18 18 19 19 20 20
REMARK H PARENT
REMARK Flexibility Score: inf
ROOT
ATOM      1  C   UNL     1     135.431 126.372 136.347  1.00  0.00     0.074 A 
ATOM      2  C   UNL     1     136.257 125.632 135.483  1.00  0.00     0.016 A 
ATOM      3  C   UNL     1     136.367 125.972 134.134  1.00  0.00     0.001 A 
ATOM      4  C   UNL     1     135.651 127.054 133.626  1.00  0.00     0.001 A 
ATOM      5  C   UNL     1     134.841 127.814 134.470  1.00  0.00     0.016 A 
ATOM      6  C   UNL     1     134.735 127.503 135.837  1.00  0.00     0.074 A 
ENDROOT
BRANCH   1   7
ATOM      7  C   UNL     1     135.270 125.887 137.736  1.00  0.00     0.339 C 
ATOM      8  O   UNL     1     134.625 124.828 137.970  1.00  0.00    -0.246 OA
BRANCH   7   9
ATOM      9  O   UNL     1     135.888 126.584 138.782  1.00  0.00    -0.462 OA
BRANCH   9  10
ATOM     10  C   UNL     1     135.424 126.571 140.133  1.00  0.00     0.236 C 
BRANCH  10  11
ATOM     11  C   UNL     1     134.043 127.241 140.267  1.00  0.00     0.021 C 
ATOM     12  C   UNL     1     133.188 126.581 141.356  1.00  0.00     0.011 C 
ATOM     13  C   UNL     1     134.177 128.747 140.522  1.00  0.00     0.011 C 
ENDBRANCH  10  11
ENDBRANCH   9  10
ENDBRANCH   7   9
ENDBRANCH   1   7
BRANCH   6  14
ATOM     14  C   UNL     1     133.945 128.413 136.695  1.00  0.00     0.339 C 
ATOM     15  O   UNL     1     134.447 129.495 137.107  1.00  0.00    -0.246 OA
BRANCH  14  16
ATOM     16  O   UNL     1     132.618 128.090 137.001  1.00  0.00    -0.462 OA
BRANCH  16  17
ATOM     17  C   UNL     1     131.720 128.987 137.654  1.00  0.00     0.236 C 
BRANCH  17  18
ATOM     18  C   UNL     1     130.482 128.243 138.191  1.00  0.00     0.021 C 
ATOM     19  C   UNL     1     130.519 126.771 137.765  1.00  0.00     0.011 C 
ATOM     20  C   UNL     1     130.392 128.354 139.718  1.00  0.00     0.011 C 
ENDBRANCH  17  18
ENDBRANCH  16  17
ENDBRANCH  14  16
ENDBRANCH   6  14
TORSDOF 8
ENDMDL
MODEL 8
REMARK VINA RESULT:    -6.319      1.936      4.789
REMARK INTER + INTRA:         -10.639
REMARK INTER:                  -9.618
REMARK INTRA:                  -1.021
REMARK UNBOUND:                -1.365
REMARK SMILES CC(C)COC(=O)c1ccccc1C(=O)OCC(C)C
REMARK SMILES IDX 8 1 9 2 10 3 11 4 12 5 13 6 6 7 7 8 5 9 4 10 2 11 1 12 3 13
REMARK SMILES IDX 14 14 15 15 16 16 17 17 18 18 19 19 20 20
REMARK H PARENT
REMARK Flexibility Score: inf
ROOT
ATOM      1  C   UNL     1     132.253 128.184 139.179  1.00  0.00     0.074 A 
ATOM      2  C   UNL     1     131.060 127.751 139.783  1.00  0.00     0.016 A 
ATOM      3  C   UNL     1     130.029 127.205 139.017  1.00  0.00     0.001 A 
ATOM      4  C   UNL     1     130.171 127.087 137.637  1.00  0.00     0.001 A 
ATOM      5  C   UNL     1     131.355 127.491 137.019  1.00  0.00     0.016 A 
ATOM      6  C   UNL     1     132.416 128.021 137.775  1.00  0.00     0.074 A 
ENDROOT
BRANCH   1   7
ATOM      7  C   UNL     1     133.257 128.859 140.033  1.00  0.00     0.339 C 
ATOM      8  O   UNL     1     133.217 130.110 140.195  1.00  0.00    -0.246 OA
BRANCH   7   9
ATOM      9  O   UNL     1     134.217 128.090 140.702  1.00  0.00    -0.462 OA
BRANCH   9  10
ATOM     10  C   UNL     1     133.905 126.975 141.538  1.00  0.00     0.236 C 
BRANCH  10  11
ATOM     11  C   UNL     1     134.781 125.752 141.207  1.00  0.00     0.021 C 
ATOM     12  C   UNL     1     134.516 124.581 142.160  1.00  0.00     0.011 C 
ATOM     13  C   UNL     1     134.599 125.316 139.748  1.00  0.00     0.011 C 
ENDBRANCH  10  11
ENDBRANCH   9  10
ENDBRANCH   7   9
ENDBRANCH   1   7
BRANCH   6  14
ATOM     14  C   UNL     1     133.680 128.331 137.072  1.00  0.00     0.339 C 
ATOM     15  O   UNL     1     133.893 129.493 136.630  1.00  0.00    -0.246 OA
BRANCH  14  16
ATOM     16  O   UNL     1     134.660 127.339 136.951  1.00  0.00    -0.462 OA
BRANCH  16  17
ATOM     17  C   UNL     1     135.775 127.440 136.064  1.00  0.00     0.236 C 
BRANCH  17  18
ATOM     18  C   UNL     1     135.530 126.640 134.771  1.00  0.00     0.021 C 
ATOM     19  C   UNL     1     135.431 127.586 133.570  1.00  0.00     0.011 C 
ATOM     20  C   UNL     1     136.641 125.606 134.544  1.00  0.00     0.011 C 
ENDBRANCH  17  18
ENDBRANCH  16  17
ENDBRANCH  14  16
ENDBRANCH   6  14
TORSDOF 8
ENDMDL
MODEL 9
REMARK VINA RESULT:    -6.309      1.928      5.666
REMARK INTER + INTRA:         -10.625
REMARK INTER:                  -9.272
REMARK INTRA:                  -1.352
REMARK UNBOUND:                -1.365
REMARK SMILES CC(C)COC(=O)c1ccccc1C(=O)OCC(C)C
REMARK SMILES IDX 8 1 9 2 10 3 11 4 12 5 13 6 6 7 7 8 5 9 4 10 2 11 1 12 3 13
REMARK SMILES IDX 14 14 15 15 16 16 17 17 18 18 19 19 20 20
REMARK H PARENT
REMARK Flexibility Score: inf
ROOT
ATOM      1  C   UNL     1     134.670 127.521 136.012  1.00  0.00     0.074 A 
ATOM      2  C   UNL     1     134.744 127.864 134.650  1.00  0.00     0.016 A 
ATOM      3  C   UNL     1     135.564 127.148 133.777  1.00  0.00     0.001 A 
ATOM      4  C   UNL     1     136.325 126.082 134.250  1.00  0.00     0.001 A 
ATOM      5  C   UNL     1     136.251 125.711 135.594  1.00  0.00     0.016 A 
ATOM      6  C   UNL     1     135.412 126.404 136.485  1.00  0.00     0.074 A 
ENDROOT
BRANCH   1   7
ATOM      7  C   UNL     1     133.872 128.393 136.903  1.00  0.00     0.339 C 
ATOM      8  O   UNL     1     134.422 129.344 137.522  1.00  0.00    -0.246 OA
BRANCH   7   9
ATOM      9  O   UNL     1     132.490 128.187 137.009  1.00  0.00    -0.462 OA
BRANCH   9  10
ATOM     10  C   UNL     1     131.899 127.089 137.705  1.00  0.00     0.236 C 
BRANCH  10  11
ATOM     11  C   UNL     1     130.773 127.552 138.650  1.00  0.00     0.021 C 
ATOM     12  C   UNL     1     130.800 129.068 138.874  1.00  0.00     0.011 C 
ATOM     13  C   UNL     1     129.398 127.104 138.138  1.00  0.00     0.011 C 
ENDBRANCH  10  11
ENDBRANCH   9  10
ENDBRANCH   7   9
ENDBRANCH   1   7
BRANCH   6  14
ATOM     14  C   UNL     1     135.300 125.894 137.869  1.00  0.00     0.339 C 
ATOM     15  O   UNL     1     134.685 124.817 138.101  1.00  0.00    -0.246 OA
BRANCH  14  16
ATOM     16  O   UNL     1     135.929 126.586 138.910  1.00  0.00    -0.462 OA
BRANCH  16  17
ATOM     17  C   UNL     1     135.482 126.544 140.265  1.00  0.00     0.236 C 
BRANCH  17  18
ATOM     18  C   UNL     1     134.217 127.401 140.461  1.00  0.00     0.021 C 
ATOM     19  C   UNL     1     133.220 126.680 141.373  1.00  0.00     0.011 C 
ATOM     20  C   UNL     1     134.569 128.778 141.039  1.00  0.00     0.011 C 
ENDBRANCH  17  18
ENDBRANCH  16  17
ENDBRANCH  14  16
ENDBRANCH   6  14
TORSDOF 8
ENDMDL
