MODEL 1
REMARK VINA RESULT:    -3.766      0.000      0.000
REMARK INTER + INTRA:          -6.753
REMARK INTER:                  -5.968
REMARK INTRA:                  -0.786
REMARK UNBOUND:                -0.786
REMARK SMILES CCCCCCCCCCCC(=O)[O-]
REMARK SMILES IDX 7 1 8 2 9 3 10 4 11 5 12 6 13 7 14 8 6 9 5 10 4 11 3 12 2 13
REMARK SMILES IDX 1 14
REMARK H PARENT
REMARK Flexibility Score: inf
ROOT
ATOM      1  C   UNL     1      -3.534   7.780  -4.136  1.00  0.00     0.000 C 
ENDROOT
BRANCH   1   2
ATOM      2  C   UNL     1      -2.584   8.987  -4.079  1.00  0.00     0.000 C 
BRANCH   2   3
ATOM      3  C   UNL     1      -2.131   9.316  -2.648  1.00  0.00     0.000 C 
BRANCH   3   4
ATOM      4  C   UNL     1      -2.176   8.066  -1.758  1.00  0.00     0.006 C 
BRANCH   4   5
ATOM      5  C   UNL     1      -2.808   8.349  -0.388  1.00  0.00     0.053 C 
BRANCH   5   6
ATOM      6  C   UNL     1      -4.113   9.074  -0.517  1.00  0.00     0.041 C 
ATOM      7  O   UNL     1      -5.089   8.523  -1.091  1.00  0.00    -0.550 OA
ATOM      8  O   UNL     1      -4.261  10.343   0.027  1.00  0.00    -0.550 OA
ENDBRANCH   5   6
ENDBRANCH   4   5
ENDBRANCH   3   4
ENDBRANCH   2   3
ENDBRANCH   1   2
BRANCH   1   9
ATOM      9  C   UNL     1      -3.076   6.711  -5.139  1.00  0.00     0.000 C 
BRANCH   9  10
ATOM     10  C   UNL     1      -1.574   6.832  -5.423  1.00  0.00    -0.000 C 
BRANCH  10  11
ATOM     11  C   UNL     1      -1.033   5.555  -6.084  1.00  0.00    -0.000 C 
BRANCH  11  12
ATOM     12  C   UNL     1      -1.955   4.339  -5.851  1.00  0.00    -0.000 C 
BRANCH  12  13
ATOM     13  C   UNL     1      -1.315   2.997  -6.244  1.00  0.00    -0.003 C 
ATOM     14  C   UNL     1      -1.029   2.096  -5.043  1.00  0.00     0.004 C 
ENDBRANCH  12  13
ENDBRANCH  11  12
ENDBRANCH  10  11
ENDBRANCH   9  10
ENDBRANCH   1   9
TORSDOF 10
ENDMDL
MODEL 2
REMARK VINA RESULT:    -3.760      1.534      1.878
REMARK INTER + INTRA:          -6.744
REMARK INTER:                  -6.198
REMARK INTRA:                  -0.546
REMARK UNBOUND:                -0.786
REMARK SMILES CCCCCCCCCCCC(=O)[O-]
REMARK SMILES IDX 7 1 8 2 9 3 10 4 11 5 12 6 13 7 14 8 6 9 5 10 4 11 3 12 2 13
REMARK SMILES IDX 1 14
REMARK H PARENT
REMARK Flexibility Score: inf
ROOT
ATOM      1  C   UNL     1      -4.010   7.524  -4.406  1.00  0.00     0.000 C 
ENDROOT
BRANCH   1   2
ATOM      2  C   UNL     1      -4.367   7.677  -2.919  1.00  0.00     0.000 C 
BRANCH   2   3
ATOM      3  C   UNL     1      -5.099   8.993  -2.617  1.00  0.00     0.000 C 
BRANCH   3   4
ATOM      4  C   UNL     1      -4.260   9.888  -1.694  1.00  0.00     0.006 C 
BRANCH   4   5
ATOM      5  C   UNL     1      -4.345   9.449  -0.225  1.00  0.00     0.053 C 
BRANCH   5   6
ATOM      6  C   UNL     1      -2.992   9.156   0.347  1.00  0.00     0.041 C 
ATOM      7  O   UNL     1      -2.322   8.180  -0.082  1.00  0.00    -0.550 OA
ATOM      8  O   UNL     1      -2.458   9.980   1.329  1.00  0.00    -0.550 OA
ENDBRANCH   5   6
ENDBRANCH   4   5
ENDBRANCH   3   4
ENDBRANCH   2   3
ENDBRANCH   1   2
BRANCH   1   9
ATOM      9  C   UNL     1      -2.715   8.259  -4.784  1.00  0.00     0.000 C 
BRANCH   9  10
ATOM     10  C   UNL     1      -1.638   7.271  -5.244  1.00  0.00    -0.000 C 
BRANCH  10  11
ATOM     11  C   UNL     1      -2.237   5.879  -5.501  1.00  0.00    -0.000 C 
BRANCH  11  12
ATOM     12  C   UNL     1      -1.270   4.961  -6.279  1.00  0.00    -0.000 C 
BRANCH  12  13
ATOM     13  C   UNL     1      -1.721   3.492  -6.325  1.00  0.00    -0.003 C 
ATOM     14  C   UNL     1      -1.352   2.712  -5.063  1.00  0.00     0.004 C 
ENDBRANCH  12  13
ENDBRANCH  11  12
ENDBRANCH  10  11
ENDBRANCH   9  10
ENDBRANCH   1   9
TORSDOF 10
ENDMDL
MODEL 3
REMARK VINA RESULT:    -3.725      1.427      2.150
REMARK INTER + INTRA:          -6.688
REMARK INTER:                  -5.698
REMARK INTRA:                  -0.990
REMARK UNBOUND:                -0.786
REMARK SMILES CCCCCCCCCCCC(=O)[O-]
REMARK SMILES IDX 7 1 8 2 9 3 10 4 11 5 12 6 13 7 14 8 6 9 5 10 4 11 3 12 2 13
REMARK SMILES IDX 1 14
REMARK H PARENT
REMARK Flexibility Score: inf
ROOT
ATOM      1  C   UNL     1      -1.272   7.047  -2.852  1.00  0.00     0.000 C 
ENDROOT
BRANCH   1   2
ATOM      2  C   UNL     1      -1.477   7.442  -1.381  1.00  0.00     0.000 C 
BRANCH   2   3
ATOM      3  C   UNL     1      -2.100   8.838  -1.224  1.00  0.00     0.000 C 
BRANCH   3   4
ATOM      4  C   UNL     1      -3.443   8.758  -0.485  1.00  0.00     0.006 C 
BRANCH   4   5
ATOM      5  C   UNL     1      -4.509   8.009  -1.297  1.00  0.00     0.053 C 
BRANCH   5   6
ATOM      6  C   UNL     1      -4.857   8.733  -2.561  1.00  0.00     0.041 C 
ATOM      7  O   UNL     1      -4.946   8.103  -3.647  1.00  0.00    -0.550 OA
ATOM      8  O   UNL     1      -5.116  10.098  -2.534  1.00  0.00    -0.550 OA
ENDBRANCH   5   6
ENDBRANCH   4   5
ENDBRANCH   3   4
ENDBRANCH   2   3
ENDBRANCH   1   2
BRANCH   1   9
ATOM      9  C   UNL     1      -1.291   8.255  -3.799  1.00  0.00     0.000 C 
BRANCH   9  10
ATOM     10  C   UNL     1      -1.711   7.839  -5.213  1.00  0.00    -0.000 C 
BRANCH  10  11
ATOM     11  C   UNL     1      -2.370   6.451  -5.208  1.00  0.00    -0.000 C 
BRANCH  11  12
ATOM     12  C   UNL     1      -1.635   5.452  -6.127  1.00  0.00    -0.000 C 
BRANCH  12  13
ATOM     13  C   UNL     1      -1.338   4.101  -5.455  1.00  0.00    -0.003 C 
ATOM     14  C   UNL     1      -1.499   2.912  -6.401  1.00  0.00     0.004 C 
ENDBRANCH  12  13
ENDBRANCH  11  12
ENDBRANCH  10  11
ENDBRANCH   9  10
ENDBRANCH   1   9
TORSDOF 10
ENDMDL
MODEL 4
REMARK VINA RESULT:    -3.534      3.260      6.439
REMARK INTER + INTRA:          -6.386
REMARK INTER:                  -5.462
REMARK INTRA:                  -0.924
REMARK UNBOUND:                -0.786
REMARK SMILES CCCCCCCCCCCC(=O)[O-]
REMARK SMILES IDX 7 1 8 2 9 3 10 4 11 5 12 6 13 7 14 8 6 9 5 10 4 11 3 12 2 13
REMARK SMILES IDX 1 14
REMARK H PARENT
REMARK Flexibility Score: inf
ROOT
ATOM      1  C   UNL     1      -5.004   8.761  -2.210  1.00  0.00     0.000 C 
ENDROOT
BRANCH   1   2
ATOM      2  C   UNL     1      -4.158   7.869  -3.132  1.00  0.00     0.000 C 
BRANCH   2   3
ATOM      3  C   UNL     1      -2.798   8.494  -3.478  1.00  0.00     0.000 C 
BRANCH   3   4
ATOM      4  C   UNL     1      -2.312   8.020  -4.855  1.00  0.00     0.006 C 
BRANCH   4   5
ATOM      5  C   UNL     1      -2.734   6.576  -5.155  1.00  0.00     0.053 C 
BRANCH   5   6
ATOM      6  C   UNL     1      -1.603   5.771  -5.718  1.00  0.00     0.041 C 
ATOM      7  O   UNL     1      -1.208   4.734  -5.123  1.00  0.00    -0.550 OA
ATOM      8  O   UNL     1      -1.009   6.146  -6.916  1.00  0.00    -0.550 OA
ENDBRANCH   5   6
ENDBRANCH   4   5
ENDBRANCH   3   4
ENDBRANCH   2   3
ENDBRANCH   1   2
BRANCH   1   9
ATOM      9  C   UNL     1      -4.559  10.231  -2.236  1.00  0.00     0.000 C 
BRANCH   9  10
ATOM     10  C   UNL     1      -4.165  10.712  -0.835  1.00  0.00    -0.000 C 
BRANCH  10  11
ATOM     11  C   UNL     1      -3.985   9.527   0.125  1.00  0.00    -0.000 C 
BRANCH  11  12
ATOM     12  C   UNL     1      -3.002   9.848   1.272  1.00  0.00    -0.000 C 
BRANCH  12  13
ATOM     13  C   UNL     1      -1.696   9.039   1.208  1.00  0.00    -0.003 C 
ATOM     14  C   UNL     1      -1.605   8.145  -0.028  1.00  0.00     0.004 C 
ENDBRANCH  12  13
ENDBRANCH  11  12
ENDBRANCH  10  11
ENDBRANCH   9  10
ENDBRANCH   1   9
TORSDOF 10
ENDMDL
MODEL 5
REMARK VINA RESULT:    -3.279      2.818      4.276
REMARK INTER + INTRA:          -5.983
REMARK INTER:                  -4.900
REMARK INTRA:                  -1.083
REMARK UNBOUND:                -0.786
REMARK SMILES CCCCCCCCCCCC(=O)[O-]
REMARK SMILES IDX 7 1 8 2 9 3 10 4 11 5 12 6 13 7 14 8 6 9 5 10 4 11 3 12 2 13
REMARK SMILES IDX 1 14
REMARK H PARENT
REMARK Flexibility Score: inf
ROOT
ATOM      1  C   UNL     1      -1.163   7.477  -2.721  1.00  0.00     0.000 C 
ENDROOT
BRANCH   1   2
ATOM      2  C   UNL     1      -0.923   8.220  -1.397  1.00  0.00     0.000 C 
BRANCH   2   3
ATOM      3  C   UNL     1      -1.980   7.889  -0.332  1.00  0.00     0.000 C 
BRANCH   3   4
ATOM      4  C   UNL     1      -2.634   9.170   0.207  1.00  0.00     0.006 C 
BRANCH   4   5
ATOM      5  C   UNL     1      -1.887   9.737   1.422  1.00  0.00     0.053 C 
BRANCH   5   6
ATOM      6  C   UNL     1      -2.815  10.435   2.369  1.00  0.00     0.041 C 
ATOM      7  O   UNL     1      -2.354  11.069   3.354  1.00  0.00    -0.550 OA
ATOM      8  O   UNL     1      -4.185  10.414   2.143  1.00  0.00    -0.550 OA
ENDBRANCH   5   6
ENDBRANCH   4   5
ENDBRANCH   3   4
ENDBRANCH   2   3
ENDBRANCH   1   2
BRANCH   1   9
ATOM      9  C   UNL     1      -0.920   8.364  -3.951  1.00  0.00     0.000 C 
BRANCH   9  10
ATOM     10  C   UNL     1      -2.200   8.517  -4.781  1.00  0.00    -0.000 C 
BRANCH  10  11
ATOM     11  C   UNL     1      -3.115   7.294  -4.616  1.00  0.00    -0.000 C 
BRANCH  11  12
ATOM     12  C   UNL     1      -4.576   7.693  -4.315  1.00  0.00    -0.000 C 
BRANCH  12  13
ATOM     13  C   UNL     1      -4.824   8.056  -2.842  1.00  0.00    -0.003 C 
ATOM     14  C   UNL     1      -4.951   9.560  -2.608  1.00  0.00     0.004 C 
ENDBRANCH  12  13
ENDBRANCH  11  12
ENDBRANCH  10  11
ENDBRANCH   9  10
ENDBRANCH   1   9
TORSDOF 10
ENDMDL
MODEL 6
REMARK VINA RESULT:    -3.142      1.830      3.267
REMARK INTER + INTRA:          -5.764
REMARK INTER:                  -4.968
REMARK INTRA:                  -0.796
REMARK UNBOUND:                -0.786
REMARK SMILES CCCCCCCCCCCC(=O)[O-]
REMARK SMILES IDX 7 1 8 2 9 3 10 4 11 5 12 6 13 7 14 8 6 9 5 10 4 11 3 12 2 13
REMARK SMILES IDX 1 14
REMARK H PARENT
REMARK Flexibility Score: inf
ROOT
ATOM      1  C   UNL     1      -1.788   7.927  -0.408  1.00  0.00     0.000 C 
ENDROOT
BRANCH   1   2
ATOM      2  C   UNL     1      -2.137   9.064   0.566  1.00  0.00     0.000 C 
BRANCH   2   3
ATOM      3  C   UNL     1      -2.692  10.306  -0.148  1.00  0.00     0.000 C 
BRANCH   3   4
ATOM      4  C   UNL     1      -4.187  10.137  -0.458  1.00  0.00     0.006 C 
BRANCH   4   5
ATOM      5  C   UNL     1      -4.457   9.997  -1.962  1.00  0.00     0.053 C 
BRANCH   5   6
ATOM      6  C   UNL     1      -4.884   8.607  -2.324  1.00  0.00     0.041 C 
ATOM      7  O   UNL     1      -5.028   8.284  -3.532  1.00  0.00    -0.550 OA
ATOM      8  O   UNL     1      -5.088   7.660  -1.329  1.00  0.00    -0.550 OA
ENDBRANCH   5   6
ENDBRANCH   4   5
ENDBRANCH   3   4
ENDBRANCH   2   3
ENDBRANCH   1   2
BRANCH   1   9
ATOM      9  C   UNL     1      -1.165   8.437  -1.716  1.00  0.00     0.000 C 
BRANCH   9  10
ATOM     10  C   UNL     1      -0.889   7.279  -2.682  1.00  0.00    -0.000 C 
BRANCH  10  11
ATOM     11  C   UNL     1      -1.029   7.733  -4.143  1.00  0.00    -0.000 C 
BRANCH  11  12
ATOM     12  C   UNL     1      -2.176   7.004  -4.875  1.00  0.00    -0.000 C 
BRANCH  12  13
ATOM     13  C   UNL     1      -1.817   5.573  -5.309  1.00  0.00    -0.003 C 
ATOM     14  C   UNL     1      -1.299   5.493  -6.744  1.00  0.00     0.004 C 
ENDBRANCH  12  13
ENDBRANCH  11  12
ENDBRANCH  10  11
ENDBRANCH   9  10
ENDBRANCH   1   9
TORSDOF 10
ENDMDL
MODEL 7
REMARK VINA RESULT:    -3.119      1.883      3.568
REMARK INTER + INTRA:          -5.728
REMARK INTER:                  -5.018
REMARK INTRA:                  -0.710
REMARK UNBOUND:                -0.786
REMARK SMILES CCCCCCCCCCCC(=O)[O-]
REMARK SMILES IDX 7 1 8 2 9 3 10 4 11 5 12 6 13 7 14 8 6 9 5 10 4 11 3 12 2 13
REMARK SMILES IDX 1 14
REMARK H PARENT
REMARK Flexibility Score: inf
ROOT
ATOM      1  C   UNL     1      -1.795   8.592  -1.302  1.00  0.00     0.000 C 
ENDROOT
BRANCH   1   2
ATOM      2  C   UNL     1      -1.223   7.712  -0.179  1.00  0.00     0.000 C 
BRANCH   2   3
ATOM      3  C   UNL     1      -0.954   8.501   1.111  1.00  0.00     0.000 C 
BRANCH   3   4
ATOM      4  C   UNL     1      -1.311   9.984   0.932  1.00  0.00     0.006 C 
BRANCH   4   5
ATOM      5  C   UNL     1      -2.112  10.537   2.118  1.00  0.00     0.053 C 
BRANCH   5   6
ATOM      6  C   UNL     1      -3.588  10.455   1.880  1.00  0.00     0.041 C 
ATOM      7  O   UNL     1      -4.389  10.489   2.850  1.00  0.00    -0.550 OA
ATOM      8  O   UNL     1      -4.081  10.375   0.583  1.00  0.00    -0.550 OA
ENDBRANCH   5   6
ENDBRANCH   4   5
ENDBRANCH   3   4
ENDBRANCH   2   3
ENDBRANCH   1   2
BRANCH   1   9
ATOM      9  C   UNL     1      -2.913   7.893  -2.091  1.00  0.00     0.000 C 
BRANCH   9  10
ATOM     10  C   UNL     1      -3.425   8.786  -3.227  1.00  0.00    -0.000 C 
BRANCH  10  11
ATOM     11  C   UNL     1      -3.132   8.159  -4.598  1.00  0.00    -0.000 C 
BRANCH  11  12
ATOM     12  C   UNL     1      -1.619   8.060  -4.885  1.00  0.00    -0.000 C 
BRANCH  12  13
ATOM     13  C   UNL     1      -1.254   6.953  -5.888  1.00  0.00    -0.003 C 
ATOM     14  C   UNL     1      -1.918   5.614  -5.570  1.00  0.00     0.004 C 
ENDBRANCH  12  13
ENDBRANCH  11  12
ENDBRANCH  10  11
ENDBRANCH   9  10
ENDBRANCH   1   9
TORSDOF 10
ENDMDL
MODEL 8
REMARK VINA RESULT:    -3.066      1.044      1.823
REMARK INTER + INTRA:          -5.644
REMARK INTER:                  -5.052
REMARK INTRA:                  -0.592
REMARK UNBOUND:                -0.786
REMARK SMILES CCCCCCCCCCCC(=O)[O-]
REMARK SMILES IDX 7 1 8 2 9 3 10 4 11 5 12 6 13 7 14 8 6 9 5 10 4 11 3 12 2 13
REMARK SMILES IDX 1 14
REMARK H PARENT
REMARK Flexibility Score: inf
ROOT
ATOM      1  C   UNL     1      -2.223   6.894  -5.296  1.00  0.00     0.000 C 
ENDROOT
BRANCH   1   2
ATOM      2  C   UNL     1      -2.466   8.411  -5.225  1.00  0.00     0.000 C 
BRANCH   2   3
ATOM      3  C   UNL     1      -2.174   8.991  -3.832  1.00  0.00     0.000 C 
BRANCH   3   4
ATOM      4  C   UNL     1      -1.819   7.877  -2.837  1.00  0.00     0.006 C 
BRANCH   4   5
ATOM      5  C   UNL     1      -2.329   8.178  -1.421  1.00  0.00     0.053 C 
BRANCH   5   6
ATOM      6  C   UNL     1      -3.817   8.352  -1.391  1.00  0.00     0.041 C 
ATOM      7  O   UNL     1      -4.337   9.224  -0.647  1.00  0.00    -0.550 OA
ATOM      8  O   UNL     1      -4.625   7.574  -2.210  1.00  0.00    -0.550 OA
ENDBRANCH   5   6
ENDBRANCH   4   5
ENDBRANCH   3   4
ENDBRANCH   2   3
ENDBRANCH   1   2
BRANCH   1   9
ATOM      9  C   UNL     1      -1.462   6.475  -6.563  1.00  0.00     0.000 C 
BRANCH   9  10
ATOM     10  C   UNL     1      -1.240   4.958  -6.593  1.00  0.00    -0.000 C 
BRANCH  10  11
ATOM     11  C   UNL     1      -1.880   4.281  -5.371  1.00  0.00    -0.000 C 
BRANCH  11  12
ATOM     12  C   UNL     1      -0.875   3.402  -4.596  1.00  0.00    -0.000 C 
BRANCH  12  13
ATOM     13  C   UNL     1      -1.121   1.894  -4.763  1.00  0.00    -0.003 C 
ATOM     14  C   UNL     1      -0.875   1.400  -6.188  1.00  0.00     0.004 C 
ENDBRANCH  12  13
ENDBRANCH  11  12
ENDBRANCH  10  11
ENDBRANCH   9  10
ENDBRANCH   1   9
TORSDOF 10
ENDMDL
MODEL 9
REMARK VINA RESULT:    -2.981      2.851      4.219
REMARK INTER + INTRA:          -5.509
REMARK INTER:                  -4.545
REMARK INTRA:                  -0.963
REMARK UNBOUND:                -0.786
REMARK SMILES CCCCCCCCCCCC(=O)[O-]
REMARK SMILES IDX 7 1 8 2 9 3 10 4 11 5 12 6 13 7 14 8 6 9 5 10 4 11 3 12 2 13
REMARK SMILES IDX 1 14
REMARK H PARENT
REMARK Flexibility Score: inf
ROOT
ATOM      1  C   UNL     1      -4.621   7.557  -3.005  1.00  0.00     0.000 C 
ENDROOT
BRANCH   1   2
ATOM      2  C   UNL     1      -4.847   8.884  -2.263  1.00  0.00     0.000 C 
BRANCH   2   3
ATOM      3  C   UNL     1      -4.563   8.776  -0.757  1.00  0.00     0.000 C 
BRANCH   3   4
ATOM      4  C   UNL     1      -4.112  10.128  -0.186  1.00  0.00     0.006 C 
BRANCH   4   5
ATOM      5  C   UNL     1      -2.592  10.197   0.012  1.00  0.00     0.053 C 
BRANCH   5   6
ATOM      6  C   UNL     1      -2.186   9.720   1.373  1.00  0.00     0.041 C 
ATOM      7  O   UNL     1      -2.688  10.241   2.403  1.00  0.00    -0.550 OA
ATOM      8  O   UNL     1      -1.279   8.676   1.502  1.00  0.00    -0.550 OA
ENDBRANCH   5   6
ENDBRANCH   4   5
ENDBRANCH   3   4
ENDBRANCH   2   3
ENDBRANCH   1   2
BRANCH   1   9
ATOM      9  C   UNL     1      -4.294   7.757  -4.492  1.00  0.00     0.000 C 
BRANCH   9  10
ATOM     10  C   UNL     1      -3.023   6.996  -4.884  1.00  0.00    -0.000 C 
BRANCH  10  11
ATOM     11  C   UNL     1      -1.765   7.811  -4.548  1.00  0.00    -0.000 C 
BRANCH  11  12
ATOM     12  C   UNL     1      -1.622   9.060  -5.444  1.00  0.00    -0.000 C 
BRANCH  12  13
ATOM     13  C   UNL     1      -1.157  10.313  -4.683  1.00  0.00    -0.003 C 
ATOM     14  C   UNL     1      -2.218  10.865  -3.732  1.00  0.00     0.004 C 
ENDBRANCH  12  13
ENDBRANCH  11  12
ENDBRANCH  10  11
ENDBRANCH   9  10
ENDBRANCH   1   9
TORSDOF 10
ENDMDL
