MODEL 1
REMARK VINA RESULT:    -2.463      0.000      0.000
REMARK INTER + INTRA:          -5.269
REMARK INTER:                  -3.903
REMARK INTRA:                  -1.366
REMARK UNBOUND:                -1.366
REMARK SMILES CCCCCCCCCCCC(=O)[O-]
REMARK SMILES IDX 7 1 8 2 9 3 10 4 11 5 12 6 13 7 14 8 6 9 5 10 4 11 3 12 2 13
REMARK SMILES IDX 1 14
REMARK H PARENT
REMARK Flexibility Score: inf
ROOT
ATOM      1  C   UNL     1       6.197  23.292   7.518  1.00  0.00     0.000 C 
ENDROOT
BRANCH   1   2
ATOM      2  C   UNL     1       4.898  22.477   7.615  1.00  0.00     0.000 C 
BRANCH   2   3
ATOM      3  C   UNL     1       4.672  21.578   6.390  1.00  0.00     0.000 C 
BRANCH   3   4
ATOM      4  C   UNL     1       3.203  21.620   5.942  1.00  0.00     0.006 C 
BRANCH   4   5
ATOM      5  C   UNL     1       2.462  22.844   6.495  1.00  0.00     0.053 C 
BRANCH   5   6
ATOM      6  C   UNL     1       0.978  22.638   6.506  1.00  0.00     0.041 C 
ATOM      7  O   UNL     1       0.421  22.094   7.495  1.00  0.00    -0.550 OA
ATOM      8  O   UNL     1       0.205  23.077   5.438  1.00  0.00    -0.550 OA
ENDBRANCH   5   6
ENDBRANCH   4   5
ENDBRANCH   3   4
ENDBRANCH   2   3
ENDBRANCH   1   2
BRANCH   1   9
ATOM      9  C   UNL     1       5.999  24.643   6.813  1.00  0.00     0.000 C 
BRANCH   9  10
ATOM     10  C   UNL     1       7.022  24.824   5.681  1.00  0.00    -0.000 C 
BRANCH  10  11
ATOM     11  C   UNL     1       6.367  24.861   4.291  1.00  0.00    -0.000 C 
BRANCH  11  12
ATOM     12  C   UNL     1       4.844  24.672   4.348  1.00  0.00    -0.000 C 
BRANCH  12  13
ATOM     13  C   UNL     1       4.359  23.784   3.195  1.00  0.00    -0.003 C 
ATOM     14  C   UNL     1       2.953  24.178   2.750  1.00  0.00     0.004 C 
ENDBRANCH  12  13
ENDBRANCH  11  12
ENDBRANCH  10  11
ENDBRANCH   9  10
ENDBRANCH   1   9
TORSDOF 10
ENDMDL
MODEL 2
REMARK VINA RESULT:    -2.461      0.944      1.563
REMARK INTER + INTRA:          -5.265
REMARK INTER:                  -3.856
REMARK INTRA:                  -1.409
REMARK UNBOUND:                -1.366
REMARK SMILES CCCCCCCCCCCC(=O)[O-]
REMARK SMILES IDX 7 1 8 2 9 3 10 4 11 5 12 6 13 7 14 8 6 9 5 10 4 11 3 12 2 13
REMARK SMILES IDX 1 14
REMARK H PARENT
REMARK Flexibility Score: inf
ROOT
ATOM      1  C   UNL     1       4.856  23.452   7.373  1.00  0.00     0.000 C 
ENDROOT
BRANCH   1   2
ATOM      2  C   UNL     1       4.630  21.932   7.403  1.00  0.00     0.000 C 
BRANCH   2   3
ATOM      3  C   UNL     1       3.220  21.534   6.941  1.00  0.00     0.000 C 
BRANCH   3   4
ATOM      4  C   UNL     1       2.404  22.772   6.541  1.00  0.00     0.006 C 
BRANCH   4   5
ATOM      5  C   UNL     1       1.455  22.489   5.369  1.00  0.00     0.053 C 
BRANCH   5   6
ATOM      6  C   UNL     1       0.022  22.479   5.804  1.00  0.00     0.041 C 
ATOM      7  O   UNL     1      -0.894  22.706   4.970  1.00  0.00    -0.550 OA
ATOM      8  O   UNL     1      -0.305  22.185   7.122  1.00  0.00    -0.550 OA
ENDBRANCH   5   6
ENDBRANCH   4   5
ENDBRANCH   3   4
ENDBRANCH   2   3
ENDBRANCH   1   2
BRANCH   1   9
ATOM      9  C   UNL     1       6.344  23.830   7.319  1.00  0.00     0.000 C 
BRANCH   9  10
ATOM     10  C   UNL     1       6.600  24.887   6.233  1.00  0.00    -0.000 C 
BRANCH  10  11
ATOM     11  C   UNL     1       6.618  24.289   4.817  1.00  0.00    -0.000 C 
BRANCH  11  12
ATOM     12  C   UNL     1       5.545  24.900   3.903  1.00  0.00    -0.000 C 
BRANCH  12  13
ATOM     13  C   UNL     1       4.434  23.885   3.608  1.00  0.00    -0.003 C 
ATOM     14  C   UNL     1       4.959  22.454   3.687  1.00  0.00     0.004 C 
ENDBRANCH  12  13
ENDBRANCH  11  12
ENDBRANCH  10  11
ENDBRANCH   9  10
ENDBRANCH   1   9
TORSDOF 10
ENDMDL
MODEL 3
REMARK VINA RESULT:    -2.409      1.024      2.989
REMARK INTER + INTRA:          -5.183
REMARK INTER:                  -3.719
REMARK INTRA:                  -1.464
REMARK UNBOUND:                -1.366
REMARK SMILES CCCCCCCCCCCC(=O)[O-]
REMARK SMILES IDX 7 1 8 2 9 3 10 4 11 5 12 6 13 7 14 8 6 9 5 10 4 11 3 12 2 13
REMARK SMILES IDX 1 14
REMARK H PARENT
REMARK Flexibility Score: inf
ROOT
ATOM      1  C   UNL     1       5.045  23.328   3.274  1.00  0.00     0.000 C 
ENDROOT
BRANCH   1   2
ATOM      2  C   UNL     1       3.801  22.448   3.478  1.00  0.00     0.000 C 
BRANCH   2   3
ATOM      3  C   UNL     1       2.772  23.089   4.422  1.00  0.00     0.000 C 
BRANCH   3   4
ATOM      4  C   UNL     1       2.228  22.058   5.422  1.00  0.00     0.006 C 
BRANCH   4   5
ATOM      5  C   UNL     1       1.582  22.719   6.646  1.00  0.00     0.053 C 
BRANCH   5   6
ATOM      6  C   UNL     1       0.163  22.276   6.834  1.00  0.00     0.041 C 
ATOM      7  O   UNL     1      -0.202  21.768   7.927  1.00  0.00    -0.550 OA
ATOM      8  O   UNL     1      -0.763  22.455   5.815  1.00  0.00    -0.550 OA
ENDBRANCH   5   6
ENDBRANCH   4   5
ENDBRANCH   3   4
ENDBRANCH   2   3
ENDBRANCH   1   2
BRANCH   1   9
ATOM      9  C   UNL     1       5.028  24.591   4.149  1.00  0.00     0.000 C 
BRANCH   9  10
ATOM     10  C   UNL     1       6.423  24.875   4.726  1.00  0.00    -0.000 C 
BRANCH  10  11
ATOM     11  C   UNL     1       6.776  23.952   5.903  1.00  0.00    -0.000 C 
BRANCH  11  12
ATOM     12  C   UNL     1       5.899  24.205   7.138  1.00  0.00    -0.000 C 
BRANCH  12  13
ATOM     13  C   UNL     1       5.142  22.933   7.542  1.00  0.00    -0.003 C 
ATOM     14  C   UNL     1       5.692  21.710   6.813  1.00  0.00     0.004 C 
ENDBRANCH  12  13
ENDBRANCH  11  12
ENDBRANCH  10  11
ENDBRANCH   9  10
ENDBRANCH   1   9
TORSDOF 10
ENDMDL
MODEL 4
REMARK VINA RESULT:    -2.399     23.585     25.017
REMARK INTER + INTRA:          -5.168
REMARK INTER:                  -4.440
REMARK INTRA:                  -0.727
REMARK UNBOUND:                -1.366
REMARK SMILES CCCCCCCCCCCC(=O)[O-]
REMARK SMILES IDX 7 1 8 2 9 3 10 4 11 5 12 6 13 7 14 8 6 9 5 10 4 11 3 12 2 13
REMARK SMILES IDX 1 14
REMARK H PARENT
REMARK Flexibility Score: inf
ROOT
ATOM      1  C   UNL     1      -8.375  39.700  17.948  1.00  0.00     0.000 C 
ENDROOT
BRANCH   1   2
ATOM      2  C   UNL     1      -7.749  40.902  17.223  1.00  0.00     0.000 C 
BRANCH   2   3
ATOM      3  C   UNL     1      -8.034  40.897  15.713  1.00  0.00     0.000 C 
BRANCH   3   4
ATOM      4  C   UNL     1      -9.177  39.928  15.374  1.00  0.00     0.006 C 
BRANCH   4   5
ATOM      5  C   UNL     1     -10.479  40.662  15.029  1.00  0.00     0.053 C 
BRANCH   5   6
ATOM      6  C   UNL     1     -11.648  40.103  15.781  1.00  0.00     0.041 C 
ATOM      7  O   UNL     1     -11.684  40.170  17.037  1.00  0.00    -0.550 OA
ATOM      8  O   UNL     1     -12.714  39.537  15.092  1.00  0.00    -0.550 OA
ENDBRANCH   5   6
ENDBRANCH   4   5
ENDBRANCH   3   4
ENDBRANCH   2   3
ENDBRANCH   1   2
BRANCH   1   9
ATOM      9  C   UNL     1      -7.618  39.321  19.230  1.00  0.00     0.000 C 
BRANCH   9  10
ATOM     10  C   UNL     1      -8.207  40.048  20.448  1.00  0.00    -0.000 C 
BRANCH  10  11
ATOM     11  C   UNL     1      -9.744  40.053  20.449  1.00  0.00    -0.000 C 
BRANCH  11  12
ATOM     12  C   UNL     1     -10.340  38.898  21.269  1.00  0.00    -0.000 C 
BRANCH  12  13
ATOM     13  C   UNL     1     -11.582  38.321  20.579  1.00  0.00    -0.003 C 
ATOM     14  C   UNL     1     -11.713  36.823  20.841  1.00  0.00     0.004 C 
ENDBRANCH  12  13
ENDBRANCH  11  12
ENDBRANCH  10  11
ENDBRANCH   9  10
ENDBRANCH   1   9
TORSDOF 10
ENDMDL
MODEL 5
REMARK VINA RESULT:    -2.385      1.818      3.521
REMARK INTER + INTRA:          -5.146
REMARK INTER:                  -4.029
REMARK INTRA:                  -1.117
REMARK UNBOUND:                -1.366
REMARK SMILES CCCCCCCCCCCC(=O)[O-]
REMARK SMILES IDX 7 1 8 2 9 3 10 4 11 5 12 6 13 7 14 8 6 9 5 10 4 11 3 12 2 13
REMARK SMILES IDX 1 14
REMARK H PARENT
REMARK Flexibility Score: inf
ROOT
ATOM      1  C   UNL     1       3.316  22.051   5.535  1.00  0.00     0.000 C 
ENDROOT
BRANCH   1   2
ATOM      2  C   UNL     1       2.643  23.144   6.380  1.00  0.00     0.000 C 
BRANCH   2   3
ATOM      3  C   UNL     1       1.197  22.791   6.761  1.00  0.00     0.000 C 
BRANCH   3   4
ATOM      4  C   UNL     1       0.489  22.060   5.611  1.00  0.00     0.006 C 
BRANCH   4   5
ATOM      5  C   UNL     1      -0.682  22.870   5.040  1.00  0.00     0.053 C 
BRANCH   5   6
ATOM      6  C   UNL     1      -0.276  23.661   3.834  1.00  0.00     0.041 C 
ATOM      7  O   UNL     1       0.793  23.387   3.228  1.00  0.00    -0.550 OA
ATOM      8  O   UNL     1      -1.094  24.678   3.360  1.00  0.00    -0.550 OA
ENDBRANCH   5   6
ENDBRANCH   4   5
ENDBRANCH   3   4
ENDBRANCH   2   3
ENDBRANCH   1   2
BRANCH   1   9
ATOM      9  C   UNL     1       4.428  21.313   6.296  1.00  0.00     0.000 C 
BRANCH   9  10
ATOM     10  C   UNL     1       4.857  22.105   7.541  1.00  0.00    -0.000 C 
BRANCH  10  11
ATOM     11  C   UNL     1       6.212  22.808   7.359  1.00  0.00    -0.000 C 
BRANCH  11  12
ATOM     12  C   UNL     1       6.078  24.334   7.256  1.00  0.00    -0.000 C 
BRANCH  12  13
ATOM     13  C   UNL     1       6.780  24.862   5.999  1.00  0.00    -0.003 C 
ATOM     14  C   UNL     1       5.904  24.684   4.762  1.00  0.00     0.004 C 
ENDBRANCH  12  13
ENDBRANCH  11  12
ENDBRANCH  10  11
ENDBRANCH   9  10
ENDBRANCH   1   9
TORSDOF 10
ENDMDL
MODEL 6
REMARK VINA RESULT:    -2.322      2.992      5.159
REMARK INTER + INTRA:          -5.045
REMARK INTER:                  -3.775
REMARK INTRA:                  -1.271
REMARK UNBOUND:                -1.366
REMARK SMILES CCCCCCCCCCCC(=O)[O-]
REMARK SMILES IDX 7 1 8 2 9 3 10 4 11 5 12 6 13 7 14 8 6 9 5 10 4 11 3 12 2 13
REMARK SMILES IDX 1 14
REMARK H PARENT
REMARK Flexibility Score: inf
ROOT
ATOM      1  C   UNL     1       1.147  22.752   6.173  1.00  0.00     0.000 C 
ENDROOT
BRANCH   1   2
ATOM      2  C   UNL     1       1.981  21.669   5.471  1.00  0.00     0.000 C 
BRANCH   2   3
ATOM      3  C   UNL     1       3.422  22.122   5.192  1.00  0.00     0.000 C 
BRANCH   3   4
ATOM      4  C   UNL     1       3.720  23.462   5.881  1.00  0.00     0.006 C 
BRANCH   4   5
ATOM      5  C   UNL     1       4.859  24.228   5.196  1.00  0.00     0.053 C 
BRANCH   5   6
ATOM      6  C   UNL     1       5.975  24.536   6.147  1.00  0.00     0.041 C 
ATOM      7  O   UNL     1       6.972  25.200   5.760  1.00  0.00    -0.550 OA
ATOM      8  O   UNL     1       5.898  24.117   7.470  1.00  0.00    -0.550 OA
ENDBRANCH   5   6
ENDBRANCH   4   5
ENDBRANCH   3   4
ENDBRANCH   2   3
ENDBRANCH   1   2
BRANCH   1   9
ATOM      9  C   UNL     1      -0.325  22.745   5.734  1.00  0.00     0.000 C 
BRANCH   9  10
ATOM     10  C   UNL     1      -0.439  22.812   4.203  1.00  0.00    -0.000 C 
BRANCH  10  11
ATOM     11  C   UNL     1      -0.693  24.238   3.689  1.00  0.00    -0.000 C 
BRANCH  11  12
ATOM     12  C   UNL     1       0.132  24.572   2.437  1.00  0.00    -0.000 C 
BRANCH  12  13
ATOM     13  C   UNL     1       1.381  23.686   2.352  1.00  0.00    -0.003 C 
ATOM     14  C   UNL     1       2.653  24.529   2.309  1.00  0.00     0.004 C 
ENDBRANCH  12  13
ENDBRANCH  11  12
ENDBRANCH  10  11
ENDBRANCH   9  10
ENDBRANCH   1   9
TORSDOF 10
ENDMDL
MODEL 7
REMARK VINA RESULT:    -2.295     23.351     24.884
REMARK INTER + INTRA:          -5.003
REMARK INTER:                  -4.220
REMARK INTRA:                  -0.783
REMARK UNBOUND:                -1.366
REMARK SMILES CCCCCCCCCCCC(=O)[O-]
REMARK SMILES IDX 7 1 8 2 9 3 10 4 11 5 12 6 13 7 14 8 6 9 5 10 4 11 3 12 2 13
REMARK SMILES IDX 1 14
REMARK H PARENT
REMARK Flexibility Score: inf
ROOT
ATOM      1  C   UNL     1     -10.416  40.733  15.313  1.00  0.00     0.000 C 
ENDROOT
BRANCH   1   2
ATOM      2  C   UNL     1     -11.615  39.998  15.933  1.00  0.00     0.000 C 
BRANCH   2   3
ATOM      3  C   UNL     1     -12.242  40.770  17.103  1.00  0.00     0.000 C 
BRANCH   3   4
ATOM      4  C   UNL     1     -11.562  40.403  18.430  1.00  0.00     0.006 C 
BRANCH   4   5
ATOM      5  C   UNL     1     -12.360  39.359  19.223  1.00  0.00     0.053 C 
BRANCH   5   6
ATOM      6  C   UNL     1     -11.476  38.543  20.116  1.00  0.00     0.041 C 
ATOM      7  O   UNL     1     -11.815  37.377  20.447  1.00  0.00    -0.550 OA
ATOM      8  O   UNL     1     -10.263  39.058  20.555  1.00  0.00    -0.550 OA
ENDBRANCH   5   6
ENDBRANCH   4   5
ENDBRANCH   3   4
ENDBRANCH   2   3
ENDBRANCH   1   2
BRANCH   1   9
ATOM      9  C   UNL     1      -9.109  39.932  15.421  1.00  0.00     0.000 C 
BRANCH   9  10
ATOM     10  C   UNL     1      -8.199  40.517  16.512  1.00  0.00    -0.000 C 
BRANCH  10  11
ATOM     11  C   UNL     1      -8.216  39.689  17.806  1.00  0.00    -0.000 C 
BRANCH  11  12
ATOM     12  C   UNL     1      -7.031  40.009  18.730  1.00  0.00    -0.000 C 
BRANCH  12  13
ATOM     13  C   UNL     1      -5.929  40.757  17.969  1.00  0.00    -0.003 C 
ATOM     14  C   UNL     1      -4.565  40.113  18.201  1.00  0.00     0.004 C 
ENDBRANCH  12  13
ENDBRANCH  11  12
ENDBRANCH  10  11
ENDBRANCH   9  10
ENDBRANCH   1   9
TORSDOF 10
ENDMDL
MODEL 8
REMARK VINA RESULT:    -2.272      1.997      4.106
REMARK INTER + INTRA:          -4.966
REMARK INTER:                  -3.565
REMARK INTRA:                  -1.401
REMARK UNBOUND:                -1.366
REMARK SMILES CCCCCCCCCCCC(=O)[O-]
REMARK SMILES IDX 7 1 8 2 9 3 10 4 11 5 12 6 13 7 14 8 6 9 5 10 4 11 3 12 2 13
REMARK SMILES IDX 1 14
REMARK H PARENT
REMARK Flexibility Score: inf
ROOT
ATOM      1  C   UNL     1       6.083  24.026   7.475  1.00  0.00     0.000 C 
ENDROOT
BRANCH   1   2
ATOM      2  C   UNL     1       6.045  24.667   6.079  1.00  0.00     0.000 C 
BRANCH   2   3
ATOM      3  C   UNL     1       6.606  23.741   4.988  1.00  0.00     0.000 C 
BRANCH   3   4
ATOM      4  C   UNL     1       5.639  23.646   3.799  1.00  0.00     0.006 C 
BRANCH   4   5
ATOM      5  C   UNL     1       5.195  25.026   3.298  1.00  0.00     0.053 C 
BRANCH   5   6
ATOM      6  C   UNL     1       3.762  25.025   2.860  1.00  0.00     0.041 C 
ATOM      7  O   UNL     1       3.062  23.986   2.988  1.00  0.00    -0.550 OA
ATOM      8  O   UNL     1       3.190  26.180   2.341  1.00  0.00    -0.550 OA
ENDBRANCH   5   6
ENDBRANCH   4   5
ENDBRANCH   3   4
ENDBRANCH   2   3
ENDBRANCH   1   2
BRANCH   1   9
ATOM      9  C   UNL     1       6.185  22.494   7.422  1.00  0.00     0.000 C 
BRANCH   9  10
ATOM     10  C   UNL     1       4.804  21.847   7.610  1.00  0.00    -0.000 C 
BRANCH  10  11
ATOM     11  C   UNL     1       4.359  21.032   6.386  1.00  0.00    -0.000 C 
BRANCH  11  12
ATOM     12  C   UNL     1       3.112  21.618   5.705  1.00  0.00    -0.000 C 
BRANCH  12  13
ATOM     13  C   UNL     1       2.711  22.950   6.350  1.00  0.00    -0.003 C 
ATOM     14  C   UNL     1       1.247  22.935   6.782  1.00  0.00     0.004 C 
ENDBRANCH  12  13
ENDBRANCH  11  12
ENDBRANCH  10  11
ENDBRANCH   9  10
ENDBRANCH   1   9
TORSDOF 10
ENDMDL
MODEL 9
REMARK VINA RESULT:    -2.270      1.377      2.548
REMARK INTER + INTRA:          -4.963
REMARK INTER:                  -3.769
REMARK INTRA:                  -1.195
REMARK UNBOUND:                -1.366
REMARK SMILES CCCCCCCCCCCC(=O)[O-]
REMARK SMILES IDX 7 1 8 2 9 3 10 4 11 5 12 6 13 7 14 8 6 9 5 10 4 11 3 12 2 13
REMARK SMILES IDX 1 14
REMARK H PARENT
REMARK Flexibility Score: inf
ROOT
ATOM      1  C   UNL     1       4.008  23.099   6.836  1.00  0.00     0.000 C 
ENDROOT
BRANCH   1   2
ATOM      2  C   UNL     1       3.453  22.276   5.662  1.00  0.00     0.000 C 
BRANCH   2   3
ATOM      3  C   UNL     1       2.994  23.156   4.489  1.00  0.00     0.000 C 
BRANCH   3   4
ATOM      4  C   UNL     1       1.904  22.450   3.668  1.00  0.00     0.006 C 
BRANCH   4   5
ATOM      5  C   UNL     1       0.873  21.743   4.556  1.00  0.00     0.053 C 
BRANCH   5   6
ATOM      6  C   UNL     1      -0.192  22.684   5.030  1.00  0.00     0.041 C 
ATOM      7  O   UNL     1      -0.762  22.491   6.136  1.00  0.00    -0.550 OA
ATOM      8  O   UNL     1      -0.532  23.794   4.266  1.00  0.00    -0.550 OA
ENDBRANCH   5   6
ENDBRANCH   4   5
ENDBRANCH   3   4
ENDBRANCH   2   3
ENDBRANCH   1   2
BRANCH   1   9
ATOM      9  C   UNL     1       5.234  22.445   7.491  1.00  0.00     0.000 C 
BRANCH   9  10
ATOM     10  C   UNL     1       6.413  23.428   7.548  1.00  0.00    -0.000 C 
BRANCH  10  11
ATOM     11  C   UNL     1       6.135  24.734   6.787  1.00  0.00    -0.000 C 
BRANCH  11  12
ATOM     12  C   UNL     1       7.107  24.957   5.619  1.00  0.00    -0.000 C 
BRANCH  12  13
ATOM     13  C   UNL     1       6.404  24.747   4.272  1.00  0.00    -0.003 C 
ATOM     14  C   UNL     1       6.633  23.333   3.745  1.00  0.00     0.004 C 
ENDBRANCH  12  13
ENDBRANCH  11  12
ENDBRANCH  10  11
ENDBRANCH   9  10
ENDBRANCH   1   9
TORSDOF 10
ENDMDL
