MODEL 1
REMARK VINA RESULT:    -5.275      0.000      0.000
REMARK INTER + INTRA:          -8.803
REMARK INTER:                  -8.051
REMARK INTRA:                  -0.752
REMARK UNBOUND:                -0.752
REMARK SMILES CCCCCCCCCC=CC(=O)[O-]
REMARK SMILES IDX 7 1 8 2 9 3 10 4 11 5 12 6 13 7 14 8 6 9 5 10 4 11 3 12 2 13
REMARK SMILES IDX 1 14
REMARK H PARENT
REMARK Flexibility Score: inf
ROOT
ATOM      1  C   UNL     1     124.295 133.097 127.383  1.00  0.00     0.000 C 
ENDROOT
BRANCH   1   2
ATOM      2  C   UNL     1     124.292 134.640 127.337  1.00  0.00     0.004 C 
BRANCH   2   3
ATOM      3  C   UNL     1     123.446 135.315 128.432  1.00  0.00     0.027 C 
BRANCH   3   4
ATOM      4  C   UNL     1     122.035 134.790 128.479  1.00  0.00    -0.025 C 
ATOM      5  C   UNL     1     120.951 135.486 128.103  1.00  0.00     0.020 C 
BRANCH   5   6
ATOM      6  C   UNL     1     120.942 136.874 127.596  1.00  0.00     0.064 C 
ATOM      7  O   UNL     1     120.934 137.824 128.421  1.00  0.00    -0.545 OA
ATOM      8  O   UNL     1     120.953 137.165 126.237  1.00  0.00    -0.545 OA
ENDBRANCH   5   6
ENDBRANCH   3   4
ENDBRANCH   2   3
ENDBRANCH   1   2
BRANCH   1   9
ATOM      9  C   UNL     1     125.638 132.435 127.024  1.00  0.00     0.000 C 
BRANCH   9  10
ATOM     10  C   UNL     1     125.883 132.364 125.506  1.00  0.00     0.000 C 
BRANCH  10  11
ATOM     11  C   UNL     1     124.622 131.970 124.721  1.00  0.00    -0.000 C 
BRANCH  11  12
ATOM     12  C   UNL     1     124.707 132.355 123.234  1.00  0.00    -0.000 C 
BRANCH  12  13
ATOM     13  C   UNL     1     125.705 133.495 122.979  1.00  0.00    -0.003 C 
ATOM     14  C   UNL     1     125.029 134.862 122.875  1.00  0.00     0.004 C 
ENDBRANCH  12  13
ENDBRANCH  11  12
ENDBRANCH  10  11
ENDBRANCH   9  10
ENDBRANCH   1   9
TORSDOF 9
ENDMDL
MODEL 2
REMARK VINA RESULT:    -5.079      2.502      5.685
REMARK INTER + INTRA:          -8.503
REMARK INTER:                  -8.060
REMARK INTRA:                  -0.443
REMARK UNBOUND:                -0.752
REMARK SMILES CCCCCCCCCC=CC(=O)[O-]
REMARK SMILES IDX 7 1 8 2 9 3 10 4 11 5 12 6 13 7 14 8 6 9 5 10 4 11 3 12 2 13
REMARK SMILES IDX 1 14
REMARK H PARENT
REMARK Flexibility Score: inf
ROOT
ATOM      1  C   UNL     1     124.867 133.974 127.184  1.00  0.00     0.000 C 
ENDROOT
BRANCH   1   2
ATOM      2  C   UNL     1     125.189 132.684 126.400  1.00  0.00     0.004 C 
BRANCH   2   3
ATOM      3  C   UNL     1     124.109 132.257 125.391  1.00  0.00     0.027 C 
BRANCH   3   4
ATOM      4  C   UNL     1     124.688 131.842 124.063  1.00  0.00    -0.025 C 
ATOM      5  C   UNL     1     125.264 132.681 123.188  1.00  0.00     0.020 C 
BRANCH   5   6
ATOM      6  C   UNL     1     125.419 134.141 123.356  1.00  0.00     0.064 C 
ATOM      7  O   UNL     1     126.440 134.581 123.944  1.00  0.00    -0.545 OA
ATOM      8  O   UNL     1     124.479 135.044 122.875  1.00  0.00    -0.545 OA
ENDBRANCH   5   6
ENDBRANCH   3   4
ENDBRANCH   2   3
ENDBRANCH   1   2
BRANCH   1   9
ATOM      9  C   UNL     1     123.469 134.016 127.828  1.00  0.00     0.000 C 
BRANCH   9  10
ATOM     10  C   UNL     1     123.208 135.320 128.605  1.00  0.00     0.000 C 
BRANCH  10  11
ATOM     11  C   UNL     1     121.711 135.603 128.801  1.00  0.00    -0.000 C 
BRANCH  11  12
ATOM     12  C   UNL     1     120.990 135.910 127.477  1.00  0.00    -0.000 C 
BRANCH  12  13
ATOM     13  C   UNL     1     120.875 137.417 127.205  1.00  0.00    -0.003 C 
ATOM     14  C   UNL     1     120.880 137.752 125.714  1.00  0.00     0.004 C 
ENDBRANCH  12  13
ENDBRANCH  11  12
ENDBRANCH  10  11
ENDBRANCH   9  10
ENDBRANCH   1   9
TORSDOF 9
ENDMDL
MODEL 3
REMARK VINA RESULT:    -3.864      2.900      5.917
REMARK INTER + INTRA:          -6.649
REMARK INTER:                  -7.065
REMARK INTRA:                   0.416
REMARK UNBOUND:                -0.752
REMARK SMILES CCCCCCCCCC=CC(=O)[O-]
REMARK SMILES IDX 7 1 8 2 9 3 10 4 11 5 12 6 13 7 14 8 6 9 5 10 4 11 3 12 2 13
REMARK SMILES IDX 1 14
REMARK H PARENT
REMARK Flexibility Score: inf
ROOT
ATOM      1  C   UNL     1     125.262 132.347 127.255  1.00  0.00     0.000 C 
ENDROOT
BRANCH   1   2
ATOM      2  C   UNL     1     125.925 132.668 125.898  1.00  0.00     0.004 C 
BRANCH   2   3
ATOM      3  C   UNL     1     125.485 134.001 125.266  1.00  0.00     0.027 C 
BRANCH   3   4
ATOM      4  C   UNL     1     125.834 134.091 123.803  1.00  0.00    -0.025 C 
ATOM      5  C   UNL     1     125.463 133.196 122.875  1.00  0.00     0.020 C 
BRANCH   5   6
ATOM      6  C   UNL     1     124.669 131.972 123.116  1.00  0.00     0.064 C 
ATOM      7  O   UNL     1     123.466 132.085 123.465  1.00  0.00    -0.545 OA
ATOM      8  O   UNL     1     125.206 130.701 122.958  1.00  0.00    -0.545 OA
ENDBRANCH   5   6
ENDBRANCH   3   4
ENDBRANCH   2   3
ENDBRANCH   1   2
BRANCH   1   9
ATOM      9  C   UNL     1     123.894 133.015 127.489  1.00  0.00     0.000 C 
BRANCH   9  10
ATOM     10  C   UNL     1     124.004 134.529 127.742  1.00  0.00     0.000 C 
BRANCH  10  11
ATOM     11  C   UNL     1     122.923 135.049 128.702  1.00  0.00    -0.000 C 
BRANCH  11  12
ATOM     12  C   UNL     1     121.550 135.194 128.023  1.00  0.00    -0.000 C 
BRANCH  12  13
ATOM     13  C   UNL     1     121.008 136.629 128.093  1.00  0.00    -0.003 C 
ATOM     14  C   UNL     1     120.884 137.283 126.716  1.00  0.00     0.004 C 
ENDBRANCH  12  13
ENDBRANCH  11  12
ENDBRANCH  10  11
ENDBRANCH   9  10
ENDBRANCH   1   9
TORSDOF 9
ENDMDL
MODEL 4
REMARK VINA RESULT:    -3.627      1.195      2.121
REMARK INTER + INTRA:          -6.287
REMARK INTER:                  -5.596
REMARK INTRA:                  -0.691
REMARK UNBOUND:                -0.752
REMARK SMILES CCCCCCCCCC=CC(=O)[O-]
REMARK SMILES IDX 7 1 8 2 9 3 10 4 11 5 12 6 13 7 14 8 6 9 5 10 4 11 3 12 2 13
REMARK SMILES IDX 1 14
REMARK H PARENT
REMARK Flexibility Score: inf
ROOT
ATOM      1  C   UNL     1     125.639 132.622 127.031  1.00  0.00     0.000 C 
ENDROOT
BRANCH   1   2
ATOM      2  C   UNL     1     124.200 132.079 127.170  1.00  0.00     0.004 C 
BRANCH   2   3
ATOM      3  C   UNL     1     123.178 133.095 127.708  1.00  0.00     0.027 C 
BRANCH   3   4
ATOM      4  C   UNL     1     123.820 134.387 128.143  1.00  0.00    -0.025 C 
ATOM      5  C   UNL     1     123.160 135.542 128.325  1.00  0.00     0.020 C 
BRANCH   5   6
ATOM      6  C   UNL     1     121.712 135.757 128.121  1.00  0.00     0.064 C 
ATOM      7  O   UNL     1     120.913 135.426 129.034  1.00  0.00    -0.545 OA
ATOM      8  O   UNL     1     121.205 136.324 126.958  1.00  0.00    -0.545 OA
ENDBRANCH   5   6
ENDBRANCH   3   4
ENDBRANCH   2   3
ENDBRANCH   1   2
BRANCH   1   9
ATOM      9  C   UNL     1     126.188 132.658 125.593  1.00  0.00     0.000 C 
BRANCH   9  10
ATOM     10  C   UNL     1     125.825 133.955 124.847  1.00  0.00     0.000 C 
BRANCH  10  11
ATOM     11  C   UNL     1     125.320 133.695 123.419  1.00  0.00    -0.000 C 
BRANCH  11  12
ATOM     12  C   UNL     1     125.766 132.326 122.876  1.00  0.00    -0.000 C 
BRANCH  12  13
ATOM     13  C   UNL     1     124.756 131.212 123.190  1.00  0.00    -0.003 C 
ATOM     14  C   UNL     1     123.366 131.751 123.531  1.00  0.00     0.004 C 
ENDBRANCH  12  13
ENDBRANCH  11  12
ENDBRANCH  10  11
ENDBRANCH   9  10
ENDBRANCH   1   9
TORSDOF 9
ENDMDL
