MODEL 1
REMARK VINA RESULT:    27.072      0.000      0.000
REMARK INTER + INTRA:          32.487
REMARK INTER:                  32.612
REMARK INTRA:                  -0.125
REMARK UNBOUND:                -0.125
REMARK SMILES O=c1c(O)c(-c2ccc(O)c(O)c2)oc2cc(O)cc(O)c12
REMARK SMILES IDX 5 1 3 2 2 3 1 4 22 5 20 6 19 7 17 8 16 9 15 10 14 11 6 12
REMARK SMILES IDX 7 13 8 14 9 15 13 16 11 17 10 18 12 20 4 22 21 24 18 26
REMARK H PARENT 10 19 12 21 4 23 21 25 18 27
REMARK Flexibility Score: inf
ROOT
ATOM      1  C   UNL     1      -2.253  -0.470   2.606  1.00  0.00     0.180 A 
ATOM      2  C   UNL     1      -3.150   0.150   3.492  1.00  0.00     0.208 A 
ATOM      3  C   UNL     1      -4.530   0.038   3.253  1.00  0.00     0.238 A 
ATOM      4  O   UNL     1      -5.330   0.548   4.079  1.00  0.00    -0.285 OA
ATOM      5  C   UNL     1      -4.992  -0.677   2.123  1.00  0.00     0.111 A 
ATOM      6  C   UNL     1      -6.366  -0.820   1.761  1.00  0.00     0.134 A 
ATOM      7  C   UNL     1      -6.715  -1.658   0.695  1.00  0.00     0.093 A 
ATOM      8  C   UNL     1      -5.740  -2.306  -0.062  1.00  0.00     0.123 A 
ATOM      9  C   UNL     1      -4.391  -2.126   0.246  1.00  0.00     0.094 A 
ATOM     10  C   UNL     1      -4.012  -1.325   1.326  1.00  0.00     0.146 A 
ATOM     11  O   UNL     1      -2.719  -1.188   1.592  1.00  0.00    -0.452 OA
ENDROOT
BRANCH   1  12
ATOM     12  C   UNL     1      -0.785  -0.375   2.778  1.00  0.00     0.025 A 
ATOM     13  C   UNL     1       0.031   0.210   1.795  1.00  0.00     0.016 A 
ATOM     14  C   UNL     1       1.417   0.266   1.968  1.00  0.00     0.051 A 
ATOM     15  C   UNL     1       2.008  -0.272   3.118  1.00  0.00     0.157 A 
ATOM     16  C   UNL     1      -0.186  -0.933   3.920  1.00  0.00     0.062 A 
ATOM     17  C   UNL     1       1.202  -0.877   4.097  1.00  0.00     0.158 A 
BRANCH  15  18
ATOM     18  O   UNL     1       3.391  -0.213   3.290  1.00  0.00    -0.504 OA
ATOM     19  H   UNL     1       3.886   0.671   3.298  1.00  0.00     0.293 HD
ENDBRANCH  15  18
BRANCH  17  20
ATOM     20  O   UNL     1       1.760  -1.430   5.249  1.00  0.00    -0.504 OA
ATOM     21  H   UNL     1       2.575  -1.030   5.698  1.00  0.00     0.293 HD
ENDBRANCH  17  20
ENDBRANCH   1  12
BRANCH   2  22
ATOM     22  O   UNL     1      -2.673   0.833   4.615  1.00  0.00    -0.502 OA
ATOM     23  H   UNL     1      -3.289   1.287   5.277  1.00  0.00     0.293 HD
ENDBRANCH   2  22
BRANCH   6  24
ATOM     24  O   UNL     1      -7.414  -0.144   2.393  1.00  0.00    -0.507 OA
ATOM     25  H   UNL     1      -7.600   0.843   2.301  1.00  0.00     0.293 HD
ENDBRANCH   6  24
BRANCH   8  26
ATOM     26  O   UNL     1      -6.124  -3.121  -1.125  1.00  0.00    -0.508 OA
ATOM     27  H   UNL     1      -6.440  -4.072  -0.977  1.00  0.00     0.293 HD
ENDBRANCH   8  26
TORSDOF 6
ENDMDL
