MODEL 1
REMARK VINA RESULT:    -4.218      0.000      0.000
REMARK INTER + INTRA:          -6.839
REMARK INTER:                  -6.437
REMARK INTRA:                  -0.402
REMARK UNBOUND:                -0.402
REMARK SMILES CCCCCCCCCCC(=O)[O-]
REMARK SMILES IDX 7 1 8 2 9 3 10 4 11 5 12 6 13 7 6 8 5 9 4 10 3 11 2 12 1 13
REMARK H PARENT
REMARK Flexibility Score: inf
ROOT
ATOM      1  C   UNL     1     -40.411 -34.778  38.213  1.00  0.00     0.000 C 
ENDROOT
BRANCH   1   2
ATOM      2  C   UNL     1     -39.350 -34.791  39.324  1.00  0.00     0.000 C 
BRANCH   2   3
ATOM      3  C   UNL     1     -38.964 -36.217  39.755  1.00  0.00     0.006 C 
BRANCH   3   4
ATOM      4  C   UNL     1     -38.765 -36.329  41.271  1.00  0.00     0.053 C 
BRANCH   4   5
ATOM      5  C   UNL     1     -38.289 -37.693  41.668  1.00  0.00     0.041 C 
ATOM      6  O   UNL     1     -37.496 -38.329  40.925  1.00  0.00    -0.550 OA
ATOM      7  O   UNL     1     -38.692 -38.246  42.877  1.00  0.00    -0.550 OA
ENDBRANCH   4   5
ENDBRANCH   3   4
ENDBRANCH   2   3
ENDBRANCH   1   2
BRANCH   1   8
ATOM      8  C   UNL     1     -39.948 -35.516  36.945  1.00  0.00     0.000 C 
BRANCH   8   9
ATOM      9  C   UNL     1     -41.122 -36.045  36.102  1.00  0.00    -0.000 C 
BRANCH   9  10
ATOM     10  C   UNL     1     -42.495 -35.435  36.447  1.00  0.00    -0.000 C 
BRANCH  10  11
ATOM     11  C   UNL     1     -43.678 -36.423  36.412  1.00  0.00    -0.000 C 
BRANCH  11  12
ATOM     12  C   UNL     1     -44.969 -35.911  37.074  1.00  0.00    -0.003 C 
ATOM     13  C   UNL     1     -45.255 -34.442  36.763  1.00  0.00     0.004 C 
ENDBRANCH  11  12
ENDBRANCH  10  11
ENDBRANCH   9  10
ENDBRANCH   8   9
ENDBRANCH   1   8
TORSDOF 9
ENDMDL
MODEL 2
REMARK VINA RESULT:    -4.206      3.987      6.265
REMARK INTER + INTRA:          -6.820
REMARK INTER:                  -5.909
REMARK INTRA:                  -0.911
REMARK UNBOUND:                -0.402
REMARK SMILES CCCCCCCCCCC(=O)[O-]
REMARK SMILES IDX 7 1 8 2 9 3 10 4 11 5 12 6 13 7 6 8 5 9 4 10 3 11 2 12 1 13
REMARK H PARENT
REMARK Flexibility Score: inf
ROOT
ATOM      1  C   UNL     1     -43.643 -33.055  39.110  1.00  0.00     0.000 C 
ENDROOT
BRANCH   1   2
ATOM      2  C   UNL     1     -43.915 -34.554  38.910  1.00  0.00     0.000 C 
BRANCH   2   3
ATOM      3  C   UNL     1     -43.651 -35.015  37.467  1.00  0.00     0.006 C 
BRANCH   3   4
ATOM      4  C   UNL     1     -44.949 -35.301  36.703  1.00  0.00     0.053 C 
BRANCH   4   5
ATOM      5  C   UNL     1     -45.390 -36.723  36.871  1.00  0.00     0.041 C 
ATOM      6  O   UNL     1     -46.539 -36.982  37.315  1.00  0.00    -0.550 OA
ATOM      7  O   UNL     1     -44.543 -37.761  36.503  1.00  0.00    -0.550 OA
ENDBRANCH   4   5
ENDBRANCH   3   4
ENDBRANCH   2   3
ENDBRANCH   1   2
BRANCH   1   8
ATOM      8  C   UNL     1     -42.265 -32.785  39.741  1.00  0.00     0.000 C 
BRANCH   8   9
ATOM      9  C   UNL     1     -41.266 -32.170  38.744  1.00  0.00    -0.000 C 
BRANCH   9  10
ATOM     10  C   UNL     1     -40.264 -33.168  38.130  1.00  0.00    -0.000 C 
BRANCH  10  11
ATOM     11  C   UNL     1     -40.053 -34.465  38.936  1.00  0.00    -0.000 C 
BRANCH  11  12
ATOM     12  C   UNL     1     -39.435 -35.628  38.141  1.00  0.00    -0.003 C 
ATOM     13  C   UNL     1     -40.014 -35.760  36.733  1.00  0.00     0.004 C 
ENDBRANCH  11  12
ENDBRANCH  10  11
ENDBRANCH   9  10
ENDBRANCH   8   9
ENDBRANCH   1   8
TORSDOF 9
ENDMDL
MODEL 3
REMARK VINA RESULT:    -4.186      6.400      7.644
REMARK INTER + INTRA:          -6.791
REMARK INTER:                  -5.559
REMARK INTRA:                  -1.232
REMARK UNBOUND:                -0.402
REMARK SMILES CCCCCCCCCCC(=O)[O-]
REMARK SMILES IDX 7 1 8 2 9 3 10 4 11 5 12 6 13 7 6 8 5 9 4 10 3 11 2 12 1 13
REMARK H PARENT
REMARK Flexibility Score: inf
ROOT
ATOM      1  C   UNL     1     -44.766 -34.876  36.516  1.00  0.00     0.000 C 
ENDROOT
BRANCH   1   2
ATOM      2  C   UNL     1     -44.291 -33.947  37.644  1.00  0.00     0.000 C 
BRANCH   2   3
ATOM      3  C   UNL     1     -45.339 -32.881  38.011  1.00  0.00     0.006 C 
BRANCH   3   4
ATOM      4  C   UNL     1     -46.677 -33.115  37.299  1.00  0.00     0.053 C 
BRANCH   4   5
ATOM      5  C   UNL     1     -47.184 -31.865  36.647  1.00  0.00     0.041 C 
ATOM      6  O   UNL     1     -46.374 -31.011  36.199  1.00  0.00    -0.550 OA
ATOM      7  O   UNL     1     -48.550 -31.661  36.502  1.00  0.00    -0.550 OA
ENDBRANCH   4   5
ENDBRANCH   3   4
ENDBRANCH   2   3
ENDBRANCH   1   2
BRANCH   1   8
ATOM      8  C   UNL     1     -44.012 -36.217  36.500  1.00  0.00     0.000 C 
BRANCH   8   9
ATOM      9  C   UNL     1     -44.940 -37.423  36.734  1.00  0.00    -0.000 C 
BRANCH   9  10
ATOM     10  C   UNL     1     -46.351 -37.068  37.244  1.00  0.00    -0.000 C 
BRANCH  10  11
ATOM     11  C   UNL     1     -46.627 -37.436  38.715  1.00  0.00    -0.000 C 
BRANCH  11  12
ATOM     12  C   UNL     1     -45.993 -36.490  39.749  1.00  0.00    -0.003 C 
ATOM     13  C   UNL     1     -46.969 -35.437  40.270  1.00  0.00     0.004 C 
ENDBRANCH  11  12
ENDBRANCH  10  11
ENDBRANCH   9  10
ENDBRANCH   8   9
ENDBRANCH   1   8
TORSDOF 9
ENDMDL
MODEL 4
REMARK VINA RESULT:    -4.164      3.843      6.509
REMARK INTER + INTRA:          -6.757
REMARK INTER:                  -5.939
REMARK INTRA:                  -0.818
REMARK UNBOUND:                -0.402
REMARK SMILES CCCCCCCCCCC(=O)[O-]
REMARK SMILES IDX 7 1 8 2 9 3 10 4 11 5 12 6 13 7 6 8 5 9 4 10 3 11 2 12 1 13
REMARK H PARENT
REMARK Flexibility Score: inf
ROOT
ATOM      1  C   UNL     1     -43.275 -35.292  37.248  1.00  0.00     0.000 C 
ENDROOT
BRANCH   1   2
ATOM      2  C   UNL     1     -44.693 -35.606  36.749  1.00  0.00     0.000 C 
BRANCH   2   3
ATOM      3  C   UNL     1     -45.087 -37.076  36.977  1.00  0.00     0.006 C 
BRANCH   3   4
ATOM      4  C   UNL     1     -46.523 -37.218  37.495  1.00  0.00     0.053 C 
BRANCH   4   5
ATOM      5  C   UNL     1     -46.686 -36.605  38.853  1.00  0.00     0.041 C 
ATOM      6  O   UNL     1     -47.489 -35.652  39.026  1.00  0.00    -0.550 OA
ATOM      7  O   UNL     1     -45.976 -37.113  39.933  1.00  0.00    -0.550 OA
ENDBRANCH   4   5
ENDBRANCH   3   4
ENDBRANCH   2   3
ENDBRANCH   1   2
BRANCH   1   8
ATOM      8  C   UNL     1     -43.209 -35.132  38.777  1.00  0.00     0.000 C 
BRANCH   8   9
ATOM      9  C   UNL     1     -42.430 -33.877  39.211  1.00  0.00    -0.000 C 
BRANCH   9  10
ATOM     10  C   UNL     1     -41.135 -33.610  38.418  1.00  0.00    -0.000 C 
BRANCH  10  11
ATOM     11  C   UNL     1     -39.864 -34.254  39.004  1.00  0.00    -0.000 C 
BRANCH  11  12
ATOM     12  C   UNL     1     -39.516 -35.638  38.431  1.00  0.00    -0.003 C 
ATOM     13  C   UNL     1     -39.543 -35.674  36.904  1.00  0.00     0.004 C 
ENDBRANCH  11  12
ENDBRANCH  10  11
ENDBRANCH   9  10
ENDBRANCH   8   9
ENDBRANCH   1   8
TORSDOF 9
ENDMDL
MODEL 5
REMARK VINA RESULT:    -4.146      2.705      4.136
REMARK INTER + INTRA:          -6.730
REMARK INTER:                  -5.863
REMARK INTRA:                  -0.867
REMARK UNBOUND:                -0.402
REMARK SMILES CCCCCCCCCCC(=O)[O-]
REMARK SMILES IDX 7 1 8 2 9 3 10 4 11 5 12 6 13 7 6 8 5 9 4 10 3 11 2 12 1 13
REMARK H PARENT
REMARK Flexibility Score: inf
ROOT
ATOM      1  C   UNL     1     -43.995 -34.482  37.545  1.00  0.00     0.000 C 
ENDROOT
BRANCH   1   2
ATOM      2  C   UNL     1     -43.278 -35.134  38.737  1.00  0.00     0.000 C 
BRANCH   2   3
ATOM      3  C   UNL     1     -42.000 -34.379  39.143  1.00  0.00     0.006 C 
BRANCH   3   4
ATOM      4  C   UNL     1     -41.036 -34.198  37.964  1.00  0.00     0.053 C 
BRANCH   4   5
ATOM      5  C   UNL     1     -40.030 -35.306  37.895  1.00  0.00     0.041 C 
ATOM      6  O   UNL     1     -39.545 -35.788  38.952  1.00  0.00    -0.550 OA
ATOM      7  O   UNL     1     -39.655 -35.829  36.665  1.00  0.00    -0.550 OA
ENDBRANCH   4   5
ENDBRANCH   3   4
ENDBRANCH   2   3
ENDBRANCH   1   2
BRANCH   1   8
ATOM      8  C   UNL     1     -44.036 -35.399  36.309  1.00  0.00     0.000 C 
BRANCH   8   9
ATOM      9  C   UNL     1     -44.406 -36.852  36.659  1.00  0.00    -0.000 C 
BRANCH   9  10
ATOM     10  C   UNL     1     -45.910 -37.101  36.892  1.00  0.00    -0.000 C 
BRANCH  10  11
ATOM     11  C   UNL     1     -46.276 -37.636  38.290  1.00  0.00    -0.000 C 
BRANCH  11  12
ATOM     12  C   UNL     1     -47.459 -36.922  38.967  1.00  0.00    -0.003 C 
ATOM     13  C   UNL     1     -47.222 -35.425  39.156  1.00  0.00     0.004 C 
ENDBRANCH  11  12
ENDBRANCH  10  11
ENDBRANCH   9  10
ENDBRANCH   8   9
ENDBRANCH   1   8
TORSDOF 9
ENDMDL
MODEL 6
REMARK VINA RESULT:    -4.111      4.716      7.052
REMARK INTER + INTRA:          -6.676
REMARK INTER:                  -5.519
REMARK INTRA:                  -1.157
REMARK UNBOUND:                -0.402
REMARK SMILES CCCCCCCCCCC(=O)[O-]
REMARK SMILES IDX 7 1 8 2 9 3 10 4 11 5 12 6 13 7 6 8 5 9 4 10 3 11 2 12 1 13
REMARK H PARENT
REMARK Flexibility Score: inf
ROOT
ATOM      1  C   UNL     1     -46.425 -37.254  37.299  1.00  0.00     0.000 C 
ENDROOT
BRANCH   1   2
ATOM      2  C   UNL     1     -46.639 -37.666  38.763  1.00  0.00     0.000 C 
BRANCH   2   3
ATOM      3  C   UNL     1     -46.497 -36.483  39.736  1.00  0.00     0.006 C 
BRANCH   3   4
ATOM      4  C   UNL     1     -47.725 -35.564  39.714  1.00  0.00     0.053 C 
BRANCH   4   5
ATOM      5  C   UNL     1     -47.335 -34.118  39.692  1.00  0.00     0.041 C 
ATOM      6  O   UNL     1     -46.493 -33.676  40.517  1.00  0.00    -0.550 OA
ATOM      7  O   UNL     1     -47.876 -33.266  38.738  1.00  0.00    -0.550 OA
ENDBRANCH   4   5
ENDBRANCH   3   4
ENDBRANCH   2   3
ENDBRANCH   1   2
BRANCH   1   8
ATOM      8  C   UNL     1     -45.034 -37.649  36.772  1.00  0.00     0.000 C 
BRANCH   8   9
ATOM      9  C   UNL     1     -44.142 -36.429  36.478  1.00  0.00    -0.000 C 
BRANCH   9  10
ATOM     10  C   UNL     1     -44.840 -35.063  36.628  1.00  0.00    -0.000 C 
BRANCH  10  11
ATOM     11  C   UNL     1     -44.290 -34.165  37.754  1.00  0.00    -0.000 C 
BRANCH  11  12
ATOM     12  C   UNL     1     -43.365 -34.878  38.755  1.00  0.00    -0.003 C 
ATOM     13  C   UNL     1     -41.913 -34.411  38.661  1.00  0.00     0.004 C 
ENDBRANCH  11  12
ENDBRANCH  10  11
ENDBRANCH   9  10
ENDBRANCH   8   9
ENDBRANCH   1   8
TORSDOF 9
ENDMDL
MODEL 7
REMARK VINA RESULT:    -4.108      3.728      5.647
REMARK INTER + INTRA:          -6.671
REMARK INTER:                  -5.438
REMARK INTRA:                  -1.234
REMARK UNBOUND:                -0.402
REMARK SMILES CCCCCCCCCCC(=O)[O-]
REMARK SMILES IDX 7 1 8 2 9 3 10 4 11 5 12 6 13 7 6 8 5 9 4 10 3 11 2 12 1 13
REMARK H PARENT
REMARK Flexibility Score: inf
ROOT
ATOM      1  C   UNL     1     -45.980 -36.827  37.059  1.00  0.00     0.000 C 
ENDROOT
BRANCH   1   2
ATOM      2  C   UNL     1     -44.510 -36.962  36.634  1.00  0.00     0.000 C 
BRANCH   2   3
ATOM      3  C   UNL     1     -43.840 -35.600  36.383  1.00  0.00     0.006 C 
BRANCH   3   4
ATOM      4  C   UNL     1     -42.828 -35.242  37.478  1.00  0.00     0.053 C 
BRANCH   4   5
ATOM      5  C   UNL     1     -41.419 -35.298  36.970  1.00  0.00     0.041 C 
ATOM      6  O   UNL     1     -41.137 -35.994  35.960  1.00  0.00    -0.550 OA
ATOM      7  O   UNL     1     -40.426 -34.552  37.591  1.00  0.00    -0.550 OA
ENDBRANCH   4   5
ENDBRANCH   3   4
ENDBRANCH   2   3
ENDBRANCH   1   2
BRANCH   1   8
ATOM      8  C   UNL     1     -46.253 -37.443  38.442  1.00  0.00     0.000 C 
BRANCH   8   9
ATOM      9  C   UNL     1     -46.446 -36.381  39.539  1.00  0.00    -0.000 C 
BRANCH   9  10
ATOM     10  C   UNL     1     -46.721 -34.955  39.022  1.00  0.00    -0.000 C 
BRANCH  10  11
ATOM     11  C   UNL     1     -45.669 -33.900  39.417  1.00  0.00    -0.000 C 
BRANCH  11  12
ATOM     12  C   UNL     1     -45.610 -32.669  38.497  1.00  0.00    -0.003 C 
ATOM     13  C   UNL     1     -46.191 -32.934  37.110  1.00  0.00     0.004 C 
ENDBRANCH  11  12
ENDBRANCH  10  11
ENDBRANCH   9  10
ENDBRANCH   8   9
ENDBRANCH   1   8
TORSDOF 9
ENDMDL
MODEL 8
REMARK VINA RESULT:    -4.054      4.437      5.726
REMARK INTER + INTRA:          -6.589
REMARK INTER:                  -5.480
REMARK INTRA:                  -1.109
REMARK UNBOUND:                -0.402
REMARK SMILES CCCCCCCCCCC(=O)[O-]
REMARK SMILES IDX 7 1 8 2 9 3 10 4 11 5 12 6 13 7 6 8 5 9 4 10 3 11 2 12 1 13
REMARK H PARENT
REMARK Flexibility Score: inf
ROOT
ATOM      1  C   UNL     1     -43.937 -35.810  36.498  1.00  0.00     0.000 C 
ENDROOT
BRANCH   1   2
ATOM      2  C   UNL     1     -45.030 -34.734  36.576  1.00  0.00     0.000 C 
BRANCH   2   3
ATOM      3  C   UNL     1     -44.845 -33.790  37.777  1.00  0.00     0.006 C 
BRANCH   3   4
ATOM      4  C   UNL     1     -43.757 -34.283  38.739  1.00  0.00     0.053 C 
BRANCH   4   5
ATOM      5  C   UNL     1     -43.002 -33.143  39.352  1.00  0.00     0.041 C 
ATOM      6  O   UNL     1     -42.874 -32.058  38.726  1.00  0.00    -0.550 OA
ATOM      7  O   UNL     1     -42.472 -33.268  40.629  1.00  0.00    -0.550 OA
ENDBRANCH   4   5
ENDBRANCH   3   4
ENDBRANCH   2   3
ENDBRANCH   1   2
BRANCH   1   8
ATOM      8  C   UNL     1     -44.511 -37.238  36.528  1.00  0.00     0.000 C 
BRANCH   8   9
ATOM      9  C   UNL     1     -46.011 -37.268  36.870  1.00  0.00    -0.000 C 
BRANCH   9  10
ATOM     10  C   UNL     1     -46.336 -37.610  38.338  1.00  0.00    -0.000 C 
BRANCH  10  11
ATOM     11  C   UNL     1     -47.523 -36.835  38.944  1.00  0.00    -0.000 C 
BRANCH  11  12
ATOM     12  C   UNL     1     -47.146 -35.835  40.049  1.00  0.00    -0.003 C 
ATOM     13  C   UNL     1     -47.858 -34.491  39.904  1.00  0.00     0.004 C 
ENDBRANCH  11  12
ENDBRANCH  10  11
ENDBRANCH   9  10
ENDBRANCH   8   9
ENDBRANCH   1   8
TORSDOF 9
ENDMDL
MODEL 9
REMARK VINA RESULT:    -4.036      4.432      6.831
REMARK INTER + INTRA:          -6.561
REMARK INTER:                  -5.804
REMARK INTRA:                  -0.757
REMARK UNBOUND:                -0.402
REMARK SMILES CCCCCCCCCCC(=O)[O-]
REMARK SMILES IDX 7 1 8 2 9 3 10 4 11 5 12 6 13 7 6 8 5 9 4 10 3 11 2 12 1 13
REMARK H PARENT
REMARK Flexibility Score: inf
ROOT
ATOM      1  C   UNL     1     -46.288 -36.825  37.616  1.00  0.00     0.000 C 
ENDROOT
BRANCH   1   2
ATOM      2  C   UNL     1     -46.031 -36.426  39.077  1.00  0.00     0.000 C 
BRANCH   2   3
ATOM      3  C   UNL     1     -46.634 -35.055  39.430  1.00  0.00     0.006 C 
BRANCH   3   4
ATOM      4  C   UNL     1     -45.588 -33.934  39.387  1.00  0.00     0.053 C 
BRANCH   4   5
ATOM      5  C   UNL     1     -45.772 -33.050  38.192  1.00  0.00     0.041 C 
ATOM      6  O   UNL     1     -44.801 -32.390  37.736  1.00  0.00    -0.550 OA
ATOM      7  O   UNL     1     -47.007 -32.983  37.560  1.00  0.00    -0.550 OA
ENDBRANCH   4   5
ENDBRANCH   3   4
ENDBRANCH   2   3
ENDBRANCH   1   2
BRANCH   1   8
ATOM      8  C   UNL     1     -44.986 -37.067  36.834  1.00  0.00     0.000 C 
BRANCH   8   9
ATOM      9  C   UNL     1     -44.297 -35.759  36.406  1.00  0.00    -0.000 C 
BRANCH   9  10
ATOM     10  C   UNL     1     -42.892 -35.540  37.000  1.00  0.00    -0.000 C 
BRANCH  10  11
ATOM     11  C   UNL     1     -41.721 -35.928  36.075  1.00  0.00    -0.000 C 
BRANCH  11  12
ATOM     12  C   UNL     1     -40.322 -35.632  36.643  1.00  0.00    -0.003 C 
ATOM     13  C   UNL     1     -40.364 -35.055  38.057  1.00  0.00     0.004 C 
ENDBRANCH  11  12
ENDBRANCH  10  11
ENDBRANCH   9  10
ENDBRANCH   8   9
ENDBRANCH   1   8
TORSDOF 9
ENDMDL
