MODEL 1
REMARK VINA RESULT:    -3.340      0.000      0.000
REMARK INTER + INTRA:          -6.076
REMARK INTER:                  -5.293
REMARK INTRA:                  -0.783
REMARK UNBOUND:                -0.783
REMARK SMILES CCCCCCCCCCCC(=O)[O-]
REMARK SMILES IDX 7 1 8 2 9 3 10 4 11 5 12 6 13 7 14 8 6 9 5 10 4 11 3 12 2 13
REMARK SMILES IDX 1 14
REMARK H PARENT
REMARK Flexibility Score: inf
ROOT
ATOM      1  C   UNL     1       6.664 -22.944 -17.604  1.00  0.00     0.000 C 
ENDROOT
BRANCH   1   2
ATOM      2  C   UNL     1       8.135 -23.089 -18.033  1.00  0.00     0.000 C 
BRANCH   2   3
ATOM      3  C   UNL     1       8.642 -21.883 -18.844  1.00  0.00     0.000 C 
BRANCH   3   4
ATOM      4  C   UNL     1       9.219 -22.291 -20.209  1.00  0.00     0.006 C 
BRANCH   4   5
ATOM      5  C   UNL     1       8.145 -22.399 -21.299  1.00  0.00     0.053 C 
BRANCH   5   6
ATOM      6  C   UNL     1       8.672 -21.889 -22.603  1.00  0.00     0.041 C 
ATOM      7  O   UNL     1       9.210 -20.752 -22.669  1.00  0.00    -0.550 OA
ATOM      8  O   UNL     1       8.615 -22.691 -23.736  1.00  0.00    -0.550 OA
ENDBRANCH   5   6
ENDBRANCH   4   5
ENDBRANCH   3   4
ENDBRANCH   2   3
ENDBRANCH   1   2
BRANCH   1   9
ATOM      9  C   UNL     1       6.448 -22.462 -16.154  1.00  0.00     0.000 C 
BRANCH   9  10
ATOM     10  C   UNL     1       6.204 -20.948 -15.998  1.00  0.00    -0.000 C 
BRANCH  10  11
ATOM     11  C   UNL     1       7.400 -20.152 -15.442  1.00  0.00    -0.000 C 
BRANCH  11  12
ATOM     12  C   UNL     1       8.563 -21.010 -14.906  1.00  0.00    -0.000 C 
BRANCH  12  13
ATOM     13  C   UNL     1       9.780 -20.212 -14.406  1.00  0.00    -0.003 C 
ATOM     14  C   UNL     1      11.062 -20.537 -15.170  1.00  0.00     0.004 C 
ENDBRANCH  12  13
ENDBRANCH  11  12
ENDBRANCH  10  11
ENDBRANCH   9  10
ENDBRANCH   1   9
TORSDOF 10
ENDMDL
MODEL 2
REMARK VINA RESULT:    -3.194      1.051      1.627
REMARK INTER + INTRA:          -5.844
REMARK INTER:                  -5.292
REMARK INTRA:                  -0.553
REMARK UNBOUND:                -0.783
REMARK SMILES CCCCCCCCCCCC(=O)[O-]
REMARK SMILES IDX 7 1 8 2 9 3 10 4 11 5 12 6 13 7 14 8 6 9 5 10 4 11 3 12 2 13
REMARK SMILES IDX 1 14
REMARK H PARENT
REMARK Flexibility Score: inf
ROOT
ATOM      1  C   UNL     1       8.113 -23.117 -17.853  1.00  0.00     0.000 C 
ENDROOT
BRANCH   1   2
ATOM      2  C   UNL     1       8.683 -22.971 -19.276  1.00  0.00     0.000 C 
BRANCH   2   3
ATOM      3  C   UNL     1       7.592 -23.003 -20.361  1.00  0.00     0.000 C 
BRANCH   3   4
ATOM      4  C   UNL     1       8.176 -22.980 -21.783  1.00  0.00     0.006 C 
BRANCH   4   5
ATOM      5  C   UNL     1       8.221 -21.569 -22.383  1.00  0.00     0.053 C 
BRANCH   5   6
ATOM      6  C   UNL     1       9.633 -21.083 -22.468  1.00  0.00     0.041 C 
ATOM      7  O   UNL     1      10.436 -21.605 -23.286  1.00  0.00    -0.550 OA
ATOM      8  O   UNL     1      10.050 -20.019 -21.678  1.00  0.00    -0.550 OA
ENDBRANCH   5   6
ENDBRANCH   4   5
ENDBRANCH   3   4
ENDBRANCH   2   3
ENDBRANCH   1   2
BRANCH   1   9
ATOM      9  C   UNL     1       6.886 -22.234 -17.544  1.00  0.00     0.000 C 
BRANCH   9  10
ATOM     10  C   UNL     1       7.213 -20.812 -17.045  1.00  0.00    -0.000 C 
BRANCH  10  11
ATOM     11  C   UNL     1       7.230 -20.650 -15.513  1.00  0.00    -0.000 C 
BRANCH  11  12
ATOM     12  C   UNL     1       8.514 -21.148 -14.818  1.00  0.00    -0.000 C 
BRANCH  12  13
ATOM     13  C   UNL     1       9.540 -20.048 -14.490  1.00  0.00    -0.003 C 
ATOM     14  C   UNL     1      10.956 -20.400 -14.941  1.00  0.00     0.004 C 
ENDBRANCH  12  13
ENDBRANCH  11  12
ENDBRANCH  10  11
ENDBRANCH   9  10
ENDBRANCH   1   9
TORSDOF 10
ENDMDL
MODEL 3
REMARK VINA RESULT:    -3.095      1.170      1.698
REMARK INTER + INTRA:          -5.688
REMARK INTER:                  -4.800
REMARK INTRA:                  -0.888
REMARK UNBOUND:                -0.783
REMARK SMILES CCCCCCCCCCCC(=O)[O-]
REMARK SMILES IDX 7 1 8 2 9 3 10 4 11 5 12 6 13 7 14 8 6 9 5 10 4 11 3 12 2 13
REMARK SMILES IDX 1 14
REMARK H PARENT
REMARK Flexibility Score: inf
ROOT
ATOM      1  C   UNL     1       8.309 -22.118 -18.254  1.00  0.00     0.000 C 
ENDROOT
BRANCH   1   2
ATOM      2  C   UNL     1       9.785 -22.283 -17.850  1.00  0.00     0.000 C 
BRANCH   2   3
ATOM      3  C   UNL     1      10.757 -21.677 -18.878  1.00  0.00     0.000 C 
BRANCH   3   4
ATOM      4  C   UNL     1      10.402 -22.064 -20.322  1.00  0.00     0.006 C 
BRANCH   4   5
ATOM      5  C   UNL     1      10.196 -20.843 -21.229  1.00  0.00     0.053 C 
BRANCH   5   6
ATOM      6  C   UNL     1       9.538 -21.250 -22.510  1.00  0.00     0.041 C 
ATOM      7  O   UNL     1      10.220 -21.757 -23.439  1.00  0.00    -0.550 OA
ATOM      8  O   UNL     1       8.164 -21.115 -22.658  1.00  0.00    -0.550 OA
ENDBRANCH   5   6
ENDBRANCH   4   5
ENDBRANCH   3   4
ENDBRANCH   2   3
ENDBRANCH   1   2
BRANCH   1   9
ATOM      9  C   UNL     1       7.312 -22.996 -17.471  1.00  0.00     0.000 C 
BRANCH   9  10
ATOM     10  C   UNL     1       6.513 -22.261 -16.377  1.00  0.00    -0.000 C 
BRANCH  10  11
ATOM     11  C   UNL     1       6.641 -20.726 -16.400  1.00  0.00    -0.000 C 
BRANCH  11  12
ATOM     12  C   UNL     1       7.384 -20.113 -15.195  1.00  0.00    -0.000 C 
BRANCH  12  13
ATOM     13  C   UNL     1       8.551 -20.959 -14.658  1.00  0.00    -0.003 C 
ATOM     14  C   UNL     1       9.863 -20.181 -14.576  1.00  0.00     0.004 C 
ENDBRANCH  12  13
ENDBRANCH  11  12
ENDBRANCH  10  11
ENDBRANCH   9  10
ENDBRANCH   1   9
TORSDOF 10
ENDMDL
MODEL 4
REMARK VINA RESULT:    -2.848      3.351      6.337
REMARK INTER + INTRA:          -5.297
REMARK INTER:                  -4.540
REMARK INTRA:                  -0.757
REMARK UNBOUND:                -0.783
REMARK SMILES CCCCCCCCCCCC(=O)[O-]
REMARK SMILES IDX 7 1 8 2 9 3 10 4 11 5 12 6 13 7 14 8 6 9 5 10 4 11 3 12 2 13
REMARK SMILES IDX 1 14
REMARK H PARENT
REMARK Flexibility Score: inf
ROOT
ATOM      1  C   UNL     1       6.953 -22.776 -18.799  1.00  0.00     0.000 C 
ENDROOT
BRANCH   1   2
ATOM      2  C   UNL     1       6.839 -23.037 -17.286  1.00  0.00     0.000 C 
BRANCH   2   3
ATOM      3  C   UNL     1       6.193 -21.865 -16.526  1.00  0.00     0.000 C 
BRANCH   3   4
ATOM      4  C   UNL     1       7.229 -20.851 -16.016  1.00  0.00     0.006 C 
BRANCH   4   5
ATOM      5  C   UNL     1       8.650 -21.426 -15.973  1.00  0.00     0.053 C 
BRANCH   5   6
ATOM      6  C   UNL     1       9.444 -20.774 -14.885  1.00  0.00     0.041 C 
ATOM      7  O   UNL     1       9.024 -20.786 -13.698  1.00  0.00    -0.550 OA
ATOM      8  O   UNL     1      10.674 -20.195 -15.174  1.00  0.00    -0.550 OA
ENDBRANCH   5   6
ENDBRANCH   4   5
ENDBRANCH   3   4
ENDBRANCH   2   3
ENDBRANCH   1   2
BRANCH   1   9
ATOM      9  C   UNL     1       8.377 -22.895 -19.380  1.00  0.00     0.000 C 
BRANCH   9  10
ATOM     10  C   UNL     1       9.162 -21.571 -19.464  1.00  0.00    -0.000 C 
BRANCH  10  11
ATOM     11  C   UNL     1       9.936 -21.358 -20.779  1.00  0.00    -0.000 C 
BRANCH  11  12
ATOM     12  C   UNL     1       9.232 -20.453 -21.811  1.00  0.00    -0.000 C 
BRANCH  12  13
ATOM     13  C   UNL     1       8.185 -21.164 -22.687  1.00  0.00    -0.003 C 
ATOM     14  C   UNL     1       8.721 -22.433 -23.346  1.00  0.00     0.004 C 
ENDBRANCH  12  13
ENDBRANCH  11  12
ENDBRANCH  10  11
ENDBRANCH   9  10
ENDBRANCH   1   9
TORSDOF 10
ENDMDL
MODEL 5
REMARK VINA RESULT:    -2.777      2.860      5.961
REMARK INTER + INTRA:          -5.183
REMARK INTER:                  -4.526
REMARK INTRA:                  -0.657
REMARK UNBOUND:                -0.783
REMARK SMILES CCCCCCCCCCCC(=O)[O-]
REMARK SMILES IDX 7 1 8 2 9 3 10 4 11 5 12 6 13 7 14 8 6 9 5 10 4 11 3 12 2 13
REMARK SMILES IDX 1 14
REMARK H PARENT
REMARK Flexibility Score: inf
ROOT
ATOM      1  C   UNL     1       5.674 -22.765 -17.400  1.00  0.00     0.000 C 
ENDROOT
BRANCH   1   2
ATOM      2  C   UNL     1       5.732 -21.806 -16.198  1.00  0.00     0.000 C 
BRANCH   2   3
ATOM      3  C   UNL     1       6.607 -20.568 -16.463  1.00  0.00     0.000 C 
BRANCH   3   4
ATOM      4  C   UNL     1       7.394 -20.126 -15.220  1.00  0.00     0.006 C 
BRANCH   4   5
ATOM      5  C   UNL     1       8.447 -21.155 -14.788  1.00  0.00     0.053 C 
BRANCH   5   6
ATOM      6  C   UNL     1       9.779 -20.818 -15.380  1.00  0.00     0.041 C 
ATOM      7  O   UNL     1      10.575 -20.063 -14.762  1.00  0.00    -0.550 OA
ATOM      8  O   UNL     1      10.162 -21.379 -16.592  1.00  0.00    -0.550 OA
ENDBRANCH   5   6
ENDBRANCH   4   5
ENDBRANCH   3   4
ENDBRANCH   2   3
ENDBRANCH   1   2
BRANCH   1   9
ATOM      9  C   UNL     1       7.040 -23.125 -18.019  1.00  0.00     0.000 C 
BRANCH   9  10
ATOM     10  C   UNL     1       7.126 -22.970 -19.550  1.00  0.00    -0.000 C 
BRANCH  10  11
ATOM     11  C   UNL     1       8.495 -22.500 -20.079  1.00  0.00    -0.000 C 
BRANCH  11  12
ATOM     12  C   UNL     1       8.784 -22.858 -21.551  1.00  0.00    -0.000 C 
BRANCH  12  13
ATOM     13  C   UNL     1       8.416 -21.763 -22.567  1.00  0.00    -0.003 C 
ATOM     14  C   UNL     1       9.059 -20.415 -22.250  1.00  0.00     0.004 C 
ENDBRANCH  12  13
ENDBRANCH  11  12
ENDBRANCH  10  11
ENDBRANCH   9  10
ENDBRANCH   1   9
TORSDOF 10
ENDMDL
MODEL 6
REMARK VINA RESULT:    -2.641      1.081      2.942
REMARK INTER + INTRA:          -4.968
REMARK INTER:                  -3.995
REMARK INTRA:                  -0.973
REMARK UNBOUND:                -0.783
REMARK SMILES CCCCCCCCCCCC(=O)[O-]
REMARK SMILES IDX 7 1 8 2 9 3 10 4 11 5 12 6 13 7 14 8 6 9 5 10 4 11 3 12 2 13
REMARK SMILES IDX 1 14
REMARK H PARENT
REMARK Flexibility Score: inf
ROOT
ATOM      1  C   UNL     1      11.065 -21.618 -16.381  1.00  0.00     0.000 C 
ENDROOT
BRANCH   1   2
ATOM      2  C   UNL     1      11.125 -21.520 -17.916  1.00  0.00     0.000 C 
BRANCH   2   3
ATOM      3  C   UNL     1       9.830 -22.000 -18.596  1.00  0.00     0.000 C 
BRANCH   3   4
ATOM      4  C   UNL     1      10.023 -22.287 -20.093  1.00  0.00     0.006 C 
BRANCH   4   5
ATOM      5  C   UNL     1       8.698 -22.320 -20.866  1.00  0.00     0.053 C 
BRANCH   5   6
ATOM      6  C   UNL     1       8.851 -21.646 -22.193  1.00  0.00     0.041 C 
ATOM      7  O   UNL     1       9.660 -20.690 -22.329  1.00  0.00    -0.550 OA
ATOM      8  O   UNL     1       8.137 -22.106 -23.292  1.00  0.00    -0.550 OA
ENDBRANCH   5   6
ENDBRANCH   4   5
ENDBRANCH   3   4
ENDBRANCH   2   3
ENDBRANCH   1   2
BRANCH   1   9
ATOM      9  C   UNL     1      11.057 -20.266 -15.638  1.00  0.00     0.000 C 
BRANCH   9  10
ATOM     10  C   UNL     1      10.085 -20.183 -14.444  1.00  0.00    -0.000 C 
BRANCH  10  11
ATOM     11  C   UNL     1       8.854 -21.104 -14.544  1.00  0.00    -0.000 C 
BRANCH  11  12
ATOM     12  C   UNL     1       7.634 -20.488 -15.259  1.00  0.00    -0.000 C 
BRANCH  12  13
ATOM     13  C   UNL     1       7.006 -21.377 -16.347  1.00  0.00    -0.003 C 
ATOM     14  C   UNL     1       7.249 -22.866 -16.115  1.00  0.00     0.004 C 
ENDBRANCH  12  13
ENDBRANCH  11  12
ENDBRANCH  10  11
ENDBRANCH   9  10
ENDBRANCH   1   9
TORSDOF 10
ENDMDL
MODEL 7
REMARK VINA RESULT:    -2.355      2.974      6.054
REMARK INTER + INTRA:          -4.515
REMARK INTER:                  -3.780
REMARK INTRA:                  -0.735
REMARK UNBOUND:                -0.783
REMARK SMILES CCCCCCCCCCCC(=O)[O-]
REMARK SMILES IDX 7 1 8 2 9 3 10 4 11 5 12 6 13 7 14 8 6 9 5 10 4 11 3 12 2 13
REMARK SMILES IDX 1 14
REMARK H PARENT
REMARK Flexibility Score: inf
ROOT
ATOM      1  C   UNL     1      11.015 -21.601 -17.561  1.00  0.00     0.000 C 
ENDROOT
BRANCH   1   2
ATOM      2  C   UNL     1      11.081 -21.586 -16.023  1.00  0.00     0.000 C 
BRANCH   2   3
ATOM      3  C   UNL     1      10.600 -20.255 -15.418  1.00  0.00     0.000 C 
BRANCH   3   4
ATOM      4  C   UNL     1       9.315 -20.414 -14.591  1.00  0.00     0.006 C 
BRANCH   4   5
ATOM      5  C   UNL     1       8.348 -21.443 -15.192  1.00  0.00     0.053 C 
BRANCH   5   6
ATOM      6  C   UNL     1       7.240 -20.753 -15.924  1.00  0.00     0.041 C 
ATOM      7  O   UNL     1       6.420 -20.030 -15.298  1.00  0.00    -0.550 OA
ATOM      8  O   UNL     1       7.144 -20.868 -17.305  1.00  0.00    -0.550 OA
ENDBRANCH   5   6
ENDBRANCH   4   5
ENDBRANCH   3   4
ENDBRANCH   2   3
ENDBRANCH   1   2
BRANCH   1   9
ATOM      9  C   UNL     1      10.448 -22.895 -18.180  1.00  0.00     0.000 C 
BRANCH   9  10
ATOM     10  C   UNL     1       9.280 -22.692 -19.165  1.00  0.00    -0.000 C 
BRANCH  10  11
ATOM     11  C   UNL     1       9.681 -22.678 -20.653  1.00  0.00    -0.000 C 
BRANCH  11  12
ATOM     12  C   UNL     1       8.766 -21.838 -21.568  1.00  0.00    -0.000 C 
BRANCH  12  13
ATOM     13  C   UNL     1       9.441 -20.615 -22.211  1.00  0.00    -0.003 C 
ATOM     14  C   UNL     1      10.751 -20.228 -21.528  1.00  0.00     0.004 C 
ENDBRANCH  12  13
ENDBRANCH  11  12
ENDBRANCH  10  11
ENDBRANCH   9  10
ENDBRANCH   1   9
TORSDOF 10
ENDMDL
MODEL 8
REMARK VINA RESULT:    -2.331      3.659      6.623
REMARK INTER + INTRA:          -4.477
REMARK INTER:                  -3.713
REMARK INTRA:                  -0.764
REMARK UNBOUND:                -0.783
REMARK SMILES CCCCCCCCCCCC(=O)[O-]
REMARK SMILES IDX 7 1 8 2 9 3 10 4 11 5 12 6 13 7 14 8 6 9 5 10 4 11 3 12 2 13
REMARK SMILES IDX 1 14
REMARK H PARENT
REMARK Flexibility Score: inf
ROOT
ATOM      1  C   UNL     1       8.660 -21.814 -19.195  1.00  0.00     0.000 C 
ENDROOT
BRANCH   1   2
ATOM      2  C   UNL     1       7.734 -22.784 -18.440  1.00  0.00     0.000 C 
BRANCH   2   3
ATOM      3  C   UNL     1       8.175 -23.021 -16.985  1.00  0.00     0.000 C 
BRANCH   3   4
ATOM      4  C   UNL     1       6.985 -23.125 -16.018  1.00  0.00     0.006 C 
BRANCH   4   5
ATOM      5  C   UNL     1       5.769 -22.316 -16.486  1.00  0.00     0.053 C 
BRANCH   5   6
ATOM      6  C   UNL     1       5.613 -21.081 -15.657  1.00  0.00     0.041 C 
ATOM      7  O   UNL     1       6.510 -20.197 -15.661  1.00  0.00    -0.550 OA
ATOM      8  O   UNL     1       4.454 -20.882 -14.917  1.00  0.00    -0.550 OA
ENDBRANCH   5   6
ENDBRANCH   4   5
ENDBRANCH   3   4
ENDBRANCH   2   3
ENDBRANCH   1   2
BRANCH   1   9
ATOM      9  C   UNL     1      10.168 -22.015 -18.940  1.00  0.00     0.000 C 
BRANCH   9  10
ATOM     10  C   UNL     1      11.059 -21.947 -20.196  1.00  0.00    -0.000 C 
BRANCH  10  11
ATOM     11  C   UNL     1      10.816 -23.069 -21.224  1.00  0.00    -0.000 C 
BRANCH  11  12
ATOM     12  C   UNL     1      10.706 -22.600 -22.689  1.00  0.00    -0.000 C 
BRANCH  12  13
ATOM     13  C   UNL     1       9.284 -22.635 -23.275  1.00  0.00    -0.003 C 
ATOM     14  C   UNL     1       8.391 -21.516 -22.743  1.00  0.00     0.004 C 
ENDBRANCH  12  13
ENDBRANCH  11  12
ENDBRANCH  10  11
ENDBRANCH   9  10
ENDBRANCH   1   9
TORSDOF 10
ENDMDL
MODEL 9
REMARK VINA RESULT:    -2.283      1.397      2.828
REMARK INTER + INTRA:          -4.401
REMARK INTER:                  -3.600
REMARK INTRA:                  -0.801
REMARK UNBOUND:                -0.783
REMARK SMILES CCCCCCCCCCCC(=O)[O-]
REMARK SMILES IDX 7 1 8 2 9 3 10 4 11 5 12 6 13 7 14 8 6 9 5 10 4 11 3 12 2 13
REMARK SMILES IDX 1 14
REMARK H PARENT
REMARK Flexibility Score: inf
ROOT
ATOM      1  C   UNL     1       8.661 -22.951 -17.175  1.00  0.00     0.000 C 
ENDROOT
BRANCH   1   2
ATOM      2  C   UNL     1       9.016 -23.067 -18.669  1.00  0.00     0.000 C 
BRANCH   2   3
ATOM      3  C   UNL     1       9.193 -21.697 -19.348  1.00  0.00     0.000 C 
BRANCH   3   4
ATOM      4  C   UNL     1      10.309 -21.704 -20.404  1.00  0.00     0.006 C 
BRANCH   4   5
ATOM      5  C   UNL     1      10.140 -22.824 -21.439  1.00  0.00     0.053 C 
BRANCH   5   6
ATOM      6  C   UNL     1       9.926 -22.247 -22.802  1.00  0.00     0.041 C 
ATOM      7  O   UNL     1       8.762 -22.148 -23.274  1.00  0.00    -0.550 OA
ATOM      8  O   UNL     1      11.008 -21.771 -23.533  1.00  0.00    -0.550 OA
ENDBRANCH   5   6
ENDBRANCH   4   5
ENDBRANCH   3   4
ENDBRANCH   2   3
ENDBRANCH   1   2
BRANCH   1   9
ATOM      9  C   UNL     1       9.139 -21.657 -16.486  1.00  0.00     0.000 C 
BRANCH   9  10
ATOM     10  C   UNL     1       8.332 -21.244 -15.239  1.00  0.00    -0.000 C 
BRANCH  10  11
ATOM     11  C   UNL     1       7.288 -20.137 -15.479  1.00  0.00    -0.000 C 
BRANCH  11  12
ATOM     12  C   UNL     1       6.105 -20.539 -16.384  1.00  0.00    -0.000 C 
BRANCH  12  13
ATOM     13  C   UNL     1       5.295 -21.750 -15.889  1.00  0.00    -0.003 C 
ATOM     14  C   UNL     1       5.185 -22.860 -16.931  1.00  0.00     0.004 C 
ENDBRANCH  12  13
ENDBRANCH  11  12
ENDBRANCH  10  11
ENDBRANCH   9  10
ENDBRANCH   1   9
TORSDOF 10
ENDMDL
