MODEL 1
REMARK VINA RESULT:     4.252      0.000      0.000
REMARK INTER + INTRA:           6.803
REMARK INTER:                   7.732
REMARK INTRA:                  -0.928
REMARK UNBOUND:                -0.928
REMARK SMILES CCCCCC=CCC=CCCCCCCCC(=O)[O-]
REMARK SMILES IDX 11 1 12 2 13 3 14 4 15 5 16 6 17 7 18 8 19 9 20 10 10 11
REMARK SMILES IDX 9 12 8 13 7 14 6 15 5 16 4 17 3 18 2 19 1 20
REMARK H PARENT
REMARK Flexibility Score: inf
ROOT
ATOM      1  C   UNL     1      30.966  18.630   5.308  1.00  0.00     0.027 C 
ENDROOT
BRANCH   1   2
ATOM      2  C   UNL     1      31.076  17.184   5.812  1.00  0.00     0.004 C 
BRANCH   2   3
ATOM      3  C   UNL     1      30.512  17.018   7.234  1.00  0.00     0.000 C 
BRANCH   3   4
ATOM      4  C   UNL     1      29.653  15.745   7.380  1.00  0.00     0.000 C 
BRANCH   4   5
ATOM      5  C   UNL     1      29.309  15.381   8.838  1.00  0.00     0.000 C 
BRANCH   5   6
ATOM      6  C   UNL     1      28.203  16.254   9.463  1.00  0.00     0.006 C 
BRANCH   6   7
ATOM      7  C   UNL     1      28.770  17.431  10.269  1.00  0.00     0.053 C 
BRANCH   7   8
ATOM      8  C   UNL     1      27.919  18.648  10.092  1.00  0.00     0.041 C 
ATOM      9  O   UNL     1      27.778  19.465  11.040  1.00  0.00    -0.550 OA
ATOM     10  O   UNL     1      27.250  18.860   8.894  1.00  0.00    -0.550 OA
ENDBRANCH   7   8
ENDBRANCH   6   7
ENDBRANCH   5   6
ENDBRANCH   4   5
ENDBRANCH   3   4
ENDBRANCH   2   3
ENDBRANCH   1   2
BRANCH   1  11
ATOM     11  C   UNL     1      30.076  18.752   4.099  1.00  0.00    -0.031 C 
ATOM     12  C   UNL     1      29.191  17.798   3.780  1.00  0.00    -0.027 C 
BRANCH  12  13
ATOM     13  C   UNL     1      28.301  17.951   2.577  1.00  0.00     0.054 C 
BRANCH  13  14
ATOM     14  C   UNL     1      28.864  18.961   1.610  1.00  0.00    -0.027 C 
ATOM     15  C   UNL     1      28.771  18.863   0.270  1.00  0.00    -0.031 C 
BRANCH  15  16
ATOM     16  C   UNL     1      28.044  17.759  -0.454  1.00  0.00     0.027 C 
BRANCH  16  17
ATOM     17  C   UNL     1      28.993  16.596  -0.772  1.00  0.00     0.004 C 
BRANCH  17  18
ATOM     18  C   UNL     1      28.518  15.746  -1.962  1.00  0.00     0.000 C 
BRANCH  18  19
ATOM     19  C   UNL     1      29.631  14.882  -2.591  1.00  0.00    -0.003 C 
ATOM     20  C   UNL     1      31.029  15.428  -2.302  1.00  0.00     0.004 C 
ENDBRANCH  18  19
ENDBRANCH  17  18
ENDBRANCH  16  17
ENDBRANCH  15  16
ENDBRANCH  13  14
ENDBRANCH  12  13
ENDBRANCH   1  11
TORSDOF 14
ENDMDL
MODEL 2
REMARK VINA RESULT:     4.536      4.164      9.622
REMARK INTER + INTRA:           7.319
REMARK INTER:                   6.774
REMARK INTRA:                   0.546
REMARK UNBOUND:                -0.928
REMARK SMILES CCCCCC=CCC=CCCCCCCCC(=O)[O-]
REMARK SMILES IDX 11 1 12 2 13 3 14 4 15 5 16 6 17 7 18 8 19 9 20 10 10 11
REMARK SMILES IDX 9 12 8 13 7 14 6 15 5 16 4 17 3 18 2 19 1 20
REMARK H PARENT
REMARK Flexibility Score: inf
ROOT
ATOM      1  C   UNL     1      30.970  18.036   4.672  1.00  0.00     0.027 C 
ENDROOT
BRANCH   1   2
ATOM      2  C   UNL     1      29.683  18.753   4.240  1.00  0.00     0.004 C 
BRANCH   2   3
ATOM      3  C   UNL     1      28.983  18.037   3.070  1.00  0.00     0.000 C 
BRANCH   3   4
ATOM      4  C   UNL     1      29.100  18.823   1.748  1.00  0.00     0.000 C 
BRANCH   4   5
ATOM      5  C   UNL     1      28.310  18.206   0.577  1.00  0.00     0.000 C 
BRANCH   5   6
ATOM      6  C   UNL     1      29.183  17.459  -0.451  1.00  0.00     0.006 C 
BRANCH   6   7
ATOM      7  C   UNL     1      28.386  16.427  -1.260  1.00  0.00     0.053 C 
BRANCH   7   8
ATOM      8  C   UNL     1      29.307  15.539  -2.033  1.00  0.00     0.041 C 
ATOM      9  O   UNL     1      28.851  14.554  -2.671  1.00  0.00    -0.550 OA
ATOM     10  O   UNL     1      30.677  15.772  -2.015  1.00  0.00    -0.550 OA
ENDBRANCH   7   8
ENDBRANCH   6   7
ENDBRANCH   5   6
ENDBRANCH   4   5
ENDBRANCH   3   4
ENDBRANCH   2   3
ENDBRANCH   1   2
BRANCH   1  11
ATOM     11  C   UNL     1      30.935  17.615   6.118  1.00  0.00    -0.031 C 
ATOM     12  C   UNL     1      30.222  16.556   6.524  1.00  0.00    -0.027 C 
BRANCH  12  13
ATOM     13  C   UNL     1      30.217  16.146   7.970  1.00  0.00     0.054 C 
BRANCH  13  14
ATOM     14  C   UNL     1      29.415  14.886   8.176  1.00  0.00    -0.027 C 
ATOM     15  C   UNL     1      28.340  14.793   8.983  1.00  0.00    -0.031 C 
BRANCH  15  16
ATOM     16  C   UNL     1      27.751  15.948   9.751  1.00  0.00     0.027 C 
BRANCH  16  17
ATOM     17  C   UNL     1      28.603  17.212   9.579  1.00  0.00     0.004 C 
BRANCH  17  18
ATOM     18  C   UNL     1      28.612  18.102  10.832  1.00  0.00     0.000 C 
BRANCH  18  19
ATOM     19  C   UNL     1      27.794  19.401  10.676  1.00  0.00    -0.003 C 
ATOM     20  C   UNL     1      26.997  19.438   9.373  1.00  0.00     0.004 C 
ENDBRANCH  18  19
ENDBRANCH  17  18
ENDBRANCH  16  17
ENDBRANCH  15  16
ENDBRANCH  13  14
ENDBRANCH  12  13
ENDBRANCH   1  11
TORSDOF 14
ENDMDL
MODEL 3
REMARK VINA RESULT:     4.765      4.086      9.843
REMARK INTER + INTRA:           7.736
REMARK INTER:                   8.547
REMARK INTRA:                  -0.811
REMARK UNBOUND:                -0.928
REMARK SMILES CCCCCC=CCC=CCCCCCCCC(=O)[O-]
REMARK SMILES IDX 11 1 12 2 13 3 14 4 15 5 16 6 17 7 18 8 19 9 20 10 10 11
REMARK SMILES IDX 9 12 8 13 7 14 6 15 5 16 4 17 3 18 2 19 1 20
REMARK H PARENT
REMARK Flexibility Score: inf
ROOT
ATOM      1  C   UNL     1      29.860  18.969   3.510  1.00  0.00     0.027 C 
ENDROOT
BRANCH   1   2
ATOM      2  C   UNL     1      28.844  18.319   2.560  1.00  0.00     0.004 C 
BRANCH   2   3
ATOM      3  C   UNL     1      29.184  18.574   1.080  1.00  0.00     0.000 C 
BRANCH   3   4
ATOM      4  C   UNL     1      27.923  18.764   0.213  1.00  0.00     0.000 C 
BRANCH   4   5
ATOM      5  C   UNL     1      27.710  17.659  -0.840  1.00  0.00     0.000 C 
BRANCH   5   6
ATOM      6  C   UNL     1      28.711  16.491  -0.741  1.00  0.00     0.006 C 
BRANCH   6   7
ATOM      7  C   UNL     1      28.743  15.635  -2.015  1.00  0.00     0.053 C 
BRANCH   7   8
ATOM      8  C   UNL     1      30.150  15.429  -2.475  1.00  0.00     0.041 C 
ATOM      9  O   UNL     1      30.383  15.078  -3.661  1.00  0.00    -0.550 OA
ATOM     10  O   UNL     1      31.204  15.584  -1.584  1.00  0.00    -0.550 OA
ENDBRANCH   7   8
ENDBRANCH   6   7
ENDBRANCH   5   6
ENDBRANCH   4   5
ENDBRANCH   3   4
ENDBRANCH   2   3
ENDBRANCH   1   2
BRANCH   1  11
ATOM     11  C   UNL     1      29.871  18.322   4.869  1.00  0.00    -0.031 C 
ATOM     12  C   UNL     1      30.970  17.729   5.356  1.00  0.00    -0.027 C 
BRANCH  12  13
ATOM     13  C   UNL     1      30.960  17.105   6.724  1.00  0.00     0.054 C 
BRANCH  13  14
ATOM     14  C   UNL     1      29.912  16.026   6.823  1.00  0.00    -0.027 C 
ATOM     15  C   UNL     1      29.305  15.659   7.967  1.00  0.00    -0.031 C 
BRANCH  15  16
ATOM     16  C   UNL     1      29.544  16.313   9.304  1.00  0.00     0.027 C 
BRANCH  16  17
ATOM     17  C   UNL     1      28.354  17.196   9.701  1.00  0.00     0.004 C 
BRANCH  17  18
ATOM     18  C   UNL     1      28.667  18.119  10.891  1.00  0.00     0.000 C 
BRANCH  18  19
ATOM     19  C   UNL     1      27.907  19.462  10.851  1.00  0.00    -0.003 C 
ATOM     20  C   UNL     1      27.004  19.587   9.624  1.00  0.00     0.004 C 
ENDBRANCH  18  19
ENDBRANCH  17  18
ENDBRANCH  16  17
ENDBRANCH  15  16
ENDBRANCH  13  14
ENDBRANCH  12  13
ENDBRANCH   1  11
TORSDOF 14
ENDMDL
MODEL 4
REMARK VINA RESULT:     4.837      0.878      1.580
REMARK INTER + INTRA:           7.868
REMARK INTER:                   8.486
REMARK INTRA:                  -0.618
REMARK UNBOUND:                -0.928
REMARK SMILES CCCCCC=CCC=CCCCCCCCC(=O)[O-]
REMARK SMILES IDX 11 1 12 2 13 3 14 4 15 5 16 6 17 7 18 8 19 9 20 10 10 11
REMARK SMILES IDX 9 12 8 13 7 14 6 15 5 16 4 17 3 18 2 19 1 20
REMARK H PARENT
REMARK Flexibility Score: inf
ROOT
ATOM      1  C   UNL     1      30.754  17.194   6.466  1.00  0.00     0.027 C 
ENDROOT
BRANCH   1   2
ATOM      2  C   UNL     1      29.687  16.126   6.747  1.00  0.00     0.004 C 
BRANCH   2   3
ATOM      3  C   UNL     1      29.919  15.412   8.091  1.00  0.00     0.000 C 
BRANCH   3   4
ATOM      4  C   UNL     1      28.597  15.025   8.785  1.00  0.00     0.000 C 
BRANCH   4   5
ATOM      5  C   UNL     1      28.016  16.129   9.692  1.00  0.00     0.000 C 
BRANCH   5   6
ATOM      6  C   UNL     1      28.906  17.381   9.812  1.00  0.00     0.006 C 
BRANCH   6   7
ATOM      7  C   UNL     1      28.461  18.312  10.948  1.00  0.00     0.053 C 
BRANCH   7   8
ATOM      8  C   UNL     1      27.621  19.428  10.415  1.00  0.00     0.041 C 
ATOM      9  O   UNL     1      27.040  19.308   9.305  1.00  0.00    -0.550 OA
ATOM     10  O   UNL     1      27.513  20.617  11.124  1.00  0.00    -0.550 OA
ENDBRANCH   7   8
ENDBRANCH   6   7
ENDBRANCH   5   6
ENDBRANCH   4   5
ENDBRANCH   3   4
ENDBRANCH   2   3
ENDBRANCH   1   2
BRANCH   1  11
ATOM     11  C   UNL     1      30.832  17.557   5.006  1.00  0.00    -0.031 C 
ATOM     12  C   UNL     1      30.003  18.459   4.461  1.00  0.00    -0.027 C 
BRANCH  12  13
ATOM     13  C   UNL     1      30.113  18.816   3.005  1.00  0.00     0.054 C 
BRANCH  13  14
ATOM     14  C   UNL     1      28.765  19.161   2.426  1.00  0.00    -0.027 C 
ATOM     15  C   UNL     1      28.287  18.667   1.268  1.00  0.00    -0.031 C 
BRANCH  15  16
ATOM     16  C   UNL     1      29.007  17.656   0.412  1.00  0.00     0.027 C 
BRANCH  16  17
ATOM     17  C   UNL     1      28.147  17.245  -0.789  1.00  0.00     0.004 C 
BRANCH  17  18
ATOM     18  C   UNL     1      28.667  15.979  -1.491  1.00  0.00     0.000 C 
BRANCH  18  19
ATOM     19  C   UNL     1      30.204  15.929  -1.623  1.00  0.00    -0.003 C 
ATOM     20  C   UNL     1      30.659  15.240  -2.909  1.00  0.00     0.004 C 
ENDBRANCH  18  19
ENDBRANCH  17  18
ENDBRANCH  16  17
ENDBRANCH  15  16
ENDBRANCH  13  14
ENDBRANCH  12  13
ENDBRANCH   1  11
TORSDOF 14
ENDMDL
MODEL 5
REMARK VINA RESULT:     5.024      4.208      9.531
REMARK INTER + INTRA:           8.208
REMARK INTER:                   9.027
REMARK INTRA:                  -0.820
REMARK UNBOUND:                -0.928
REMARK SMILES CCCCCC=CCC=CCCCCCCCC(=O)[O-]
REMARK SMILES IDX 11 1 12 2 13 3 14 4 15 5 16 6 17 7 18 8 19 9 20 10 10 11
REMARK SMILES IDX 9 12 8 13 7 14 6 15 5 16 4 17 3 18 2 19 1 20
REMARK H PARENT
REMARK Flexibility Score: inf
ROOT
ATOM      1  C   UNL     1      29.881  18.827   2.963  1.00  0.00     0.027 C 
ENDROOT
BRANCH   1   2
ATOM      2  C   UNL     1      28.750  18.213   2.126  1.00  0.00     0.004 C 
BRANCH   2   3
ATOM      3  C   UNL     1      28.327  19.126   0.961  1.00  0.00     0.000 C 
BRANCH   3   4
ATOM      4  C   UNL     1      27.832  18.326  -0.261  1.00  0.00     0.000 C 
BRANCH   4   5
ATOM      5  C   UNL     1      28.540  16.970  -0.456  1.00  0.00     0.000 C 
BRANCH   5   6
ATOM      6  C   UNL     1      28.097  16.202  -1.718  1.00  0.00     0.006 C 
BRANCH   6   7
ATOM      7  C   UNL     1      28.986  14.985  -2.006  1.00  0.00     0.053 C 
BRANCH   7   8
ATOM      8  C   UNL     1      30.332  15.420  -2.492  1.00  0.00     0.041 C 
ATOM      9  O   UNL     1      30.489  15.771  -3.690  1.00  0.00    -0.550 OA
ATOM     10  O   UNL     1      31.422  15.398  -1.632  1.00  0.00    -0.550 OA
ENDBRANCH   7   8
ENDBRANCH   6   7
ENDBRANCH   5   6
ENDBRANCH   4   5
ENDBRANCH   3   4
ENDBRANCH   2   3
ENDBRANCH   1   2
BRANCH   1  11
ATOM     11  C   UNL     1      29.846  18.368   4.398  1.00  0.00    -0.031 C 
ATOM     12  C   UNL     1      30.958  17.982   5.039  1.00  0.00    -0.027 C 
BRANCH  12  13
ATOM     13  C   UNL     1      30.899  17.545   6.476  1.00  0.00     0.054 C 
BRANCH  13  14
ATOM     14  C   UNL     1      30.286  16.174   6.604  1.00  0.00    -0.027 C 
ATOM     15  C   UNL     1      29.644  15.729   7.701  1.00  0.00    -0.031 C 
BRANCH  15  16
ATOM     16  C   UNL     1      29.396  16.556   8.936  1.00  0.00     0.027 C 
BRANCH  16  17
ATOM     17  C   UNL     1      28.246  15.969   9.765  1.00  0.00     0.004 C 
BRANCH  17  18
ATOM     18  C   UNL     1      27.844  14.555   9.313  1.00  0.00     0.000 C 
BRANCH  18  19
ATOM     19  C   UNL     1      26.334  14.400   9.031  1.00  0.00    -0.003 C 
ATOM     20  C   UNL     1      26.009  13.106   8.287  1.00  0.00     0.004 C 
ENDBRANCH  18  19
ENDBRANCH  17  18
ENDBRANCH  16  17
ENDBRANCH  15  16
ENDBRANCH  13  14
ENDBRANCH  12  13
ENDBRANCH   1  11
TORSDOF 14
ENDMDL
MODEL 6
REMARK VINA RESULT:     5.101      1.866      2.279
REMARK INTER + INTRA:           8.347
REMARK INTER:                   8.891
REMARK INTRA:                  -0.544
REMARK UNBOUND:                -0.928
REMARK SMILES CCCCCC=CCC=CCCCCCCCC(=O)[O-]
REMARK SMILES IDX 11 1 12 2 13 3 14 4 15 5 16 6 17 7 18 8 19 9 20 10 10 11
REMARK SMILES IDX 9 12 8 13 7 14 6 15 5 16 4 17 3 18 2 19 1 20
REMARK H PARENT
REMARK Flexibility Score: inf
ROOT
ATOM      1  C   UNL     1      30.759  18.693   5.391  1.00  0.00     0.027 C 
ENDROOT
BRANCH   1   2
ATOM      2  C   UNL     1      31.070  17.293   5.940  1.00  0.00     0.004 C 
BRANCH   2   3
ATOM      3  C   UNL     1      29.881  16.692   6.710  1.00  0.00     0.000 C 
BRANCH   3   4
ATOM      4  C   UNL     1      30.286  16.178   8.107  1.00  0.00     0.000 C 
BRANCH   4   5
ATOM      5  C   UNL     1      29.447  16.762   9.261  1.00  0.00     0.000 C 
BRANCH   5   6
ATOM      6  C   UNL     1      28.060  16.110   9.426  1.00  0.00     0.006 C 
BRANCH   6   7
ATOM      7  C   UNL     1      28.076  14.609   9.108  1.00  0.00     0.053 C 
BRANCH   7   8
ATOM      8  C   UNL     1      26.691  14.114   8.836  1.00  0.00     0.041 C 
ATOM      9  O   UNL     1      25.700  14.684   9.362  1.00  0.00    -0.550 OA
ATOM     10  O   UNL     1      26.497  12.997   8.034  1.00  0.00    -0.550 OA
ENDBRANCH   7   8
ENDBRANCH   6   7
ENDBRANCH   5   6
ENDBRANCH   4   5
ENDBRANCH   3   4
ENDBRANCH   2   3
ENDBRANCH   1   2
BRANCH   1  11
ATOM     11  C   UNL     1      30.061  18.645   4.057  1.00  0.00    -0.031 C 
ATOM     12  C   UNL     1      29.043  17.805   3.827  1.00  0.00    -0.027 C 
BRANCH  12  13
ATOM     13  C   UNL     1      28.351  17.789   2.492  1.00  0.00     0.054 C 
BRANCH  13  14
ATOM     14  C   UNL     1      28.923  18.836   1.570  1.00  0.00    -0.027 C 
ATOM     15  C   UNL     1      28.804  18.814   0.229  1.00  0.00    -0.031 C 
BRANCH  15  16
ATOM     16  C   UNL     1      28.035  17.770  -0.540  1.00  0.00     0.027 C 
BRANCH  16  17
ATOM     17  C   UNL     1      28.850  16.477  -0.671  1.00  0.00     0.004 C 
BRANCH  17  18
ATOM     18  C   UNL     1      28.559  15.716  -1.975  1.00  0.00     0.000 C 
BRANCH  18  19
ATOM     19  C   UNL     1      29.827  15.327  -2.763  1.00  0.00    -0.003 C 
ATOM     20  C   UNL     1      31.082  15.330  -1.891  1.00  0.00     0.004 C 
ENDBRANCH  18  19
ENDBRANCH  17  18
ENDBRANCH  16  17
ENDBRANCH  15  16
ENDBRANCH  13  14
ENDBRANCH  12  13
ENDBRANCH   1  11
TORSDOF 14
ENDMDL
MODEL 7
REMARK VINA RESULT:     5.334      4.334      9.306
REMARK INTER + INTRA:           8.770
REMARK INTER:                   9.564
REMARK INTRA:                  -0.794
REMARK UNBOUND:                -0.928
REMARK SMILES CCCCCC=CCC=CCCCCCCCC(=O)[O-]
REMARK SMILES IDX 11 1 12 2 13 3 14 4 15 5 16 6 17 7 18 8 19 9 20 10 10 11
REMARK SMILES IDX 9 12 8 13 7 14 6 15 5 16 4 17 3 18 2 19 1 20
REMARK H PARENT
REMARK Flexibility Score: inf
ROOT
ATOM      1  C   UNL     1      30.839  18.650   4.405  1.00  0.00     0.027 C 
ENDROOT
BRANCH   1   2
ATOM      2  C   UNL     1      29.434  18.592   3.788  1.00  0.00     0.004 C 
BRANCH   2   3
ATOM      3  C   UNL     1      29.456  18.834   2.268  1.00  0.00     0.000 C 
BRANCH   3   4
ATOM      4  C   UNL     1      28.532  17.862   1.506  1.00  0.00     0.000 C 
BRANCH   4   5
ATOM      5  C   UNL     1      28.116  18.355   0.105  1.00  0.00     0.000 C 
BRANCH   5   6
ATOM      6  C   UNL     1      28.199  17.276  -0.993  1.00  0.00     0.006 C 
BRANCH   6   7
ATOM      7  C   UNL     1      29.432  16.377  -0.841  1.00  0.00     0.053 C 
BRANCH   7   8
ATOM      8  C   UNL     1      29.603  15.510  -2.047  1.00  0.00     0.041 C 
ATOM      9  O   UNL     1      28.602  14.963  -2.581  1.00  0.00    -0.550 OA
ATOM     10  O   UNL     1      30.872  15.271  -2.559  1.00  0.00    -0.550 OA
ENDBRANCH   7   8
ENDBRANCH   6   7
ENDBRANCH   5   6
ENDBRANCH   4   5
ENDBRANCH   3   4
ENDBRANCH   2   3
ENDBRANCH   1   2
BRANCH   1  11
ATOM     11  C   UNL     1      31.047  17.596   5.460  1.00  0.00    -0.031 C 
ATOM     12  C   UNL     1      30.050  17.200   6.264  1.00  0.00    -0.027 C 
BRANCH  12  13
ATOM     13  C   UNL     1      30.279  16.133   7.298  1.00  0.00     0.054 C 
BRANCH  13  14
ATOM     14  C   UNL     1      30.524  16.736   8.658  1.00  0.00    -0.027 C 
ATOM     15  C   UNL     1      29.573  16.902   9.597  1.00  0.00    -0.031 C 
BRANCH  15  16
ATOM     16  C   UNL     1      28.141  16.460   9.445  1.00  0.00     0.027 C 
BRANCH  16  17
ATOM     17  C   UNL     1      28.007  14.949   9.679  1.00  0.00     0.004 C 
BRANCH  17  18
ATOM     18  C   UNL     1      27.285  14.228   8.530  1.00  0.00     0.000 C 
BRANCH  18  19
ATOM     19  C   UNL     1      25.833  13.824   8.865  1.00  0.00    -0.003 C 
ATOM     20  C   UNL     1      25.286  12.763   7.911  1.00  0.00     0.004 C 
ENDBRANCH  18  19
ENDBRANCH  17  18
ENDBRANCH  16  17
ENDBRANCH  15  16
ENDBRANCH  13  14
ENDBRANCH  12  13
ENDBRANCH   1  11
TORSDOF 14
ENDMDL
MODEL 8
REMARK VINA RESULT:     6.804      5.282      9.525
REMARK INTER + INTRA:          11.445
REMARK INTER:                  11.996
REMARK INTRA:                  -0.551
REMARK UNBOUND:                -0.928
REMARK SMILES CCCCCC=CCC=CCCCCCCCC(=O)[O-]
REMARK SMILES IDX 11 1 12 2 13 3 14 4 15 5 16 6 17 7 18 8 19 9 20 10 10 11
REMARK SMILES IDX 9 12 8 13 7 14 6 15 5 16 4 17 3 18 2 19 1 20
REMARK H PARENT
REMARK Flexibility Score: inf
ROOT
ATOM      1  C   UNL     1      29.560  16.433   8.821  1.00  0.00     0.027 C 
ENDROOT
BRANCH   1   2
ATOM      2  C   UNL     1      29.894  16.320   7.327  1.00  0.00     0.004 C 
BRANCH   2   3
ATOM      3  C   UNL     1      31.016  17.285   6.906  1.00  0.00     0.000 C 
BRANCH   3   4
ATOM      4  C   UNL     1      30.970  17.616   5.400  1.00  0.00     0.000 C 
BRANCH   4   5
ATOM      5  C   UNL     1      29.642  18.245   4.932  1.00  0.00     0.000 C 
BRANCH   5   6
ATOM      6  C   UNL     1      29.663  18.756   3.478  1.00  0.00     0.006 C 
BRANCH   6   7
ATOM      7  C   UNL     1      28.701  17.980   2.569  1.00  0.00     0.053 C 
BRANCH   7   8
ATOM      8  C   UNL     1      28.886  18.383   1.141  1.00  0.00     0.041 C 
ATOM      9  O   UNL     1      29.654  19.336   0.847  1.00  0.00    -0.550 OA
ATOM     10  O   UNL     1      28.178  17.735   0.138  1.00  0.00    -0.550 OA
ENDBRANCH   7   8
ENDBRANCH   6   7
ENDBRANCH   5   6
ENDBRANCH   4   5
ENDBRANCH   3   4
ENDBRANCH   2   3
ENDBRANCH   1   2
BRANCH   1  11
ATOM     11  C   UNL     1      28.209  15.857   9.154  1.00  0.00    -0.031 C 
ATOM     12  C   UNL     1      27.883  14.598   8.832  1.00  0.00    -0.027 C 
BRANCH  12  13
ATOM     13  C   UNL     1      26.533  14.041   9.190  1.00  0.00     0.054 C 
BRANCH  13  14
ATOM     14  C   UNL     1      25.961  13.229   8.057  1.00  0.00    -0.027 C 
ATOM     15  C   UNL     1      24.803  12.544   8.123  1.00  0.00    -0.031 C 
BRANCH  15  16
ATOM     16  C   UNL     1      23.886  12.536   9.318  1.00  0.00     0.027 C 
BRANCH  16  17
ATOM     17  C   UNL     1      22.650  11.668   9.053  1.00  0.00     0.004 C 
BRANCH  17  18
ATOM     18  C   UNL     1      22.446  10.576  10.117  1.00  0.00     0.000 C 
BRANCH  18  19
ATOM     19  C   UNL     1      21.361   9.543   9.747  1.00  0.00    -0.003 C 
ATOM     20  C   UNL     1      21.816   8.105   9.989  1.00  0.00     0.004 C 
ENDBRANCH  18  19
ENDBRANCH  17  18
ENDBRANCH  16  17
ENDBRANCH  15  16
ENDBRANCH  13  14
ENDBRANCH  12  13
ENDBRANCH   1  11
TORSDOF 14
ENDMDL
