MODEL 1
REMARK VINA RESULT:    -5.059      0.000      0.000
REMARK INTER + INTRA:         -12.213
REMARK INTER:                  -9.790
REMARK INTRA:                  -2.423
REMARK UNBOUND:                -2.423
REMARK SMILES CCCCCCCCCCCCCCCCCC(=O)[O-]
REMARK SMILES IDX 10 1 11 2 12 3 13 4 14 5 15 6 16 7 17 8 18 9 19 10 20 11
REMARK SMILES IDX 9 12 8 13 7 14 6 15 5 16 4 17 3 18 2 19 1 20
REMARK H PARENT
REMARK Flexibility Score: inf
ROOT
ATOM      1  C   UNL     1      -6.733   7.909 -10.686  1.00  0.00     0.000 C 
ENDROOT
BRANCH   1   2
ATOM      2  C   UNL     1      -6.559   9.287 -11.346  1.00  0.00     0.000 C 
BRANCH   2   3
ATOM      3  C   UNL     1      -7.062  10.436 -10.455  1.00  0.00     0.000 C 
BRANCH   3   4
ATOM      4  C   UNL     1      -5.955  11.013  -9.556  1.00  0.00     0.000 C 
BRANCH   4   5
ATOM      5  C   UNL     1      -6.229  10.789  -8.058  1.00  0.00     0.000 C 
BRANCH   5   6
ATOM      6  C   UNL     1      -5.196   9.861  -7.401  1.00  0.00     0.000 C 
BRANCH   6   7
ATOM      7  C   UNL     1      -4.136   9.359  -8.397  1.00  0.00     0.006 C 
BRANCH   7   8
ATOM      8  C   UNL     1      -3.962   7.835  -8.338  1.00  0.00     0.053 C 
BRANCH   8   9
ATOM      9  C   UNL     1      -3.480   7.383  -6.993  1.00  0.00     0.041 C 
ATOM     10  O   UNL     1      -2.477   7.928  -6.462  1.00  0.00    -0.550 OA
ATOM     11  O   UNL     1      -4.123   6.338  -6.340  1.00  0.00    -0.550 OA
ENDBRANCH   8   9
ENDBRANCH   7   8
ENDBRANCH   6   7
ENDBRANCH   5   6
ENDBRANCH   4   5
ENDBRANCH   3   4
ENDBRANCH   2   3
ENDBRANCH   1   2
BRANCH   1  12
ATOM     12  C   UNL     1      -7.793   7.919  -9.570  1.00  0.00     0.000 C 
BRANCH  12  13
ATOM     13  C   UNL     1      -7.687   6.697  -8.643  1.00  0.00    -0.000 C 
BRANCH  13  14
ATOM     14  C   UNL     1      -7.760   7.077  -7.152  1.00  0.00    -0.000 C 
BRANCH  14  15
ATOM     15  C   UNL     1      -9.085   6.650  -6.500  1.00  0.00    -0.000 C 
BRANCH  15  16
ATOM     16  C   UNL     1     -10.045   5.982  -7.500  1.00  0.00    -0.000 C 
BRANCH  16  17
ATOM     17  C   UNL     1     -10.527   4.597  -7.032  1.00  0.00    -0.000 C 
BRANCH  17  18
ATOM     18  C   UNL     1     -10.639   3.536  -8.142  1.00  0.00    -0.000 C 
BRANCH  18  19
ATOM     19  C   UNL     1      -9.794   3.871  -9.380  1.00  0.00    -0.003 C 
ATOM     20  C   UNL     1      -8.432   3.187  -9.317  1.00  0.00     0.004 C 
ENDBRANCH  18  19
ENDBRANCH  17  18
ENDBRANCH  16  17
ENDBRANCH  15  16
ENDBRANCH  14  15
ENDBRANCH  13  14
ENDBRANCH  12  13
ENDBRANCH   1  12
TORSDOF 16
ENDMDL
MODEL 2
REMARK VINA RESULT:    -4.952      1.137      2.086
REMARK INTER + INTRA:         -12.006
REMARK INTER:                  -9.801
REMARK INTRA:                  -2.205
REMARK UNBOUND:                -2.423
REMARK SMILES CCCCCCCCCCCCCCCCCC(=O)[O-]
REMARK SMILES IDX 10 1 11 2 12 3 13 4 14 5 15 6 16 7 17 8 18 9 19 10 20 11
REMARK SMILES IDX 9 12 8 13 7 14 6 15 5 16 4 17 3 18 2 19 1 20
REMARK H PARENT
REMARK Flexibility Score: inf
ROOT
ATOM      1  C   UNL     1      -6.868   8.852 -11.196  1.00  0.00     0.000 C 
ENDROOT
BRANCH   1   2
ATOM      2  C   UNL     1      -8.228   9.491 -10.872  1.00  0.00     0.000 C 
BRANCH   2   3
ATOM      3  C   UNL     1      -8.090  10.893 -10.253  1.00  0.00     0.000 C 
BRANCH   3   4
ATOM      4  C   UNL     1      -7.272  10.885  -8.951  1.00  0.00     0.000 C 
BRANCH   4   5
ATOM      5  C   UNL     1      -5.950  11.664  -9.076  1.00  0.00     0.000 C 
BRANCH   5   6
ATOM      6  C   UNL     1      -4.724  10.739  -9.137  1.00  0.00     0.000 C 
BRANCH   6   7
ATOM      7  C   UNL     1      -4.729   9.678  -8.024  1.00  0.00     0.006 C 
BRANCH   7   8
ATOM      8  C   UNL     1      -3.801   8.498  -8.344  1.00  0.00     0.053 C 
BRANCH   8   9
ATOM      9  C   UNL     1      -3.835   7.456  -7.268  1.00  0.00     0.041 C 
ATOM     10  O   UNL     1      -2.862   7.325  -6.481  1.00  0.00    -0.550 OA
ATOM     11  O   UNL     1      -4.932   6.610  -7.154  1.00  0.00    -0.550 OA
ENDBRANCH   8   9
ENDBRANCH   7   8
ENDBRANCH   6   7
ENDBRANCH   5   6
ENDBRANCH   4   5
ENDBRANCH   3   4
ENDBRANCH   2   3
ENDBRANCH   1   2
BRANCH   1  12
ATOM     12  C   UNL     1      -6.631   7.544 -10.421  1.00  0.00     0.000 C 
BRANCH  12  13
ATOM     13  C   UNL     1      -7.792   7.199  -9.473  1.00  0.00    -0.000 C 
BRANCH  13  14
ATOM     14  C   UNL     1      -7.741   5.741  -8.980  1.00  0.00    -0.000 C 
BRANCH  14  15
ATOM     15  C   UNL     1      -9.093   5.023  -9.126  1.00  0.00    -0.000 C 
BRANCH  15  16
ATOM     16  C   UNL     1     -10.286   5.989  -9.025  1.00  0.00    -0.000 C 
BRANCH  16  17
ATOM     17  C   UNL     1     -10.871   6.070  -7.602  1.00  0.00    -0.000 C 
BRANCH  17  18
ATOM     18  C   UNL     1     -10.537   4.875  -6.691  1.00  0.00    -0.000 C 
BRANCH  18  19
ATOM     19  C   UNL     1      -9.964   5.298  -5.331  1.00  0.00    -0.003 C 
ATOM     20  C   UNL     1      -8.916   6.395  -5.493  1.00  0.00     0.004 C 
ENDBRANCH  18  19
ENDBRANCH  17  18
ENDBRANCH  16  17
ENDBRANCH  15  16
ENDBRANCH  14  15
ENDBRANCH  13  14
ENDBRANCH  12  13
ENDBRANCH   1  12
TORSDOF 16
ENDMDL
MODEL 3
REMARK VINA RESULT:    -4.908      2.455      6.410
REMARK INTER + INTRA:         -11.922
REMARK INTER:                  -9.628
REMARK INTRA:                  -2.294
REMARK UNBOUND:                -2.423
REMARK SMILES CCCCCCCCCCCCCCCCCC(=O)[O-]
REMARK SMILES IDX 10 1 11 2 12 3 13 4 14 5 15 6 16 7 17 8 18 9 19 10 20 11
REMARK SMILES IDX 9 12 8 13 7 14 6 15 5 16 4 17 3 18 2 19 1 20
REMARK H PARENT
REMARK Flexibility Score: inf
ROOT
ATOM      1  C   UNL     1      -5.470   6.253  -8.138  1.00  0.00     0.000 C 
ENDROOT
BRANCH   1   2
ATOM      2  C   UNL     1      -6.894   6.401  -8.698  1.00  0.00     0.000 C 
BRANCH   2   3
ATOM      3  C   UNL     1      -7.927   6.729  -7.605  1.00  0.00     0.000 C 
BRANCH   3   4
ATOM      4  C   UNL     1      -9.358   6.343  -8.013  1.00  0.00     0.000 C 
BRANCH   4   5
ATOM      5  C   UNL     1      -9.555   6.318  -9.539  1.00  0.00     0.000 C 
BRANCH   5   6
ATOM      6  C   UNL     1     -10.746   5.446  -9.968  1.00  0.00     0.000 C 
BRANCH   6   7
ATOM      7  C   UNL     1     -10.930   4.215  -9.064  1.00  0.00     0.006 C 
BRANCH   7   8
ATOM      8  C   UNL     1     -10.344   2.943  -9.691  1.00  0.00     0.053 C 
BRANCH   8   9
ATOM      9  C   UNL     1      -9.058   2.542  -9.036  1.00  0.00     0.041 C 
ATOM     10  O   UNL     1      -7.988   3.143  -9.315  1.00  0.00    -0.550 OA
ATOM     11  O   UNL     1      -9.038   1.482  -8.136  1.00  0.00    -0.550 OA
ENDBRANCH   8   9
ENDBRANCH   7   8
ENDBRANCH   6   7
ENDBRANCH   5   6
ENDBRANCH   4   5
ENDBRANCH   3   4
ENDBRANCH   2   3
ENDBRANCH   1   2
BRANCH   1  12
ATOM     12  C   UNL     1      -4.535   7.387  -8.597  1.00  0.00     0.000 C 
BRANCH  12  13
ATOM     13  C   UNL     1      -3.617   7.890  -7.471  1.00  0.00    -0.000 C 
BRANCH  13  14
ATOM     14  C   UNL     1      -3.779   9.398  -7.203  1.00  0.00    -0.000 C 
BRANCH  14  15
ATOM     15  C   UNL     1      -5.149   9.931  -7.654  1.00  0.00    -0.000 C 
BRANCH  15  16
ATOM     16  C   UNL     1      -5.032  10.997  -8.758  1.00  0.00    -0.000 C 
BRANCH  16  17
ATOM     17  C   UNL     1      -6.343  11.192  -9.543  1.00  0.00    -0.000 C 
BRANCH  17  18
ATOM     18  C   UNL     1      -7.390  10.081  -9.348  1.00  0.00    -0.000 C 
BRANCH  18  19
ATOM     19  C   UNL     1      -7.825   9.428 -10.668  1.00  0.00    -0.003 C 
ATOM     20  C   UNL     1      -6.649   9.298 -11.631  1.00  0.00     0.004 C 
ENDBRANCH  18  19
ENDBRANCH  17  18
ENDBRANCH  16  17
ENDBRANCH  15  16
ENDBRANCH  14  15
ENDBRANCH  13  14
ENDBRANCH  12  13
ENDBRANCH   1  12
TORSDOF 16
ENDMDL
MODEL 4
REMARK VINA RESULT:    -4.892      2.590      5.943
REMARK INTER + INTRA:         -11.891
REMARK INTER:                  -9.826
REMARK INTRA:                  -2.065
REMARK UNBOUND:                -2.423
REMARK SMILES CCCCCCCCCCCCCCCCCC(=O)[O-]
REMARK SMILES IDX 10 1 11 2 12 3 13 4 14 5 15 6 16 7 17 8 18 9 19 10 20 11
REMARK SMILES IDX 9 12 8 13 7 14 6 15 5 16 4 17 3 18 2 19 1 20
REMARK H PARENT
REMARK Flexibility Score: inf
ROOT
ATOM      1  C   UNL     1      -8.033  11.493  -9.427  1.00  0.00     0.000 C 
ENDROOT
BRANCH   1   2
ATOM      2  C   UNL     1      -7.633  10.812 -10.745  1.00  0.00     0.000 C 
BRANCH   2   3
ATOM      3  C   UNL     1      -7.891   9.295 -10.728  1.00  0.00     0.000 C 
BRANCH   3   4
ATOM      4  C   UNL     1      -6.661   8.483 -11.166  1.00  0.00     0.000 C 
BRANCH   4   5
ATOM      5  C   UNL     1      -6.297   7.370 -10.167  1.00  0.00     0.000 C 
BRANCH   5   6
ATOM      6  C   UNL     1      -7.506   6.895  -9.345  1.00  0.00     0.000 C 
BRANCH   6   7
ATOM      7  C   UNL     1      -7.103   6.361  -7.959  1.00  0.00     0.006 C 
BRANCH   7   8
ATOM      8  C   UNL     1      -7.611   7.260  -6.824  1.00  0.00     0.053 C 
BRANCH   8   9
ATOM      9  C   UNL     1      -8.746   6.628  -6.079  1.00  0.00     0.041 C 
ATOM     10  O   UNL     1      -8.649   6.401  -4.845  1.00  0.00    -0.550 OA
ATOM     11  O   UNL     1      -9.904   6.262  -6.757  1.00  0.00    -0.550 OA
ENDBRANCH   8   9
ENDBRANCH   7   8
ENDBRANCH   6   7
ENDBRANCH   5   6
ENDBRANCH   4   5
ENDBRANCH   3   4
ENDBRANCH   2   3
ENDBRANCH   1   2
BRANCH   1  12
ATOM     12  C   UNL     1      -6.824  12.076  -8.673  1.00  0.00     0.000 C 
BRANCH  12  13
ATOM     13  C   UNL     1      -5.515  11.952  -9.469  1.00  0.00    -0.000 C 
BRANCH  13  14
ATOM     14  C   UNL     1      -4.695  10.711  -9.071  1.00  0.00    -0.000 C 
BRANCH  14  15
ATOM     15  C   UNL     1      -5.310   9.955  -7.881  1.00  0.00    -0.000 C 
BRANCH  15  16
ATOM     16  C   UNL     1      -4.244   9.412  -6.914  1.00  0.00    -0.000 C 
BRANCH  16  17
ATOM     17  C   UNL     1      -3.615   8.093  -7.397  1.00  0.00    -0.000 C 
BRANCH  17  18
ATOM     18  C   UNL     1      -2.540   7.503  -6.466  1.00  0.00    -0.000 C 
BRANCH  18  19
ATOM     19  C   UNL     1      -1.465   8.524  -6.067  1.00  0.00    -0.003 C 
ATOM     20  C   UNL     1      -0.413   7.891  -5.164  1.00  0.00     0.004 C 
ENDBRANCH  18  19
ENDBRANCH  17  18
ENDBRANCH  16  17
ENDBRANCH  15  16
ENDBRANCH  14  15
ENDBRANCH  13  14
ENDBRANCH  12  13
ENDBRANCH   1  12
TORSDOF 16
ENDMDL
MODEL 5
REMARK VINA RESULT:    -4.874      2.670      3.972
REMARK INTER + INTRA:         -11.856
REMARK INTER:                  -9.810
REMARK INTRA:                  -2.045
REMARK UNBOUND:                -2.423
REMARK SMILES CCCCCCCCCCCCCCCCCC(=O)[O-]
REMARK SMILES IDX 10 1 11 2 12 3 13 4 14 5 15 6 16 7 17 8 18 9 19 10 20 11
REMARK SMILES IDX 9 12 8 13 7 14 6 15 5 16 4 17 3 18 2 19 1 20
REMARK H PARENT
REMARK Flexibility Score: inf
ROOT
ATOM      1  C   UNL     1      -5.293   6.087  -7.238  1.00  0.00     0.000 C 
ENDROOT
BRANCH   1   2
ATOM      2  C   UNL     1      -3.915   6.615  -6.808  1.00  0.00     0.000 C 
BRANCH   2   3
ATOM      3  C   UNL     1      -3.481   7.855  -7.609  1.00  0.00     0.000 C 
BRANCH   3   4
ATOM      4  C   UNL     1      -3.946   9.169  -6.959  1.00  0.00     0.000 C 
BRANCH   4   5
ATOM      5  C   UNL     1      -4.793  10.034  -7.909  1.00  0.00     0.000 C 
BRANCH   5   6
ATOM      6  C   UNL     1      -4.644   9.616  -9.381  1.00  0.00     0.000 C 
BRANCH   6   7
ATOM      7  C   UNL     1      -5.414  10.543 -10.338  1.00  0.00     0.006 C 
BRANCH   7   8
ATOM      8  C   UNL     1      -6.556   9.812 -11.056  1.00  0.00     0.053 C 
BRANCH   8   9
ATOM      9  C   UNL     1      -7.896  10.201 -10.509  1.00  0.00     0.041 C 
ATOM     10  O   UNL     1      -8.031  11.274  -9.864  1.00  0.00    -0.550 OA
ATOM     11  O   UNL     1      -8.990   9.363 -10.688  1.00  0.00    -0.550 OA
ENDBRANCH   8   9
ENDBRANCH   7   8
ENDBRANCH   6   7
ENDBRANCH   5   6
ENDBRANCH   4   5
ENDBRANCH   3   4
ENDBRANCH   2   3
ENDBRANCH   1   2
BRANCH   1  12
ATOM     12  C   UNL     1      -5.463   6.058  -8.767  1.00  0.00     0.000 C 
BRANCH  12  13
ATOM     13  C   UNL     1      -6.730   6.793  -9.236  1.00  0.00    -0.000 C 
BRANCH  13  14
ATOM     14  C   UNL     1      -7.676   7.143  -8.073  1.00  0.00    -0.000 C 
BRANCH  14  15
ATOM     15  C   UNL     1      -9.011   6.382  -8.151  1.00  0.00    -0.000 C 
BRANCH  15  16
ATOM     16  C   UNL     1      -9.173   5.613  -9.474  1.00  0.00    -0.000 C 
BRANCH  16  17
ATOM     17  C   UNL     1     -10.637   5.538  -9.945  1.00  0.00    -0.000 C 
BRANCH  17  18
ATOM     18  C   UNL     1     -11.125   4.132 -10.339  1.00  0.00    -0.000 C 
BRANCH  18  19
ATOM     19  C   UNL     1     -10.386   3.010  -9.595  1.00  0.00    -0.003 C 
ATOM     20  C   UNL     1     -11.106   1.675  -9.756  1.00  0.00     0.004 C 
ENDBRANCH  18  19
ENDBRANCH  17  18
ENDBRANCH  16  17
ENDBRANCH  15  16
ENDBRANCH  14  15
ENDBRANCH  13  14
ENDBRANCH  12  13
ENDBRANCH   1  12
TORSDOF 16
ENDMDL
MODEL 6
REMARK VINA RESULT:    -4.833      1.399      1.958
REMARK INTER + INTRA:         -11.775
REMARK INTER:                 -10.139
REMARK INTRA:                  -1.636
REMARK UNBOUND:                -2.423
REMARK SMILES CCCCCCCCCCCCCCCCCC(=O)[O-]
REMARK SMILES IDX 10 1 11 2 12 3 13 4 14 5 15 6 16 7 17 8 18 9 19 10 20 11
REMARK SMILES IDX 9 12 8 13 7 14 6 15 5 16 4 17 3 18 2 19 1 20
REMARK H PARENT
REMARK Flexibility Score: inf
ROOT
ATOM      1  C   UNL     1      -6.708   7.748 -10.358  1.00  0.00     0.000 C 
ENDROOT
BRANCH   1   2
ATOM      2  C   UNL     1      -6.623   8.974 -11.282  1.00  0.00     0.000 C 
BRANCH   2   3
ATOM      3  C   UNL     1      -7.022  10.279 -10.570  1.00  0.00     0.000 C 
BRANCH   3   4
ATOM      4  C   UNL     1      -5.889  10.845  -9.699  1.00  0.00     0.000 C 
BRANCH   4   5
ATOM      5  C   UNL     1      -6.218  10.804  -8.196  1.00  0.00     0.000 C 
BRANCH   5   6
ATOM      6  C   UNL     1      -5.470   9.684  -7.457  1.00  0.00     0.000 C 
BRANCH   6   7
ATOM      7  C   UNL     1      -4.116   9.350  -8.108  1.00  0.00     0.006 C 
BRANCH   7   8
ATOM      8  C   UNL     1      -3.912   7.839  -8.279  1.00  0.00     0.053 C 
BRANCH   8   9
ATOM      9  C   UNL     1      -3.561   7.175  -6.983  1.00  0.00     0.041 C 
ATOM     10  O   UNL     1      -2.539   7.534  -6.342  1.00  0.00    -0.550 OA
ATOM     11  O   UNL     1      -4.350   6.139  -6.496  1.00  0.00    -0.550 OA
ENDBRANCH   8   9
ENDBRANCH   7   8
ENDBRANCH   6   7
ENDBRANCH   5   6
ENDBRANCH   4   5
ENDBRANCH   3   4
ENDBRANCH   2   3
ENDBRANCH   1   2
BRANCH   1  12
ATOM     12  C   UNL     1      -7.979   7.749  -9.491  1.00  0.00     0.000 C 
BRANCH  12  13
ATOM     13  C   UNL     1      -8.010   6.589  -8.482  1.00  0.00    -0.000 C 
BRANCH  13  14
ATOM     14  C   UNL     1      -8.306   5.233  -9.148  1.00  0.00    -0.000 C 
BRANCH  14  15
ATOM     15  C   UNL     1      -9.787   5.079  -9.537  1.00  0.00    -0.000 C 
BRANCH  15  16
ATOM     16  C   UNL     1     -10.202   3.607  -9.701  1.00  0.00    -0.000 C 
BRANCH  16  17
ATOM     17  C   UNL     1     -10.092   2.805  -8.390  1.00  0.00    -0.000 C 
BRANCH  17  18
ATOM     18  C   UNL     1      -9.117   1.615  -8.434  1.00  0.00    -0.000 C 
BRANCH  18  19
ATOM     19  C   UNL     1      -9.788   0.276  -8.098  1.00  0.00    -0.003 C 
ATOM     20  C   UNL     1      -9.416  -0.189  -6.694  1.00  0.00     0.004 C 
ENDBRANCH  18  19
ENDBRANCH  17  18
ENDBRANCH  16  17
ENDBRANCH  15  16
ENDBRANCH  14  15
ENDBRANCH  13  14
ENDBRANCH  12  13
ENDBRANCH   1  12
TORSDOF 16
ENDMDL
MODEL 7
REMARK VINA RESULT:    -4.722      2.934      6.789
REMARK INTER + INTRA:         -11.561
REMARK INTER:                  -9.641
REMARK INTRA:                  -1.920
REMARK UNBOUND:                -2.423
REMARK SMILES CCCCCCCCCCCCCCCCCC(=O)[O-]
REMARK SMILES IDX 10 1 11 2 12 3 13 4 14 5 15 6 16 7 17 8 18 9 19 10 20 11
REMARK SMILES IDX 9 12 8 13 7 14 6 15 5 16 4 17 3 18 2 19 1 20
REMARK H PARENT
REMARK Flexibility Score: inf
ROOT
ATOM      1  C   UNL     1      -6.691   6.595  -9.082  1.00  0.00     0.000 C 
ENDROOT
BRANCH   1   2
ATOM      2  C   UNL     1      -7.613   6.990  -7.917  1.00  0.00     0.000 C 
BRANCH   2   3
ATOM      3  C   UNL     1      -9.005   6.343  -8.020  1.00  0.00     0.000 C 
BRANCH   3   4
ATOM      4  C   UNL     1      -9.452   6.134  -9.476  1.00  0.00     0.000 C 
BRANCH   4   5
ATOM      5  C   UNL     1     -10.402   4.935  -9.640  1.00  0.00     0.000 C 
BRANCH   5   6
ATOM      6  C   UNL     1      -9.682   3.585  -9.490  1.00  0.00     0.000 C 
BRANCH   6   7
ATOM      7  C   UNL     1     -10.534   2.542  -8.746  1.00  0.00     0.006 C 
BRANCH   7   8
ATOM      8  C   UNL     1     -10.948   3.023  -7.349  1.00  0.00     0.053 C 
BRANCH   8   9
ATOM      9  C   UNL     1     -10.387   2.147  -6.271  1.00  0.00     0.041 C 
ATOM     10  O   UNL     1      -9.905   1.019  -6.555  1.00  0.00    -0.550 OA
ATOM     11  O   UNL     1     -10.424   2.566  -4.946  1.00  0.00    -0.550 OA
ENDBRANCH   8   9
ENDBRANCH   7   8
ENDBRANCH   6   7
ENDBRANCH   5   6
ENDBRANCH   4   5
ENDBRANCH   3   4
ENDBRANCH   2   3
ENDBRANCH   1   2
BRANCH   1  12
ATOM     12  C   UNL     1      -5.235   6.373  -8.634  1.00  0.00     0.000 C 
BRANCH  12  13
ATOM     13  C   UNL     1      -4.381   7.646  -8.742  1.00  0.00    -0.000 C 
BRANCH  13  14
ATOM     14  C   UNL     1      -4.153   8.325  -7.378  1.00  0.00    -0.000 C 
BRANCH  14  15
ATOM     15  C   UNL     1      -4.352   9.849  -7.438  1.00  0.00    -0.000 C 
BRANCH  15  16
ATOM     16  C   UNL     1      -5.778  10.240  -7.862  1.00  0.00    -0.000 C 
BRANCH  16  17
ATOM     17  C   UNL     1      -5.858  10.716  -9.325  1.00  0.00    -0.000 C 
BRANCH  17  18
ATOM     18  C   UNL     1      -7.282  10.830  -9.897  1.00  0.00    -0.000 C 
BRANCH  18  19
ATOM     19  C   UNL     1      -7.686   9.616 -10.746  1.00  0.00    -0.003 C 
ATOM     20  C   UNL     1      -6.599   9.264 -11.757  1.00  0.00     0.004 C 
ENDBRANCH  18  19
ENDBRANCH  17  18
ENDBRANCH  16  17
ENDBRANCH  15  16
ENDBRANCH  14  15
ENDBRANCH  13  14
ENDBRANCH  12  13
ENDBRANCH   1  12
TORSDOF 16
ENDMDL
MODEL 8
REMARK VINA RESULT:    -4.708      2.856      6.839
REMARK INTER + INTRA:         -11.534
REMARK INTER:                  -9.311
REMARK INTRA:                  -2.223
REMARK UNBOUND:                -2.423
REMARK SMILES CCCCCCCCCCCCCCCCCC(=O)[O-]
REMARK SMILES IDX 10 1 11 2 12 3 13 4 14 5 15 6 16 7 17 8 18 9 19 10 20 11
REMARK SMILES IDX 9 12 8 13 7 14 6 15 5 16 4 17 3 18 2 19 1 20
REMARK H PARENT
REMARK Flexibility Score: inf
ROOT
ATOM      1  C   UNL     1      -7.466   6.624  -8.914  1.00  0.00     0.000 C 
ENDROOT
BRANCH   1   2
ATOM      2  C   UNL     1      -7.641   7.455  -7.632  1.00  0.00     0.000 C 
BRANCH   2   3
ATOM      3  C   UNL     1      -8.380   6.683  -6.524  1.00  0.00     0.000 C 
BRANCH   3   4
ATOM      4  C   UNL     1      -9.877   6.506  -6.827  1.00  0.00     0.000 C 
BRANCH   4   5
ATOM      5  C   UNL     1     -10.257   5.040  -7.101  1.00  0.00     0.000 C 
BRANCH   5   6
ATOM      6  C   UNL     1     -10.680   4.801  -8.559  1.00  0.00     0.000 C 
BRANCH   6   7
ATOM      7  C   UNL     1      -9.800   3.754  -9.264  1.00  0.00     0.006 C 
BRANCH   7   8
ATOM      8  C   UNL     1     -10.577   2.472  -9.594  1.00  0.00     0.053 C 
BRANCH   8   9
ATOM      9  C   UNL     1     -10.016   1.282  -8.878  1.00  0.00     0.041 C 
ATOM     10  O   UNL     1      -8.958   1.387  -8.204  1.00  0.00    -0.550 OA
ATOM     11  O   UNL     1     -10.649   0.048  -8.979  1.00  0.00    -0.550 OA
ENDBRANCH   8   9
ENDBRANCH   7   8
ENDBRANCH   6   7
ENDBRANCH   5   6
ENDBRANCH   4   5
ENDBRANCH   3   4
ENDBRANCH   2   3
ENDBRANCH   1   2
BRANCH   1  12
ATOM     12  C   UNL     1      -5.986   6.372  -9.255  1.00  0.00     0.000 C 
BRANCH  12  13
ATOM     13  C   UNL     1      -5.035   6.813  -8.131  1.00  0.00    -0.000 C 
BRANCH  13  14
ATOM     14  C   UNL     1      -4.082   7.940  -8.569  1.00  0.00    -0.000 C 
BRANCH  14  15
ATOM     15  C   UNL     1      -4.073   9.120  -7.582  1.00  0.00    -0.000 C 
BRANCH  15  16
ATOM     16  C   UNL     1      -4.776  10.366  -8.148  1.00  0.00    -0.000 C 
BRANCH  16  17
ATOM     17  C   UNL     1      -5.297  10.159  -9.583  1.00  0.00    -0.000 C 
BRANCH  17  18
ATOM     18  C   UNL     1      -6.737  10.642  -9.830  1.00  0.00    -0.000 C 
BRANCH  18  19
ATOM     19  C   UNL     1      -7.484   9.795 -10.870  1.00  0.00    -0.003 C 
ATOM     20  C   UNL     1      -6.517   9.179 -11.876  1.00  0.00     0.004 C 
ENDBRANCH  18  19
ENDBRANCH  17  18
ENDBRANCH  16  17
ENDBRANCH  15  16
ENDBRANCH  14  15
ENDBRANCH  13  14
ENDBRANCH  12  13
ENDBRANCH   1  12
TORSDOF 16
ENDMDL
MODEL 9
REMARK VINA RESULT:    -4.706     12.971     15.707
REMARK INTER + INTRA:         -11.530
REMARK INTER:                  -9.303
REMARK INTRA:                  -2.227
REMARK UNBOUND:                -2.423
REMARK SMILES CCCCCCCCCCCCCCCCCC(=O)[O-]
REMARK SMILES IDX 10 1 11 2 12 3 13 4 14 5 15 6 16 7 17 8 18 9 19 10 20 11
REMARK SMILES IDX 9 12 8 13 7 14 6 15 5 16 4 17 3 18 2 19 1 20
REMARK H PARENT
REMARK Flexibility Score: inf
ROOT
ATOM      1  C   UNL     1       4.984  11.101 -15.897  1.00  0.00     0.000 C 
ENDROOT
BRANCH   1   2
ATOM      2  C   UNL     1       6.493  11.308 -16.106  1.00  0.00     0.000 C 
BRANCH   2   3
ATOM      3  C   UNL     1       6.815  12.635 -16.816  1.00  0.00     0.000 C 
BRANCH   3   4
ATOM      4  C   UNL     1       5.553  13.359 -17.313  1.00  0.00     0.000 C 
BRANCH   4   5
ATOM      5  C   UNL     1       5.181  14.570 -16.440  1.00  0.00     0.000 C 
BRANCH   5   6
ATOM      6  C   UNL     1       3.712  14.990 -16.607  1.00  0.00     0.000 C 
BRANCH   6   7
ATOM      7  C   UNL     1       2.848  13.878 -17.226  1.00  0.00     0.006 C 
BRANCH   7   8
ATOM      8  C   UNL     1       1.931  13.213 -16.190  1.00  0.00     0.053 C 
BRANCH   8   9
ATOM      9  C   UNL     1       1.454  11.870 -16.651  1.00  0.00     0.041 C 
ATOM     10  O   UNL     1       1.360  11.617 -17.880  1.00  0.00    -0.550 OA
ATOM     11  O   UNL     1       1.086  10.906 -15.720  1.00  0.00    -0.550 OA
ENDBRANCH   8   9
ENDBRANCH   7   8
ENDBRANCH   6   7
ENDBRANCH   5   6
ENDBRANCH   4   5
ENDBRANCH   3   4
ENDBRANCH   2   3
ENDBRANCH   1   2
BRANCH   1  12
ATOM     12  C   UNL     1       4.588  11.112 -14.410  1.00  0.00     0.000 C 
BRANCH  12  13
ATOM     13  C   UNL     1       5.774  11.423 -13.483  1.00  0.00    -0.000 C 
BRANCH  13  14
ATOM     14  C   UNL     1       5.781  12.886 -13.001  1.00  0.00    -0.000 C 
BRANCH  14  15
ATOM     15  C   UNL     1       7.158  13.552 -13.167  1.00  0.00    -0.000 C 
BRANCH  15  16
ATOM     16  C   UNL     1       7.876  13.762 -11.822  1.00  0.00    -0.000 C 
BRANCH  16  17
ATOM     17  C   UNL     1       8.834  12.610 -11.470  1.00  0.00    -0.000 C 
BRANCH  17  18
ATOM     18  C   UNL     1       8.381  11.719 -10.299  1.00  0.00    -0.000 C 
BRANCH  18  19
ATOM     19  C   UNL     1       8.797  10.251 -10.466  1.00  0.00    -0.003 C 
ATOM     20  C   UNL     1       7.991   9.573 -11.570  1.00  0.00     0.004 C 
ENDBRANCH  18  19
ENDBRANCH  17  18
ENDBRANCH  16  17
ENDBRANCH  15  16
ENDBRANCH  14  15
ENDBRANCH  13  14
ENDBRANCH  12  13
ENDBRANCH   1  12
TORSDOF 16
ENDMDL
