MODEL 1
REMARK VINA RESULT:    -2.746      0.000      0.000
REMARK INTER + INTRA:          -2.987
REMARK INTER:                  -2.987
REMARK INTRA:                   0.000
REMARK UNBOUND:                 0.000
REMARK SMILES [NH3+]CC(=O)[O-]
REMARK SMILES IDX 2 1 1 2 3 6 4 7 5 8
REMARK H PARENT 1 3 1 4 1 5
REMARK Flexibility Score: inf
ROOT
ATOM      1  C   UNL     1       2.778  -3.645  15.754  1.00  0.00     0.312 C 
ENDROOT
BRANCH   1   2
ATOM      2  N   UNL     1       2.407  -4.298  14.500  1.00  0.00    -0.353 N 
ATOM      3  H   UNL     1       3.110  -4.076  13.758  1.00  0.00     0.344 HD
ATOM      4  H   UNL     1       2.351  -5.334  14.637  1.00  0.00     0.344 HD
ATOM      5  H   UNL     1       1.469  -3.946  14.195  1.00  0.00     0.344 HD
ENDBRANCH   1   2
BRANCH   1   6
ATOM      6  C   UNL     1       3.084  -2.197  15.525  1.00  0.00     0.096 C 
ATOM      7  O   UNL     1       2.824  -1.346  16.416  1.00  0.00    -0.544 OA
ATOM      8  O   UNL     1       3.705  -1.795  14.349  1.00  0.00    -0.544 OA
ENDBRANCH   1   6
TORSDOF 2
ENDMDL
MODEL 2
REMARK VINA RESULT:    -2.740      0.097      1.448
REMARK INTER + INTRA:          -2.980
REMARK INTER:                  -2.980
REMARK INTRA:                   0.000
REMARK UNBOUND:                 0.000
REMARK SMILES [NH3+]CC(=O)[O-]
REMARK SMILES IDX 2 1 1 2 3 6 4 7 5 8
REMARK H PARENT 1 3 1 4 1 5
REMARK Flexibility Score: inf
ROOT
ATOM      1  C   UNL     1       2.758  -3.624  15.737  1.00  0.00     0.312 C 
ENDROOT
BRANCH   1   2
ATOM      2  N   UNL     1       2.399  -4.329  14.508  1.00  0.00    -0.353 N 
ATOM      3  H   UNL     1       2.507  -5.361  14.642  1.00  0.00     0.344 HD
ATOM      4  H   UNL     1       1.411  -4.108  14.243  1.00  0.00     0.344 HD
ATOM      5  H   UNL     1       3.034  -4.018  13.737  1.00  0.00     0.344 HD
ENDBRANCH   1   2
BRANCH   1   6
ATOM      6  C   UNL     1       3.091  -2.193  15.447  1.00  0.00     0.096 C 
ATOM      7  O   UNL     1       3.605  -1.873  14.343  1.00  0.00    -0.544 OA
ATOM      8  O   UNL     1       2.785  -1.206  16.375  1.00  0.00    -0.544 OA
ENDBRANCH   1   6
TORSDOF 2
ENDMDL
MODEL 3
REMARK VINA RESULT:    -2.735     10.114     10.487
REMARK INTER + INTRA:          -2.974
REMARK INTER:                  -2.974
REMARK INTRA:                   0.000
REMARK UNBOUND:                 0.000
REMARK SMILES [NH3+]CC(=O)[O-]
REMARK SMILES IDX 2 1 1 2 3 6 4 7 5 8
REMARK H PARENT 1 3 1 4 1 5
REMARK Flexibility Score: inf
ROOT
ATOM      1  C   UNL     1       2.658   7.451  10.305  1.00  0.00     0.312 C 
ENDROOT
BRANCH   1   2
ATOM      2  N   UNL     1       1.992   7.991  11.489  1.00  0.00    -0.353 N 
ATOM      3  H   UNL     1       1.288   8.712  11.207  1.00  0.00     0.344 HD
ATOM      4  H   UNL     1       1.519   7.221  12.018  1.00  0.00     0.344 HD
ATOM      5  H   UNL     1       2.706   8.438  12.109  1.00  0.00     0.344 HD
ENDBRANCH   1   2
BRANCH   1   6
ATOM      6  C   UNL     1       3.164   6.066  10.569  1.00  0.00     0.096 C 
ATOM      7  O   UNL     1       3.584   5.752  11.714  1.00  0.00    -0.544 OA
ATOM      8  O   UNL     1       3.125   5.109   9.564  1.00  0.00    -0.544 OA
ENDBRANCH   1   6
TORSDOF 2
ENDMDL
MODEL 4
REMARK VINA RESULT:    -2.616      9.934     10.224
REMARK INTER + INTRA:          -2.846
REMARK INTER:                  -2.846
REMARK INTRA:                   0.000
REMARK UNBOUND:                 0.000
REMARK SMILES [NH3+]CC(=O)[O-]
REMARK SMILES IDX 2 1 1 2 3 6 4 7 5 8
REMARK H PARENT 1 3 1 4 1 5
REMARK Flexibility Score: inf
ROOT
ATOM      1  C   UNL     1      -4.646   1.671  22.020  1.00  0.00     0.312 C 
ENDROOT
BRANCH   1   2
ATOM      2  N   UNL     1      -3.661   2.432  22.785  1.00  0.00    -0.353 N 
ATOM      3  H   UNL     1      -4.033   3.386  22.999  1.00  0.00     0.344 HD
ATOM      4  H   UNL     1      -3.433   1.932  23.675  1.00  0.00     0.344 HD
ATOM      5  H   UNL     1      -2.787   2.527  22.218  1.00  0.00     0.344 HD
ENDBRANCH   1   2
BRANCH   1   6
ATOM      6  C   UNL     1      -3.997   0.979  20.861  1.00  0.00     0.096 C 
ATOM      7  O   UNL     1      -3.559  -0.195  20.989  1.00  0.00    -0.544 OA
ATOM      8  O   UNL     1      -3.921   1.611  19.627  1.00  0.00    -0.544 OA
ENDBRANCH   1   6
TORSDOF 2
ENDMDL
MODEL 5
REMARK VINA RESULT:    -2.554     10.389     10.801
REMARK INTER + INTRA:          -2.778
REMARK INTER:                  -2.778
REMARK INTRA:                   0.000
REMARK UNBOUND:                 0.000
REMARK SMILES [NH3+]CC(=O)[O-]
REMARK SMILES IDX 2 1 1 2 3 6 4 7 5 8
REMARK H PARENT 1 3 1 4 1 5
REMARK Flexibility Score: inf
ROOT
ATOM      1  C   UNL     1       2.260   7.301  10.565  1.00  0.00     0.312 C 
ENDROOT
BRANCH   1   2
ATOM      2  N   UNL     1       1.930   8.318  11.562  1.00  0.00    -0.353 N 
ATOM      3  H   UNL     1       2.330   9.242  11.278  1.00  0.00     0.344 HD
ATOM      4  H   UNL     1       0.892   8.397  11.665  1.00  0.00     0.344 HD
ATOM      5  H   UNL     1       2.341   8.040  12.483  1.00  0.00     0.344 HD
ENDBRANCH   1   2
BRANCH   1   6
ATOM      6  C   UNL     1       1.253   6.193  10.587  1.00  0.00     0.096 C 
ATOM      7  O   UNL     1       0.479   6.021   9.609  1.00  0.00    -0.544 OA
ATOM      8  O   UNL     1       1.205   5.319  11.665  1.00  0.00    -0.544 OA
ENDBRANCH   1   6
TORSDOF 2
ENDMDL
MODEL 6
REMARK VINA RESULT:    -2.545     11.011     11.435
REMARK INTER + INTRA:          -2.768
REMARK INTER:                  -2.768
REMARK INTRA:                   0.000
REMARK UNBOUND:                 0.000
REMARK SMILES [NH3+]CC(=O)[O-]
REMARK SMILES IDX 2 1 1 2 3 6 4 7 5 8
REMARK H PARENT 1 3 1 4 1 5
REMARK Flexibility Score: inf
ROOT
ATOM      1  C   UNL     1      -4.185   1.363  21.914  1.00  0.00     0.312 C 
ENDROOT
BRANCH   1   2
ATOM      2  N   UNL     1      -3.724   2.461  22.762  1.00  0.00    -0.353 N 
ATOM      3  H   UNL     1      -2.880   2.911  22.338  1.00  0.00     0.344 HD
ATOM      4  H   UNL     1      -4.484   3.170  22.878  1.00  0.00     0.344 HD
ATOM      5  H   UNL     1      -3.469   2.081  23.704  1.00  0.00     0.344 HD
ENDBRANCH   1   2
BRANCH   1   6
ATOM      6  C   UNL     1      -5.484   1.714  21.256  1.00  0.00     0.096 C 
ATOM      7  O   UNL     1      -5.502   2.488  20.262  1.00  0.00    -0.544 OA
ATOM      8  O   UNL     1      -6.668   1.147  21.707  1.00  0.00    -0.544 OA
ENDBRANCH   1   6
TORSDOF 2
ENDMDL
MODEL 7
REMARK VINA RESULT:    -2.537      2.045      2.350
REMARK INTER + INTRA:          -2.759
REMARK INTER:                  -2.759
REMARK INTRA:                   0.000
REMARK UNBOUND:                 0.000
REMARK SMILES [NH3+]CC(=O)[O-]
REMARK SMILES IDX 2 1 1 2 3 6 4 7 5 8
REMARK H PARENT 1 3 1 4 1 5
REMARK Flexibility Score: inf
ROOT
ATOM      1  C   UNL     1       1.280  -1.589  14.549  1.00  0.00     0.312 C 
ENDROOT
BRANCH   1   2
ATOM      2  N   UNL     1       0.385  -2.071  15.599  1.00  0.00    -0.353 N 
ATOM      3  H   UNL     1      -0.009  -1.262  16.133  1.00  0.00     0.344 HD
ATOM      4  H   UNL     1      -0.393  -2.630  15.179  1.00  0.00     0.344 HD
ATOM      5  H   UNL     1       0.924  -2.681  16.255  1.00  0.00     0.344 HD
ENDBRANCH   1   2
BRANCH   1   6
ATOM      6  C   UNL     1       2.559  -2.368  14.546  1.00  0.00     0.096 C 
ATOM      7  O   UNL     1       2.541  -3.617  14.705  1.00  0.00    -0.544 OA
ATOM      8  O   UNL     1       3.767  -1.721  14.317  1.00  0.00    -0.544 OA
ENDBRANCH   1   6
TORSDOF 2
ENDMDL
MODEL 8
REMARK VINA RESULT:    -2.527      2.323      2.642
REMARK INTER + INTRA:          -2.749
REMARK INTER:                  -2.749
REMARK INTRA:                   0.000
REMARK UNBOUND:                 0.000
REMARK SMILES [NH3+]CC(=O)[O-]
REMARK SMILES IDX 2 1 1 2 3 6 4 7 5 8
REMARK H PARENT 1 3 1 4 1 5
REMARK Flexibility Score: inf
ROOT
ATOM      1  C   UNL     1       2.750  -1.970  16.223  1.00  0.00     0.312 C 
ENDROOT
BRANCH   1   2
ATOM      2  N   UNL     1       2.384  -0.566  16.046  1.00  0.00    -0.353 N 
ATOM      3  H   UNL     1       1.612  -0.311  16.705  1.00  0.00     0.344 HD
ATOM      4  H   UNL     1       3.215   0.046  16.220  1.00  0.00     0.344 HD
ATOM      5  H   UNL     1       2.055  -0.419  15.064  1.00  0.00     0.344 HD
ENDBRANCH   1   2
BRANCH   1   6
ATOM      6  C   UNL     1       2.618  -2.717  14.932  1.00  0.00     0.096 C 
ATOM      7  O   UNL     1       2.813  -2.128  13.836  1.00  0.00    -0.544 OA
ATOM      8  O   UNL     1       2.330  -4.076  14.941  1.00  0.00    -0.544 OA
ENDBRANCH   1   6
TORSDOF 2
ENDMDL
MODEL 9
REMARK VINA RESULT:    -2.494      8.894      9.210
REMARK INTER + INTRA:          -2.713
REMARK INTER:                  -2.713
REMARK INTRA:                   0.000
REMARK UNBOUND:                 0.000
REMARK SMILES [NH3+]CC(=O)[O-]
REMARK SMILES IDX 2 1 1 2 3 6 4 7 5 8
REMARK H PARENT 1 3 1 4 1 5
REMARK Flexibility Score: inf
ROOT
ATOM      1  C   UNL     1      -2.008   4.320  10.936  1.00  0.00     0.312 C 
ENDROOT
BRANCH   1   2
ATOM      2  N   UNL     1      -3.269   4.802  11.498  1.00  0.00    -0.353 N 
ATOM      3  H   UNL     1      -4.013   4.075  11.384  1.00  0.00     0.344 HD
ATOM      4  H   UNL     1      -3.147   5.028  12.512  1.00  0.00     0.344 HD
ATOM      5  H   UNL     1      -3.560   5.669  10.991  1.00  0.00     0.344 HD
ENDBRANCH   1   2
BRANCH   1   6
ATOM      6  C   UNL     1      -0.963   4.208  12.002  1.00  0.00     0.096 C 
ATOM      7  O   UNL     1       0.235   4.504  11.749  1.00  0.00    -0.544 OA
ATOM      8  O   UNL     1      -1.320   3.827  13.289  1.00  0.00    -0.544 OA
ENDBRANCH   1   6
TORSDOF 2
ENDMDL
