MODEL 1
REMARK VINA RESULT:    -3.682      0.000      0.000
REMARK INTER + INTRA:          -8.784
REMARK INTER:                  -6.911
REMARK INTRA:                  -1.873
REMARK UNBOUND:                -1.873
REMARK SMILES O=C([O-])CCCCCCCCCCCCCCC(=O)[O-]
REMARK SMILES IDX 10 1 9 2 8 3 7 4 6 5 5 6 4 7 2 8 1 9 3 10 11 11 12 12 13 13
REMARK SMILES IDX 14 14 15 15 16 16 17 17 18 18 19 19 20 20
REMARK H PARENT
REMARK Flexibility Score: inf
ROOT
ATOM      1  C   UNL     1     -10.759  -0.326 -26.511  1.00  0.00     0.000 C 
ENDROOT
BRANCH   1   2
ATOM      2  C   UNL     1     -10.384  -1.500 -27.433  1.00  0.00     0.000 C 
BRANCH   2   3
ATOM      3  C   UNL     1      -8.888  -1.854 -27.369  1.00  0.00     0.000 C 
BRANCH   3   4
ATOM      4  C   UNL     1      -8.580  -3.335 -27.063  1.00  0.00     0.000 C 
BRANCH   4   5
ATOM      5  C   UNL     1      -8.220  -3.641 -25.599  1.00  0.00     0.000 C 
BRANCH   5   6
ATOM      6  C   UNL     1      -7.101  -2.734 -25.058  1.00  0.00     0.006 C 
BRANCH   6   7
ATOM      7  C   UNL     1      -7.622  -1.726 -24.024  1.00  0.00     0.053 C 
BRANCH   7   8
ATOM      8  C   UNL     1      -6.650  -1.522 -22.904  1.00  0.00     0.041 C 
ATOM      9  O   UNL     1      -6.697  -0.474 -22.207  1.00  0.00    -0.550 OA
ATOM     10  O   UNL     1      -5.713  -2.503 -22.606  1.00  0.00    -0.550 OA
ENDBRANCH   7   8
ENDBRANCH   6   7
ENDBRANCH   5   6
ENDBRANCH   4   5
ENDBRANCH   3   4
ENDBRANCH   2   3
ENDBRANCH   1   2
BRANCH   1  11
ATOM     11  C   UNL     1      -9.638   0.719 -26.404  1.00  0.00     0.000 C 
BRANCH  11  12
ATOM     12  C   UNL     1      -9.751   1.817 -27.473  1.00  0.00     0.000 C 
BRANCH  12  13
ATOM     13  C   UNL     1      -8.365   2.309 -27.906  1.00  0.00     0.000 C 
BRANCH  13  14
ATOM     14  C   UNL     1      -7.576   2.854 -26.706  1.00  0.00     0.000 C 
BRANCH  14  15
ATOM     15  C   UNL     1      -6.263   2.092 -26.466  1.00  0.00     0.000 C 
BRANCH  15  16
ATOM     16  C   UNL     1      -6.136   1.570 -25.028  1.00  0.00     0.006 C 
BRANCH  16  17
ATOM     17  C   UNL     1      -7.078   2.325 -24.086  1.00  0.00     0.053 C 
BRANCH  17  18
ATOM     18  C   UNL     1      -6.297   3.085 -23.061  1.00  0.00     0.041 C 
ATOM     19  O   UNL     1      -6.460   2.848 -21.836  1.00  0.00    -0.550 OA
ATOM     20  O   UNL     1      -5.351   4.021 -23.461  1.00  0.00    -0.550 OA
ENDBRANCH  17  18
ENDBRANCH  16  17
ENDBRANCH  15  16
ENDBRANCH  14  15
ENDBRANCH  13  14
ENDBRANCH  12  13
ENDBRANCH  11  12
ENDBRANCH   1  11
TORSDOF 15
ENDMDL
MODEL 2
REMARK VINA RESULT:    -3.542      2.289      5.981
REMARK INTER + INTRA:          -8.520
REMARK INTER:                  -6.912
REMARK INTRA:                  -1.608
REMARK UNBOUND:                -1.873
REMARK SMILES O=C([O-])CCCCCCCCCCCCCCC(=O)[O-]
REMARK SMILES IDX 10 1 9 2 8 3 7 4 6 5 5 6 4 7 2 8 1 9 3 10 11 11 12 12 13 13
REMARK SMILES IDX 14 14 15 15 16 16 17 17 18 18 19 19 20 20
REMARK H PARENT
REMARK Flexibility Score: inf
ROOT
ATOM      1  C   UNL     1      -8.655   0.688 -25.088  1.00  0.00     0.000 C 
ENDROOT
BRANCH   1   2
ATOM      2  C   UNL     1      -9.144  -0.432 -24.153  1.00  0.00     0.000 C 
BRANCH   2   3
ATOM      3  C   UNL     1      -8.027  -1.421 -23.774  1.00  0.00     0.000 C 
BRANCH   3   4
ATOM      4  C   UNL     1      -7.002  -0.888 -22.752  1.00  0.00     0.000 C 
BRANCH   4   5
ATOM      5  C   UNL     1      -5.585  -0.655 -23.304  1.00  0.00     0.000 C 
BRANCH   5   6
ATOM      6  C   UNL     1      -5.137   0.813 -23.199  1.00  0.00     0.006 C 
BRANCH   6   7
ATOM      7  C   UNL     1      -5.722   1.509 -21.962  1.00  0.00     0.053 C 
BRANCH   7   8
ATOM      8  C   UNL     1      -5.556   2.996 -22.027  1.00  0.00     0.041 C 
ATOM      9  O   UNL     1      -5.262   3.646 -20.989  1.00  0.00    -0.550 OA
ATOM     10  O   UNL     1      -5.692   3.661 -23.239  1.00  0.00    -0.550 OA
ENDBRANCH   7   8
ENDBRANCH   6   7
ENDBRANCH   5   6
ENDBRANCH   4   5
ENDBRANCH   3   4
ENDBRANCH   2   3
ENDBRANCH   1   2
BRANCH   1  11
ATOM     11  C   UNL     1      -9.268   0.592 -26.493  1.00  0.00     0.000 C 
BRANCH  11  12
ATOM     12  C   UNL     1     -10.562  -0.235 -26.516  1.00  0.00     0.000 C 
BRANCH  12  13
ATOM     13  C   UNL     1     -10.517  -1.298 -27.620  1.00  0.00     0.000 C 
BRANCH  13  14
ATOM     14  C   UNL     1      -9.093  -1.850 -27.794  1.00  0.00     0.000 C 
BRANCH  14  15
ATOM     15  C   UNL     1      -9.012  -3.365 -27.550  1.00  0.00     0.000 C 
BRANCH  15  16
ATOM     16  C   UNL     1      -7.789  -3.764 -26.712  1.00  0.00     0.006 C 
BRANCH  16  17
ATOM     17  C   UNL     1      -8.206  -4.593 -25.493  1.00  0.00     0.053 C 
BRANCH  17  18
ATOM     18  C   UNL     1      -8.177  -6.053 -25.816  1.00  0.00     0.041 C 
ATOM     19  O   UNL     1      -7.090  -6.687 -25.787  1.00  0.00    -0.550 OA
ATOM     20  O   UNL     1      -9.359  -6.726 -26.099  1.00  0.00    -0.550 OA
ENDBRANCH  17  18
ENDBRANCH  16  17
ENDBRANCH  15  16
ENDBRANCH  14  15
ENDBRANCH  13  14
ENDBRANCH  12  13
ENDBRANCH  11  12
ENDBRANCH   1  11
TORSDOF 15
ENDMDL
MODEL 3
REMARK VINA RESULT:    -3.531     12.357     14.410
REMARK INTER + INTRA:          -8.501
REMARK INTER:                  -6.378
REMARK INTRA:                  -2.123
REMARK UNBOUND:                -1.873
REMARK SMILES O=C([O-])CCCCCCCCCCCCCCC(=O)[O-]
REMARK SMILES IDX 10 1 9 2 8 3 7 4 6 5 5 6 4 7 2 8 1 9 3 10 11 11 12 12 13 13
REMARK SMILES IDX 14 14 15 15 16 16 17 17 18 18 19 19 20 20
REMARK H PARENT
REMARK Flexibility Score: inf
ROOT
ATOM      1  C   UNL     1     -22.916   2.443 -25.845  1.00  0.00     0.000 C 
ENDROOT
BRANCH   1   2
ATOM      2  C   UNL     1     -22.307   2.156 -27.228  1.00  0.00     0.000 C 
BRANCH   2   3
ATOM      3  C   UNL     1     -21.441   3.316 -27.750  1.00  0.00     0.000 C 
BRANCH   3   4
ATOM      4  C   UNL     1     -21.102   4.399 -26.704  1.00  0.00     0.000 C 
BRANCH   4   5
ATOM      5  C   UNL     1     -19.624   4.463 -26.281  1.00  0.00     0.000 C 
BRANCH   5   6
ATOM      6  C   UNL     1     -19.228   3.328 -25.321  1.00  0.00     0.006 C 
BRANCH   6   7
ATOM      7  C   UNL     1     -18.494   2.190 -26.042  1.00  0.00     0.053 C 
BRANCH   7   8
ATOM      8  C   UNL     1     -19.071   0.850 -25.705  1.00  0.00     0.041 C 
ATOM      9  O   UNL     1     -18.655  -0.185 -26.290  1.00  0.00    -0.550 OA
ATOM     10  O   UNL     1     -20.046   0.738 -24.722  1.00  0.00    -0.550 OA
ENDBRANCH   7   8
ENDBRANCH   6   7
ENDBRANCH   5   6
ENDBRANCH   4   5
ENDBRANCH   3   4
ENDBRANCH   2   3
ENDBRANCH   1   2
BRANCH   1  11
ATOM     11  C   UNL     1     -24.385   2.885 -25.928  1.00  0.00     0.000 C 
BRANCH  11  12
ATOM     12  C   UNL     1     -24.710   4.037 -24.965  1.00  0.00     0.000 C 
BRANCH  12  13
ATOM     13  C   UNL     1     -24.534   3.603 -23.505  1.00  0.00     0.000 C 
BRANCH  13  14
ATOM     14  C   UNL     1     -23.767   4.666 -22.704  1.00  0.00     0.000 C 
BRANCH  14  15
ATOM     15  C   UNL     1     -22.256   4.644 -22.987  1.00  0.00     0.000 C 
BRANCH  15  16
ATOM     16  C   UNL     1     -21.563   3.402 -22.410  1.00  0.00     0.006 C 
BRANCH  16  17
ATOM     17  C   UNL     1     -20.256   3.781 -21.707  1.00  0.00     0.053 C 
BRANCH  17  18
ATOM     18  C   UNL     1     -20.327   3.447 -20.250  1.00  0.00     0.041 C 
ATOM     19  O   UNL     1     -19.489   2.659 -19.740  1.00  0.00    -0.550 OA
ATOM     20  O   UNL     1     -21.288   4.047 -19.445  1.00  0.00    -0.550 OA
ENDBRANCH  17  18
ENDBRANCH  16  17
ENDBRANCH  15  16
ENDBRANCH  14  15
ENDBRANCH  13  14
ENDBRANCH  12  13
ENDBRANCH  11  12
ENDBRANCH   1  11
TORSDOF 15
ENDMDL
MODEL 4
REMARK VINA RESULT:    -3.487     11.663     13.692
REMARK INTER + INTRA:          -8.417
REMARK INTER:                  -6.652
REMARK INTRA:                  -1.765
REMARK UNBOUND:                -1.873
REMARK SMILES O=C([O-])CCCCCCCCCCCCCCC(=O)[O-]
REMARK SMILES IDX 10 1 9 2 8 3 7 4 6 5 5 6 4 7 2 8 1 9 3 10 11 11 12 12 13 13
REMARK SMILES IDX 14 14 15 15 16 16 17 17 18 18 19 19 20 20
REMARK H PARENT
REMARK Flexibility Score: inf
ROOT
ATOM      1  C   UNL     1     -19.685   3.384 -24.721  1.00  0.00     0.000 C 
ENDROOT
BRANCH   1   2
ATOM      2  C   UNL     1     -18.626   3.117 -25.805  1.00  0.00     0.000 C 
BRANCH   2   3
ATOM      3  C   UNL     1     -19.075   3.578 -27.203  1.00  0.00     0.000 C 
BRANCH   3   4
ATOM      4  C   UNL     1     -19.598   2.456 -28.123  1.00  0.00     0.000 C 
BRANCH   4   5
ATOM      5  C   UNL     1     -21.061   2.043 -27.887  1.00  0.00     0.000 C 
BRANCH   5   6
ATOM      6  C   UNL     1     -21.195   0.823 -26.959  1.00  0.00     0.006 C 
BRANCH   6   7
ATOM      7  C   UNL     1     -20.266  -0.325 -27.376  1.00  0.00     0.053 C 
BRANCH   7   8
ATOM      8  C   UNL     1     -19.276  -0.660 -26.303  1.00  0.00     0.041 C 
ATOM      9  O   UNL     1     -18.236  -1.312 -26.582  1.00  0.00    -0.550 OA
ATOM     10  O   UNL     1     -19.486  -0.225 -25.000  1.00  0.00    -0.550 OA
ENDBRANCH   7   8
ENDBRANCH   6   7
ENDBRANCH   5   6
ENDBRANCH   4   5
ENDBRANCH   3   4
ENDBRANCH   2   3
ENDBRANCH   1   2
BRANCH   1  11
ATOM     11  C   UNL     1     -20.543   4.621 -25.027  1.00  0.00     0.000 C 
BRANCH  11  12
ATOM     12  C   UNL     1     -22.044   4.300 -25.078  1.00  0.00     0.000 C 
BRANCH  12  13
ATOM     13  C   UNL     1     -22.531   3.731 -23.740  1.00  0.00     0.000 C 
BRANCH  13  14
ATOM     14  C   UNL     1     -23.321   4.786 -22.949  1.00  0.00     0.000 C 
BRANCH  14  15
ATOM     15  C   UNL     1     -22.886   4.871 -21.478  1.00  0.00     0.000 C 
BRANCH  15  16
ATOM     16  C   UNL     1     -21.369   5.052 -21.319  1.00  0.00     0.006 C 
BRANCH  16  17
ATOM     17  C   UNL     1     -20.872   4.398 -20.026  1.00  0.00     0.053 C 
BRANCH  17  18
ATOM     18  C   UNL     1     -20.071   3.172 -20.331  1.00  0.00     0.041 C 
ATOM     19  O   UNL     1     -19.469   2.562 -19.410  1.00  0.00    -0.550 OA
ATOM     20  O   UNL     1     -20.032   2.673 -21.627  1.00  0.00    -0.550 OA
ENDBRANCH  17  18
ENDBRANCH  16  17
ENDBRANCH  15  16
ENDBRANCH  14  15
ENDBRANCH  13  14
ENDBRANCH  12  13
ENDBRANCH  11  12
ENDBRANCH   1  11
TORSDOF 15
ENDMDL
MODEL 5
REMARK VINA RESULT:    -3.440     11.356     13.408
REMARK INTER + INTRA:          -8.329
REMARK INTER:                  -6.197
REMARK INTRA:                  -2.133
REMARK UNBOUND:                -1.873
REMARK SMILES O=C([O-])CCCCCCCCCCCCCCC(=O)[O-]
REMARK SMILES IDX 10 1 9 2 8 3 7 4 6 5 5 6 4 7 2 8 1 9 3 10 11 11 12 12 13 13
REMARK SMILES IDX 14 14 15 15 16 16 17 17 18 18 19 19 20 20
REMARK H PARENT
REMARK Flexibility Score: inf
ROOT
ATOM      1  C   UNL     1     -23.053   3.551 -23.128  1.00  0.00     0.000 C 
ENDROOT
BRANCH   1   2
ATOM      2  C   UNL     1     -23.961   4.374 -24.058  1.00  0.00     0.000 C 
BRANCH   2   3
ATOM      3  C   UNL     1     -23.467   4.384 -25.516  1.00  0.00     0.000 C 
BRANCH   3   4
ATOM      4  C   UNL     1     -23.674   3.061 -26.284  1.00  0.00     0.000 C 
BRANCH   4   5
ATOM      5  C   UNL     1     -22.390   2.408 -26.822  1.00  0.00     0.000 C 
BRANCH   5   6
ATOM      6  C   UNL     1     -21.710   1.489 -25.792  1.00  0.00     0.006 C 
BRANCH   6   7
ATOM      7  C   UNL     1     -20.860   0.400 -26.460  1.00  0.00     0.053 C 
BRANCH   7   8
ATOM      8  C   UNL     1     -19.677   0.023 -25.623  1.00  0.00     0.041 C 
ATOM      9  O   UNL     1     -19.747   0.080 -24.367  1.00  0.00    -0.550 OA
ATOM     10  O   UNL     1     -18.508  -0.424 -26.226  1.00  0.00    -0.550 OA
ENDBRANCH   7   8
ENDBRANCH   6   7
ENDBRANCH   5   6
ENDBRANCH   4   5
ENDBRANCH   3   4
ENDBRANCH   2   3
ENDBRANCH   1   2
BRANCH   1  11
ATOM     11  C   UNL     1     -22.092   4.430 -22.313  1.00  0.00     0.000 C 
BRANCH  11  12
ATOM     12  C   UNL     1     -20.771   3.716 -21.989  1.00  0.00     0.000 C 
BRANCH  12  13
ATOM     13  C   UNL     1     -19.917   3.539 -23.250  1.00  0.00     0.000 C 
BRANCH  13  14
ATOM     14  C   UNL     1     -19.770   4.869 -24.006  1.00  0.00     0.000 C 
BRANCH  14  15
ATOM     15  C   UNL     1     -19.848   4.695 -25.531  1.00  0.00     0.000 C 
BRANCH  15  16
ATOM     16  C   UNL     1     -18.739   3.787 -26.081  1.00  0.00     0.006 C 
BRANCH  16  17
ATOM     17  C   UNL     1     -17.698   4.601 -26.854  1.00  0.00     0.053 C 
BRANCH  17  18
ATOM     18  C   UNL     1     -16.318   4.282 -26.372  1.00  0.00     0.041 C 
ATOM     19  O   UNL     1     -16.140   3.839 -25.207  1.00  0.00    -0.550 OA
ATOM     20  O   UNL     1     -15.232   4.425 -27.227  1.00  0.00    -0.550 OA
ENDBRANCH  17  18
ENDBRANCH  16  17
ENDBRANCH  15  16
ENDBRANCH  14  15
ENDBRANCH  13  14
ENDBRANCH  12  13
ENDBRANCH  11  12
ENDBRANCH   1  11
TORSDOF 15
ENDMDL
MODEL 6
REMARK VINA RESULT:    -3.436      3.138      6.781
REMARK INTER + INTRA:          -8.322
REMARK INTER:                  -6.679
REMARK INTRA:                  -1.643
REMARK UNBOUND:                -1.873
REMARK SMILES O=C([O-])CCCCCCCCCCCCCCC(=O)[O-]
REMARK SMILES IDX 10 1 9 2 8 3 7 4 6 5 5 6 4 7 2 8 1 9 3 10 11 11 12 12 13 13
REMARK SMILES IDX 14 14 15 15 16 16 17 17 18 18 19 19 20 20
REMARK H PARENT
REMARK Flexibility Score: inf
ROOT
ATOM      1  C   UNL     1      -9.969  -1.230 -27.129  1.00  0.00     0.000 C 
ENDROOT
BRANCH   1   2
ATOM      2  C   UNL     1     -10.034  -0.117 -26.069  1.00  0.00     0.000 C 
BRANCH   2   3
ATOM      3  C   UNL     1      -9.322   1.172 -26.516  1.00  0.00     0.000 C 
BRANCH   3   4
ATOM      4  C   UNL     1      -8.071   1.545 -25.694  1.00  0.00     0.000 C 
BRANCH   4   5
ATOM      5  C   UNL     1      -6.729   1.115 -26.311  1.00  0.00     0.000 C 
BRANCH   5   6
ATOM      6  C   UNL     1      -5.850   0.317 -25.332  1.00  0.00     0.006 C 
BRANCH   6   7
ATOM      7  C   UNL     1      -6.157   0.661 -23.868  1.00  0.00     0.053 C 
BRANCH   7   8
ATOM      8  C   UNL     1      -6.032  -0.535 -22.976  1.00  0.00     0.041 C 
ATOM      9  O   UNL     1      -6.987  -0.868 -22.226  1.00  0.00    -0.550 OA
ATOM     10  O   UNL     1      -4.875  -1.303 -22.996  1.00  0.00    -0.550 OA
ENDBRANCH   7   8
ENDBRANCH   6   7
ENDBRANCH   5   6
ENDBRANCH   4   5
ENDBRANCH   3   4
ENDBRANCH   2   3
ENDBRANCH   1   2
BRANCH   1  11
ATOM     11  C   UNL     1      -8.943  -2.319 -26.778  1.00  0.00     0.000 C 
BRANCH  11  12
ATOM     12  C   UNL     1      -8.340  -2.132 -25.378  1.00  0.00     0.000 C 
BRANCH  12  13
ATOM     13  C   UNL     1      -7.905  -3.475 -24.781  1.00  0.00     0.000 C 
BRANCH  13  14
ATOM     14  C   UNL     1      -6.561  -3.930 -25.371  1.00  0.00     0.000 C 
BRANCH  14  15
ATOM     15  C   UNL     1      -6.672  -5.249 -26.151  1.00  0.00     0.000 C 
BRANCH  15  16
ATOM     16  C   UNL     1      -7.931  -6.049 -25.785  1.00  0.00     0.006 C 
BRANCH  16  17
ATOM     17  C   UNL     1      -7.640  -7.552 -25.772  1.00  0.00     0.053 C 
BRANCH  17  18
ATOM     18  C   UNL     1      -8.907  -8.334 -25.918  1.00  0.00     0.041 C 
ATOM     19  O   UNL     1      -8.869  -9.585 -26.045  1.00  0.00    -0.550 OA
ATOM     20  O   UNL     1     -10.134  -7.685 -25.862  1.00  0.00    -0.550 OA
ENDBRANCH  17  18
ENDBRANCH  16  17
ENDBRANCH  15  16
ENDBRANCH  14  15
ENDBRANCH  13  14
ENDBRANCH  12  13
ENDBRANCH  11  12
ENDBRANCH   1  11
TORSDOF 15
ENDMDL
MODEL 7
REMARK VINA RESULT:    -3.423      2.528      3.954
REMARK INTER + INTRA:          -8.297
REMARK INTER:                  -6.166
REMARK INTRA:                  -2.132
REMARK UNBOUND:                -1.873
REMARK SMILES O=C([O-])CCCCCCCCCCCCCCC(=O)[O-]
REMARK SMILES IDX 10 1 9 2 8 3 7 4 6 5 5 6 4 7 2 8 1 9 3 10 11 11 12 12 13 13
REMARK SMILES IDX 14 14 15 15 16 16 17 17 18 18 19 19 20 20
REMARK H PARENT
REMARK Flexibility Score: inf
ROOT
ATOM      1  C   UNL     1     -10.717  -0.107 -26.339  1.00  0.00     0.000 C 
ENDROOT
BRANCH   1   2
ATOM      2  C   UNL     1     -10.570  -1.186 -27.427  1.00  0.00     0.000 C 
BRANCH   2   3
ATOM      3  C   UNL     1      -9.128  -1.708 -27.556  1.00  0.00     0.000 C 
BRANCH   3   4
ATOM      4  C   UNL     1      -8.911  -3.154 -27.063  1.00  0.00     0.000 C 
BRANCH   4   5
ATOM      5  C   UNL     1      -7.723  -3.893 -27.702  1.00  0.00     0.000 C 
BRANCH   5   6
ATOM      6  C   UNL     1      -7.001  -4.829 -26.717  1.00  0.00     0.006 C 
BRANCH   6   7
ATOM      7  C   UNL     1      -7.950  -5.383 -25.646  1.00  0.00     0.053 C 
BRANCH   7   8
ATOM      8  C   UNL     1      -8.342  -6.801 -25.928  1.00  0.00     0.041 C 
ATOM      9  O   UNL     1      -7.459  -7.663 -26.181  1.00  0.00    -0.550 OA
ATOM     10  O   UNL     1      -9.677  -7.180 -25.877  1.00  0.00    -0.550 OA
ENDBRANCH   7   8
ENDBRANCH   6   7
ENDBRANCH   5   6
ENDBRANCH   4   5
ENDBRANCH   3   4
ENDBRANCH   2   3
ENDBRANCH   1   2
BRANCH   1  11
ATOM     11  C   UNL     1      -9.362   0.369 -25.795  1.00  0.00     0.000 C 
BRANCH  11  12
ATOM     12  C   UNL     1      -8.860   1.642 -26.493  1.00  0.00     0.000 C 
BRANCH  12  13
ATOM     13  C   UNL     1      -7.347   1.579 -26.734  1.00  0.00     0.000 C 
BRANCH  13  14
ATOM     14  C   UNL     1      -6.672   0.622 -25.739  1.00  0.00     0.000 C 
BRANCH  14  15
ATOM     15  C   UNL     1      -5.814  -0.447 -26.435  1.00  0.00     0.000 C 
BRANCH  15  16
ATOM     16  C   UNL     1      -5.518  -1.650 -25.528  1.00  0.00     0.006 C 
BRANCH  16  17
ATOM     17  C   UNL     1      -6.631  -1.843 -24.493  1.00  0.00     0.053 C 
BRANCH  17  18
ATOM     18  C   UNL     1      -6.069  -1.811 -23.107  1.00  0.00     0.041 C 
ATOM     19  O   UNL     1      -5.698  -2.877 -22.549  1.00  0.00    -0.550 OA
ATOM     20  O   UNL     1      -5.909  -0.598 -22.449  1.00  0.00    -0.550 OA
ENDBRANCH  17  18
ENDBRANCH  16  17
ENDBRANCH  15  16
ENDBRANCH  14  15
ENDBRANCH  13  14
ENDBRANCH  12  13
ENDBRANCH  11  12
ENDBRANCH   1  11
TORSDOF 15
ENDMDL
MODEL 8
REMARK VINA RESULT:    -3.403      3.566      7.477
REMARK INTER + INTRA:          -8.261
REMARK INTER:                  -6.313
REMARK INTRA:                  -1.947
REMARK UNBOUND:                -1.873
REMARK SMILES O=C([O-])CCCCCCCCCCCCCCC(=O)[O-]
REMARK SMILES IDX 10 1 9 2 8 3 7 4 6 5 5 6 4 7 2 8 1 9 3 10 11 11 12 12 13 13
REMARK SMILES IDX 14 14 15 15 16 16 17 17 18 18 19 19 20 20
REMARK H PARENT
REMARK Flexibility Score: inf
ROOT
ATOM      1  C   UNL     1      -6.981  -1.046 -22.801  1.00  0.00     0.000 C 
ENDROOT
BRANCH   1   2
ATOM      2  C   UNL     1      -6.357   0.359 -22.881  1.00  0.00     0.000 C 
BRANCH   2   3
ATOM      3  C   UNL     1      -5.467   0.545 -24.123  1.00  0.00     0.000 C 
BRANCH   3   4
ATOM      4  C   UNL     1      -6.211   1.000 -25.396  1.00  0.00     0.000 C 
BRANCH   4   5
ATOM      5  C   UNL     1      -6.588  -0.127 -26.373  1.00  0.00     0.000 C 
BRANCH   5   6
ATOM      6  C   UNL     1      -8.079  -0.114 -26.753  1.00  0.00     0.006 C 
BRANCH   6   7
ATOM      7  C   UNL     1      -8.974   0.269 -25.567  1.00  0.00     0.053 C 
BRANCH   7   8
ATOM      8  C   UNL     1     -10.400  -0.133 -25.790  1.00  0.00     0.041 C 
ATOM      9  O   UNL     1     -10.758  -0.605 -26.901  1.00  0.00    -0.550 OA
ATOM     10  O   UNL     1     -11.326  -0.019 -24.762  1.00  0.00    -0.550 OA
ENDBRANCH   7   8
ENDBRANCH   6   7
ENDBRANCH   5   6
ENDBRANCH   4   5
ENDBRANCH   3   4
ENDBRANCH   2   3
ENDBRANCH   1   2
BRANCH   1  11
ATOM     11  C   UNL     1      -5.950  -2.162 -23.029  1.00  0.00     0.000 C 
BRANCH  11  12
ATOM     12  C   UNL     1      -6.322  -3.077 -24.205  1.00  0.00     0.000 C 
BRANCH  12  13
ATOM     13  C   UNL     1      -7.839  -3.108 -24.421  1.00  0.00     0.000 C 
BRANCH  13  14
ATOM     14  C   UNL     1      -8.211  -4.057 -25.572  1.00  0.00     0.000 C 
BRANCH  14  15
ATOM     15  C   UNL     1      -6.997  -4.820 -26.125  1.00  0.00     0.000 C 
BRANCH  15  16
ATOM     16  C   UNL     1      -7.230  -6.336 -26.188  1.00  0.00     0.006 C 
BRANCH  16  17
ATOM     17  C   UNL     1      -8.725  -6.657 -26.285  1.00  0.00     0.053 C 
BRANCH  17  18
ATOM     18  C   UNL     1      -8.971  -8.103 -25.991  1.00  0.00     0.041 C 
ATOM     19  O   UNL     1     -10.078  -8.475 -25.521  1.00  0.00    -0.550 OA
ATOM     20  O   UNL     1      -7.996  -9.049 -26.283  1.00  0.00    -0.550 OA
ENDBRANCH  17  18
ENDBRANCH  16  17
ENDBRANCH  15  16
ENDBRANCH  14  15
ENDBRANCH  13  14
ENDBRANCH  12  13
ENDBRANCH  11  12
ENDBRANCH   1  11
TORSDOF 15
ENDMDL
MODEL 9
REMARK VINA RESULT:    -3.360      2.516      6.749
REMARK INTER + INTRA:          -8.180
REMARK INTER:                  -6.023
REMARK INTRA:                  -2.157
REMARK UNBOUND:                -1.873
REMARK SMILES O=C([O-])CCCCCCCCCCCCCCC(=O)[O-]
REMARK SMILES IDX 10 1 9 2 8 3 7 4 6 5 5 6 4 7 2 8 1 9 3 10 11 11 12 12 13 13
REMARK SMILES IDX 14 14 15 15 16 16 17 17 18 18 19 19 20 20
REMARK H PARENT
REMARK Flexibility Score: inf
ROOT
ATOM      1  C   UNL     1      -8.227  -1.362 -24.124  1.00  0.00     0.000 C 
ENDROOT
BRANCH   1   2
ATOM      2  C   UNL     1      -8.029  -0.359 -25.275  1.00  0.00     0.000 C 
BRANCH   2   3
ATOM      3  C   UNL     1      -8.586   1.038 -24.949  1.00  0.00     0.000 C 
BRANCH   3   4
ATOM      4  C   UNL     1      -7.520   2.141 -24.775  1.00  0.00     0.000 C 
BRANCH   4   5
ATOM      5  C   UNL     1      -6.083   1.727 -25.136  1.00  0.00     0.000 C 
BRANCH   5   6
ATOM      6  C   UNL     1      -5.115   1.830 -23.945  1.00  0.00     0.006 C 
BRANCH   6   7
ATOM      7  C   UNL     1      -5.829   2.255 -22.655  1.00  0.00     0.053 C 
BRANCH   7   8
ATOM      8  C   UNL     1      -5.250   3.514 -22.086  1.00  0.00     0.041 C 
ATOM      9  O   UNL     1      -5.067   3.622 -20.845  1.00  0.00    -0.550 OA
ATOM     10  O   UNL     1      -4.881   4.555 -22.928  1.00  0.00    -0.550 OA
ENDBRANCH   7   8
ENDBRANCH   6   7
ENDBRANCH   5   6
ENDBRANCH   4   5
ENDBRANCH   3   4
ENDBRANCH   2   3
ENDBRANCH   1   2
BRANCH   1  11
ATOM     11  C   UNL     1      -6.935  -1.610 -23.330  1.00  0.00     0.000 C 
BRANCH  11  12
ATOM     12  C   UNL     1      -5.707  -1.775 -24.238  1.00  0.00     0.000 C 
BRANCH  12  13
ATOM     13  C   UNL     1      -5.012  -3.118 -23.985  1.00  0.00     0.000 C 
BRANCH  13  14
ATOM     14  C   UNL     1      -5.278  -4.099 -25.136  1.00  0.00     0.000 C 
BRANCH  14  15
ATOM     15  C   UNL     1      -5.994  -3.439 -26.324  1.00  0.00     0.000 C 
BRANCH  15  16
ATOM     16  C   UNL     1      -7.310  -4.141 -26.688  1.00  0.00     0.006 C 
BRANCH  16  17
ATOM     17  C   UNL     1      -7.855  -4.934 -25.496  1.00  0.00     0.053 C 
BRANCH  17  18
ATOM     18  C   UNL     1      -8.090  -6.362 -25.878  1.00  0.00     0.041 C 
ATOM     19  O   UNL     1      -7.131  -7.177 -25.904  1.00  0.00    -0.550 OA
ATOM     20  O   UNL     1      -9.377  -6.804 -26.156  1.00  0.00    -0.550 OA
ENDBRANCH  17  18
ENDBRANCH  16  17
ENDBRANCH  15  16
ENDBRANCH  14  15
ENDBRANCH  13  14
ENDBRANCH  12  13
ENDBRANCH  11  12
ENDBRANCH   1  11
TORSDOF 15
ENDMDL
