MODEL 1
REMARK VINA RESULT:    -4.240      0.000      0.000
REMARK INTER + INTRA:          -4.585
REMARK INTER:                  -4.488
REMARK INTRA:                  -0.098
REMARK UNBOUND:                -0.098
REMARK SMILES C=C(C)[C@H]1CC=C(C)C(=O)C1
REMARK SMILES IDX 8 1 7 2 6 3 5 4 4 5 11 6 9 7 10 8 2 9 1 10 3 11
REMARK H PARENT
REMARK Flexibility Score: inf
ROOT
ATOM      1  C   UNL     1      -2.655  -2.769   5.120  1.00  0.00     0.048 C 
ATOM      2  C   UNL     1      -3.632  -3.727   4.496  1.00  0.00    -0.012 C 
ATOM      3  C   UNL     1      -3.424  -4.175   3.245  1.00  0.00    -0.019 C 
ATOM      4  C   UNL     1      -4.379  -5.121   2.566  1.00  0.00     0.036 C 
ATOM      5  C   UNL     1      -5.037  -6.070   3.585  1.00  0.00     0.025 C 
ATOM      6  C   UNL     1      -5.715  -5.263   4.707  1.00  0.00     0.089 C 
ATOM      7  C   UNL     1      -4.751  -4.273   5.303  1.00  0.00     0.158 C 
ATOM      8  O   UNL     1      -4.928  -3.882   6.488  1.00  0.00    -0.295 OA
ENDROOT
BRANCH   5   9
ATOM      9  C   UNL     1      -6.019  -7.017   2.910  1.00  0.00    -0.077 C 
ATOM     10  C   UNL     1      -7.322  -6.700   2.845  1.00  0.00     0.008 C 
ATOM     11  C   UNL     1      -5.563  -8.320   2.300  1.00  0.00     0.039 C 
ENDBRANCH   5   9
TORSDOF 1
ENDMDL
MODEL 2
REMARK VINA RESULT:    -4.212      2.212      4.706
REMARK INTER + INTRA:          -4.556
REMARK INTER:                  -4.458
REMARK INTRA:                  -0.098
REMARK UNBOUND:                -0.098
REMARK SMILES C=C(C)[C@H]1CC=C(C)C(=O)C1
REMARK SMILES IDX 8 1 7 2 6 3 5 4 4 5 11 6 9 7 10 8 2 9 1 10 3 11
REMARK H PARENT
REMARK Flexibility Score: inf
ROOT
ATOM      1  C   UNL     1      -4.331  -5.920   2.684  1.00  0.00     0.048 C 
ATOM      2  C   UNL     1      -4.615  -5.022   3.856  1.00  0.00    -0.012 C 
ATOM      3  C   UNL     1      -5.681  -5.261   4.639  1.00  0.00    -0.019 C 
ATOM      4  C   UNL     1      -6.022  -4.383   5.815  1.00  0.00     0.036 C 
ATOM      5  C   UNL     1      -4.749  -3.808   6.464  1.00  0.00     0.025 C 
ATOM      6  C   UNL     1      -3.899  -3.071   5.413  1.00  0.00     0.089 C 
ATOM      7  C   UNL     1      -3.651  -3.954   4.220  1.00  0.00     0.158 C 
ATOM      8  O   UNL     1      -2.631  -3.750   3.508  1.00  0.00    -0.295 OA
ENDROOT
BRANCH   5   9
ATOM      9  C   UNL     1      -5.085  -2.904   7.642  1.00  0.00    -0.077 C 
ATOM     10  C   UNL     1      -6.360  -2.765   8.041  1.00  0.00     0.008 C 
ATOM     11  C   UNL     1      -4.011  -2.150   8.386  1.00  0.00     0.039 C 
ENDBRANCH   5   9
TORSDOF 1
ENDMDL
MODEL 3
REMARK VINA RESULT:    -4.178      1.526      2.129
REMARK INTER + INTRA:          -4.520
REMARK INTER:                  -4.433
REMARK INTRA:                  -0.087
REMARK UNBOUND:                -0.098
REMARK SMILES C=C(C)[C@H]1CC=C(C)C(=O)C1
REMARK SMILES IDX 8 1 7 2 6 3 5 4 4 5 11 6 9 7 10 8 2 9 1 10 3 11
REMARK H PARENT
REMARK Flexibility Score: inf
ROOT
ATOM      1  C   UNL     1      -2.745  -2.746   5.041  1.00  0.00     0.048 C 
ATOM      2  C   UNL     1      -3.537  -3.874   4.441  1.00  0.00    -0.012 C 
ATOM      3  C   UNL     1      -4.410  -4.557   5.203  1.00  0.00    -0.019 C 
ATOM      4  C   UNL     1      -5.215  -5.708   4.658  1.00  0.00     0.036 C 
ATOM      5  C   UNL     1      -5.551  -5.494   3.171  1.00  0.00     0.025 C 
ATOM      6  C   UNL     1      -4.263  -5.250   2.362  1.00  0.00     0.089 C 
ATOM      7  C   UNL     1      -3.448  -4.150   2.986  1.00  0.00     0.158 C 
ATOM      8  O   UNL     1      -2.657  -3.488   2.262  1.00  0.00    -0.295 OA
ENDROOT
BRANCH   5   9
ATOM      9  C   UNL     1      -6.348  -6.662   2.607  1.00  0.00    -0.077 C 
ATOM     10  C   UNL     1      -7.662  -6.525   2.365  1.00  0.00     0.008 C 
ATOM     11  C   UNL     1      -5.695  -7.988   2.304  1.00  0.00     0.039 C 
ENDBRANCH   5   9
TORSDOF 1
ENDMDL
MODEL 4
REMARK VINA RESULT:    -4.161     11.385     12.609
REMARK INTER + INTRA:          -4.502
REMARK INTER:                  -4.403
REMARK INTRA:                  -0.099
REMARK UNBOUND:                -0.098
REMARK SMILES C=C(C)[C@H]1CC=C(C)C(=O)C1
REMARK SMILES IDX 8 1 7 2 6 3 5 4 4 5 11 6 9 7 10 8 2 9 1 10 3 11
REMARK H PARENT
REMARK Flexibility Score: inf
ROOT
ATOM      1  C   UNL     1       2.192  -3.095  -4.098  1.00  0.00     0.048 C 
ATOM      2  C   UNL     1       3.185  -4.222  -4.140  1.00  0.00    -0.012 C 
ATOM      3  C   UNL     1       4.242  -4.214  -3.309  1.00  0.00    -0.019 C 
ATOM      4  C   UNL     1       5.277  -5.309  -3.322  1.00  0.00     0.036 C 
ATOM      5  C   UNL     1       4.646  -6.664  -3.692  1.00  0.00     0.025 C 
ATOM      6  C   UNL     1       3.895  -6.556  -5.032  1.00  0.00     0.089 C 
ATOM      7  C   UNL     1       2.931  -5.400  -5.006  1.00  0.00     0.158 C 
ATOM      8  O   UNL     1       1.922  -5.427  -5.761  1.00  0.00    -0.295 OA
ENDROOT
BRANCH   5   9
ATOM      9  C   UNL     1       5.688  -7.773  -3.726  1.00  0.00    -0.077 C 
ATOM     10  C   UNL     1       5.961  -8.404  -4.879  1.00  0.00     0.008 C 
ATOM     11  C   UNL     1       6.437  -8.187  -2.483  1.00  0.00     0.039 C 
ENDBRANCH   5   9
TORSDOF 1
ENDMDL
MODEL 5
REMARK VINA RESULT:    -4.134      2.539      4.613
REMARK INTER + INTRA:          -4.474
REMARK INTER:                  -4.375
REMARK INTRA:                  -0.099
REMARK UNBOUND:                -0.098
REMARK SMILES C=C(C)[C@H]1CC=C(C)C(=O)C1
REMARK SMILES IDX 8 1 7 2 6 3 5 4 4 5 11 6 9 7 10 8 2 9 1 10 3 11
REMARK H PARENT
REMARK Flexibility Score: inf
ROOT
ATOM      1  C   UNL     1      -4.665  -6.508   4.409  1.00  0.00     0.048 C 
ATOM      2  C   UNL     1      -4.312  -5.443   3.408  1.00  0.00    -0.012 C 
ATOM      3  C   UNL     1      -5.269  -4.920   2.622  1.00  0.00    -0.019 C 
ATOM      4  C   UNL     1      -4.967  -3.865   1.590  1.00  0.00     0.036 C 
ATOM      5  C   UNL     1      -3.817  -2.951   2.052  1.00  0.00     0.025 C 
ATOM      6  C   UNL     1      -2.576  -3.791   2.407  1.00  0.00     0.089 C 
ATOM      7  C   UNL     1      -2.937  -4.885   3.375  1.00  0.00     0.158 C 
ATOM      8  O   UNL     1      -2.046  -5.349   4.136  1.00  0.00    -0.295 OA
ENDROOT
BRANCH   5   9
ATOM      9  C   UNL     1      -3.492  -1.893   1.007  1.00  0.00    -0.077 C 
ATOM     10  C   UNL     1      -2.214  -1.637   0.684  1.00  0.00     0.008 C 
ATOM     11  C   UNL     1      -4.581  -1.114   0.311  1.00  0.00     0.039 C 
ENDBRANCH   5   9
TORSDOF 1
ENDMDL
MODEL 6
REMARK VINA RESULT:    -4.129      2.181      4.493
REMARK INTER + INTRA:          -4.468
REMARK INTER:                  -4.370
REMARK INTRA:                  -0.099
REMARK UNBOUND:                -0.098
REMARK SMILES C=C(C)[C@H]1CC=C(C)C(=O)C1
REMARK SMILES IDX 8 1 7 2 6 3 5 4 4 5 11 6 9 7 10 8 2 9 1 10 3 11
REMARK H PARENT
REMARK Flexibility Score: inf
ROOT
ATOM      1  C   UNL     1      -3.513  -4.664   2.297  1.00  0.00     0.048 C 
ATOM      2  C   UNL     1      -3.842  -4.315   3.722  1.00  0.00    -0.012 C 
ATOM      3  C   UNL     1      -3.296  -3.224   4.287  1.00  0.00    -0.019 C 
ATOM      4  C   UNL     1      -3.578  -2.839   5.716  1.00  0.00     0.036 C 
ATOM      5  C   UNL     1      -5.006  -3.240   6.127  1.00  0.00     0.025 C 
ATOM      6  C   UNL     1      -5.234  -4.742   5.873  1.00  0.00     0.089 C 
ATOM      7  C   UNL     1      -4.863  -5.100   4.459  1.00  0.00     0.158 C 
ATOM      8  O   UNL     1      -5.404  -6.103   3.919  1.00  0.00    -0.295 OA
ENDROOT
BRANCH   5   9
ATOM      9  C   UNL     1      -5.293  -2.872   7.576  1.00  0.00    -0.077 C 
ATOM     10  C   UNL     1      -4.292  -2.481   8.381  1.00  0.00     0.008 C 
ATOM     11  C   UNL     1      -6.691  -2.930   8.141  1.00  0.00     0.039 C 
ENDBRANCH   5   9
TORSDOF 1
ENDMDL
MODEL 7
REMARK VINA RESULT:    -3.907      2.673      4.245
REMARK INTER + INTRA:          -4.233
REMARK INTER:                  -4.141
REMARK INTRA:                  -0.092
REMARK UNBOUND:                -0.098
REMARK SMILES C=C(C)[C@H]1CC=C(C)C(=O)C1
REMARK SMILES IDX 8 1 7 2 6 3 5 4 4 5 11 6 9 7 10 8 2 9 1 10 3 11
REMARK H PARENT
REMARK Flexibility Score: inf
ROOT
ATOM      1  C   UNL     1      -7.643  -2.674   9.075  1.00  0.00     0.048 C 
ATOM      2  C   UNL     1      -6.819  -3.063   7.879  1.00  0.00    -0.012 C 
ATOM      3  C   UNL     1      -5.507  -2.773   7.847  1.00  0.00    -0.019 C 
ATOM      4  C   UNL     1      -4.639  -3.123   6.667  1.00  0.00     0.036 C 
ATOM      5  C   UNL     1      -5.120  -4.421   5.992  1.00  0.00     0.025 C 
ATOM      6  C   UNL     1      -6.607  -4.305   5.608  1.00  0.00     0.089 C 
ATOM      7  C   UNL     1      -7.426  -3.874   6.794  1.00  0.00     0.158 C 
ATOM      8  O   UNL     1      -8.649  -4.178   6.838  1.00  0.00    -0.295 OA
ENDROOT
BRANCH   5   9
ATOM      9  C   UNL     1      -4.260  -4.772   4.785  1.00  0.00    -0.077 C 
ATOM     10  C   UNL     1      -4.226  -6.034   4.329  1.00  0.00     0.008 C 
ATOM     11  C   UNL     1      -3.436  -3.726   4.075  1.00  0.00     0.039 C 
ENDBRANCH   5   9
TORSDOF 1
ENDMDL
MODEL 8
REMARK VINA RESULT:    -3.825     11.565     12.685
REMARK INTER + INTRA:          -4.146
REMARK INTER:                  -4.048
REMARK INTRA:                  -0.098
REMARK UNBOUND:                -0.098
REMARK SMILES C=C(C)[C@H]1CC=C(C)C(=O)C1
REMARK SMILES IDX 8 1 7 2 6 3 5 4 4 5 11 6 9 7 10 8 2 9 1 10 3 11
REMARK H PARENT
REMARK Flexibility Score: inf
ROOT
ATOM      1  C   UNL     1       6.513  -8.323  -2.757  1.00  0.00     0.048 C 
ATOM      2  C   UNL     1       5.413  -7.402  -3.208  1.00  0.00    -0.012 C 
ATOM      3  C   UNL     1       5.106  -6.317  -2.476  1.00  0.00    -0.019 C 
ATOM      4  C   UNL     1       4.002  -5.372  -2.873  1.00  0.00     0.036 C 
ATOM      5  C   UNL     1       3.871  -5.285  -4.405  1.00  0.00     0.025 C 
ATOM      6  C   UNL     1       3.680  -6.690  -5.006  1.00  0.00     0.089 C 
ATOM      7  C   UNL     1       4.756  -7.623  -4.520  1.00  0.00     0.158 C 
ATOM      8  O   UNL     1       5.066  -8.620  -5.226  1.00  0.00    -0.295 OA
ENDROOT
BRANCH   5   9
ATOM      9  C   UNL     1       2.744  -4.347  -4.814  1.00  0.00    -0.077 C 
ATOM     10  C   UNL     1       2.055  -4.576  -5.944  1.00  0.00     0.008 C 
ATOM     11  C   UNL     1       2.372  -3.151  -3.973  1.00  0.00     0.039 C 
ENDBRANCH   5   9
TORSDOF 1
ENDMDL
MODEL 9
REMARK VINA RESULT:    -3.728      2.017      3.009
REMARK INTER + INTRA:          -4.043
REMARK INTER:                  -3.945
REMARK INTRA:                  -0.099
REMARK UNBOUND:                -0.098
REMARK SMILES C=C(C)[C@H]1CC=C(C)C(=O)C1
REMARK SMILES IDX 8 1 7 2 6 3 5 4 4 5 11 6 9 7 10 8 2 9 1 10 3 11
REMARK H PARENT
REMARK Flexibility Score: inf
ROOT
ATOM      1  C   UNL     1      -6.123  -2.388   8.443  1.00  0.00     0.048 C 
ATOM      2  C   UNL     1      -5.856  -3.106   7.149  1.00  0.00    -0.012 C 
ATOM      3  C   UNL     1      -4.615  -3.115   6.633  1.00  0.00    -0.019 C 
ATOM      4  C   UNL     1      -4.296  -3.803   5.332  1.00  0.00     0.036 C 
ATOM      5  C   UNL     1      -5.183  -5.045   5.129  1.00  0.00     0.025 C 
ATOM      6  C   UNL     1      -6.671  -4.663   5.237  1.00  0.00     0.089 C 
ATOM      7  C   UNL     1      -6.931  -3.906   6.512  1.00  0.00     0.158 C 
ATOM      8  O   UNL     1      -8.087  -3.929   7.013  1.00  0.00    -0.295 OA
ENDROOT
BRANCH   5   9
ATOM      9  C   UNL     1      -4.881  -5.736   3.807  1.00  0.00    -0.077 C 
ATOM     10  C   UNL     1      -4.221  -5.078   2.840  1.00  0.00     0.008 C 
ATOM     11  C   UNL     1      -5.305  -7.161   3.549  1.00  0.00     0.039 C 
ENDBRANCH   5   9
TORSDOF 1
ENDMDL
