MODEL 1
REMARK VINA RESULT:    -5.726      0.000      0.000
REMARK INTER + INTRA:          -8.961
REMARK INTER:                  -7.734
REMARK INTRA:                  -1.227
REMARK UNBOUND:                -1.227
REMARK SMILES CC(=O)CCC=C(C)CCC=C(C)C
REMARK SMILES IDX 7 1 6 2 8 3 9 4 10 5 11 6 13 7 12 8 14 9 5 10 4 11 2 12 3 13
REMARK SMILES IDX 1 14
REMARK H PARENT
REMARK Flexibility Score: inf
ROOT
ATOM      1  C   UNL     1     103.059 132.336  51.247  1.00  0.00    -0.077 C 
ATOM      2  C   UNL     1     103.441 133.273  52.144  1.00  0.00    -0.028 C 
ATOM      3  C   UNL     1     103.246 132.531  49.760  1.00  0.00     0.039 C 
ENDROOT
BRANCH   1   4
ATOM      4  C   UNL     1     102.447 131.046  51.748  1.00  0.00     0.034 C 
BRANCH   4   5
ATOM      5  C   UNL     1     100.920 131.083  51.621  1.00  0.00     0.032 C 
BRANCH   5   6
ATOM      6  C   UNL     1     100.308 131.864  52.757  1.00  0.00    -0.028 C 
ATOM      7  C   UNL     1      99.142 133.769  53.826  1.00  0.00     0.039 C 
ATOM      8  C   UNL     1      99.695 133.062  52.616  1.00  0.00    -0.080 C 
ATOM      9  C   UNL     1      99.501 133.708  51.266  1.00  0.00     0.039 C 
ENDBRANCH   5   6
ENDBRANCH   4   5
ENDBRANCH   1   4
BRANCH   2  10
ATOM     10  C   UNL     1     104.021 134.620  51.784  1.00  0.00     0.035 C 
BRANCH  10  11
ATOM     11  C   UNL     1     102.945 135.714  51.764  1.00  0.00     0.079 C 
BRANCH  11  12
ATOM     12  C   UNL     1     102.758 136.283  50.381  1.00  0.00     0.130 C 
ATOM     13  O   UNL     1     103.731 136.672  49.753  1.00  0.00    -0.300 OA
ATOM     14  C   UNL     1     101.398 136.383  49.757  1.00  0.00     0.087 C 
ENDBRANCH  11  12
ENDBRANCH  10  11
ENDBRANCH   2  10
TORSDOF 6
ENDMDL
MODEL 2
REMARK VINA RESULT:    -5.517      1.169      3.547
REMARK INTER + INTRA:          -8.679
REMARK INTER:                  -7.409
REMARK INTRA:                  -1.270
REMARK UNBOUND:                -1.227
REMARK SMILES CC(=O)CCC=C(C)CCC=C(C)C
REMARK SMILES IDX 7 1 6 2 8 3 9 4 10 5 11 6 13 7 12 8 14 9 5 10 4 11 2 12 3 13
REMARK SMILES IDX 1 14
REMARK H PARENT
REMARK Flexibility Score: inf
ROOT
ATOM      1  C   UNL     1      99.753 133.105  52.335  1.00  0.00    -0.077 C 
ATOM      2  C   UNL     1      99.769 133.359  51.007  1.00  0.00    -0.028 C 
ATOM      3  C   UNL     1      99.435 134.179  53.350  1.00  0.00     0.039 C 
ENDROOT
BRANCH   1   4
ATOM      4  C   UNL     1     100.041 131.700  52.818  1.00  0.00     0.034 C 
BRANCH   4   5
ATOM      5  C   UNL     1     101.383 131.201  52.271  1.00  0.00     0.032 C 
BRANCH   5   6
ATOM      6  C   UNL     1     102.492 132.166  52.611  1.00  0.00    -0.028 C 
ATOM      7  C   UNL     1     104.418 133.652  52.156  1.00  0.00     0.039 C 
ATOM      8  C   UNL     1     103.325 132.720  51.701  1.00  0.00    -0.080 C 
ATOM      9  C   UNL     1     103.172 132.475  50.220  1.00  0.00     0.039 C 
ENDBRANCH   5   6
ENDBRANCH   4   5
ENDBRANCH   1   4
BRANCH   2  10
ATOM     10  C   UNL     1      99.545 134.719  50.390  1.00  0.00     0.035 C 
BRANCH  10  11
ATOM     11  C   UNL     1     100.776 135.195  49.607  1.00  0.00     0.079 C 
BRANCH  11  12
ATOM     12  C   UNL     1     101.727 135.969  50.483  1.00  0.00     0.130 C 
ATOM     13  O   UNL     1     101.388 136.274  51.617  1.00  0.00    -0.300 OA
ATOM     14  C   UNL     1     103.085 136.374  49.993  1.00  0.00     0.087 C 
ENDBRANCH  11  12
ENDBRANCH  10  11
ENDBRANCH   2  10
TORSDOF 6
ENDMDL
MODEL 3
REMARK VINA RESULT:    -5.387      1.654      4.254
REMARK INTER + INTRA:          -8.503
REMARK INTER:                  -7.752
REMARK INTRA:                  -0.751
REMARK UNBOUND:                -1.227
REMARK SMILES CC(=O)CCC=C(C)CCC=C(C)C
REMARK SMILES IDX 7 1 6 2 8 3 9 4 10 5 11 6 13 7 12 8 14 9 5 10 4 11 2 12 3 13
REMARK SMILES IDX 1 14
REMARK H PARENT
REMARK Flexibility Score: inf
ROOT
ATOM      1  C   UNL     1     103.271 132.817  51.376  1.00  0.00    -0.077 C 
ATOM      2  C   UNL     1     102.369 132.314  52.248  1.00  0.00    -0.028 C 
ATOM      3  C   UNL     1     103.224 132.490  49.901  1.00  0.00     0.039 C 
ENDROOT
BRANCH   1   4
ATOM      4  C   UNL     1     104.346 133.751  51.887  1.00  0.00     0.034 C 
BRANCH   4   5
ATOM      5  C   UNL     1     103.734 135.067  52.380  1.00  0.00     0.032 C 
BRANCH   5   6
ATOM      6  C   UNL     1     102.486 135.401  51.602  1.00  0.00    -0.028 C 
ATOM      7  C   UNL     1     101.160 136.414  49.773  1.00  0.00     0.039 C 
ATOM      8  C   UNL     1     102.471 136.114  50.453  1.00  0.00    -0.080 C 
ATOM      9  C   UNL     1     103.740 136.591  49.790  1.00  0.00     0.039 C 
ENDBRANCH   5   6
ENDBRANCH   4   5
ENDBRANCH   1   4
BRANCH   2  10
ATOM     10  C   UNL     1     101.274 131.338  51.885  1.00  0.00     0.035 C 
BRANCH  10  11
ATOM     11  C   UNL     1      99.933 131.731  52.518  1.00  0.00     0.079 C 
BRANCH  11  12
ATOM     12  C   UNL     1      99.544 133.144  52.165  1.00  0.00     0.130 C 
ATOM     13  O   UNL     1      99.302 133.429  51.002  1.00  0.00    -0.300 OA
ATOM     14  C   UNL     1      99.447 134.211  53.214  1.00  0.00     0.087 C 
ENDBRANCH  11  12
ENDBRANCH  10  11
ENDBRANCH   2  10
TORSDOF 6
ENDMDL
MODEL 4
REMARK VINA RESULT:    -5.342      2.378      4.413
REMARK INTER + INTRA:          -8.443
REMARK INTER:                  -6.938
REMARK INTRA:                  -1.505
REMARK UNBOUND:                -1.227
REMARK SMILES CC(=O)CCC=C(C)CCC=C(C)C
REMARK SMILES IDX 7 1 6 2 8 3 9 4 10 5 11 6 13 7 12 8 14 9 5 10 4 11 2 12 3 13
REMARK SMILES IDX 1 14
REMARK H PARENT
REMARK Flexibility Score: inf
ROOT
ATOM      1  C   UNL     1     102.022 131.221  51.686  1.00  0.00    -0.077 C 
ATOM      2  C   UNL     1     100.741 131.610  51.491  1.00  0.00    -0.028 C 
ATOM      3  C   UNL     1     102.531 130.801  53.046  1.00  0.00     0.039 C 
ENDROOT
BRANCH   1   4
ATOM      4  C   UNL     1     102.967 131.185  50.505  1.00  0.00     0.034 C 
BRANCH   4   5
ATOM      5  C   UNL     1     102.950 132.521  49.753  1.00  0.00     0.032 C 
BRANCH   5   6
ATOM      6  C   UNL     1     103.556 133.616  50.596  1.00  0.00    -0.028 C 
ATOM      7  C   UNL     1     103.660 135.832  51.695  1.00  0.00     0.039 C 
ATOM      8  C   UNL     1     102.950 134.796  50.863  1.00  0.00    -0.080 C 
ATOM      9  C   UNL     1     101.551 135.104  50.389  1.00  0.00     0.039 C 
ENDBRANCH   5   6
ENDBRANCH   4   5
ENDBRANCH   1   4
BRANCH   2  10
ATOM     10  C   UNL     1      99.706 131.735  52.584  1.00  0.00     0.035 C 
BRANCH  10  11
ATOM     11  C   UNL     1      99.539 133.191  53.040  1.00  0.00     0.079 C 
BRANCH  11  12
ATOM     12  C   UNL     1     100.280 133.458  54.325  1.00  0.00     0.130 C 
ATOM     13  O   UNL     1      99.808 133.071  55.384  1.00  0.00    -0.300 OA
ATOM     14  C   UNL     1     101.587 134.192  54.332  1.00  0.00     0.087 C 
ENDBRANCH  11  12
ENDBRANCH  10  11
ENDBRANCH   2  10
TORSDOF 6
ENDMDL
MODEL 5
REMARK VINA RESULT:    -5.306      1.848      2.967
REMARK INTER + INTRA:          -8.394
REMARK INTER:                  -7.107
REMARK INTRA:                  -1.287
REMARK UNBOUND:                -1.227
REMARK SMILES CC(=O)CCC=C(C)CCC=C(C)C
REMARK SMILES IDX 7 1 6 2 8 3 9 4 10 5 11 6 13 7 12 8 14 9 5 10 4 11 2 12 3 13
REMARK SMILES IDX 1 14
REMARK H PARENT
REMARK Flexibility Score: inf
ROOT
ATOM      1  C   UNL     1     103.416 133.682  50.643  1.00  0.00    -0.077 C 
ATOM      2  C   UNL     1     102.636 134.769  50.450  1.00  0.00    -0.028 C 
ATOM      3  C   UNL     1     104.433 133.616  51.759  1.00  0.00     0.039 C 
ENDROOT
BRANCH   1   4
ATOM      4  C   UNL     1     103.252 132.488  49.728  1.00  0.00     0.034 C 
BRANCH   4   5
ATOM      5  C   UNL     1     102.767 131.264  50.512  1.00  0.00     0.032 C 
BRANCH   5   6
ATOM      6  C   UNL     1     101.421 131.528  51.139  1.00  0.00    -0.028 C 
ATOM      7  C   UNL     1      99.772 131.693  52.978  1.00  0.00     0.039 C 
ATOM      8  C   UNL     1     101.164 131.433  52.463  1.00  0.00    -0.080 C 
ATOM      9  C   UNL     1     102.245 131.115  53.468  1.00  0.00     0.039 C 
ENDBRANCH   5   6
ENDBRANCH   4   5
ENDBRANCH   1   4
BRANCH   2  10
ATOM     10  C   UNL     1     102.724 136.043  51.257  1.00  0.00     0.035 C 
BRANCH  10  11
ATOM     11  C   UNL     1     101.678 136.077  52.378  1.00  0.00     0.079 C 
BRANCH  11  12
ATOM     12  C   UNL     1     102.304 135.844  53.729  1.00  0.00     0.130 C 
ATOM     13  O   UNL     1     103.143 136.627  54.147  1.00  0.00    -0.300 OA
ATOM     14  C   UNL     1     101.916 134.668  54.575  1.00  0.00     0.087 C 
ENDBRANCH  11  12
ENDBRANCH  10  11
ENDBRANCH   2  10
TORSDOF 6
ENDMDL
MODEL 6
REMARK VINA RESULT:    -5.285      2.654      3.919
REMARK INTER + INTRA:          -8.366
REMARK INTER:                  -7.344
REMARK INTRA:                  -1.022
REMARK UNBOUND:                -1.227
REMARK SMILES CC(=O)CCC=C(C)CCC=C(C)C
REMARK SMILES IDX 7 1 6 2 8 3 9 4 10 5 11 6 13 7 12 8 14 9 5 10 4 11 2 12 3 13
REMARK SMILES IDX 1 14
REMARK H PARENT
REMARK Flexibility Score: inf
ROOT
ATOM      1  C   UNL     1     103.481 133.688  50.705  1.00  0.00    -0.077 C 
ATOM      2  C   UNL     1     104.439 133.538  51.648  1.00  0.00    -0.028 C 
ATOM      3  C   UNL     1     102.634 134.937  50.619  1.00  0.00     0.039 C 
ENDROOT
BRANCH   1   4
ATOM      4  C   UNL     1     103.264 132.583  49.695  1.00  0.00     0.034 C 
BRANCH   4   5
ATOM      5  C   UNL     1     102.793 131.298  50.386  1.00  0.00     0.032 C 
BRANCH   5   6
ATOM      6  C   UNL     1     101.457 131.510  51.054  1.00  0.00    -0.028 C 
ATOM      7  C   UNL     1      99.849 131.562  52.936  1.00  0.00     0.039 C 
ATOM      8  C   UNL     1     101.233 131.351  52.379  1.00  0.00    -0.080 C 
ATOM      9  C   UNL     1     102.342 131.009  53.344  1.00  0.00     0.039 C 
ENDBRANCH   5   6
ENDBRANCH   4   5
ENDBRANCH   1   4
BRANCH   2  10
ATOM     10  C   UNL     1     104.732 134.538  52.742  1.00  0.00     0.035 C 
BRANCH  10  11
ATOM     11  C   UNL     1     105.288 133.856  53.998  1.00  0.00     0.079 C 
BRANCH  11  12
ATOM     12  C   UNL     1     106.721 133.428  53.810  1.00  0.00     0.130 C 
ATOM     13  O   UNL     1     107.074 132.322  54.190  1.00  0.00    -0.300 OA
ATOM     14  C   UNL     1     107.726 134.334  53.163  1.00  0.00     0.087 C 
ENDBRANCH  11  12
ENDBRANCH  10  11
ENDBRANCH   2  10
TORSDOF 6
ENDMDL
MODEL 7
REMARK VINA RESULT:    -5.196      1.427      3.319
REMARK INTER + INTRA:          -8.246
REMARK INTER:                  -7.063
REMARK INTRA:                  -1.183
REMARK UNBOUND:                -1.227
REMARK SMILES CC(=O)CCC=C(C)CCC=C(C)C
REMARK SMILES IDX 7 1 6 2 8 3 9 4 10 5 11 6 13 7 12 8 14 9 5 10 4 11 2 12 3 13
REMARK SMILES IDX 1 14
REMARK H PARENT
REMARK Flexibility Score: inf
ROOT
ATOM      1  C   UNL     1     100.279 134.556  51.257  1.00  0.00    -0.077 C 
ATOM      2  C   UNL     1     101.360 135.195  51.759  1.00  0.00    -0.028 C 
ATOM      3  C   UNL     1      99.814 134.770  49.835  1.00  0.00     0.039 C 
ENDROOT
BRANCH   1   4
ATOM      4  C   UNL     1      99.527 133.583  52.137  1.00  0.00     0.034 C 
BRANCH   4   5
ATOM      5  C   UNL     1      99.720 132.143  51.647  1.00  0.00     0.032 C 
BRANCH   5   6
ATOM      6  C   UNL     1     100.748 131.426  52.486  1.00  0.00    -0.028 C 
ATOM      7  C   UNL     1     102.941 130.394  52.988  1.00  0.00     0.039 C 
ATOM      8  C   UNL     1     102.004 131.142  52.075  1.00  0.00    -0.080 C 
ATOM      9  C   UNL     1     102.529 131.591  50.733  1.00  0.00     0.039 C 
ENDBRANCH   5   6
ENDBRANCH   4   5
ENDBRANCH   1   4
BRANCH   2  10
ATOM     10  C   UNL     1     102.175 136.222  51.010  1.00  0.00     0.035 C 
BRANCH  10  11
ATOM     11  C   UNL     1     103.624 135.758  50.807  1.00  0.00     0.079 C 
BRANCH  11  12
ATOM     12  C   UNL     1     104.301 135.460  52.120  1.00  0.00     0.130 C 
ATOM     13  O   UNL     1     104.476 136.362  52.926  1.00  0.00    -0.300 OA
ATOM     14  C   UNL     1     104.766 134.076  52.461  1.00  0.00     0.087 C 
ENDBRANCH  11  12
ENDBRANCH  10  11
ENDBRANCH   2  10
TORSDOF 6
ENDMDL
MODEL 8
REMARK VINA RESULT:    -5.166      2.019      3.926
REMARK INTER + INTRA:          -8.205
REMARK INTER:                  -6.892
REMARK INTRA:                  -1.313
REMARK UNBOUND:                -1.227
REMARK SMILES CC(=O)CCC=C(C)CCC=C(C)C
REMARK SMILES IDX 7 1 6 2 8 3 9 4 10 5 11 6 13 7 12 8 14 9 5 10 4 11 2 12 3 13
REMARK SMILES IDX 1 14
REMARK H PARENT
REMARK Flexibility Score: inf
ROOT
ATOM      1  C   UNL     1     101.984 131.120  52.143  1.00  0.00    -0.077 C 
ATOM      2  C   UNL     1     100.750 131.497  52.547  1.00  0.00    -0.028 C 
ATOM      3  C   UNL     1     102.481 131.387  50.740  1.00  0.00     0.039 C 
ENDROOT
BRANCH   1   4
ATOM      4  C   UNL     1     102.901 130.430  53.128  1.00  0.00     0.034 C 
BRANCH   4   5
ATOM      5  C   UNL     1     103.382 131.411  54.203  1.00  0.00     0.032 C 
BRANCH   5   6
ATOM      6  C   UNL     1     104.535 132.240  53.694  1.00  0.00    -0.028 C 
ATOM      7  C   UNL     1     105.648 134.261  52.795  1.00  0.00     0.039 C 
ATOM      8  C   UNL     1     104.434 133.535  53.317  1.00  0.00    -0.080 C 
ATOM      9  C   UNL     1     103.145 134.309  53.443  1.00  0.00     0.039 C 
ENDBRANCH   5   6
ENDBRANCH   4   5
ENDBRANCH   1   4
BRANCH   2  10
ATOM     10  C   UNL     1      99.717 132.152  51.660  1.00  0.00     0.035 C 
BRANCH  10  11
ATOM     11  C   UNL     1      99.691 133.674  51.850  1.00  0.00     0.079 C 
BRANCH  11  12
ATOM     12  C   UNL     1      99.957 134.400  50.556  1.00  0.00     0.130 C 
ATOM     13  O   UNL     1      99.049 134.549  49.751  1.00  0.00    -0.300 OA
ATOM     14  C   UNL     1     101.316 134.946  50.234  1.00  0.00     0.087 C 
ENDBRANCH  11  12
ENDBRANCH  10  11
ENDBRANCH   2  10
TORSDOF 6
ENDMDL
MODEL 9
REMARK VINA RESULT:    -5.088      2.418      5.346
REMARK INTER + INTRA:          -8.100
REMARK INTER:                  -7.038
REMARK INTRA:                  -1.062
REMARK UNBOUND:                -1.227
REMARK SMILES CC(=O)CCC=C(C)CCC=C(C)C
REMARK SMILES IDX 7 1 6 2 8 3 9 4 10 5 11 6 13 7 12 8 14 9 5 10 4 11 2 12 3 13
REMARK SMILES IDX 1 14
REMARK H PARENT
REMARK Flexibility Score: inf
ROOT
ATOM      1  C   UNL     1     102.481 134.384  50.642  1.00  0.00    -0.077 C 
ATOM      2  C   UNL     1     103.136 133.202  50.690  1.00  0.00    -0.028 C 
ATOM      3  C   UNL     1     100.982 134.460  50.462  1.00  0.00     0.039 C 
ENDROOT
BRANCH   1   4
ATOM      4  C   UNL     1     103.269 135.666  50.796  1.00  0.00     0.034 C 
BRANCH   4   5
ATOM      5  C   UNL     1     103.717 135.859  52.249  1.00  0.00     0.032 C 
BRANCH   5   6
ATOM      6  C   UNL     1     105.220 135.785  52.359  1.00  0.00    -0.028 C 
ATOM      7  C   UNL     1     107.396 134.812  53.028  1.00  0.00     0.039 C 
ATOM      8  C   UNL     1     105.891 134.770  52.949  1.00  0.00    -0.080 C 
ATOM      9  C   UNL     1     105.186 133.555  53.500  1.00  0.00     0.039 C 
ENDBRANCH   5   6
ENDBRANCH   4   5
ENDBRANCH   1   4
BRANCH   2  10
ATOM     10  C   UNL     1     102.485 131.851  50.506  1.00  0.00     0.035 C 
BRANCH  10  11
ATOM     11  C   UNL     1     102.531 131.020  51.795  1.00  0.00     0.079 C 
BRANCH  11  12
ATOM     12  C   UNL     1     101.494 131.478  52.789  1.00  0.00     0.130 C 
ATOM     13  O   UNL     1     101.849 131.888  53.884  1.00  0.00    -0.300 OA
ATOM     14  C   UNL     1     100.031 131.443  52.460  1.00  0.00     0.087 C 
ENDBRANCH  11  12
ENDBRANCH  10  11
ENDBRANCH   2  10
TORSDOF 6
ENDMDL
