MODEL 1
REMARK VINA RESULT:    -3.627      0.000      0.000
REMARK INTER + INTRA:          -4.537
REMARK INTER:                  -4.476
REMARK INTRA:                  -0.062
REMARK UNBOUND:                -0.062
REMARK SMILES CCCCCC=O
REMARK SMILES IDX 4 1 3 2 2 3 1 4 5 5 6 6 7 7
REMARK H PARENT
REMARK Flexibility Score: inf
ROOT
ATOM      1  C   UNL     1      25.605  56.606  -8.721  1.00  0.00     0.008 C 
ENDROOT
BRANCH   1   2
ATOM      2  C   UNL     1      24.374  55.692  -8.690  1.00  0.00     0.000 C 
BRANCH   2   3
ATOM      3  C   UNL     1      23.886  55.472  -7.254  1.00  0.00    -0.003 C 
ATOM      4  C   UNL     1      22.543  54.750  -7.232  1.00  0.00     0.004 C 
ENDBRANCH   2   3
ENDBRANCH   1   2
BRANCH   1   5
ATOM      5  C   UNL     1      25.195  58.082  -8.740  1.00  0.00     0.072 C 
BRANCH   5   6
ATOM      6  C   UNL     1      26.284  58.943  -9.309  1.00  0.00     0.224 C 
ATOM      7  O   UNL     1      26.999  58.510 -10.197  1.00  0.00    -0.303 OA
ENDBRANCH   5   6
ENDBRANCH   1   5
TORSDOF 4
ENDMDL
MODEL 2
REMARK VINA RESULT:    -3.484      2.527      4.665
REMARK INTER + INTRA:          -4.361
REMARK INTER:                  -4.329
REMARK INTRA:                  -0.031
REMARK UNBOUND:                -0.062
REMARK SMILES CCCCCC=O
REMARK SMILES IDX 4 1 3 2 2 3 1 4 5 5 6 6 7 7
REMARK H PARENT
REMARK Flexibility Score: inf
ROOT
ATOM      1  C   UNL     1      25.528  56.439  -8.535  1.00  0.00     0.008 C 
ENDROOT
BRANCH   1   2
ATOM      2  C   UNL     1      25.505  57.944  -8.830  1.00  0.00     0.000 C 
BRANCH   2   3
ATOM      3  C   UNL     1      26.700  58.353  -9.700  1.00  0.00    -0.003 C 
ATOM      4  C   UNL     1      27.027  59.833  -9.527  1.00  0.00     0.004 C 
ENDBRANCH   2   3
ENDBRANCH   1   2
BRANCH   1   5
ATOM      5  C   UNL     1      24.132  55.826  -8.688  1.00  0.00     0.072 C 
BRANCH   5   6
ATOM      6  C   UNL     1      23.625  55.294  -7.380  1.00  0.00     0.224 C 
ATOM      7  O   UNL     1      22.503  54.820  -7.310  1.00  0.00    -0.303 OA
ENDBRANCH   5   6
ENDBRANCH   1   5
TORSDOF 4
ENDMDL
MODEL 3
REMARK VINA RESULT:    -3.247     16.272     17.451
REMARK INTER + INTRA:          -4.068
REMARK INTER:                  -3.895
REMARK INTRA:                  -0.173
REMARK UNBOUND:                -0.062
REMARK SMILES CCCCCC=O
REMARK SMILES IDX 4 1 3 2 2 3 1 4 5 5 6 6 7 7
REMARK H PARENT
REMARK Flexibility Score: inf
ROOT
ATOM      1  C   UNL     1      18.746  43.839   2.607  1.00  0.00     0.008 C 
ENDROOT
BRANCH   1   2
ATOM      2  C   UNL     1      17.551  43.377   1.763  1.00  0.00     0.000 C 
BRANCH   2   3
ATOM      3  C   UNL     1      16.308  44.223   2.060  1.00  0.00    -0.003 C 
ATOM      4  C   UNL     1      15.824  44.949   0.809  1.00  0.00     0.004 C 
ENDBRANCH   2   3
ENDBRANCH   1   2
BRANCH   1   5
ATOM      5  C   UNL     1      19.980  44.079   1.730  1.00  0.00     0.072 C 
BRANCH   5   6
ATOM      6  C   UNL     1      19.592  44.331   0.303  1.00  0.00     0.224 C 
ATOM      7  O   UNL     1      19.615  45.467  -0.141  1.00  0.00    -0.303 OA
ENDBRANCH   5   6
ENDBRANCH   1   5
TORSDOF 4
ENDMDL
MODEL 4
REMARK VINA RESULT:    -3.241     16.478     17.454
REMARK INTER + INTRA:          -4.061
REMARK INTER:                  -3.910
REMARK INTRA:                  -0.151
REMARK UNBOUND:                -0.062
REMARK SMILES CCCCCC=O
REMARK SMILES IDX 4 1 3 2 2 3 1 4 5 5 6 6 7 7
REMARK H PARENT
REMARK Flexibility Score: inf
ROOT
ATOM      1  C   UNL     1      19.329  44.620   0.293  1.00  0.00     0.008 C 
ENDROOT
BRANCH   1   2
ATOM      2  C   UNL     1      17.819  44.352   0.292  1.00  0.00     0.000 C 
BRANCH   2   3
ATOM      3  C   UNL     1      17.365  43.755   1.630  1.00  0.00    -0.003 C 
ATOM      4  C   UNL     1      16.069  44.401   2.111  1.00  0.00     0.004 C 
ENDBRANCH   2   3
ENDBRANCH   1   2
BRANCH   1   5
ATOM      5  C   UNL     1      19.973  44.141   1.598  1.00  0.00     0.072 C 
BRANCH   5   6
ATOM      6  C   UNL     1      21.004  43.083   1.339  1.00  0.00     0.224 C 
ATOM      7  O   UNL     1      21.056  42.537   0.249  1.00  0.00    -0.303 OA
ENDBRANCH   5   6
ENDBRANCH   1   5
TORSDOF 4
ENDMDL
MODEL 5
REMARK VINA RESULT:    -3.188      2.093      4.633
REMARK INTER + INTRA:          -3.995
REMARK INTER:                  -3.926
REMARK INTRA:                  -0.069
REMARK UNBOUND:                -0.062
REMARK SMILES CCCCCC=O
REMARK SMILES IDX 4 1 3 2 2 3 1 4 5 5 6 6 7 7
REMARK H PARENT
REMARK Flexibility Score: inf
ROOT
ATOM      1  C   UNL     1      26.134  57.877  -9.234  1.00  0.00     0.008 C 
ENDROOT
BRANCH   1   2
ATOM      2  C   UNL     1      26.183  59.409  -9.219  1.00  0.00     0.000 C 
BRANCH   2   3
ATOM      3  C   UNL     1      27.458  59.926  -9.895  1.00  0.00    -0.003 C 
ATOM      4  C   UNL     1      27.981  58.928 -10.923  1.00  0.00     0.004 C 
ENDBRANCH   2   3
ENDBRANCH   1   2
BRANCH   1   5
ATOM      5  C   UNL     1      24.896  57.357  -8.496  1.00  0.00     0.072 C 
BRANCH   5   6
ATOM      6  C   UNL     1      24.857  55.858  -8.486  1.00  0.00     0.224 C 
ATOM      7  O   UNL     1      25.734  55.231  -7.915  1.00  0.00    -0.303 OA
ENDBRANCH   5   6
ENDBRANCH   1   5
TORSDOF 4
ENDMDL
MODEL 6
REMARK VINA RESULT:    -3.171      1.379      2.448
REMARK INTER + INTRA:          -3.974
REMARK INTER:                  -3.893
REMARK INTRA:                  -0.081
REMARK UNBOUND:                -0.062
REMARK SMILES CCCCCC=O
REMARK SMILES IDX 4 1 3 2 2 3 1 4 5 5 6 6 7 7
REMARK H PARENT
REMARK Flexibility Score: inf
ROOT
ATOM      1  C   UNL     1      26.243  59.028  -9.125  1.00  0.00     0.008 C 
ENDROOT
BRANCH   1   2
ATOM      2  C   UNL     1      25.086  58.094  -8.750  1.00  0.00     0.000 C 
BRANCH   2   3
ATOM      3  C   UNL     1      25.562  56.640  -8.650  1.00  0.00    -0.003 C 
ATOM      4  C   UNL     1      24.390  55.691  -8.417  1.00  0.00     0.004 C 
ENDBRANCH   2   3
ENDBRANCH   1   2
BRANCH   1   5
ATOM      5  C   UNL     1      27.002  58.501 -10.349  1.00  0.00     0.072 C 
BRANCH   5   6
ATOM      6  C   UNL     1      28.231  59.317 -10.619  1.00  0.00     0.224 C 
ATOM      7  O   UNL     1      28.126  60.490 -10.937  1.00  0.00    -0.303 OA
ENDBRANCH   5   6
ENDBRANCH   1   5
TORSDOF 4
ENDMDL
MODEL 7
REMARK VINA RESULT:    -3.145     16.397     17.876
REMARK INTER + INTRA:          -3.943
REMARK INTER:                  -3.780
REMARK INTRA:                  -0.163
REMARK UNBOUND:                -0.062
REMARK SMILES CCCCCC=O
REMARK SMILES IDX 4 1 3 2 2 3 1 4 5 5 6 6 7 7
REMARK H PARENT
REMARK Flexibility Score: inf
ROOT
ATOM      1  C   UNL     1      17.524  43.582   1.621  1.00  0.00     0.008 C 
ENDROOT
BRANCH   1   2
ATOM      2  C   UNL     1      18.711  43.761   2.575  1.00  0.00     0.000 C 
BRANCH   2   3
ATOM      3  C   UNL     1      19.970  44.188   1.813  1.00  0.00    -0.003 C 
ATOM      4  C   UNL     1      19.627  44.676   0.409  1.00  0.00     0.004 C 
ENDBRANCH   2   3
ENDBRANCH   1   2
BRANCH   1   5
ATOM      5  C   UNL     1      16.274  44.287   2.158  1.00  0.00     0.072 C 
BRANCH   5   6
ATOM      6  C   UNL     1      15.556  45.027   1.068  1.00  0.00     0.224 C 
ATOM      7  O   UNL     1      16.161  45.372   0.066  1.00  0.00    -0.303 OA
ENDBRANCH   5   6
ENDBRANCH   1   5
TORSDOF 4
ENDMDL
MODEL 8
REMARK VINA RESULT:    -3.108      6.579      8.200
REMARK INTER + INTRA:          -3.896
REMARK INTER:                  -3.778
REMARK INTRA:                  -0.119
REMARK UNBOUND:                -0.062
REMARK SMILES CCCCCC=O
REMARK SMILES IDX 4 1 3 2 2 3 1 4 5 5 6 6 7 7
REMARK H PARENT
REMARK Flexibility Score: inf
ROOT
ATOM      1  C   UNL     1      30.016  57.338 -13.222  1.00  0.00     0.008 C 
ENDROOT
BRANCH   1   2
ATOM      2  C   UNL     1      31.258  56.531 -13.620  1.00  0.00     0.000 C 
BRANCH   2   3
ATOM      3  C   UNL     1      32.454  57.454 -13.881  1.00  0.00    -0.003 C 
ATOM      4  C   UNL     1      33.759  56.806 -13.427  1.00  0.00     0.004 C 
ENDBRANCH   2   3
ENDBRANCH   1   2
BRANCH   1   5
ATOM      5  C   UNL     1      30.385  58.786 -12.882  1.00  0.00     0.072 C 
BRANCH   5   6
ATOM      6  C   UNL     1      30.049  59.113 -11.457  1.00  0.00     0.224 C 
ATOM      7  O   UNL     1      28.883  59.239 -11.121  1.00  0.00    -0.303 OA
ENDBRANCH   5   6
ENDBRANCH   1   5
TORSDOF 4
ENDMDL
MODEL 9
REMARK VINA RESULT:    -3.065     17.439     18.090
REMARK INTER + INTRA:          -3.844
REMARK INTER:                  -3.653
REMARK INTRA:                  -0.191
REMARK UNBOUND:                -0.062
REMARK SMILES CCCCCC=O
REMARK SMILES IDX 4 1 3 2 2 3 1 4 5 5 6 6 7 7
REMARK H PARENT
REMARK Flexibility Score: inf
ROOT
ATOM      1  C   UNL     1      17.469  43.825   1.961  1.00  0.00     0.008 C 
ENDROOT
BRANCH   1   2
ATOM      2  C   UNL     1      18.862  43.585   2.555  1.00  0.00     0.000 C 
BRANCH   2   3
ATOM      3  C   UNL     1      19.957  44.122   1.627  1.00  0.00    -0.003 C 
ATOM      4  C   UNL     1      20.966  43.033   1.275  1.00  0.00     0.004 C 
ENDBRANCH   2   3
ENDBRANCH   1   2
BRANCH   1   5
ATOM      5  C   UNL     1      17.547  44.044   0.446  1.00  0.00     0.072 C 
BRANCH   5   6
ATOM      6  C   UNL     1      17.199  42.793  -0.304  1.00  0.00     0.224 C 
ATOM      7  O   UNL     1      18.078  42.004  -0.612  1.00  0.00    -0.303 OA
ENDBRANCH   5   6
ENDBRANCH   1   5
TORSDOF 4
ENDMDL
