MODEL 1
REMARK VINA RESULT:    -4.550      0.000      0.000
REMARK INTER + INTRA:          -6.697
REMARK INTER:                  -6.411
REMARK INTRA:                  -0.286
REMARK UNBOUND:                -0.286
REMARK SMILES CC1=CCC(=C(C)C)C(=O)CC(C)=CCC1
REMARK SMILES IDX 12 1 14 2 13 3 15 4 16 5 2 6 1 7 3 8 11 10 9 11 10 12 5 13
REMARK SMILES IDX 6 14 7 15 8 16 4 17
REMARK H PARENT
REMARK Flexibility Score: 60.00
ROOT
ATOM      1  C   UNL     1      15.989 -34.227  23.702  1.00  0.00    -0.070 C 
ATOM      2  C   UNL     1      15.369 -33.482  24.645  1.00  0.00    -0.027 C 
ATOM      3  C   UNL     1      17.376 -34.729  24.024  1.00  0.00     0.039 C 
ENDROOT
BRANCH   2   4
ATOM      4  C   UNL     1      13.974 -32.915  24.565  1.00  0.00     0.032 C 
BRANCH   4   5
ATOM      5  C   UNL     1      13.892 -31.424  24.160  1.00  0.00     0.034 C 
BRANCH   5   6
ATOM      6  C   UNL     1      13.524 -31.157  22.706  1.00  0.00    -0.077 C 
ATOM      7  C   UNL     1      12.067 -30.931  22.385  1.00  0.00     0.039 C 
ATOM      8  C   UNL     1      14.397 -31.164  21.661  1.00  0.00    -0.023 CG0
ATOM      9  G   UNL     1      15.918 -31.218  21.660  1.00  0.00     0.000 G0
ENDBRANCH   5   6
ENDBRANCH   4   5
ENDBRANCH   2   4
BRANCH   1  10
ATOM     10  C   UNL     1      15.377 -34.635  22.366  1.00  0.00     0.111 C 
BRANCH  10  11
ATOM     11  C   UNL     1      15.711 -33.767  21.174  1.00  0.00     0.163 C 
ATOM     12  O   UNL     1      15.218 -34.121  20.069  1.00  0.00    -0.294 OA
BRANCH  11  13
ATOM     13  C   UNL     1      16.569 -32.530  21.252  1.00  0.00    -0.002 C 
ATOM     14  C   UNL     1      17.897 -32.543  20.911  1.00  0.00    -0.069 C 
ATOM     15  C   UNL     1      18.714 -31.269  20.877  1.00  0.00     0.039 C 
ATOM     16  C   UNL     1      18.634 -33.823  20.587  1.00  0.00     0.039 C 
BRANCH  13  17
ATOM     17  C   UNL     1      15.910 -31.222  21.664  1.00  0.00     0.066 CG0
ATOM     18  G   UNL     1      14.389 -31.189  21.659  1.00  0.00     0.000 G0
ENDBRANCH  13  17
ENDBRANCH  11  13
ENDBRANCH  10  11
ENDBRANCH   1  10
TORSDOF 0
ENDMDL
MODEL 2
REMARK VINA RESULT:    -4.492      2.050      4.837
REMARK INTER + INTRA:          -6.616
REMARK INTER:                  -6.352
REMARK INTRA:                  -0.263
REMARK UNBOUND:                -0.286
REMARK SMILES CC1=CCC(=C(C)C)C(=O)CC(C)=CCC1
REMARK SMILES IDX 12 1 14 2 13 3 15 4 16 5 2 6 1 7 3 8 11 10 9 11 10 12 5 13
REMARK SMILES IDX 6 14 7 15 8 16 4 17
REMARK H PARENT
REMARK Flexibility Score: 60.00
ROOT
ATOM      1  C   UNL     1      17.692 -31.891  21.938  1.00  0.00    -0.070 C 
ATOM      2  C   UNL     1      18.265 -32.140  20.738  1.00  0.00    -0.027 C 
ATOM      3  C   UNL     1      17.249 -30.474  22.208  1.00  0.00     0.039 C 
ENDROOT
BRANCH   2   4
ATOM      4  C   UNL     1      18.741 -33.478  20.233  1.00  0.00     0.032 C 
BRANCH   4   5
ATOM      5  C   UNL     1      17.742 -34.233  19.324  1.00  0.00     0.034 C 
BRANCH   5   6
ATOM      6  C   UNL     1      16.911 -35.308  20.011  1.00  0.00    -0.077 C 
ATOM      7  C   UNL     1      17.494 -36.698  20.088  1.00  0.00     0.039 C 
ATOM      8  C   UNL     1      15.657 -35.132  20.512  1.00  0.00    -0.023 CG0
ATOM      9  G   UNL     1      14.859 -33.852  20.716  1.00  0.00     0.000 G0
ENDBRANCH   5   6
ENDBRANCH   4   5
ENDBRANCH   2   4
BRANCH   1  10
ATOM     10  C   UNL     1      17.418 -32.939  23.011  1.00  0.00     0.111 C 
BRANCH  10  11
ATOM     11  C   UNL     1      16.045 -33.573  23.004  1.00  0.00     0.163 C 
ATOM     12  O   UNL     1      15.846 -34.486  23.851  1.00  0.00    -0.294 OA
BRANCH  11  13
ATOM     13  C   UNL     1      14.937 -33.163  22.067  1.00  0.00    -0.002 C 
ATOM     14  C   UNL     1      14.049 -32.167  22.384  1.00  0.00    -0.069 C 
ATOM     15  C   UNL     1      13.020 -31.683  21.384  1.00  0.00     0.039 C 
ATOM     16  C   UNL     1      14.015 -31.520  23.750  1.00  0.00     0.039 C 
BRANCH  13  17
ATOM     17  C   UNL     1      14.855 -33.842  20.709  1.00  0.00     0.066 CG0
ATOM     18  G   UNL     1      15.658 -35.123  20.533  1.00  0.00     0.000 G0
ENDBRANCH  13  17
ENDBRANCH  11  13
ENDBRANCH  10  11
ENDBRANCH   1  10
TORSDOF 0
ENDMDL
MODEL 3
REMARK VINA RESULT:    -4.312      1.796      3.751
REMARK INTER + INTRA:          -6.363
REMARK INTER:                  -6.174
REMARK INTRA:                  -0.189
REMARK UNBOUND:                -0.286
REMARK SMILES CC1=CCC(=C(C)C)C(=O)CC(C)=CCC1
REMARK SMILES IDX 12 1 14 2 13 3 15 4 16 5 2 6 1 7 3 8 11 10 9 11 10 12 5 13
REMARK SMILES IDX 6 14 7 15 8 16 4 17
REMARK H PARENT
REMARK Flexibility Score: 60.00
ROOT
ATOM      1  C   UNL     1      14.567 -30.894  23.839  1.00  0.00    -0.070 C 
ATOM      2  C   UNL     1      14.045 -32.033  24.350  1.00  0.00    -0.027 C 
ATOM      3  C   UNL     1      13.656 -29.692  23.767  1.00  0.00     0.039 C 
ENDROOT
BRANCH   2   4
ATOM      4  C   UNL     1      14.773 -33.336  24.559  1.00  0.00     0.032 C 
BRANCH   4   5
ATOM      5  C   UNL     1      15.134 -34.105  23.265  1.00  0.00     0.034 C 
BRANCH   5   6
ATOM      6  C   UNL     1      16.571 -34.601  23.175  1.00  0.00    -0.077 C 
ATOM      7  C   UNL     1      17.007 -35.659  24.158  1.00  0.00     0.039 C 
ATOM      8  C   UNL     1      17.513 -34.125  22.314  1.00  0.00    -0.023 CG0
ATOM      9  G   UNL     1      17.365 -33.183  21.129  1.00  0.00     0.000 G0
ENDBRANCH   5   6
ENDBRANCH   4   5
ENDBRANCH   2   4
BRANCH   1  10
ATOM     10  C   UNL     1      16.010 -30.722  23.379  1.00  0.00     0.111 C 
BRANCH  10  11
ATOM     11  C   UNL     1      16.284 -30.945  21.910  1.00  0.00     0.163 C 
ATOM     12  O   UNL     1      15.439 -30.471  21.103  1.00  0.00    -0.294 OA
BRANCH  11  13
ATOM     13  C   UNL     1      17.494 -31.677  21.385  1.00  0.00    -0.002 C 
ATOM     14  C   UNL     1      18.700 -31.049  21.200  1.00  0.00    -0.069 C 
ATOM     15  C   UNL     1      19.935 -31.822  20.790  1.00  0.00     0.039 C 
ATOM     16  C   UNL     1      18.863 -29.554  21.355  1.00  0.00     0.039 C 
BRANCH  13  17
ATOM     17  C   UNL     1      17.373 -33.169  21.117  1.00  0.00     0.066 CG0
ATOM     18  G   UNL     1      17.510 -34.094  22.317  1.00  0.00     0.000 G0
ENDBRANCH  13  17
ENDBRANCH  11  13
ENDBRANCH  10  11
ENDBRANCH   1  10
TORSDOF 0
ENDMDL
MODEL 4
REMARK VINA RESULT:    -4.236      2.100      3.164
REMARK INTER + INTRA:          -6.256
REMARK INTER:                  -5.822
REMARK INTRA:                  -0.433
REMARK UNBOUND:                -0.286
REMARK SMILES CC1=CCC(=C(C)C)C(=O)CC(C)=CCC1
REMARK SMILES IDX 12 1 14 2 13 3 15 4 16 5 2 6 1 7 3 8 11 10 9 11 10 12 5 13
REMARK SMILES IDX 6 14 7 15 8 16 4 17
REMARK H PARENT
REMARK Flexibility Score: 60.00
ROOT
ATOM      1  C   UNL     1      16.698 -30.155  22.759  1.00  0.00    -0.070 C 
ATOM      2  C   UNL     1      15.351 -30.043  22.810  1.00  0.00    -0.027 C 
ATOM      3  C   UNL     1      17.410 -29.412  21.654  1.00  0.00     0.039 C 
ENDROOT
BRANCH   2   4
ATOM      4  C   UNL     1      14.440 -30.654  23.843  1.00  0.00     0.032 C 
BRANCH   4   5
ATOM      5  C   UNL     1      13.784 -31.995  23.433  1.00  0.00     0.034 C 
BRANCH   5   6
ATOM      6  C   UNL     1      13.944 -32.384  21.969  1.00  0.00    -0.077 C 
ATOM      7  C   UNL     1      12.991 -31.766  20.975  1.00  0.00     0.039 C 
ATOM      8  C   UNL     1      14.841 -33.290  21.491  1.00  0.00    -0.023 CG0
ATOM      9  G   UNL     1      16.009 -33.970  22.189  1.00  0.00     0.000 G0
ENDBRANCH   5   6
ENDBRANCH   4   5
ENDBRANCH   2   4
BRANCH   1  10
ATOM     10  C   UNL     1      17.550 -30.932  23.757  1.00  0.00     0.111 C 
BRANCH  10  11
ATOM     11  C   UNL     1      17.504 -32.440  23.658  1.00  0.00     0.163 C 
ATOM     12  O   UNL     1      17.639 -33.076  24.738  1.00  0.00    -0.294 OA
BRANCH  11  13
ATOM     13  C   UNL     1      17.297 -33.189  22.366  1.00  0.00    -0.002 C 
ATOM     14  C   UNL     1      18.254 -33.222  21.383  1.00  0.00    -0.069 C 
ATOM     15  C   UNL     1      18.082 -34.077  20.146  1.00  0.00     0.039 C 
ATOM     16  C   UNL     1      19.512 -32.386  21.453  1.00  0.00     0.039 C 
BRANCH  13  17
ATOM     17  C   UNL     1      16.009 -33.977  22.190  1.00  0.00     0.066 CG0
ATOM     18  G   UNL     1      14.855 -33.261  21.502  1.00  0.00     0.000 G0
ENDBRANCH  13  17
ENDBRANCH  11  13
ENDBRANCH  10  11
ENDBRANCH   1  10
TORSDOF 0
ENDMDL
MODEL 5
REMARK VINA RESULT:    -4.214      1.635      4.369
REMARK INTER + INTRA:          -6.225
REMARK INTER:                  -5.776
REMARK INTRA:                  -0.449
REMARK UNBOUND:                -0.286
REMARK SMILES CC1=CCC(=C(C)C)C(=O)CC(C)=CCC1
REMARK SMILES IDX 12 1 14 2 13 3 15 4 16 5 2 6 1 7 3 8 11 10 9 11 10 12 5 13
REMARK SMILES IDX 6 14 7 15 8 16 4 17
REMARK H PARENT
REMARK Flexibility Score: 60.00
ROOT
ATOM      1  C   UNL     1      17.209 -35.461  22.390  1.00  0.00    -0.070 C 
ATOM      2  C   UNL     1      18.368 -35.546  21.698  1.00  0.00    -0.027 C 
ATOM      3  C   UNL     1      17.301 -35.522  23.896  1.00  0.00     0.039 C 
ENDROOT
BRANCH   2   4
ATOM      4  C   UNL     1      18.525 -35.464  20.201  1.00  0.00     0.032 C 
BRANCH   4   5
ATOM      5  C   UNL     1      18.798 -34.046  19.644  1.00  0.00     0.034 C 
BRANCH   5   6
ATOM      6  C   UNL     1      19.296 -33.026  20.659  1.00  0.00    -0.077 C 
ATOM      7  C   UNL     1      20.768 -33.035  20.993  1.00  0.00     0.039 C 
ATOM      8  C   UNL     1      18.510 -32.143  21.336  1.00  0.00    -0.023 CG0
ATOM      9  G   UNL     1      17.044 -31.788  21.134  1.00  0.00     0.000 G0
ENDBRANCH   5   6
ENDBRANCH   4   5
ENDBRANCH   2   4
BRANCH   1  10
ATOM     10  C   UNL     1      15.831 -35.260  21.769  1.00  0.00     0.111 C 
BRANCH  10  11
ATOM     11  C   UNL     1      15.519 -33.877  21.244  1.00  0.00     0.163 C 
ATOM     12  O   UNL     1      14.795 -33.820  20.214  1.00  0.00    -0.294 OA
BRANCH  11  13
ATOM     13  C   UNL     1      16.011 -32.605  21.888  1.00  0.00    -0.002 C 
ATOM     14  C   UNL     1      15.605 -32.221  23.141  1.00  0.00    -0.069 C 
ATOM     15  C   UNL     1      16.201 -31.007  23.823  1.00  0.00     0.039 C 
ATOM     16  C   UNL     1      14.522 -32.954  23.898  1.00  0.00     0.039 C 
BRANCH  13  17
ATOM     17  C   UNL     1      17.035 -31.768  21.137  1.00  0.00     0.066 CG0
ATOM     18  G   UNL     1      18.499 -32.126  21.346  1.00  0.00     0.000 G0
ENDBRANCH  13  17
ENDBRANCH  11  13
ENDBRANCH  10  11
ENDBRANCH   1  10
TORSDOF 0
ENDMDL
MODEL 6
REMARK VINA RESULT:    -4.197      2.133      3.823
REMARK INTER + INTRA:          -6.201
REMARK INTER:                  -5.942
REMARK INTRA:                  -0.259
REMARK UNBOUND:                -0.286
REMARK SMILES CC1=CCC(=C(C)C)C(=O)CC(C)=CCC1
REMARK SMILES IDX 12 1 14 2 13 3 15 4 16 5 2 6 1 7 3 8 11 10 9 11 10 12 5 13
REMARK SMILES IDX 6 14 7 15 8 16 4 17
REMARK H PARENT
REMARK Flexibility Score: 60.00
ROOT
ATOM      1  C   UNL     1      18.232 -33.217  20.266  1.00  0.00    -0.070 C 
ATOM      2  C   UNL     1      18.151 -32.098  21.023  1.00  0.00    -0.027 C 
ATOM      3  C   UNL     1      19.614 -33.708  19.909  1.00  0.00     0.039 C 
ENDROOT
BRANCH   2   4
ATOM      4  C   UNL     1      16.889 -31.454  21.536  1.00  0.00     0.032 C 
BRANCH   4   5
ATOM      5  C   UNL     1      16.604 -31.669  23.042  1.00  0.00     0.034 C 
BRANCH   5   6
ATOM      6  C   UNL     1      15.554 -32.723  23.368  1.00  0.00    -0.077 C 
ATOM      7  C   UNL     1      14.133 -32.256  23.562  1.00  0.00     0.039 C 
ATOM      8  C   UNL     1      15.804 -34.048  23.557  1.00  0.00    -0.023 CG0
ATOM      9  G   UNL     1      17.074 -34.848  23.302  1.00  0.00     0.000 G0
ENDBRANCH   5   6
ENDBRANCH   4   5
ENDBRANCH   2   4
BRANCH   1  10
ATOM     10  C   UNL     1      17.040 -34.041  19.792  1.00  0.00     0.111 C 
BRANCH  10  11
ATOM     11  C   UNL     1      16.440 -35.003  20.791  1.00  0.00     0.163 C 
ATOM     12  O   UNL     1      15.240 -35.336  20.597  1.00  0.00    -0.294 OA
BRANCH  11  13
ATOM     13  C   UNL     1      17.197 -35.573  21.965  1.00  0.00    -0.002 C 
ATOM     14  C   UNL     1      18.022 -36.661  21.838  1.00  0.00    -0.069 C 
ATOM     15  C   UNL     1      18.869 -37.146  22.996  1.00  0.00     0.039 C 
ATOM     16  C   UNL     1      18.112 -37.462  20.559  1.00  0.00     0.039 C 
BRANCH  13  17
ATOM     17  C   UNL     1      17.077 -34.870  23.308  1.00  0.00     0.066 CG0
ATOM     18  G   UNL     1      15.816 -34.053  23.545  1.00  0.00     0.000 G0
ENDBRANCH  13  17
ENDBRANCH  11  13
ENDBRANCH  10  11
ENDBRANCH   1  10
TORSDOF 0
ENDMDL
MODEL 7
REMARK VINA RESULT:    -4.131      2.149      4.973
REMARK INTER + INTRA:          -6.108
REMARK INTER:                  -6.186
REMARK INTRA:                   0.079
REMARK UNBOUND:                -0.286
REMARK SMILES CC1=CCC(=C(C)C)C(=O)CC(C)=CCC1
REMARK SMILES IDX 12 1 14 2 13 3 15 4 16 5 2 6 1 7 3 8 11 10 9 11 10 12 5 13
REMARK SMILES IDX 6 14 7 15 8 16 4 17
REMARK H PARENT
REMARK Flexibility Score: 60.00
ROOT
ATOM      1  C   UNL     1      19.200 -33.041  20.549  1.00  0.00    -0.070 C 
ATOM      2  C   UNL     1      19.023 -34.147  19.791  1.00  0.00    -0.027 C 
ATOM      3  C   UNL     1      20.573 -32.823  21.137  1.00  0.00     0.039 C 
ENDROOT
BRANCH   2   4
ATOM      4  C   UNL     1      17.761 -34.546  19.069  1.00  0.00     0.032 C 
BRANCH   4   5
ATOM      5  C   UNL     1      16.915 -35.634  19.773  1.00  0.00     0.034 C 
BRANCH   5   6
ATOM      6  C   UNL     1      17.022 -35.668  21.292  1.00  0.00    -0.077 C 
ATOM      7  C   UNL     1      17.967 -36.674  21.903  1.00  0.00     0.039 C 
ATOM      8  C   UNL     1      16.288 -34.904  22.149  1.00  0.00    -0.023 CG0
ATOM      9  G   UNL     1      15.373 -33.723  21.864  1.00  0.00     0.000 G0
ENDBRANCH   5   6
ENDBRANCH   4   5
ENDBRANCH   2   4
BRANCH   1  10
ATOM     10  C   UNL     1      18.137 -31.980  20.811  1.00  0.00     0.111 C 
BRANCH  10  11
ATOM     11  C   UNL     1      17.371 -32.095  22.109  1.00  0.00     0.163 C 
ATOM     12  O   UNL     1      18.043 -31.974  23.169  1.00  0.00    -0.294 OA
BRANCH  11  13
ATOM     13  C   UNL     1      15.883 -32.328  22.186  1.00  0.00    -0.002 C 
ATOM     14  C   UNL     1      15.003 -31.316  22.477  1.00  0.00    -0.069 C 
ATOM     15  C   UNL     1      13.506 -31.537  22.431  1.00  0.00     0.039 C 
ATOM     16  C   UNL     1      15.466 -29.939  22.896  1.00  0.00     0.039 C 
BRANCH  13  17
ATOM     17  C   UNL     1      15.354 -33.718  21.868  1.00  0.00     0.066 CG0
ATOM     18  G   UNL     1      16.294 -34.885  22.130  1.00  0.00     0.000 G0
ENDBRANCH  13  17
ENDBRANCH  11  13
ENDBRANCH  10  11
ENDBRANCH   1  10
TORSDOF 0
ENDMDL
MODEL 8
REMARK VINA RESULT:    -4.026      2.009      4.228
REMARK INTER + INTRA:          -5.959
REMARK INTER:                  -5.775
REMARK INTRA:                  -0.184
REMARK UNBOUND:                -0.286
REMARK SMILES CC1=CCC(=C(C)C)C(=O)CC(C)=CCC1
REMARK SMILES IDX 12 1 14 2 13 3 15 4 16 5 2 6 1 7 3 8 11 10 9 11 10 12 5 13
REMARK SMILES IDX 6 14 7 15 8 16 4 17
REMARK H PARENT
REMARK Flexibility Score: 60.00
ROOT
ATOM      1  C   UNL     1      16.756 -34.406  23.612  1.00  0.00    -0.070 C 
ATOM      2  C   UNL     1      17.790 -35.278  23.608  1.00  0.00    -0.027 C 
ATOM      3  C   UNL     1      16.832 -33.253  24.583  1.00  0.00     0.039 C 
ENDROOT
BRANCH   2   4
ATOM      4  C   UNL     1      17.953 -36.471  22.701  1.00  0.00     0.032 C 
BRANCH   4   5
ATOM      5  C   UNL     1      18.745 -36.205  21.399  1.00  0.00     0.034 C 
BRANCH   5   6
ATOM      6  C   UNL     1      17.903 -35.878  20.172  1.00  0.00    -0.077 C 
ATOM      7  C   UNL     1      17.375 -37.034  19.359  1.00  0.00     0.039 C 
ATOM      8  C   UNL     1      17.636 -34.623  19.715  1.00  0.00    -0.023 CG0
ATOM      9  G   UNL     1      17.894 -33.272  20.366  1.00  0.00     0.000 G0
ENDBRANCH   5   6
ENDBRANCH   4   5
ENDBRANCH   2   4
BRANCH   1  10
ATOM     10  C   UNL     1      15.551 -34.474  22.680  1.00  0.00     0.111 C 
BRANCH  10  11
ATOM     11  C   UNL     1      15.555 -33.534  21.496  1.00  0.00     0.163 C 
ATOM     12  O   UNL     1      14.504 -33.505  20.800  1.00  0.00    -0.294 OA
BRANCH  11  13
ATOM     13  C   UNL     1      16.721 -32.649  21.133  1.00  0.00    -0.002 C 
ATOM     14  C   UNL     1      16.784 -31.334  21.520  1.00  0.00    -0.069 C 
ATOM     15  C   UNL     1      18.015 -30.494  21.253  1.00  0.00     0.039 C 
ATOM     16  C   UNL     1      15.626 -30.636  22.196  1.00  0.00     0.039 C 
BRANCH  13  17
ATOM     17  C   UNL     1      17.882 -33.266  20.368  1.00  0.00     0.066 CG0
ATOM     18  G   UNL     1      17.629 -34.613  19.707  1.00  0.00     0.000 G0
ENDBRANCH  13  17
ENDBRANCH  11  13
ENDBRANCH  10  11
ENDBRANCH   1  10
TORSDOF 0
ENDMDL
MODEL 9
REMARK VINA RESULT:    -3.957      1.957      3.450
REMARK INTER + INTRA:          -5.862
REMARK INTER:                  -5.584
REMARK INTRA:                  -0.278
REMARK UNBOUND:                -0.286
REMARK SMILES CC1=CCC(=C(C)C)C(=O)CC(C)=CCC1
REMARK SMILES IDX 12 1 14 2 13 3 15 4 16 5 2 6 1 7 3 8 11 10 9 11 10 12 5 13
REMARK SMILES IDX 6 14 7 15 8 16 4 17
REMARK H PARENT
REMARK Flexibility Score: 60.00
ROOT
ATOM      1  C   UNL     1      15.898 -34.290  20.477  1.00  0.00    -0.070 C 
ATOM      2  C   UNL     1      14.634 -33.828  20.613  1.00  0.00    -0.027 C 
ATOM      3  C   UNL     1      16.063 -35.747  20.119  1.00  0.00     0.039 C 
ENDROOT
BRANCH   2   4
ATOM      4  C   UNL     1      14.228 -32.409  20.920  1.00  0.00     0.032 C 
BRANCH   4   5
ATOM      5  C   UNL     1      13.755 -32.159  22.372  1.00  0.00     0.034 C 
BRANCH   5   6
ATOM      6  C   UNL     1      14.775 -31.500  23.291  1.00  0.00    -0.077 C 
ATOM      7  C   UNL     1      14.660 -30.011  23.507  1.00  0.00     0.039 C 
ATOM      8  C   UNL     1      15.821 -32.136  23.889  1.00  0.00    -0.023 CG0
ATOM      9  G   UNL     1      16.131 -33.622  23.988  1.00  0.00     0.000 G0
ENDBRANCH   5   6
ENDBRANCH   4   5
ENDBRANCH   2   4
BRANCH   1  10
ATOM     10  C   UNL     1      17.159 -33.443  20.609  1.00  0.00     0.111 C 
BRANCH  10  11
ATOM     11  C   UNL     1      17.767 -33.344  21.990  1.00  0.00     0.163 C 
ATOM     12  O   UNL     1      18.710 -32.518  22.128  1.00  0.00    -0.294 OA
BRANCH  11  13
ATOM     13  C   UNL     1      17.299 -34.155  23.172  1.00  0.00    -0.002 C 
ATOM     14  C   UNL     1      17.929 -35.311  23.555  1.00  0.00    -0.069 C 
ATOM     15  C   UNL     1      17.524 -36.048  24.815  1.00  0.00     0.039 C 
ATOM     16  C   UNL     1      19.032 -35.940  22.734  1.00  0.00     0.039 C 
BRANCH  13  17
ATOM     17  C   UNL     1      16.130 -33.627  23.989  1.00  0.00     0.066 CG0
ATOM     18  G   UNL     1      15.840 -32.136  23.887  1.00  0.00     0.000 G0
ENDBRANCH  13  17
ENDBRANCH  11  13
ENDBRANCH  10  11
ENDBRANCH   1  10
TORSDOF 0
ENDMDL
