MODEL 1
REMARK VINA RESULT:     1.966      0.000      0.000
REMARK INTER + INTRA:           1.966
REMARK INTER:                   1.966
REMARK INTRA:                   0.000
REMARK UNBOUND:                 0.000
REMARK SMILES CC1=CC(=O)[C@@H]2C[C@H]1C2(C)C
REMARK SMILES IDX 1 1 2 2 3 3 4 4 5 5 6 6 7 7 8 8 9 9 10 10 11 11
REMARK H PARENT
REMARK Flexibility Score: inf
ROOT
ATOM      1  C   UNL     1      30.497  20.346  27.041  1.00  0.00     0.040 C 
ATOM      2  C   UNL     1      31.275  21.477  27.636  1.00  0.00    -0.066 C 
ATOM      3  C   UNL     1      32.134  22.219  26.884  1.00  0.00     0.047 C 
ATOM      4  C   UNL     1      32.830  23.344  27.589  1.00  0.00     0.159 C 
ATOM      5  O   UNL     1      33.618  24.125  26.995  1.00  0.00    -0.295 OA
ATOM      6  C   UNL     1      32.517  23.476  29.080  1.00  0.00     0.067 C 
ATOM      7  C   UNL     1      32.613  22.031  29.615  1.00  0.00     0.021 C 
ATOM      8  C   UNL     1      31.157  21.846  29.131  1.00  0.00     0.022 C 
ATOM      9  C   UNL     1      30.976  23.385  29.271  1.00  0.00    -0.019 C 
ATOM     10  C   UNL     1      30.533  23.800  30.697  1.00  0.00     0.012 C 
ATOM     11  C   UNL     1      30.060  24.114  28.246  1.00  0.00     0.012 C 
ENDROOT
TORSDOF 0
ENDMDL
MODEL 2
REMARK VINA RESULT:     2.338      1.633      3.063
REMARK INTER + INTRA:           2.338
REMARK INTER:                   2.338
REMARK INTRA:                   0.000
REMARK UNBOUND:                 0.000
REMARK SMILES CC1=CC(=O)[C@@H]2C[C@H]1C2(C)C
REMARK SMILES IDX 1 1 2 2 3 3 4 4 5 5 6 6 7 7 8 8 9 9 10 10 11 11
REMARK H PARENT
REMARK Flexibility Score: inf
ROOT
ATOM      1  C   UNL     1      30.663  20.442  26.875  1.00  0.00     0.040 C 
ATOM      2  C   UNL     1      31.086  21.722  27.524  1.00  0.00    -0.066 C 
ATOM      3  C   UNL     1      30.551  22.125  28.710  1.00  0.00     0.047 C 
ATOM      4  C   UNL     1      31.079  23.410  29.272  1.00  0.00     0.159 C 
ATOM      5  O   UNL     1      30.694  23.868  30.379  1.00  0.00    -0.295 OA
ATOM      6  C   UNL     1      32.118  24.125  28.408  1.00  0.00     0.067 C 
ATOM      7  C   UNL     1      31.524  24.074  26.983  1.00  0.00     0.021 C 
ATOM      8  C   UNL     1      32.130  22.656  26.875  1.00  0.00     0.022 C 
ATOM      9  C   UNL     1      33.177  23.084  27.944  1.00  0.00    -0.019 C 
ATOM     10  C   UNL     1      34.425  23.752  27.314  1.00  0.00     0.012 C 
ATOM     11  C   UNL     1      33.661  22.016  28.967  1.00  0.00     0.012 C 
ENDROOT
TORSDOF 0
ENDMDL
