MODEL 1
REMARK VINA RESULT:    -7.183      0.000      0.000
REMARK INTER + INTRA:          -7.183
REMARK INTER:                  -7.183
REMARK INTRA:                   0.000
REMARK UNBOUND:                 0.000
REMARK SMILES C=C1CCC[C@]2(C)CC(=O)C(=C(C)C)C[C@H]12
REMARK SMILES IDX 13 1 12 2 11 3 15 4 16 5 2 6 1 7 3 8 4 9 5 10 6 11 8 12 9 13
REMARK SMILES IDX 10 14 7 15 14 16
REMARK H PARENT
REMARK Flexibility Score: inf
ROOT
ATOM      1  C   UNL     1     -14.790 -30.943  28.131  1.00  0.00     0.039 C 
ATOM      2  C   UNL     1     -14.373 -32.347  27.762  1.00  0.00    -0.070 C 
ATOM      3  C   UNL     1     -13.748 -33.161  28.662  1.00  0.00    -0.006 C 
ATOM      4  C   UNL     1     -13.433 -32.709  30.074  1.00  0.00     0.047 C 
ATOM      5  C   UNL     1     -13.531 -33.848  31.122  1.00  0.00     0.025 C 
ATOM      6  C   UNL     1     -12.964 -33.346  32.440  1.00  0.00    -0.073 C 
ATOM      7  C   UNL     1     -13.780 -32.895  33.405  1.00  0.00     0.008 C 
ATOM      8  C   UNL     1     -11.463 -33.215  32.585  1.00  0.00     0.031 C 
ATOM      9  C   UNL     1     -10.735 -34.467  32.078  1.00  0.00     0.005 C 
ATOM     10  C   UNL     1     -11.258 -34.950  30.713  1.00  0.00     0.008 C 
ATOM     11  C   UNL     1     -12.802 -35.163  30.698  1.00  0.00    -0.018 C 
ATOM     12  C   UNL     1     -13.265 -35.603  29.284  1.00  0.00     0.088 C 
ATOM     13  C   UNL     1     -13.213 -34.490  28.288  1.00  0.00     0.159 C 
ATOM     14  O   UNL     1     -12.715 -34.700  27.150  1.00  0.00    -0.295 OA
ATOM     15  C   UNL     1     -13.184 -36.308  31.673  1.00  0.00     0.012 C 
ATOM     16  C   UNL     1     -14.713 -32.826  26.370  1.00  0.00     0.039 C 
ENDROOT
TORSDOF 0
ENDMDL
MODEL 2
REMARK VINA RESULT:    -6.673      1.636      3.076
REMARK INTER + INTRA:          -6.673
REMARK INTER:                  -6.673
REMARK INTRA:                   0.000
REMARK UNBOUND:                 0.000
REMARK SMILES C=C1CCC[C@]2(C)CC(=O)C(=C(C)C)C[C@H]12
REMARK SMILES IDX 13 1 12 2 11 3 15 4 16 5 2 6 1 7 3 8 4 9 5 10 6 11 8 12 9 13
REMARK SMILES IDX 10 14 7 15 14 16
REMARK H PARENT
REMARK Flexibility Score: inf
ROOT
ATOM      1  C   UNL     1     -15.019 -31.859  32.632  1.00  0.00     0.039 C 
ATOM      2  C   UNL     1     -14.911 -31.832  31.126  1.00  0.00    -0.070 C 
ATOM      3  C   UNL     1     -14.128 -32.725  30.454  1.00  0.00    -0.006 C 
ATOM      4  C   UNL     1     -13.321 -33.788  31.174  1.00  0.00     0.047 C 
ATOM      5  C   UNL     1     -13.205 -35.116  30.380  1.00  0.00     0.025 C 
ATOM      6  C   UNL     1     -12.188 -36.008  31.071  1.00  0.00    -0.073 C 
ATOM      7  C   UNL     1     -12.588 -36.979  31.907  1.00  0.00     0.008 C 
ATOM      8  C   UNL     1     -10.716 -35.684  30.925  1.00  0.00     0.031 C 
ATOM      9  C   UNL     1     -10.342 -35.399  29.463  1.00  0.00     0.005 C 
ATOM     10  C   UNL     1     -11.333 -34.446  28.770  1.00  0.00     0.008 C 
ATOM     11  C   UNL     1     -12.812 -34.925  28.880  1.00  0.00    -0.018 C 
ATOM     12  C   UNL     1     -13.756 -33.898  28.202  1.00  0.00     0.088 C 
ATOM     13  C   UNL     1     -13.901 -32.638  28.994  1.00  0.00     0.159 C 
ATOM     14  O   UNL     1     -13.827 -31.526  28.407  1.00  0.00    -0.295 OA
ATOM     15  C   UNL     1     -12.987 -36.266  28.120  1.00  0.00     0.012 C 
ATOM     16  C   UNL     1     -15.737 -30.802  30.391  1.00  0.00     0.039 C 
ENDROOT
TORSDOF 0
ENDMDL
MODEL 3
REMARK VINA RESULT:    -6.664      2.340      4.190
REMARK INTER + INTRA:          -6.664
REMARK INTER:                  -6.664
REMARK INTRA:                   0.000
REMARK UNBOUND:                 0.000
REMARK SMILES C=C1CCC[C@]2(C)CC(=O)C(=C(C)C)C[C@H]12
REMARK SMILES IDX 13 1 12 2 11 3 15 4 16 5 2 6 1 7 3 8 4 9 5 10 6 11 8 12 9 13
REMARK SMILES IDX 10 14 7 15 14 16
REMARK H PARENT
REMARK Flexibility Score: inf
ROOT
ATOM      1  C   UNL     1     -15.150 -31.061  30.142  1.00  0.00     0.039 C 
ATOM      2  C   UNL     1     -14.819 -32.029  31.252  1.00  0.00    -0.070 C 
ATOM      3  C   UNL     1     -14.282 -33.255  30.988  1.00  0.00    -0.006 C 
ATOM      4  C   UNL     1     -13.990 -33.719  29.575  1.00  0.00     0.047 C 
ATOM      5  C   UNL     1     -12.732 -34.620  29.470  1.00  0.00     0.025 C 
ATOM      6  C   UNL     1     -12.677 -35.217  28.073  1.00  0.00    -0.073 C 
ATOM      7  C   UNL     1     -11.901 -34.667  27.127  1.00  0.00     0.008 C 
ATOM      8  C   UNL     1     -13.627 -36.343  27.724  1.00  0.00     0.031 C 
ATOM      9  C   UNL     1     -13.653 -37.421  28.817  1.00  0.00     0.005 C 
ATOM     10  C   UNL     1     -13.771 -36.830  30.234  1.00  0.00     0.008 C 
ATOM     11  C   UNL     1     -12.679 -35.761  30.537  1.00  0.00    -0.018 C 
ATOM     12  C   UNL     1     -12.885 -35.177  31.959  1.00  0.00     0.088 C 
ATOM     13  C   UNL     1     -14.072 -34.272  32.044  1.00  0.00     0.159 C 
ATOM     14  O   UNL     1     -14.872 -34.389  33.010  1.00  0.00    -0.295 OA
ATOM     15  C   UNL     1     -11.276 -36.424  30.522  1.00  0.00     0.012 C 
ATOM     16  C   UNL     1     -15.071 -31.568  32.669  1.00  0.00     0.039 C 
ENDROOT
TORSDOF 0
ENDMDL
MODEL 4
REMARK VINA RESULT:    -6.567      0.982      1.046
REMARK INTER + INTRA:          -6.567
REMARK INTER:                  -6.567
REMARK INTRA:                   0.000
REMARK UNBOUND:                 0.000
REMARK SMILES C=C1CCC[C@]2(C)CC(=O)C(=C(C)C)C[C@H]12
REMARK SMILES IDX 13 1 12 2 11 3 15 4 16 5 2 6 1 7 3 8 4 9 5 10 6 11 8 12 9 13
REMARK SMILES IDX 10 14 7 15 14 16
REMARK H PARENT
REMARK Flexibility Score: inf
ROOT
ATOM      1  C   UNL     1     -14.783 -32.024  27.362  1.00  0.00     0.039 C 
ATOM      2  C   UNL     1     -13.771 -33.142  27.266  1.00  0.00    -0.070 C 
ATOM      3  C   UNL     1     -13.189 -33.670  28.380  1.00  0.00    -0.006 C 
ATOM      4  C   UNL     1     -13.514 -33.169  29.774  1.00  0.00     0.047 C 
ATOM      5  C   UNL     1     -13.484 -34.283  30.852  1.00  0.00     0.025 C 
ATOM      6  C   UNL     1     -13.581 -33.635  32.223  1.00  0.00    -0.073 C 
ATOM      7  C   UNL     1     -14.758 -33.568  32.864  1.00  0.00     0.008 C 
ATOM      8  C   UNL     1     -12.364 -32.930  32.784  1.00  0.00     0.031 C 
ATOM      9  C   UNL     1     -11.096 -33.783  32.631  1.00  0.00     0.005 C 
ATOM     10  C   UNL     1     -10.955 -34.394  31.225  1.00  0.00     0.008 C 
ATOM     11  C   UNL     1     -12.217 -35.195  30.784  1.00  0.00    -0.018 C 
ATOM     12  C   UNL     1     -12.024 -35.743  29.346  1.00  0.00     0.088 C 
ATOM     13  C   UNL     1     -12.101 -34.672  28.306  1.00  0.00     0.159 C 
ATOM     14  O   UNL     1     -11.241 -34.639  27.386  1.00  0.00    -0.295 OA
ATOM     15  C   UNL     1     -12.409 -36.425  31.711  1.00  0.00     0.012 C 
ATOM     16  C   UNL     1     -13.463 -33.678  25.887  1.00  0.00     0.039 C 
ENDROOT
TORSDOF 0
ENDMDL
MODEL 5
REMARK VINA RESULT:    -6.466      1.960      4.630
REMARK INTER + INTRA:          -6.466
REMARK INTER:                  -6.466
REMARK INTRA:                   0.000
REMARK UNBOUND:                 0.000
REMARK SMILES C=C1CCC[C@]2(C)CC(=O)C(=C(C)C)C[C@H]12
REMARK SMILES IDX 13 1 12 2 11 3 15 4 16 5 2 6 1 7 3 8 4 9 5 10 6 11 8 12 9 13
REMARK SMILES IDX 10 14 7 15 14 16
REMARK H PARENT
REMARK Flexibility Score: inf
ROOT
ATOM      1  C   UNL     1     -15.284 -32.008  32.936  1.00  0.00     0.039 C 
ATOM      2  C   UNL     1     -13.850 -32.482  32.910  1.00  0.00    -0.070 C 
ATOM      3  C   UNL     1     -13.295 -33.003  31.778  1.00  0.00    -0.006 C 
ATOM      4  C   UNL     1     -14.078 -33.141  30.487  1.00  0.00     0.047 C 
ATOM      5  C   UNL     1     -13.214 -32.930  29.217  1.00  0.00     0.025 C 
ATOM      6  C   UNL     1     -14.033 -33.328  28.000  1.00  0.00    -0.073 C 
ATOM      7  C   UNL     1     -14.664 -32.396  27.269  1.00  0.00     0.008 C 
ATOM      8  C   UNL     1     -14.254 -34.800  27.720  1.00  0.00     0.031 C 
ATOM      9  C   UNL     1     -12.947 -35.598  27.828  1.00  0.00     0.005 C 
ATOM     10  C   UNL     1     -12.138 -35.248  29.090  1.00  0.00     0.008 C 
ATOM     11  C   UNL     1     -11.866 -33.720  29.230  1.00  0.00    -0.018 C 
ATOM     12  C   UNL     1     -11.088 -33.436  30.542  1.00  0.00     0.088 C 
ATOM     13  C   UNL     1     -11.938 -33.595  31.761  1.00  0.00     0.159 C 
ATOM     14  O   UNL     1     -11.487 -34.229  32.753  1.00  0.00    -0.295 OA
ATOM     15  C   UNL     1     -10.966 -33.237  28.062  1.00  0.00     0.012 C 
ATOM     16  C   UNL     1     -13.045 -32.318  34.179  1.00  0.00     0.039 C 
ENDROOT
TORSDOF 0
ENDMDL
MODEL 6
REMARK VINA RESULT:    -6.270      2.338      5.021
REMARK INTER + INTRA:          -6.270
REMARK INTER:                  -6.270
REMARK INTRA:                   0.000
REMARK UNBOUND:                 0.000
REMARK SMILES C=C1CCC[C@]2(C)CC(=O)C(=C(C)C)C[C@H]12
REMARK SMILES IDX 13 1 12 2 11 3 15 4 16 5 2 6 1 7 3 8 4 9 5 10 6 11 8 12 9 13
REMARK SMILES IDX 10 14 7 15 14 16
REMARK H PARENT
REMARK Flexibility Score: inf
ROOT
ATOM      1  C   UNL     1     -10.324 -31.970  34.638  1.00  0.00     0.039 C 
ATOM      2  C   UNL     1     -11.798 -32.176  34.380  1.00  0.00    -0.070 C 
ATOM      3  C   UNL     1     -12.240 -32.786  33.243  1.00  0.00    -0.006 C 
ATOM      4  C   UNL     1     -11.288 -33.287  32.175  1.00  0.00     0.047 C 
ATOM      5  C   UNL     1     -11.779 -34.577  31.468  1.00  0.00     0.025 C 
ATOM      6  C   UNL     1     -10.884 -34.845  30.269  1.00  0.00    -0.073 C 
ATOM      7  C   UNL     1      -9.875 -35.726  30.356  1.00  0.00     0.008 C 
ATOM      8  C   UNL     1     -11.050 -33.991  29.030  1.00  0.00     0.031 C 
ATOM      9  C   UNL     1     -12.527 -33.851  28.634  1.00  0.00     0.005 C 
ATOM     10  C   UNL     1     -13.436 -33.517  29.831  1.00  0.00     0.008 C 
ATOM     11  C   UNL     1     -13.273 -34.520  31.012  1.00  0.00    -0.018 C 
ATOM     12  C   UNL     1     -14.181 -34.099  32.197  1.00  0.00     0.088 C 
ATOM     13  C   UNL     1     -13.678 -32.882  32.905  1.00  0.00     0.159 C 
ATOM     14  O   UNL     1     -14.484 -31.960  33.200  1.00  0.00    -0.295 OA
ATOM     15  C   UNL     1     -13.738 -35.933  30.570  1.00  0.00     0.012 C 
ATOM     16  C   UNL     1     -12.758 -31.715  35.452  1.00  0.00     0.039 C 
ENDROOT
TORSDOF 0
ENDMDL
MODEL 7
REMARK VINA RESULT:    -6.156      1.951      3.424
REMARK INTER + INTRA:          -6.156
REMARK INTER:                  -6.156
REMARK INTRA:                   0.000
REMARK UNBOUND:                 0.000
REMARK SMILES C=C1CCC[C@]2(C)CC(=O)C(=C(C)C)C[C@H]12
REMARK SMILES IDX 13 1 12 2 11 3 15 4 16 5 2 6 1 7 3 8 4 9 5 10 6 11 8 12 9 13
REMARK SMILES IDX 10 14 7 15 14 16
REMARK H PARENT
REMARK Flexibility Score: inf
ROOT
ATOM      1  C   UNL     1     -14.743 -31.534  27.528  1.00  0.00     0.039 C 
ATOM      2  C   UNL     1     -14.865 -31.501  29.034  1.00  0.00    -0.070 C 
ATOM      3  C   UNL     1     -14.142 -32.347  29.823  1.00  0.00    -0.006 C 
ATOM      4  C   UNL     1     -13.183 -33.368  29.243  1.00  0.00     0.047 C 
ATOM      5  C   UNL     1     -11.933 -33.611  30.128  1.00  0.00     0.025 C 
ATOM      6  C   UNL     1     -11.177 -34.811  29.582  1.00  0.00    -0.073 C 
ATOM      7  C   UNL     1     -10.113 -34.639  28.782  1.00  0.00     0.008 C 
ATOM      8  C   UNL     1     -11.735 -36.197  29.825  1.00  0.00     0.031 C 
ATOM      9  C   UNL     1     -12.152 -36.390  31.290  1.00  0.00     0.005 C 
ATOM     10  C   UNL     1     -12.973 -35.208  31.837  1.00  0.00     0.008 C 
ATOM     11  C   UNL     1     -12.262 -33.835  31.639  1.00  0.00    -0.018 C 
ATOM     12  C   UNL     1     -13.162 -32.688  32.170  1.00  0.00     0.088 C 
ATOM     13  C   UNL     1     -14.340 -32.426  31.288  1.00  0.00     0.159 C 
ATOM     14  O   UNL     1     -15.480 -32.276  31.804  1.00  0.00    -0.295 OA
ATOM     15  C   UNL     1     -10.952 -33.798  32.470  1.00  0.00     0.012 C 
ATOM     16  C   UNL     1     -15.790 -30.465  29.629  1.00  0.00     0.039 C 
ENDROOT
TORSDOF 0
ENDMDL
MODEL 8
REMARK VINA RESULT:    -5.548      2.395      4.044
REMARK INTER + INTRA:          -5.548
REMARK INTER:                  -5.548
REMARK INTRA:                   0.000
REMARK UNBOUND:                 0.000
REMARK SMILES C=C1CCC[C@]2(C)CC(=O)C(=C(C)C)C[C@H]12
REMARK SMILES IDX 13 1 12 2 11 3 15 4 16 5 2 6 1 7 3 8 4 9 5 10 6 11 8 12 9 13
REMARK SMILES IDX 10 14 7 15 14 16
REMARK H PARENT
REMARK Flexibility Score: inf
ROOT
ATOM      1  C   UNL     1     -14.754 -31.833  32.614  1.00  0.00     0.039 C 
ATOM      2  C   UNL     1     -14.581 -33.333  32.572  1.00  0.00    -0.070 C 
ATOM      3  C   UNL     1     -13.692 -33.921  31.721  1.00  0.00    -0.006 C 
ATOM      4  C   UNL     1     -12.834 -33.113  30.768  1.00  0.00     0.047 C 
ATOM      5  C   UNL     1     -11.428 -33.726  30.534  1.00  0.00     0.025 C 
ATOM      6  C   UNL     1     -10.757 -32.980  29.393  1.00  0.00    -0.073 C 
ATOM      7  C   UNL     1      -9.875 -32.000  29.644  1.00  0.00     0.008 C 
ATOM      8  C   UNL     1     -11.214 -33.253  27.975  1.00  0.00     0.031 C 
ATOM      9  C   UNL     1     -11.330 -34.759  27.698  1.00  0.00     0.005 C 
ATOM     10  C   UNL     1     -12.064 -35.516  28.820  1.00  0.00     0.008 C 
ATOM     11  C   UNL     1     -11.449 -35.258  30.228  1.00  0.00    -0.018 C 
ATOM     12  C   UNL     1     -12.263 -36.013  31.312  1.00  0.00     0.088 C 
ATOM     13  C   UNL     1     -13.598 -35.390  31.567  1.00  0.00     0.159 C 
ATOM     14  O   UNL     1     -14.619 -36.125  31.646  1.00  0.00    -0.295 OA
ATOM     15  C   UNL     1     -10.003 -35.819  30.280  1.00  0.00     0.012 C 
ATOM     16  C   UNL     1     -15.403 -34.150  33.542  1.00  0.00     0.039 C 
ENDROOT
TORSDOF 0
ENDMDL
