MODEL 1
REMARK VINA RESULT:    -1.916      0.000      0.000
REMARK INTER + INTRA:          -2.678
REMARK INTER:                  -2.365
REMARK INTRA:                  -0.313
REMARK UNBOUND:                -0.313
REMARK SMILES Oc1cc(O)c2cc(O)c(-c3cc(O)c(O)c(O)c3)[o+]c2c1
REMARK SMILES IDX 10 1 20 2 21 3 22 4 2 5 3 6 4 7 6 8 7 9 8 10 11 11 12 12
REMARK SMILES IDX 13 13 19 14 15 15 17 16 14 17 16 19 18 21 9 23 1 25 5 27
REMARK H PARENT 14 18 16 20 18 22 9 24 1 26 5 28
REMARK Flexibility Score: inf
ROOT
ATOM      1  C   UNL     1     -13.398 -15.133  32.426  1.00  0.00     0.402 A 
ATOM      2  O   UNL     1     -12.337 -15.149  33.230  1.00  0.00    -0.202 OA
ATOM      3  C   UNL     1     -12.285 -14.488  34.381  1.00  0.00     0.368 A 
ATOM      4  C   UNL     1     -11.124 -14.563  35.157  1.00  0.00     0.162 A 
ATOM      5  C   UNL     1     -11.042 -13.875  36.370  1.00  0.00     0.128 A 
ATOM      6  C   UNL     1     -12.123 -13.109  36.811  1.00  0.00     0.093 A 
ATOM      7  C   UNL     1     -13.297 -13.016  36.053  1.00  0.00     0.136 A 
ATOM      8  C   UNL     1     -13.387 -13.715  34.821  1.00  0.00     0.125 A 
ATOM      9  C   UNL     1     -14.528 -13.692  34.002  1.00  0.00     0.078 A 
ATOM     10  C   UNL     1     -14.544 -14.409  32.803  1.00  0.00     0.223 A 
ENDROOT
BRANCH   1  11
ATOM     11  C   UNL     1     -13.331 -15.903  31.163  1.00  0.00     0.091 A 
ATOM     12  C   UNL     1     -13.294 -17.305  31.211  1.00  0.00     0.068 A 
ATOM     13  C   UNL     1     -13.210 -18.057  30.035  1.00  0.00     0.162 A 
ATOM     14  C   UNL     1     -13.246 -15.259  29.917  1.00  0.00     0.068 A 
ATOM     15  C   UNL     1     -13.147 -17.410  28.789  1.00  0.00     0.200 A 
ATOM     16  C   UNL     1     -13.160 -16.005  28.733  1.00  0.00     0.162 A 
BRANCH  13  17
ATOM     17  O   UNL     1     -13.190 -19.449  30.125  1.00  0.00    -0.504 OA
ATOM     18  H   UNL     1     -14.024 -20.009  29.993  1.00  0.00     0.293 HD
ENDBRANCH  13  17
BRANCH  15  19
ATOM     19  O   UNL     1     -13.066 -18.168  27.621  1.00  0.00    -0.502 OA
ATOM     20  H   UNL     1     -13.791 -18.822  27.351  1.00  0.00     0.293 HD
ENDBRANCH  15  19
BRANCH  16  21
ATOM     21  O   UNL     1     -13.083 -15.356  27.502  1.00  0.00    -0.504 OA
ATOM     22  H   UNL     1     -12.642 -15.789  26.700  1.00  0.00     0.293 HD
ENDBRANCH  16  21
ENDBRANCH   1  11
BRANCH  10  23
ATOM     23  O   UNL     1     -15.694 -14.426  32.013  1.00  0.00    -0.500 OA
ATOM     24  H   UNL     1     -16.217 -15.279  31.852  1.00  0.00     0.294 HD
ENDBRANCH  10  23
BRANCH   5  25
ATOM     25  O   UNL     1      -9.888 -13.946  37.149  1.00  0.00    -0.507 OA
ATOM     26  H   UNL     1      -9.789 -13.403  37.999  1.00  0.00     0.293 HD
ENDBRANCH   5  25
BRANCH   7  27
ATOM     27  O   UNL     1     -14.331 -12.226  36.562  1.00  0.00    -0.507 OA
ATOM     28  H   UNL     1     -14.194 -11.339  37.027  1.00  0.00     0.293 HD
ENDBRANCH   7  27
TORSDOF 7
ENDMDL
MODEL 2
REMARK VINA RESULT:    -1.724      0.077      1.796
REMARK INTER + INTRA:          -2.441
REMARK INTER:                  -2.173
REMARK INTRA:                  -0.268
REMARK UNBOUND:                -0.313
REMARK SMILES Oc1cc(O)c2cc(O)c(-c3cc(O)c(O)c(O)c3)[o+]c2c1
REMARK SMILES IDX 10 1 20 2 21 3 22 4 2 5 3 6 4 7 6 8 7 9 8 10 11 11 12 12
REMARK SMILES IDX 13 13 19 14 15 15 17 16 14 17 16 19 18 21 9 23 1 25 5 27
REMARK H PARENT 14 18 16 20 18 22 9 24 1 26 5 28
REMARK Flexibility Score: inf
ROOT
ATOM      1  C   UNL     1     -13.347 -15.121  32.451  1.00  0.00     0.402 A 
ATOM      2  O   UNL     1     -12.297 -15.147  33.268  1.00  0.00    -0.202 OA
ATOM      3  C   UNL     1     -12.247 -14.475  34.413  1.00  0.00     0.368 A 
ATOM      4  C   UNL     1     -11.097 -14.562  35.203  1.00  0.00     0.162 A 
ATOM      5  C   UNL     1     -11.018 -13.863  36.410  1.00  0.00     0.128 A 
ATOM      6  C   UNL     1     -12.090 -13.073  36.829  1.00  0.00     0.093 A 
ATOM      7  C   UNL     1     -13.253 -12.969  36.056  1.00  0.00     0.136 A 
ATOM      8  C   UNL     1     -13.340 -13.679  34.831  1.00  0.00     0.125 A 
ATOM      9  C   UNL     1     -14.471 -13.644  33.997  1.00  0.00     0.078 A 
ATOM     10  C   UNL     1     -14.486 -14.374  32.806  1.00  0.00     0.223 A 
ENDROOT
BRANCH   1  11
ATOM     11  C   UNL     1     -13.278 -15.906  31.196  1.00  0.00     0.091 A 
ATOM     12  C   UNL     1     -13.250 -15.235  29.964  1.00  0.00     0.068 A 
ATOM     13  C   UNL     1     -13.204 -15.951  28.763  1.00  0.00     0.162 A 
ATOM     14  C   UNL     1     -13.297 -17.310  31.210  1.00  0.00     0.068 A 
ATOM     15  C   UNL     1     -13.202 -17.356  28.782  1.00  0.00     0.200 A 
ATOM     16  C   UNL     1     -13.254 -18.036  30.011  1.00  0.00     0.162 A 
BRANCH  13  17
ATOM     17  O   UNL     1     -13.163 -15.246  27.559  1.00  0.00    -0.504 OA
ATOM     18  H   UNL     1     -12.769 -15.646  26.716  1.00  0.00     0.293 HD
ENDBRANCH  13  17
BRANCH  15  19
ATOM     19  O   UNL     1     -13.154 -18.062  27.580  1.00  0.00    -0.502 OA
ATOM     20  H   UNL     1     -13.777 -18.836  27.383  1.00  0.00     0.293 HD
ENDBRANCH  15  19
BRANCH  16  21
ATOM     21  O   UNL     1     -13.267 -19.430  30.037  1.00  0.00    -0.504 OA
ATOM     22  H   UNL     1     -13.897 -19.966  29.454  1.00  0.00     0.293 HD
ENDBRANCH  16  21
ENDBRANCH   1  11
BRANCH  10  23
ATOM     23  O   UNL     1     -15.626 -14.380  32.003  1.00  0.00    -0.500 OA
ATOM     24  H   UNL     1     -15.799 -15.115  31.328  1.00  0.00     0.294 HD
ENDBRANCH  10  23
BRANCH   5  25
ATOM     25  O   UNL     1      -9.875 -13.946  37.204  1.00  0.00    -0.507 OA
ATOM     26  H   UNL     1      -9.063 -13.365  37.026  1.00  0.00     0.293 HD
ENDBRANCH   5  25
BRANCH   7  27
ATOM     27  O   UNL     1     -14.279 -12.155  36.544  1.00  0.00    -0.507 OA
ATOM     28  H   UNL     1     -14.144 -11.399  37.201  1.00  0.00     0.293 HD
ENDBRANCH   7  27
TORSDOF 7
ENDMDL
MODEL 3
REMARK VINA RESULT:    -0.188      2.031      7.577
REMARK INTER + INTRA:          -0.545
REMARK INTER:                  -0.713
REMARK INTRA:                   0.167
REMARK UNBOUND:                -0.313
REMARK SMILES Oc1cc(O)c2cc(O)c(-c3cc(O)c(O)c(O)c3)[o+]c2c1
REMARK SMILES IDX 10 1 20 2 21 3 22 4 2 5 3 6 4 7 6 8 7 9 8 10 11 11 12 12
REMARK SMILES IDX 13 13 19 14 15 15 17 16 14 17 16 19 18 21 9 23 1 25 5 27
REMARK H PARENT 14 18 16 20 18 22 9 24 1 26 5 28
REMARK Flexibility Score: inf
ROOT
ATOM      1  C   UNL     1     -11.851 -15.617  31.128  1.00  0.00     0.402 A 
ATOM      2  O   UNL     1     -12.765 -15.254  30.232  1.00  0.00    -0.202 OA
ATOM      3  C   UNL     1     -12.739 -15.648  28.963  1.00  0.00     0.368 A 
ATOM      4  C   UNL     1     -13.743 -15.210  28.094  1.00  0.00     0.162 A 
ATOM      5  C   UNL     1     -13.737 -15.608  26.754  1.00  0.00     0.128 A 
ATOM      6  C   UNL     1     -12.726 -16.446  26.281  1.00  0.00     0.093 A 
ATOM      7  C   UNL     1     -11.709 -16.898  27.131  1.00  0.00     0.136 A 
ATOM      8  C   UNL     1     -11.711 -16.500  28.493  1.00  0.00     0.125 A 
ATOM      9  C   UNL     1     -10.740 -16.914  29.420  1.00  0.00     0.078 A 
ATOM     10  C   UNL     1     -10.810 -16.484  30.748  1.00  0.00     0.223 A 
ENDROOT
BRANCH   1  11
ATOM     11  C   UNL     1     -11.983 -15.102  32.511  1.00  0.00     0.091 A 
ATOM     12  C   UNL     1     -13.252 -14.757  33.000  1.00  0.00     0.068 A 
ATOM     13  C   UNL     1     -13.404 -14.250  34.294  1.00  0.00     0.162 A 
ATOM     14  C   UNL     1     -10.857 -14.898  33.326  1.00  0.00     0.068 A 
ATOM     15  C   UNL     1     -12.277 -14.067  35.114  1.00  0.00     0.200 A 
ATOM     16  C   UNL     1     -11.000 -14.388  34.624  1.00  0.00     0.162 A 
BRANCH  13  17
ATOM     17  O   UNL     1     -14.684 -13.932  34.748  1.00  0.00    -0.504 OA
ATOM     18  H   UNL     1     -15.274 -14.611  35.216  1.00  0.00     0.293 HD
ENDBRANCH  13  17
BRANCH  15  19
ATOM     19  O   UNL     1     -12.438 -13.563  36.405  1.00  0.00    -0.502 OA
ATOM     20  H   UNL     1     -11.765 -13.739  37.141  1.00  0.00     0.293 HD
ENDBRANCH  15  19
BRANCH  16  21
ATOM     21  O   UNL     1      -9.876 -14.196  35.426  1.00  0.00    -0.504 OA
ATOM     22  H   UNL     1      -9.697 -13.311  35.886  1.00  0.00     0.293 HD
ENDBRANCH  16  21
ENDBRANCH   1  11
BRANCH  10  23
ATOM     23  O   UNL     1      -9.875 -16.935  31.679  1.00  0.00    -0.500 OA
ATOM     24  H   UNL     1      -9.821 -16.543  32.612  1.00  0.00     0.294 HD
ENDBRANCH  10  23
BRANCH   5  25
ATOM     25  O   UNL     1     -14.735 -15.176  25.882  1.00  0.00    -0.507 OA
ATOM     26  H   UNL     1     -15.515 -14.615  26.206  1.00  0.00     0.293 HD
ENDBRANCH   5  25
BRANCH   7  27
ATOM     27  O   UNL     1     -10.732 -17.731  26.578  1.00  0.00    -0.507 OA
ATOM     28  H   UNL     1     -10.911 -18.425  25.866  1.00  0.00     0.293 HD
ENDBRANCH   7  27
TORSDOF 7
ENDMDL
MODEL 4
REMARK VINA RESULT:     0.114      1.588      6.905
REMARK INTER + INTRA:          -0.173
REMARK INTER:                  -0.549
REMARK INTRA:                   0.376
REMARK UNBOUND:                -0.313
REMARK SMILES Oc1cc(O)c2cc(O)c(-c3cc(O)c(O)c(O)c3)[o+]c2c1
REMARK SMILES IDX 10 1 20 2 21 3 22 4 2 5 3 6 4 7 6 8 7 9 8 10 11 11 12 12
REMARK SMILES IDX 13 13 19 14 15 15 17 16 14 17 16 19 18 21 9 23 1 25 5 27
REMARK H PARENT 14 18 16 20 18 22 9 24 1 26 5 28
REMARK Flexibility Score: inf
ROOT
ATOM      1  C   UNL     1     -12.807 -14.830  32.321  1.00  0.00     0.402 A 
ATOM      2  O   UNL     1     -11.817 -15.381  31.623  1.00  0.00    -0.202 OA
ATOM      3  C   UNL     1     -11.950 -15.788  30.365  1.00  0.00     0.368 A 
ATOM      4  C   UNL     1     -10.852 -16.360  29.715  1.00  0.00     0.162 A 
ATOM      5  C   UNL     1     -10.966 -16.799  28.394  1.00  0.00     0.128 A 
ATOM      6  C   UNL     1     -12.181 -16.667  27.719  1.00  0.00     0.093 A 
ATOM      7  C   UNL     1     -13.296 -16.098  28.347  1.00  0.00     0.136 A 
ATOM      8  C   UNL     1     -13.185 -15.648  29.688  1.00  0.00     0.125 A 
ATOM      9  C   UNL     1     -14.245 -15.054  30.393  1.00  0.00     0.078 A 
ATOM     10  C   UNL     1     -14.060 -14.631  31.712  1.00  0.00     0.223 A 
ENDROOT
BRANCH   1  11
ATOM     11  C   UNL     1     -12.537 -14.426  33.720  1.00  0.00     0.091 A 
ATOM     12  C   UNL     1     -11.356 -14.855  34.346  1.00  0.00     0.068 A 
ATOM     13  C   UNL     1     -11.085 -14.505  35.673  1.00  0.00     0.162 A 
ATOM     14  C   UNL     1     -13.464 -13.669  34.455  1.00  0.00     0.068 A 
ATOM     15  C   UNL     1     -12.006 -13.730  36.398  1.00  0.00     0.200 A 
ATOM     16  C   UNL     1     -13.202 -13.316  35.786  1.00  0.00     0.162 A 
BRANCH  13  17
ATOM     17  O   UNL     1      -9.893 -14.939  36.254  1.00  0.00    -0.504 OA
ATOM     18  H   UNL     1      -9.670 -15.922  36.354  1.00  0.00     0.293 HD
ENDBRANCH  13  17
BRANCH  15  19
ATOM     19  O   UNL     1     -11.726 -13.383  37.720  1.00  0.00    -0.502 OA
ATOM     20  H   UNL     1     -12.370 -12.843  38.285  1.00  0.00     0.293 HD
ENDBRANCH  15  19
BRANCH  16  21
ATOM     21  O   UNL     1     -14.127 -12.558  36.504  1.00  0.00    -0.504 OA
ATOM     22  H   UNL     1     -13.990 -11.568  36.666  1.00  0.00     0.293 HD
ENDBRANCH  16  21
ENDBRANCH   1  11
BRANCH  10  23
ATOM     23  O   UNL     1     -15.097 -13.996  32.396  1.00  0.00    -0.500 OA
ATOM     24  H   UNL     1     -15.583 -14.445  33.162  1.00  0.00     0.294 HD
ENDBRANCH  10  23
BRANCH   5  25
ATOM     25  O   UNL     1      -9.875 -17.369  27.739  1.00  0.00    -0.507 OA
ATOM     26  H   UNL     1      -9.091 -17.754  28.253  1.00  0.00     0.293 HD
ENDBRANCH   5  25
BRANCH   7  27
ATOM     27  O   UNL     1     -14.476 -16.006  27.603  1.00  0.00    -0.507 OA
ATOM     28  H   UNL     1     -15.404 -16.080  27.995  1.00  0.00     0.293 HD
ENDBRANCH   7  27
TORSDOF 7
ENDMDL
MODEL 5
REMARK VINA RESULT:     0.147      2.045      7.561
REMARK INTER + INTRA:          -0.132
REMARK INTER:                  -0.392
REMARK INTRA:                   0.260
REMARK UNBOUND:                -0.313
REMARK SMILES Oc1cc(O)c2cc(O)c(-c3cc(O)c(O)c(O)c3)[o+]c2c1
REMARK SMILES IDX 10 1 20 2 21 3 22 4 2 5 3 6 4 7 6 8 7 9 8 10 11 11 12 12
REMARK SMILES IDX 13 13 19 14 15 15 17 16 14 17 16 19 18 21 9 23 1 25 5 27
REMARK H PARENT 14 18 16 20 18 22 9 24 1 26 5 28
REMARK Flexibility Score: inf
ROOT
ATOM      1  C   UNL     1     -11.868 -15.574  31.131  1.00  0.00     0.402 A 
ATOM      2  O   UNL     1     -12.776 -15.243  30.215  1.00  0.00    -0.202 OA
ATOM      3  C   UNL     1     -12.723 -15.658  28.954  1.00  0.00     0.368 A 
ATOM      4  C   UNL     1     -13.722 -15.254  28.063  1.00  0.00     0.162 A 
ATOM      5  C   UNL     1     -13.690 -15.673  26.731  1.00  0.00     0.128 A 
ATOM      6  C   UNL     1     -12.655 -16.499  26.286  1.00  0.00     0.093 A 
ATOM      7  C   UNL     1     -11.642 -16.917  27.158  1.00  0.00     0.136 A 
ATOM      8  C   UNL     1     -11.672 -16.496  28.513  1.00  0.00     0.125 A 
ATOM      9  C   UNL     1     -10.707 -16.876  29.460  1.00  0.00     0.078 A 
ATOM     10  C   UNL     1     -10.805 -16.425  30.780  1.00  0.00     0.223 A 
ENDROOT
BRANCH   1  11
ATOM     11  C   UNL     1     -12.031 -15.039  32.502  1.00  0.00     0.091 A 
ATOM     12  C   UNL     1     -10.899 -14.871  33.316  1.00  0.00     0.068 A 
ATOM     13  C   UNL     1     -11.025 -14.386  34.622  1.00  0.00     0.162 A 
ATOM     14  C   UNL     1     -13.300 -14.748  33.029  1.00  0.00     0.068 A 
ATOM     15  C   UNL     1     -12.296 -14.077  35.137  1.00  0.00     0.200 A 
ATOM     16  C   UNL     1     -13.436 -14.265  34.337  1.00  0.00     0.162 A 
BRANCH  13  17
ATOM     17  O   UNL     1      -9.875 -14.220  35.393  1.00  0.00    -0.504 OA
ATOM     18  H   UNL     1      -9.286 -13.400  35.311  1.00  0.00     0.293 HD
ENDBRANCH  13  17
BRANCH  15  19
ATOM     19  O   UNL     1     -12.412 -13.592  36.440  1.00  0.00    -0.502 OA
ATOM     20  H   UNL     1     -11.812 -12.859  36.799  1.00  0.00     0.293 HD
ENDBRANCH  15  19
BRANCH  16  21
ATOM     21  O   UNL     1     -14.701 -13.974  34.847  1.00  0.00    -0.504 OA
ATOM     22  H   UNL     1     -15.531 -14.444  34.508  1.00  0.00     0.293 HD
ENDBRANCH  16  21
ENDBRANCH   1  11
BRANCH  10  23
ATOM     23  O   UNL     1      -9.875 -16.842  31.732  1.00  0.00    -0.500 OA
ATOM     24  H   UNL     1      -9.778 -17.817  31.991  1.00  0.00     0.294 HD
ENDBRANCH  10  23
BRANCH   5  25
ATOM     25  O   UNL     1     -14.683 -15.276  25.837  1.00  0.00    -0.507 OA
ATOM     26  H   UNL     1     -15.642 -15.142  26.137  1.00  0.00     0.293 HD
ENDBRANCH   5  25
BRANCH   7  27
ATOM     27  O   UNL     1     -10.640 -17.739  26.633  1.00  0.00    -0.507 OA
ATOM     28  H   UNL     1     -10.459 -17.857  25.646  1.00  0.00     0.293 HD
ENDBRANCH   7  27
TORSDOF 7
ENDMDL
MODEL 6
REMARK VINA RESULT:     0.192      1.358      3.225
REMARK INTER + INTRA:          -0.077
REMARK INTER:                   0.055
REMARK INTRA:                  -0.132
REMARK UNBOUND:                -0.313
REMARK SMILES Oc1cc(O)c2cc(O)c(-c3cc(O)c(O)c(O)c3)[o+]c2c1
REMARK SMILES IDX 10 1 20 2 21 3 22 4 2 5 3 6 4 7 6 8 7 9 8 10 11 11 12 12
REMARK SMILES IDX 13 13 19 14 15 15 17 16 14 17 16 19 18 21 9 23 1 25 5 27
REMARK H PARENT 14 18 16 20 18 22 9 24 1 26 5 28
REMARK Flexibility Score: inf
ROOT
ATOM      1  C   UNL     1     -12.139 -15.357  31.689  1.00  0.00     0.402 A 
ATOM      2  O   UNL     1     -13.002 -14.713  32.473  1.00  0.00    -0.202 OA
ATOM      3  C   UNL     1     -12.699 -14.287  33.694  1.00  0.00     0.368 A 
ATOM      4  C   UNL     1     -13.675 -13.623  34.445  1.00  0.00     0.162 A 
ATOM      5  C   UNL     1     -13.383 -13.167  35.733  1.00  0.00     0.128 A 
ATOM      6  C   UNL     1     -12.113 -13.374  36.274  1.00  0.00     0.093 A 
ATOM      7  C   UNL     1     -11.118 -14.036  35.544  1.00  0.00     0.136 A 
ATOM      8  C   UNL     1     -11.408 -14.500  34.234  1.00  0.00     0.125 A 
ATOM      9  C   UNL     1     -10.470 -15.161  33.424  1.00  0.00     0.078 A 
ATOM     10  C   UNL     1     -10.827 -15.585  32.141  1.00  0.00     0.223 A 
ENDROOT
BRANCH   1  11
ATOM     11  C   UNL     1     -12.600 -15.792  30.351  1.00  0.00     0.091 A 
ATOM     12  C   UNL     1     -13.236 -14.868  29.506  1.00  0.00     0.068 A 
ATOM     13  C   UNL     1     -13.698 -15.256  28.245  1.00  0.00     0.162 A 
ATOM     14  C   UNL     1     -12.465 -17.124  29.928  1.00  0.00     0.068 A 
ATOM     15  C   UNL     1     -13.543 -16.586  27.817  1.00  0.00     0.200 A 
ATOM     16  C   UNL     1     -12.928 -17.523  28.666  1.00  0.00     0.162 A 
BRANCH  13  17
ATOM     17  O   UNL     1     -14.312 -14.305  27.430  1.00  0.00    -0.504 OA
ATOM     18  H   UNL     1     -15.310 -14.309  27.255  1.00  0.00     0.293 HD
ENDBRANCH  13  17
BRANCH  15  19
ATOM     19  O   UNL     1     -14.005 -16.964  26.556  1.00  0.00    -0.502 OA
ATOM     20  H   UNL     1     -14.662 -16.401  26.031  1.00  0.00     0.293 HD
ENDBRANCH  15  19
BRANCH  16  21
ATOM     21  O   UNL     1     -12.783 -18.847  28.255  1.00  0.00    -0.504 OA
ATOM     22  H   UNL     1     -11.870 -19.271  28.140  1.00  0.00     0.293 HD
ENDBRANCH  16  21
ENDBRANCH   1  11
BRANCH  10  23
ATOM     23  O   UNL     1      -9.882 -16.198  31.318  1.00  0.00    -0.500 OA
ATOM     24  H   UNL     1      -9.454 -17.082  31.565  1.00  0.00     0.294 HD
ENDBRANCH  10  23
BRANCH   5  25
ATOM     25  O   UNL     1     -14.351 -12.504  36.486  1.00  0.00    -0.507 OA
ATOM     26  H   UNL     1     -14.098 -11.804  37.175  1.00  0.00     0.293 HD
ENDBRANCH   5  25
BRANCH   7  27
ATOM     27  O   UNL     1      -9.875 -14.207  36.159  1.00  0.00    -0.507 OA
ATOM     28  H   UNL     1      -9.002 -13.858  35.787  1.00  0.00     0.293 HD
ENDBRANCH   7  27
TORSDOF 7
ENDMDL
MODEL 7
REMARK VINA RESULT:     0.257      1.354      2.754
REMARK INTER + INTRA:           0.004
REMARK INTER:                   0.030
REMARK INTRA:                  -0.026
REMARK UNBOUND:                -0.313
REMARK SMILES Oc1cc(O)c2cc(O)c(-c3cc(O)c(O)c(O)c3)[o+]c2c1
REMARK SMILES IDX 10 1 20 2 21 3 22 4 2 5 3 6 4 7 6 8 7 9 8 10 11 11 12 12
REMARK SMILES IDX 13 13 19 14 15 15 17 16 14 17 16 19 18 21 9 23 1 25 5 27
REMARK H PARENT 14 18 16 20 18 22 9 24 1 26 5 28
REMARK Flexibility Score: inf
ROOT
ATOM      1  C   UNL     1     -12.173 -15.333  31.698  1.00  0.00     0.402 A 
ATOM      2  O   UNL     1     -13.024 -14.691  32.496  1.00  0.00    -0.202 OA
ATOM      3  C   UNL     1     -12.710 -14.288  33.722  1.00  0.00     0.368 A 
ATOM      4  C   UNL     1     -13.673 -13.624  34.488  1.00  0.00     0.162 A 
ATOM      5  C   UNL     1     -13.370 -13.192  35.782  1.00  0.00     0.128 A 
ATOM      6  C   UNL     1     -12.101 -13.426  36.314  1.00  0.00     0.093 A 
ATOM      7  C   UNL     1     -11.118 -14.090  35.569  1.00  0.00     0.136 A 
ATOM      8  C   UNL     1     -11.420 -14.528  34.253  1.00  0.00     0.125 A 
ATOM      9  C   UNL     1     -10.494 -15.189  33.429  1.00  0.00     0.078 A 
ATOM     10  C   UNL     1     -10.862 -15.587  32.141  1.00  0.00     0.223 A 
ENDROOT
BRANCH   1  11
ATOM     11  C   UNL     1     -12.646 -15.740  30.355  1.00  0.00     0.091 A 
ATOM     12  C   UNL     1     -12.402 -17.047  29.904  1.00  0.00     0.068 A 
ATOM     13  C   UNL     1     -12.819 -17.452  28.633  1.00  0.00     0.162 A 
ATOM     14  C   UNL     1     -13.284 -14.829  29.497  1.00  0.00     0.068 A 
ATOM     15  C   UNL     1     -13.476 -16.544  27.785  1.00  0.00     0.200 A 
ATOM     16  C   UNL     1     -13.703 -15.226  28.219  1.00  0.00     0.162 A 
BRANCH  13  17
ATOM     17  O   UNL     1     -12.570 -18.764  28.228  1.00  0.00    -0.504 OA
ATOM     18  H   UNL     1     -11.739 -19.018  27.707  1.00  0.00     0.293 HD
ENDBRANCH  13  17
BRANCH  15  19
ATOM     19  O   UNL     1     -13.891 -16.957  26.519  1.00  0.00    -0.502 OA
ATOM     20  H   UNL     1     -14.597 -16.458  25.993  1.00  0.00     0.293 HD
ENDBRANCH  15  19
BRANCH  16  21
ATOM     21  O   UNL     1     -14.341 -14.315  27.379  1.00  0.00    -0.504 OA
ATOM     22  H   UNL     1     -15.273 -13.972  27.577  1.00  0.00     0.293 HD
ENDBRANCH  16  21
ENDBRANCH   1  11
BRANCH  10  23
ATOM     23  O   UNL     1      -9.929 -16.199  31.304  1.00  0.00    -0.500 OA
ATOM     24  H   UNL     1      -9.519 -17.097  31.530  1.00  0.00     0.294 HD
ENDBRANCH  10  23
BRANCH   5  25
ATOM     25  O   UNL     1     -14.325 -12.528  36.550  1.00  0.00    -0.507 OA
ATOM     26  H   UNL     1     -14.140 -12.262  37.510  1.00  0.00     0.293 HD
ENDBRANCH   5  25
BRANCH   7  27
ATOM     27  O   UNL     1      -9.875 -14.287  36.176  1.00  0.00    -0.507 OA
ATOM     28  H   UNL     1      -9.294 -13.545  36.541  1.00  0.00     0.293 HD
ENDBRANCH   7  27
TORSDOF 7
ENDMDL
