MODEL 1
REMARK VINA RESULT:    -9.303      0.000      0.000
REMARK INTER + INTRA:         -14.058
REMARK INTER:                 -12.838
REMARK INTRA:                  -1.220
REMARK UNBOUND:                -1.220
REMARK SMILES O=C([O-])[C@@H]1O[C@H](Oc2cc3oc(-c4ccccc4)cc(=O)c3c(O)c2O)[C@@H](O)[C@H](O)[C@@H]1O
REMARK SMILES IDX 7 1 6 2 4 3 31 4 5 5 29 6 27 7 2 8 1 9 3 10 32 11 30 13
REMARK SMILES IDX 28 15 8 17 25 18 9 19 23 20 10 21 22 22 11 23 20 24 12 25
REMARK SMILES IDX 19 26 21 27 26 28 24 30 13 32 14 33 18 34 15 35 17 36 16 37
REMARK H PARENT 32 12 30 14 28 16 26 29 24 31
REMARK Flexibility Score: inf
ROOT
ATOM      1  O   UNL     1     -36.166  40.614  45.291  1.00  0.00    -0.458 OA
ENDROOT
BRANCH   1   2
ATOM      2  C   UNL     1     -36.935  39.409  45.242  1.00  0.00     0.339 C 
ATOM      3  C   UNL     1     -36.959  37.180  45.904  1.00  0.00     0.199 C 
ATOM      4  C   UNL     1     -38.415  37.247  46.482  1.00  0.00     0.180 C 
ATOM      5  O   UNL     1     -36.289  38.424  46.036  1.00  0.00    -0.328 OA
ATOM      6  C   UNL     1     -38.822  38.704  46.850  1.00  0.00     0.181 C 
ATOM      7  C   UNL     1     -38.380  39.696  45.748  1.00  0.00     0.214 C 
BRANCH   3   8
ATOM      8  C   UNL     1     -36.108  36.082  46.490  1.00  0.00     0.073 C 
ATOM      9  O   UNL     1     -36.319  34.872  46.215  1.00  0.00    -0.547 OA
ATOM     10  O   UNL     1     -36.355  34.745  46.175  1.00  0.00    -0.547 OA
ENDBRANCH   3   8
BRANCH   4  11
ATOM     11  O   UNL     1     -38.634  36.357  47.555  1.00  0.00    -0.387 OA
ATOM     12  H   UNL     1     -38.332  35.455  47.272  1.00  0.00     0.211 HD
ENDBRANCH   4  11
BRANCH   6  13
ATOM     13  O   UNL     1     -38.230  39.098  48.064  1.00  0.00    -0.387 OA
ATOM     14  H   UNL     1     -37.982  38.272  48.556  1.00  0.00     0.211 HD
ENDBRANCH   6  13
BRANCH   7  15
ATOM     15  O   UNL     1     -39.296  39.694  44.683  1.00  0.00    -0.384 OA
ATOM     16  H   UNL     1     -39.706  38.788  44.638  1.00  0.00     0.211 HD
ENDBRANCH   7  15
ENDBRANCH   1   2
BRANCH   1  17
ATOM     17  C   UNL     1     -35.326  41.009  44.243  1.00  0.00     0.172 A 
ATOM     18  C   UNL     1     -35.715  42.026  43.350  1.00  0.00     0.201 A 
ATOM     19  C   UNL     1     -34.084  40.388  44.100  1.00  0.00     0.098 A 
ATOM     20  C   UNL     1     -34.889  42.345  42.244  1.00  0.00     0.176 A 
ATOM     21  C   UNL     1     -33.237  40.727  43.044  1.00  0.00     0.146 A 
ATOM     22  C   UNL     1     -33.633  41.708  42.103  1.00  0.00     0.111 A 
ATOM     23  O   UNL     1     -32.074  40.097  42.918  1.00  0.00    -0.456 OA
ATOM     24  C   UNL     1     -32.741  41.985  41.041  1.00  0.00     0.197 A 
ATOM     25  C   UNL     1     -31.217  40.333  41.927  1.00  0.00     0.138 A 
ATOM     26  C   UNL     1     -31.538  41.289  40.951  1.00  0.00     0.100 A 
ATOM     27  O   UNL     1     -33.011  42.850  40.164  1.00  0.00    -0.289 OA
BRANCH  18  28
ATOM     28  O   UNL     1     -36.906  42.725  43.603  1.00  0.00    -0.502 OA
ATOM     29  H   UNL     1     -37.047  43.288  44.432  1.00  0.00     0.293 HD
ENDBRANCH  18  28
BRANCH  20  30
ATOM     30  O   UNL     1     -35.308  43.255  41.264  1.00  0.00    -0.504 OA
ATOM     31  H   UNL     1     -36.191  43.188  40.778  1.00  0.00     0.293 HD
ENDBRANCH  20  30
BRANCH  25  32
ATOM     32  C   UNL     1     -29.962  39.546  41.856  1.00  0.00     0.017 A 
ATOM     33  C   UNL     1     -29.854  38.346  42.584  1.00  0.00     0.012 A 
ATOM     34  C   UNL     1     -28.866  39.969  41.078  1.00  0.00     0.012 A 
ATOM     35  C   UNL     1     -28.694  37.569  42.503  1.00  0.00     0.001 A 
ATOM     36  C   UNL     1     -27.708  39.187  41.000  1.00  0.00     0.001 A 
ATOM     37  C   UNL     1     -27.624  37.987  41.707  1.00  0.00     0.000 A 
ENDBRANCH  25  32
ENDBRANCH   1  17
TORSDOF 9
ENDMDL
MODEL 2
REMARK VINA RESULT:    -9.259      2.921      8.834
REMARK INTER + INTRA:         -13.997
REMARK INTER:                 -12.638
REMARK INTRA:                  -1.358
REMARK UNBOUND:                -1.220
REMARK SMILES O=C([O-])[C@@H]1O[C@H](Oc2cc3oc(-c4ccccc4)cc(=O)c3c(O)c2O)[C@@H](O)[C@H](O)[C@@H]1O
REMARK SMILES IDX 7 1 6 2 4 3 31 4 5 5 29 6 27 7 2 8 1 9 3 10 32 11 30 13
REMARK SMILES IDX 28 15 8 17 25 18 9 19 23 20 10 21 22 22 11 23 20 24 12 25
REMARK SMILES IDX 19 26 21 27 26 28 24 30 13 32 14 33 18 34 15 35 17 36 16 37
REMARK H PARENT 32 12 30 14 28 16 26 29 24 31
REMARK Flexibility Score: inf
ROOT
ATOM      1  O   UNL     1     -34.358  41.149  44.760  1.00  0.00    -0.458 OA
ENDROOT
BRANCH   1   2
ATOM      2  C   UNL     1     -34.777  41.965  43.663  1.00  0.00     0.339 C 
ATOM      3  C   UNL     1     -34.179  42.684  41.534  1.00  0.00     0.199 C 
ATOM      4  C   UNL     1     -35.579  42.358  40.905  1.00  0.00     0.180 C 
ATOM      5  O   UNL     1     -33.864  41.791  42.590  1.00  0.00    -0.328 OA
ATOM      6  C   UNL     1     -36.348  41.290  41.734  1.00  0.00     0.181 C 
ATOM      7  C   UNL     1     -36.227  41.574  43.250  1.00  0.00     0.214 C 
BRANCH   3   8
ATOM      8  C   UNL     1     -33.045  42.717  40.541  1.00  0.00     0.073 C 
ATOM      9  O   UNL     1     -32.904  43.676  39.739  1.00  0.00    -0.547 OA
ATOM     10  O   UNL     1     -32.902  43.787  39.658  1.00  0.00    -0.547 OA
ENDBRANCH   3   8
BRANCH   4  11
ATOM     11  O   UNL     1     -35.513  42.012  39.539  1.00  0.00    -0.387 OA
ATOM     12  H   UNL     1     -34.605  42.239  39.208  1.00  0.00     0.211 HD
ENDBRANCH   4  11
BRANCH   6  13
ATOM     13  O   UNL     1     -35.840  40.001  41.484  1.00  0.00    -0.387 OA
ATOM     14  H   UNL     1     -34.912  39.974  41.836  1.00  0.00     0.211 HD
ENDBRANCH   6  13
BRANCH   7  15
ATOM     15  O   UNL     1     -37.147  42.561  43.644  1.00  0.00    -0.384 OA
ATOM     16  H   UNL     1     -37.786  42.696  42.892  1.00  0.00     0.211 HD
ENDBRANCH   7  15
ENDBRANCH   1   2
BRANCH   1  17
ATOM     17  C   UNL     1     -34.864  39.860  44.969  1.00  0.00     0.172 A 
ATOM     18  C   UNL     1     -34.290  38.746  44.326  1.00  0.00     0.201 A 
ATOM     19  C   UNL     1     -35.943  39.689  45.838  1.00  0.00     0.098 A 
ATOM     20  C   UNL     1     -34.876  37.465  44.481  1.00  0.00     0.176 A 
ATOM     21  C   UNL     1     -36.498  38.425  46.041  1.00  0.00     0.146 A 
ATOM     22  C   UNL     1     -35.972  37.300  45.361  1.00  0.00     0.111 A 
ATOM     23  O   UNL     1     -37.543  38.299  46.853  1.00  0.00    -0.456 OA
ATOM     24  C   UNL     1     -36.599  36.053  45.589  1.00  0.00     0.197 A 
ATOM     25  C   UNL     1     -38.156  37.139  47.081  1.00  0.00     0.138 A 
ATOM     26  C   UNL     1     -37.696  35.978  46.442  1.00  0.00     0.100 A 
ATOM     27  O   UNL     1     -36.189  34.999  45.030  1.00  0.00    -0.289 OA
BRANCH  18  28
ATOM     28  O   UNL     1     -33.123  38.933  43.568  1.00  0.00    -0.502 OA
ATOM     29  H   UNL     1     -33.124  39.378  42.659  1.00  0.00     0.293 HD
ENDBRANCH  18  28
BRANCH  20  30
ATOM     30  O   UNL     1     -34.413  36.363  43.751  1.00  0.00    -0.504 OA
ATOM     31  H   UNL     1     -34.147  36.406  42.777  1.00  0.00     0.293 HD
ENDBRANCH  20  30
BRANCH  25  32
ATOM     32  C   UNL     1     -39.340  37.114  47.976  1.00  0.00     0.017 A 
ATOM     33  C   UNL     1     -40.020  35.901  48.191  1.00  0.00     0.012 A 
ATOM     34  C   UNL     1     -39.808  38.278  48.617  1.00  0.00     0.012 A 
ATOM     35  C   UNL     1     -41.115  35.847  49.059  1.00  0.00     0.001 A 
ATOM     36  C   UNL     1     -40.904  38.218  49.485  1.00  0.00     0.001 A 
ATOM     37  C   UNL     1     -41.553  37.003  49.710  1.00  0.00     0.000 A 
ENDBRANCH  25  32
ENDBRANCH   1  17
TORSDOF 9
ENDMDL
MODEL 3
REMARK VINA RESULT:    -9.209      2.470      4.823
REMARK INTER + INTRA:         -13.928
REMARK INTER:                 -12.589
REMARK INTRA:                  -1.338
REMARK UNBOUND:                -1.220
REMARK SMILES O=C([O-])[C@@H]1O[C@H](Oc2cc3oc(-c4ccccc4)cc(=O)c3c(O)c2O)[C@@H](O)[C@H](O)[C@@H]1O
REMARK SMILES IDX 7 1 6 2 4 3 31 4 5 5 29 6 27 7 2 8 1 9 3 10 32 11 30 13
REMARK SMILES IDX 28 15 8 17 25 18 9 19 23 20 10 21 22 22 11 23 20 24 12 25
REMARK SMILES IDX 19 26 21 27 26 28 24 30 13 32 14 33 18 34 15 35 17 36 16 37
REMARK H PARENT 32 12 30 14 28 16 26 29 24 31
REMARK Flexibility Score: inf
ROOT
ATOM      1  O   UNL     1     -36.860  38.542  42.359  1.00  0.00    -0.458 OA
ENDROOT
BRANCH   1   2
ATOM      2  C   UNL     1     -37.692  38.858  43.479  1.00  0.00     0.339 C 
ATOM      3  C   UNL     1     -38.276  38.176  45.625  1.00  0.00     0.199 C 
ATOM      4  C   UNL     1     -38.107  39.605  46.249  1.00  0.00     0.180 C 
ATOM      5  O   UNL     1     -37.379  37.972  44.544  1.00  0.00    -0.328 OA
ATOM      6  C   UNL     1     -37.162  40.499  45.395  1.00  0.00     0.181 C 
ATOM      7  C   UNL     1     -37.470  40.345  43.887  1.00  0.00     0.214 C 
BRANCH   3   8
ATOM      8  C   UNL     1     -38.143  37.046  46.614  1.00  0.00     0.073 C 
ATOM      9  O   UNL     1     -39.069  36.767  47.418  1.00  0.00    -0.547 OA
ATOM     10  O   UNL     1     -39.179  36.749  47.500  1.00  0.00    -0.547 OA
ENDBRANCH   3   8
BRANCH   4  11
ATOM     11  O   UNL     1     -37.718  39.581  47.606  1.00  0.00    -0.387 OA
ATOM     12  H   UNL     1     -36.908  39.014  47.683  1.00  0.00     0.211 HD
ENDBRANCH   4  11
BRANCH   6  13
ATOM     13  O   UNL     1     -35.815  40.153  45.609  1.00  0.00    -0.387 OA
ATOM     14  H   UNL     1     -35.356  40.185  44.729  1.00  0.00     0.211 HD
ENDBRANCH   6  13
BRANCH   7  15
ATOM     15  O   UNL     1     -38.572  41.138  43.523  1.00  0.00    -0.384 OA
ATOM     16  H   UNL     1     -38.336  42.087  43.708  1.00  0.00     0.211 HD
ENDBRANCH   7  15
ENDBRANCH   1   2
BRANCH   1  17
ATOM     17  C   UNL     1     -35.636  39.182  42.134  1.00  0.00     0.172 A 
ATOM     18  C   UNL     1     -34.450  38.701  42.722  1.00  0.00     0.201 A 
ATOM     19  C   UNL     1     -35.601  40.303  41.302  1.00  0.00     0.098 A 
ATOM     20  C   UNL     1     -33.240  39.418  42.553  1.00  0.00     0.176 A 
ATOM     21  C   UNL     1     -34.406  40.990  41.085  1.00  0.00     0.146 A 
ATOM     22  C   UNL     1     -33.213  40.556  41.711  1.00  0.00     0.111 A 
ATOM     23  O   UNL     1     -34.411  42.071  40.311  1.00  0.00    -0.456 OA
ATOM     24  C   UNL     1     -32.043  41.313  41.473  1.00  0.00     0.197 A 
ATOM     25  C   UNL     1     -33.326  42.805  40.073  1.00  0.00     0.138 A 
ATOM     26  C   UNL     1     -32.105  42.442  40.661  1.00  0.00     0.100 A 
ATOM     27  O   UNL     1     -30.935  40.992  41.985  1.00  0.00    -0.289 OA
BRANCH  18  28
ATOM     28  O   UNL     1     -34.495  37.496  43.439  1.00  0.00    -0.502 OA
ATOM     29  H   UNL     1     -34.270  36.601  43.023  1.00  0.00     0.293 HD
ENDBRANCH  18  28
BRANCH  20  30
ATOM     30  O   UNL     1     -32.073  39.043  43.233  1.00  0.00    -0.504 OA
ATOM     31  H   UNL     1     -31.340  39.691  43.488  1.00  0.00     0.293 HD
ENDBRANCH  20  30
BRANCH  25  32
ATOM     32  C   UNL     1     -33.448  44.017  39.225  1.00  0.00     0.017 A 
ATOM     33  C   UNL     1     -32.290  44.734  38.872  1.00  0.00     0.012 A 
ATOM     34  C   UNL     1     -34.698  44.474  38.763  1.00  0.00     0.012 A 
ATOM     35  C   UNL     1     -32.378  45.857  38.042  1.00  0.00     0.001 A 
ATOM     36  C   UNL     1     -34.780  45.597  37.933  1.00  0.00     0.001 A 
ATOM     37  C   UNL     1     -33.621  46.285  37.569  1.00  0.00     0.000 A 
ENDBRANCH  25  32
ENDBRANCH   1  17
TORSDOF 9
ENDMDL
MODEL 4
REMARK VINA RESULT:    -9.172      3.164      7.859
REMARK INTER + INTRA:         -13.877
REMARK INTER:                 -12.849
REMARK INTRA:                  -1.028
REMARK UNBOUND:                -1.220
REMARK SMILES O=C([O-])[C@@H]1O[C@H](Oc2cc3oc(-c4ccccc4)cc(=O)c3c(O)c2O)[C@@H](O)[C@H](O)[C@@H]1O
REMARK SMILES IDX 7 1 6 2 4 3 31 4 5 5 29 6 27 7 2 8 1 9 3 10 32 11 30 13
REMARK SMILES IDX 28 15 8 17 25 18 9 19 23 20 10 21 22 22 11 23 20 24 12 25
REMARK SMILES IDX 19 26 21 27 26 28 24 30 13 32 14 33 18 34 15 35 17 36 16 37
REMARK H PARENT 32 12 30 14 28 16 26 29 24 31
REMARK Flexibility Score: inf
ROOT
ATOM      1  O   UNL     1     -34.346  41.344  43.262  1.00  0.00    -0.458 OA
ENDROOT
BRANCH   1   2
ATOM      2  C   UNL     1     -34.907  41.712  41.999  1.00  0.00     0.339 C 
ATOM      3  C   UNL     1     -34.933  43.383  40.382  1.00  0.00     0.199 C 
ATOM      4  C   UNL     1     -34.696  42.393  39.189  1.00  0.00     0.180 C 
ATOM      5  O   UNL     1     -34.306  42.925  41.570  1.00  0.00    -0.328 OA
ATOM      6  C   UNL     1     -34.027  41.070  39.662  1.00  0.00     0.181 C 
ATOM      7  C   UNL     1     -34.672  40.563  40.973  1.00  0.00     0.214 C 
BRANCH   3   8
ATOM      8  C   UNL     1     -34.513  44.804  40.103  1.00  0.00     0.073 C 
ATOM      9  O   UNL     1     -35.096  45.501  39.232  1.00  0.00    -0.547 OA
ATOM     10  O   UNL     1     -35.169  45.564  39.134  1.00  0.00    -0.547 OA
ENDBRANCH   3   8
BRANCH   4  11
ATOM     11  O   UNL     1     -33.998  42.974  38.108  1.00  0.00    -0.387 OA
ATOM     12  H   UNL     1     -33.026  42.894  38.292  1.00  0.00     0.211 HD
ENDBRANCH   4  11
BRANCH   6  13
ATOM     13  O   UNL     1     -32.651  41.259  39.891  1.00  0.00    -0.387 OA
ATOM     14  H   UNL     1     -32.161  40.637  39.291  1.00  0.00     0.211 HD
ENDBRANCH   6  13
BRANCH   7  15
ATOM     15  O   UNL     1     -35.869  39.877  40.703  1.00  0.00    -0.384 OA
ATOM     16  H   UNL     1     -35.691  38.904  40.818  1.00  0.00     0.211 HD
ENDBRANCH   7  15
ENDBRANCH   1   2
BRANCH   1  17
ATOM     17  C   UNL     1     -34.946  40.395  44.098  1.00  0.00     0.172 A 
ATOM     18  C   UNL     1     -35.917  40.776  45.044  1.00  0.00     0.201 A 
ATOM     19  C   UNL     1     -34.578  39.054  43.974  1.00  0.00     0.098 A 
ATOM     20  C   UNL     1     -36.443  39.813  45.941  1.00  0.00     0.176 A 
ATOM     21  C   UNL     1     -35.125  38.086  44.817  1.00  0.00     0.146 A 
ATOM     22  C   UNL     1     -36.062  38.456  45.811  1.00  0.00     0.111 A 
ATOM     23  O   UNL     1     -34.733  36.822  44.692  1.00  0.00    -0.456 OA
ATOM     24  C   UNL     1     -36.557  37.431  46.651  1.00  0.00     0.197 A 
ATOM     25  C   UNL     1     -35.177  35.837  45.471  1.00  0.00     0.138 A 
ATOM     26  C   UNL     1     -36.106  36.125  46.483  1.00  0.00     0.100 A 
ATOM     27  O   UNL     1     -37.400  37.673  47.557  1.00  0.00    -0.289 OA
BRANCH  18  28
ATOM     28  O   UNL     1     -36.365  42.107  45.051  1.00  0.00    -0.502 OA
ATOM     29  H   UNL     1     -36.261  42.717  45.851  1.00  0.00     0.293 HD
ENDBRANCH  18  28
BRANCH  20  30
ATOM     30  O   UNL     1     -37.307  40.184  46.980  1.00  0.00    -0.504 OA
ATOM     31  H   UNL     1     -37.717  41.104  47.067  1.00  0.00     0.293 HD
ENDBRANCH  20  30
BRANCH  25  32
ATOM     32  C   UNL     1     -34.645  34.466  45.274  1.00  0.00     0.017 A 
ATOM     33  C   UNL     1     -33.459  34.283  44.540  1.00  0.00     0.012 A 
ATOM     34  C   UNL     1     -35.300  33.336  45.802  1.00  0.00     0.012 A 
ATOM     35  C   UNL     1     -32.919  33.003  44.374  1.00  0.00     0.001 A 
ATOM     36  C   UNL     1     -34.755  32.058  45.633  1.00  0.00     0.001 A 
ATOM     37  C   UNL     1     -33.564  31.892  44.925  1.00  0.00     0.000 A 
ENDBRANCH  25  32
ENDBRANCH   1  17
TORSDOF 9
ENDMDL
MODEL 5
REMARK VINA RESULT:    -9.166      2.492      7.591
REMARK INTER + INTRA:         -13.868
REMARK INTER:                 -12.641
REMARK INTRA:                  -1.228
REMARK UNBOUND:                -1.220
REMARK SMILES O=C([O-])[C@@H]1O[C@H](Oc2cc3oc(-c4ccccc4)cc(=O)c3c(O)c2O)[C@@H](O)[C@H](O)[C@@H]1O
REMARK SMILES IDX 7 1 6 2 4 3 31 4 5 5 29 6 27 7 2 8 1 9 3 10 32 11 30 13
REMARK SMILES IDX 28 15 8 17 25 18 9 19 23 20 10 21 22 22 11 23 20 24 12 25
REMARK SMILES IDX 19 26 21 27 26 28 24 30 13 32 14 33 18 34 15 35 17 36 16 37
REMARK H PARENT 32 12 30 14 28 16 26 29 24 31
REMARK Flexibility Score: inf
ROOT
ATOM      1  O   UNL     1     -36.441  40.244  41.857  1.00  0.00    -0.458 OA
ENDROOT
BRANCH   1   2
ATOM      2  C   UNL     1     -35.326  41.139  41.912  1.00  0.00     0.339 C 
ATOM      3  C   UNL     1     -33.139  41.445  41.186  1.00  0.00     0.199 C 
ATOM      4  C   UNL     1     -33.386  42.913  40.692  1.00  0.00     0.180 C 
ATOM      5  O   UNL     1     -34.306  40.649  41.054  1.00  0.00    -0.328 OA
ATOM      6  C   UNL     1     -34.891  43.174  40.392  1.00  0.00     0.181 C 
ATOM      7  C   UNL     1     -35.788  42.568  41.496  1.00  0.00     0.214 C 
BRANCH   3   8
ATOM      8  C   UNL     1     -31.976  40.754  40.520  1.00  0.00     0.073 C 
ATOM      9  O   UNL     1     -30.789  41.101  40.750  1.00  0.00    -0.547 OA
ATOM     10  O   UNL     1     -30.665  41.150  40.785  1.00  0.00    -0.547 OA
ENDBRANCH   3   8
BRANCH   4  11
ATOM     11  O   UNL     1     -32.565  43.286  39.606  1.00  0.00    -0.387 OA
ATOM     12  H   UNL     1     -33.107  43.841  38.988  1.00  0.00     0.211 HD
ENDBRANCH   4  11
BRANCH   6  13
ATOM     13  O   UNL     1     -35.262  42.606  39.159  1.00  0.00    -0.387 OA
ATOM     14  H   UNL     1     -35.387  43.350  38.514  1.00  0.00     0.211 HD
ENDBRANCH   6  13
BRANCH   7  15
ATOM     15  O   UNL     1     -35.848  43.422  42.611  1.00  0.00    -0.384 OA
ATOM     16  H   UNL     1     -36.805  43.520  42.865  1.00  0.00     0.211 HD
ENDBRANCH   7  15
ENDBRANCH   1   2
BRANCH   1  17
ATOM     17  C   UNL     1     -36.731  39.346  42.891  1.00  0.00     0.172 A 
ATOM     18  C   UNL     1     -37.771  39.607  43.804  1.00  0.00     0.201 A 
ATOM     19  C   UNL     1     -35.982  38.174  42.999  1.00  0.00     0.098 A 
ATOM     20  C   UNL     1     -37.987  38.729  44.895  1.00  0.00     0.176 A 
ATOM     21  C   UNL     1     -36.216  37.274  44.040  1.00  0.00     0.146 A 
ATOM     22  C   UNL     1     -37.220  37.544  45.001  1.00  0.00     0.111 A 
ATOM     23  O   UNL     1     -35.465  36.181  44.133  1.00  0.00    -0.456 OA
ATOM     24  C   UNL     1     -37.387  36.607  46.046  1.00  0.00     0.197 A 
ATOM     25  C   UNL     1     -35.597  35.284  45.108  1.00  0.00     0.138 A 
ATOM     26  C   UNL     1     -36.568  35.482  46.101  1.00  0.00     0.100 A 
ATOM     27  O   UNL     1     -38.263  36.766  46.939  1.00  0.00    -0.289 OA
BRANCH  18  28
ATOM     28  O   UNL     1     -38.595  40.723  43.586  1.00  0.00    -0.502 OA
ATOM     29  H   UNL     1     -38.981  41.276  44.340  1.00  0.00     0.293 HD
ENDBRANCH  18  28
BRANCH  20  30
ATOM     30  O   UNL     1     -38.922  39.030  45.894  1.00  0.00    -0.504 OA
ATOM     31  H   UNL     1     -39.388  39.923  45.977  1.00  0.00     0.293 HD
ENDBRANCH  20  30
BRANCH  25  32
ATOM     32  C   UNL     1     -34.681  34.116  45.141  1.00  0.00     0.017 A 
ATOM     33  C   UNL     1     -33.464  34.170  44.438  1.00  0.00     0.012 A 
ATOM     34  C   UNL     1     -35.000  32.947  45.860  1.00  0.00     0.012 A 
ATOM     35  C   UNL     1     -32.569  33.096  44.486  1.00  0.00     0.001 A 
ATOM     36  C   UNL     1     -34.100  31.876  45.906  1.00  0.00     0.001 A 
ATOM     37  C   UNL     1     -32.885  31.952  45.224  1.00  0.00     0.000 A 
ENDBRANCH  25  32
ENDBRANCH   1  17
TORSDOF 9
ENDMDL
MODEL 6
REMARK VINA RESULT:    -9.049      2.688      7.052
REMARK INTER + INTRA:         -13.708
REMARK INTER:                 -12.670
REMARK INTRA:                  -1.038
REMARK UNBOUND:                -1.220
REMARK SMILES O=C([O-])[C@@H]1O[C@H](Oc2cc3oc(-c4ccccc4)cc(=O)c3c(O)c2O)[C@@H](O)[C@H](O)[C@@H]1O
REMARK SMILES IDX 7 1 6 2 4 3 31 4 5 5 29 6 27 7 2 8 1 9 3 10 32 11 30 13
REMARK SMILES IDX 28 15 8 17 25 18 9 19 23 20 10 21 22 22 11 23 20 24 12 25
REMARK SMILES IDX 19 26 21 27 26 28 24 30 13 32 14 33 18 34 15 35 17 36 16 37
REMARK H PARENT 32 12 30 14 28 16 26 29 24 31
REMARK Flexibility Score: inf
ROOT
ATOM      1  O   UNL     1     -34.300  41.527  44.939  1.00  0.00    -0.458 OA
ENDROOT
BRANCH   1   2
ATOM      2  C   UNL     1     -34.468  42.118  43.648  1.00  0.00     0.339 C 
ATOM      3  C   UNL     1     -33.627  42.143  41.480  1.00  0.00     0.199 C 
ATOM      4  C   UNL     1     -35.035  41.983  40.808  1.00  0.00     0.180 C 
ATOM      5  O   UNL     1     -33.575  41.491  42.739  1.00  0.00    -0.328 OA
ATOM      6  C   UNL     1     -36.068  41.344  41.781  1.00  0.00     0.181 C 
ATOM      7  C   UNL     1     -35.950  41.960  43.195  1.00  0.00     0.214 C 
BRANCH   3   8
ATOM      8  C   UNL     1     -32.474  41.683  40.623  1.00  0.00     0.073 C 
ATOM      9  O   UNL     1     -32.335  40.473  40.308  1.00  0.00    -0.547 OA
ATOM     10  O   UNL     1     -32.333  40.338  40.282  1.00  0.00    -0.547 OA
ENDBRANCH   3   8
BRANCH   4  11
ATOM     11  O   UNL     1     -34.993  41.304  39.572  1.00  0.00    -0.387 OA
ATOM     12  H   UNL     1     -35.118  41.974  38.850  1.00  0.00     0.211 HD
ENDBRANCH   4  11
BRANCH   6  13
ATOM     13  O   UNL     1     -35.866  39.955  41.886  1.00  0.00    -0.387 OA
ATOM     14  H   UNL     1     -36.718  39.511  41.637  1.00  0.00     0.211 HD
ENDBRANCH   6  13
BRANCH   7  15
ATOM     15  O   UNL     1     -36.630  43.189  43.258  1.00  0.00    -0.384 OA
ATOM     16  H   UNL     1     -37.125  43.216  44.122  1.00  0.00     0.211 HD
ENDBRANCH   7  15
ENDBRANCH   1   2
BRANCH   1  17
ATOM     17  C   UNL     1     -35.040  40.413  45.353  1.00  0.00     0.172 A 
ATOM     18  C   UNL     1     -36.256  40.570  46.045  1.00  0.00     0.201 A 
ATOM     19  C   UNL     1     -34.561  39.135  45.060  1.00  0.00     0.098 A 
ATOM     20  C   UNL     1     -36.941  39.430  46.533  1.00  0.00     0.176 A 
ATOM     21  C   UNL     1     -35.251  38.001  45.491  1.00  0.00     0.146 A 
ATOM     22  C   UNL     1     -36.447  38.137  46.235  1.00  0.00     0.111 A 
ATOM     23  O   UNL     1     -34.754  36.798  45.220  1.00  0.00    -0.456 OA
ATOM     24  C   UNL     1     -37.082  36.949  46.666  1.00  0.00     0.197 A 
ATOM     25  C   UNL     1     -35.326  35.664  45.617  1.00  0.00     0.138 A 
ATOM     26  C   UNL     1     -36.514  35.715  46.363  1.00  0.00     0.100 A 
ATOM     27  O   UNL     1     -38.155  36.980  47.327  1.00  0.00    -0.289 OA
BRANCH  18  28
ATOM     28  O   UNL     1     -36.779  41.863  46.203  1.00  0.00    -0.502 OA
ATOM     29  H   UNL     1     -37.474  42.255  45.580  1.00  0.00     0.293 HD
ENDBRANCH  18  28
BRANCH  20  30
ATOM     30  O   UNL     1     -38.080  39.557  47.339  1.00  0.00    -0.504 OA
ATOM     31  H   UNL     1     -38.110  39.291  48.314  1.00  0.00     0.293 HD
ENDBRANCH  20  30
BRANCH  25  32
ATOM     32  C   UNL     1     -34.668  34.373  45.296  1.00  0.00     0.017 A 
ATOM     33  C   UNL     1     -33.555  34.359  44.434  1.00  0.00     0.012 A 
ATOM     34  C   UNL     1     -35.130  33.154  45.830  1.00  0.00     0.012 A 
ATOM     35  C   UNL     1     -32.897  33.159  44.148  1.00  0.00     0.001 A 
ATOM     36  C   UNL     1     -34.467  31.956  45.540  1.00  0.00     0.001 A 
ATOM     37  C   UNL     1     -33.349  31.959  44.704  1.00  0.00     0.000 A 
ENDBRANCH  25  32
ENDBRANCH   1  17
TORSDOF 9
ENDMDL
MODEL 7
REMARK VINA RESULT:    -8.959      1.347      2.437
REMARK INTER + INTRA:         -13.583
REMARK INTER:                 -12.324
REMARK INTRA:                  -1.259
REMARK UNBOUND:                -1.220
REMARK SMILES O=C([O-])[C@@H]1O[C@H](Oc2cc3oc(-c4ccccc4)cc(=O)c3c(O)c2O)[C@@H](O)[C@H](O)[C@@H]1O
REMARK SMILES IDX 7 1 6 2 4 3 31 4 5 5 29 6 27 7 2 8 1 9 3 10 32 11 30 13
REMARK SMILES IDX 28 15 8 17 25 18 9 19 23 20 10 21 22 22 11 23 20 24 12 25
REMARK SMILES IDX 19 26 21 27 26 28 24 30 13 32 14 33 18 34 15 35 17 36 16 37
REMARK H PARENT 32 12 30 14 28 16 26 29 24 31
REMARK Flexibility Score: inf
ROOT
ATOM      1  O   UNL     1     -35.488  41.796  45.858  1.00  0.00    -0.458 OA
ENDROOT
BRANCH   1   2
ATOM      2  C   UNL     1     -36.155  40.751  46.572  1.00  0.00     0.339 C 
ATOM      3  C   UNL     1     -38.026  39.370  46.547  1.00  0.00     0.199 C 
ATOM      4  C   UNL     1     -37.205  38.060  46.811  1.00  0.00     0.180 C 
ATOM      5  O   UNL     1     -37.270  40.316  45.807  1.00  0.00    -0.328 OA
ATOM      6  C   UNL     1     -35.716  38.218  46.388  1.00  0.00     0.181 C 
ATOM      7  C   UNL     1     -35.155  39.587  46.840  1.00  0.00     0.214 C 
BRANCH   3   8
ATOM      8  C   UNL     1     -39.355  39.146  45.872  1.00  0.00     0.073 C 
ATOM      9  O   UNL     1     -40.339  38.678  46.502  1.00  0.00    -0.547 OA
ATOM     10  O   UNL     1     -40.437  38.626  46.584  1.00  0.00    -0.547 OA
ENDBRANCH   3   8
BRANCH   4  11
ATOM     11  O   UNL     1     -37.791  36.908  46.243  1.00  0.00    -0.387 OA
ATOM     12  H   UNL     1     -37.081  36.222  46.142  1.00  0.00     0.211 HD
ENDBRANCH   4  11
BRANCH   6  13
ATOM     13  O   UNL     1     -35.579  38.124  44.990  1.00  0.00    -0.387 OA
ATOM     14  H   UNL     1     -35.047  38.906  44.690  1.00  0.00     0.211 HD
ENDBRANCH   6  13
BRANCH   7  15
ATOM     15  O   UNL     1     -34.781  39.546  48.194  1.00  0.00    -0.384 OA
ATOM     16  H   UNL     1     -35.299  40.249  48.672  1.00  0.00     0.211 HD
ENDBRANCH   7  15
ENDBRANCH   1   2
BRANCH   1  17
ATOM     17  C   UNL     1     -34.981  41.613  44.566  1.00  0.00     0.172 A 
ATOM     18  C   UNL     1     -35.754  41.938  43.434  1.00  0.00     0.201 A 
ATOM     19  C   UNL     1     -33.687  41.113  44.410  1.00  0.00     0.098 A 
ATOM     20  C   UNL     1     -35.255  41.659  42.138  1.00  0.00     0.176 A 
ATOM     21  C   UNL     1     -33.163  40.881  43.138  1.00  0.00     0.146 A 
ATOM     22  C   UNL     1     -33.943  41.149  41.988  1.00  0.00     0.111 A 
ATOM     23  O   UNL     1     -31.938  40.377  43.024  1.00  0.00    -0.456 OA
ATOM     24  C   UNL     1     -33.364  40.864  40.730  1.00  0.00     0.197 A 
ATOM     25  C   UNL     1     -31.369  40.095  41.854  1.00  0.00     0.138 A 
ATOM     26  C   UNL     1     -32.080  40.329  40.667  1.00  0.00     0.100 A 
ATOM     27  O   UNL     1     -33.987  41.081  39.655  1.00  0.00    -0.289 OA
BRANCH  18  28
ATOM     28  O   UNL     1     -36.995  42.566  43.624  1.00  0.00    -0.502 OA
ATOM     29  H   UNL     1     -37.706  42.605  42.905  1.00  0.00     0.293 HD
ENDBRANCH  18  28
BRANCH  20  30
ATOM     30  O   UNL     1     -36.050  41.845  40.999  1.00  0.00    -0.504 OA
ATOM     31  H   UNL     1     -36.866  41.288  40.788  1.00  0.00     0.293 HD
ENDBRANCH  20  30
BRANCH  25  32
ATOM     32  C   UNL     1     -30.010  39.498  41.838  1.00  0.00     0.017 A 
ATOM     33  C   UNL     1     -29.766  38.313  42.556  1.00  0.00     0.012 A 
ATOM     34  C   UNL     1     -28.951  40.090  41.123  1.00  0.00     0.012 A 
ATOM     35  C   UNL     1     -28.503  37.713  42.525  1.00  0.00     0.001 A 
ATOM     36  C   UNL     1     -27.689  39.485  41.095  1.00  0.00     0.001 A 
ATOM     37  C   UNL     1     -27.467  38.296  41.790  1.00  0.00     0.000 A 
ENDBRANCH  25  32
ENDBRANCH   1  17
TORSDOF 9
ENDMDL
MODEL 8
REMARK VINA RESULT:    -8.931      1.989      3.136
REMARK INTER + INTRA:         -13.545
REMARK INTER:                 -12.196
REMARK INTRA:                  -1.348
REMARK UNBOUND:                -1.220
REMARK SMILES O=C([O-])[C@@H]1O[C@H](Oc2cc3oc(-c4ccccc4)cc(=O)c3c(O)c2O)[C@@H](O)[C@H](O)[C@@H]1O
REMARK SMILES IDX 7 1 6 2 4 3 31 4 5 5 29 6 27 7 2 8 1 9 3 10 32 11 30 13
REMARK SMILES IDX 28 15 8 17 25 18 9 19 23 20 10 21 22 22 11 23 20 24 12 25
REMARK SMILES IDX 19 26 21 27 26 28 24 30 13 32 14 33 18 34 15 35 17 36 16 37
REMARK H PARENT 32 12 30 14 28 16 26 29 24 31
REMARK Flexibility Score: inf
ROOT
ATOM      1  O   UNL     1     -37.266  40.979  45.665  1.00  0.00    -0.458 OA
ENDROOT
BRANCH   1   2
ATOM      2  C   UNL     1     -37.491  39.997  46.681  1.00  0.00     0.339 C 
ATOM      3  C   UNL     1     -39.084  38.547  47.557  1.00  0.00     0.199 C 
ATOM      4  C   UNL     1     -38.119  37.310  47.570  1.00  0.00     0.180 C 
ATOM      5  O   UNL     1     -38.780  39.431  46.490  1.00  0.00    -0.328 OA
ATOM      6  C   UNL     1     -36.952  37.479  46.555  1.00  0.00     0.181 C 
ATOM      7  C   UNL     1     -36.374  38.913  46.611  1.00  0.00     0.214 C 
BRANCH   3   8
ATOM      8  C   UNL     1     -40.549  38.191  47.518  1.00  0.00     0.073 C 
ATOM      9  O   UNL     1     -41.131  37.700  48.520  1.00  0.00    -0.547 OA
ATOM     10  O   UNL     1     -41.180  37.647  48.637  1.00  0.00    -0.547 OA
ENDBRANCH   3   8
BRANCH   4  11
ATOM     11  O   UNL     1     -38.785  36.078  47.401  1.00  0.00    -0.387 OA
ATOM     12  H   UNL     1     -39.759  36.260  47.342  1.00  0.00     0.211 HD
ENDBRANCH   4  11
BRANCH   6  13
ATOM     13  O   UNL     1     -37.391  37.230  45.241  1.00  0.00    -0.387 OA
ATOM     14  H   UNL     1     -38.248  37.716  45.117  1.00  0.00     0.211 HD
ENDBRANCH   6  13
BRANCH   7  15
ATOM     15  O   UNL     1     -35.477  39.044  47.685  1.00  0.00    -0.384 OA
ATOM     16  H   UNL     1     -34.556  38.933  47.324  1.00  0.00     0.211 HD
ENDBRANCH   7  15
ENDBRANCH   1   2
BRANCH   1  17
ATOM     17  C   UNL     1     -36.783  40.643  44.395  1.00  0.00     0.172 A 
ATOM     18  C   UNL     1     -37.658  40.210  43.381  1.00  0.00     0.201 A 
ATOM     19  C   UNL     1     -35.415  40.757  44.139  1.00  0.00     0.098 A 
ATOM     20  C   UNL     1     -37.136  39.789  42.133  1.00  0.00     0.176 A 
ATOM     21  C   UNL     1     -34.892  40.394  42.898  1.00  0.00     0.146 A 
ATOM     22  C   UNL     1     -35.747  39.903  41.882  1.00  0.00     0.111 A 
ATOM     23  O   UNL     1     -33.581  40.486  42.694  1.00  0.00    -0.456 OA
ATOM     24  C   UNL     1     -35.150  39.526  40.657  1.00  0.00     0.197 A 
ATOM     25  C   UNL     1     -32.991  40.134  41.554  1.00  0.00     0.138 A 
ATOM     26  C   UNL     1     -33.771  39.634  40.499  1.00  0.00     0.100 A 
ATOM     27  O   UNL     1     -35.840  39.087  39.697  1.00  0.00    -0.289 OA
BRANCH  18  28
ATOM     28  O   UNL     1     -39.040  40.238  43.626  1.00  0.00    -0.502 OA
ATOM     29  H   UNL     1     -39.624  41.028  43.384  1.00  0.00     0.293 HD
ENDBRANCH  18  28
BRANCH  20  30
ATOM     30  O   UNL     1     -37.963  39.226  41.152  1.00  0.00    -0.504 OA
ATOM     31  H   UNL     1     -37.885  39.432  40.166  1.00  0.00     0.293 HD
ENDBRANCH  20  30
BRANCH  25  32
ATOM     32  C   UNL     1     -31.515  40.239  41.444  1.00  0.00     0.017 A 
ATOM     33  C   UNL     1     -30.717  39.120  41.742  1.00  0.00     0.012 A 
ATOM     34  C   UNL     1     -30.886  41.437  41.049  1.00  0.00     0.012 A 
ATOM     35  C   UNL     1     -29.326  39.186  41.609  1.00  0.00     0.001 A 
ATOM     36  C   UNL     1     -29.495  41.497  40.917  1.00  0.00     0.001 A 
ATOM     37  C   UNL     1     -28.716  40.372  41.192  1.00  0.00     0.000 A 
ENDBRANCH  25  32
ENDBRANCH   1  17
TORSDOF 9
ENDMDL
MODEL 9
REMARK VINA RESULT:    -8.907      3.160      7.476
REMARK INTER + INTRA:         -13.512
REMARK INTER:                 -12.257
REMARK INTRA:                  -1.254
REMARK UNBOUND:                -1.220
REMARK SMILES O=C([O-])[C@@H]1O[C@H](Oc2cc3oc(-c4ccccc4)cc(=O)c3c(O)c2O)[C@@H](O)[C@H](O)[C@@H]1O
REMARK SMILES IDX 7 1 6 2 4 3 31 4 5 5 29 6 27 7 2 8 1 9 3 10 32 11 30 13
REMARK SMILES IDX 28 15 8 17 25 18 9 19 23 20 10 21 22 22 11 23 20 24 12 25
REMARK SMILES IDX 19 26 21 27 26 28 24 30 13 32 14 33 18 34 15 35 17 36 16 37
REMARK H PARENT 32 12 30 14 28 16 26 29 24 31
REMARK Flexibility Score: inf
ROOT
ATOM      1  O   UNL     1     -37.780  39.325  41.307  1.00  0.00    -0.458 OA
ENDROOT
BRANCH   1   2
ATOM      2  C   UNL     1     -36.826  40.193  40.691  1.00  0.00     0.339 C 
ATOM      3  C   UNL     1     -35.668  42.191  40.964  1.00  0.00     0.199 C 
ATOM      4  C   UNL     1     -34.275  41.567  40.605  1.00  0.00     0.180 C 
ATOM      5  O   UNL     1     -36.514  41.243  41.595  1.00  0.00    -0.328 OA
ATOM      6  C   UNL     1     -34.257  40.028  40.831  1.00  0.00     0.181 C 
ATOM      7  C   UNL     1     -35.557  39.376  40.304  1.00  0.00     0.214 C 
BRANCH   3   8
ATOM      8  C   UNL     1     -35.590  43.440  41.805  1.00  0.00     0.073 C 
ATOM      9  O   UNL     1     -35.264  44.548  41.305  1.00  0.00    -0.547 OA
ATOM     10  O   UNL     1     -35.226  44.661  41.236  1.00  0.00    -0.547 OA
ENDBRANCH   3   8
BRANCH   4  11
ATOM     11  O   UNL     1     -33.192  42.203  41.249  1.00  0.00    -0.387 OA
ATOM     12  H   UNL     1     -32.424  41.574  41.251  1.00  0.00     0.211 HD
ENDBRANCH   4  11
BRANCH   6  13
ATOM     13  O   UNL     1     -34.135  39.724  42.201  1.00  0.00    -0.387 OA
ATOM     14  H   UNL     1     -33.990  40.580  42.683  1.00  0.00     0.211 HD
ENDBRANCH   6  13
BRANCH   7  15
ATOM     15  O   UNL     1     -35.486  39.186  38.913  1.00  0.00    -0.384 OA
ATOM     16  H   UNL     1     -36.217  39.718  38.497  1.00  0.00     0.211 HD
ENDBRANCH   7  15
ENDBRANCH   1   2
BRANCH   1  17
ATOM     17  C   UNL     1     -37.583  38.781  42.582  1.00  0.00     0.172 A 
ATOM     18  C   UNL     1     -38.106  39.413  43.726  1.00  0.00     0.201 A 
ATOM     19  C   UNL     1     -36.868  37.588  42.705  1.00  0.00     0.098 A 
ATOM     20  C   UNL     1     -37.815  38.893  45.012  1.00  0.00     0.176 A 
ATOM     21  C   UNL     1     -36.617  37.036  43.962  1.00  0.00     0.146 A 
ATOM     22  C   UNL     1     -37.086  37.685  45.129  1.00  0.00     0.111 A 
ATOM     23  O   UNL     1     -35.908  35.915  44.048  1.00  0.00    -0.456 OA
ATOM     24  C   UNL     1     -36.774  37.089  46.373  1.00  0.00     0.197 A 
ATOM     25  C   UNL     1     -35.595  35.334  45.205  1.00  0.00     0.138 A 
ATOM     26  C   UNL     1     -36.020  35.919  46.408  1.00  0.00     0.100 A 
ATOM     27  O   UNL     1     -37.159  37.597  47.461  1.00  0.00    -0.289 OA
BRANCH  18  28
ATOM     28  O   UNL     1     -38.935  40.532  43.558  1.00  0.00    -0.502 OA
ATOM     29  H   UNL     1     -39.726  40.725  44.159  1.00  0.00     0.293 HD
ENDBRANCH  18  28
BRANCH  20  30
ATOM     30  O   UNL     1     -38.205  39.572  46.174  1.00  0.00    -0.504 OA
ATOM     31  H   UNL     1     -38.355  39.118  47.065  1.00  0.00     0.293 HD
ENDBRANCH  20  30
BRANCH  25  32
ATOM     32  C   UNL     1     -34.765  34.104  45.192  1.00  0.00     0.017 A 
ATOM     33  C   UNL     1     -33.520  34.116  44.536  1.00  0.00     0.012 A 
ATOM     34  C   UNL     1     -35.192  32.918  45.819  1.00  0.00     0.012 A 
ATOM     35  C   UNL     1     -32.705  32.979  44.544  1.00  0.00     0.001 A 
ATOM     36  C   UNL     1     -34.372  31.784  45.825  1.00  0.00     0.001 A 
ATOM     37  C   UNL     1     -33.128  31.816  45.192  1.00  0.00     0.000 A 
ENDBRANCH  25  32
ENDBRANCH   1  17
TORSDOF 9
ENDMDL
