MODEL 1
REMARK VINA RESULT:    -4.807      0.000      0.000
REMARK INTER + INTRA:         -12.381
REMARK INTER:                  -9.303
REMARK INTRA:                  -3.078
REMARK UNBOUND:                -3.078
REMARK SMILES CCCCCC=CCC=CCCCCCCCCOC(C)=O
REMARK SMILES IDX 12 1 11 2 10 3 9 4 8 5 7 6 6 7 5 8 4 9 3 10 2 11 1 12 13 13
REMARK SMILES IDX 14 14 15 15 16 16 17 17 18 18 19 19 20 20 22 21 21 22
REMARK H PARENT
REMARK Flexibility Score: inf
ROOT
ATOM      1  C   UNL     1     -21.574  -6.168  -9.634  1.00  0.00     0.004 C 
ENDROOT
BRANCH   1   2
ATOM      2  C   UNL     1     -21.492  -5.215 -10.839  1.00  0.00     0.027 C 
BRANCH   2   3
ATOM      3  C   UNL     1     -22.255  -3.934 -10.602  1.00  0.00    -0.031 C 
ATOM      4  C   UNL     1     -21.707  -2.705 -10.601  1.00  0.00    -0.027 C 
BRANCH   4   5
ATOM      5  C   UNL     1     -20.266  -2.406 -10.931  1.00  0.00     0.054 C 
BRANCH   5   6
ATOM      6  C   UNL     1     -19.582  -1.699  -9.789  1.00  0.00    -0.027 C 
ATOM      7  C   UNL     1     -19.034  -2.314  -8.726  1.00  0.00    -0.031 C 
BRANCH   7   8
ATOM      8  C   UNL     1     -18.934  -3.810  -8.553  1.00  0.00     0.027 C 
BRANCH   8   9
ATOM      9  C   UNL     1     -19.710  -4.300  -7.317  1.00  0.00     0.004 C 
BRANCH   9  10
ATOM     10  C   UNL     1     -20.973  -3.477  -7.004  1.00  0.00     0.000 C 
BRANCH  10  11
ATOM     11  C   UNL     1     -22.048  -4.295  -6.273  1.00  0.00    -0.003 C 
ATOM     12  C   UNL     1     -23.339  -4.356  -7.085  1.00  0.00     0.004 C 
ENDBRANCH  10  11
ENDBRANCH   9  10
ENDBRANCH   8   9
ENDBRANCH   7   8
ENDBRANCH   5   6
ENDBRANCH   4   5
ENDBRANCH   2   3
ENDBRANCH   1   2
BRANCH   1  13
ATOM     13  C   UNL     1     -20.787  -7.485  -9.800  1.00  0.00     0.000 C 
BRANCH  13  14
ATOM     14  C   UNL     1     -19.421  -7.532  -9.090  1.00  0.00     0.000 C 
BRANCH  14  15
ATOM     15  C   UNL     1     -19.513  -8.056  -7.647  1.00  0.00     0.000 C 
BRANCH  15  16
ATOM     16  C   UNL     1     -20.879  -8.690  -7.333  1.00  0.00     0.003 C 
BRANCH  16  17
ATOM     17  C   UNL     1     -21.648  -7.940  -6.236  1.00  0.00     0.042 C 
BRANCH  17  18
ATOM     18  C   UNL     1     -22.814  -8.783  -5.713  1.00  0.00     0.233 C 
BRANCH  18  19
ATOM     19  O   UNL     1     -23.338  -8.224  -4.509  1.00  0.00    -0.466 OA
BRANCH  19  20
ATOM     20  C   UNL     1     -24.160  -7.091  -4.481  1.00  0.00     0.302 C 
ATOM     21  O   UNL     1     -24.938  -6.835  -5.439  1.00  0.00    -0.253 OA
ATOM     22  C   UNL     1     -24.158  -6.213  -3.276  1.00  0.00     0.139 C 
ENDBRANCH  19  20
ENDBRANCH  18  19
ENDBRANCH  17  18
ENDBRANCH  16  17
ENDBRANCH  15  16
ENDBRANCH  14  15
ENDBRANCH  13  14
ENDBRANCH   1  13
TORSDOF 16
ENDMDL
MODEL 2
REMARK VINA RESULT:    -4.589      2.531      3.394
REMARK INTER + INTRA:         -11.960
REMARK INTER:                  -9.445
REMARK INTRA:                  -2.515
REMARK UNBOUND:                -3.078
REMARK SMILES CCCCCC=CCC=CCCCCCCCCOC(C)=O
REMARK SMILES IDX 12 1 11 2 10 3 9 4 8 5 7 6 6 7 5 8 4 9 3 10 2 11 1 12 13 13
REMARK SMILES IDX 14 14 15 15 16 16 17 17 18 18 19 19 20 20 22 21 21 22
REMARK H PARENT
REMARK Flexibility Score: inf
ROOT
ATOM      1  C   UNL     1     -21.668  -6.124  -9.707  1.00  0.00     0.004 C 
ENDROOT
BRANCH   1   2
ATOM      2  C   UNL     1     -21.615  -5.172 -10.914  1.00  0.00     0.027 C 
BRANCH   2   3
ATOM      3  C   UNL     1     -22.371  -3.890 -10.660  1.00  0.00    -0.031 C 
ATOM      4  C   UNL     1     -21.809  -2.669 -10.596  1.00  0.00    -0.027 C 
BRANCH   4   5
ATOM      5  C   UNL     1     -20.354  -2.378 -10.865  1.00  0.00     0.054 C 
BRANCH   5   6
ATOM      6  C   UNL     1     -19.724  -1.644  -9.708  1.00  0.00    -0.027 C 
ATOM      7  C   UNL     1     -19.215  -2.236  -8.612  1.00  0.00    -0.031 C 
BRANCH   7   8
ATOM      8  C   UNL     1     -19.108  -3.727  -8.410  1.00  0.00     0.027 C 
BRANCH   8   9
ATOM      9  C   UNL     1     -19.922  -4.204  -7.194  1.00  0.00     0.004 C 
BRANCH   9  10
ATOM     10  C   UNL     1     -21.295  -3.519  -7.053  1.00  0.00     0.000 C 
BRANCH  10  11
ATOM     11  C   UNL     1     -22.158  -4.143  -5.946  1.00  0.00    -0.003 C 
ATOM     12  C   UNL     1     -23.190  -5.104  -6.530  1.00  0.00     0.004 C 
ENDBRANCH  10  11
ENDBRANCH   9  10
ENDBRANCH   8   9
ENDBRANCH   7   8
ENDBRANCH   5   6
ENDBRANCH   4   5
ENDBRANCH   2   3
ENDBRANCH   1   2
BRANCH   1  13
ATOM     13  C   UNL     1     -20.764  -7.368  -9.827  1.00  0.00     0.000 C 
BRANCH  13  14
ATOM     14  C   UNL     1     -19.848  -7.637  -8.618  1.00  0.00     0.000 C 
BRANCH  14  15
ATOM     15  C   UNL     1     -20.624  -7.787  -7.300  1.00  0.00     0.000 C 
BRANCH  15  16
ATOM     16  C   UNL     1     -20.561  -9.216  -6.733  1.00  0.00     0.003 C 
BRANCH  16  17
ATOM     17  C   UNL     1     -21.948  -9.860  -6.581  1.00  0.00     0.042 C 
BRANCH  17  18
ATOM     18  C   UNL     1     -21.825 -11.318  -6.131  1.00  0.00     0.233 C 
BRANCH  18  19
ATOM     19  O   UNL     1     -22.421 -12.192  -7.089  1.00  0.00    -0.466 OA
BRANCH  19  20
ATOM     20  C   UNL     1     -22.031 -13.525  -7.261  1.00  0.00     0.302 C 
ATOM     21  O   UNL     1     -21.138 -14.034  -6.532  1.00  0.00    -0.253 OA
ATOM     22  C   UNL     1     -22.726 -14.367  -8.275  1.00  0.00     0.139 C 
ENDBRANCH  19  20
ENDBRANCH  18  19
ENDBRANCH  17  18
ENDBRANCH  16  17
ENDBRANCH  15  16
ENDBRANCH  14  15
ENDBRANCH  13  14
ENDBRANCH   1  13
TORSDOF 16
ENDMDL
MODEL 3
REMARK VINA RESULT:    -4.501      1.289      1.473
REMARK INTER + INTRA:         -11.788
REMARK INTER:                  -8.578
REMARK INTRA:                  -3.210
REMARK UNBOUND:                -3.078
REMARK SMILES CCCCCC=CCC=CCCCCCCCCOC(C)=O
REMARK SMILES IDX 12 1 11 2 10 3 9 4 8 5 7 6 6 7 5 8 4 9 3 10 2 11 1 12 13 13
REMARK SMILES IDX 14 14 15 15 16 16 17 17 18 18 19 19 20 20 22 21 21 22
REMARK H PARENT
REMARK Flexibility Score: inf
ROOT
ATOM      1  C   UNL     1     -21.574  -6.432  -9.554  1.00  0.00     0.004 C 
ENDROOT
BRANCH   1   2
ATOM      2  C   UNL     1     -21.500  -5.565 -10.823  1.00  0.00     0.027 C 
BRANCH   2   3
ATOM      3  C   UNL     1     -22.338  -4.315 -10.705  1.00  0.00    -0.031 C 
ATOM      4  C   UNL     1     -21.843  -3.067 -10.620  1.00  0.00    -0.027 C 
BRANCH   4   5
ATOM      5  C   UNL     1     -20.381  -2.713 -10.727  1.00  0.00     0.054 C 
BRANCH   5   6
ATOM      6  C   UNL     1     -19.928  -1.906  -9.536  1.00  0.00    -0.027 C 
ATOM      7  C   UNL     1     -19.627  -2.422  -8.331  1.00  0.00    -0.031 C 
BRANCH   7   8
ATOM      8  C   UNL     1     -19.604  -3.895  -8.006  1.00  0.00     0.027 C 
BRANCH   8   9
ATOM      9  C   UNL     1     -20.625  -4.261  -6.914  1.00  0.00     0.004 C 
BRANCH   9  10
ATOM     10  C   UNL     1     -21.662  -3.157  -6.632  1.00  0.00     0.000 C 
BRANCH  10  11
ATOM     11  C   UNL     1     -23.045  -3.479  -7.219  1.00  0.00    -0.003 C 
ATOM     12  C   UNL     1     -23.459  -4.911  -6.897  1.00  0.00     0.004 C 
ENDBRANCH  10  11
ENDBRANCH   9  10
ENDBRANCH   8   9
ENDBRANCH   7   8
ENDBRANCH   5   6
ENDBRANCH   4   5
ENDBRANCH   2   3
ENDBRANCH   1   2
BRANCH   1  13
ATOM     13  C   UNL     1     -20.451  -7.484  -9.426  1.00  0.00     0.000 C 
BRANCH  13  14
ATOM     14  C   UNL     1     -19.956  -7.748  -7.992  1.00  0.00     0.000 C 
BRANCH  14  15
ATOM     15  C   UNL     1     -20.816  -8.777  -7.241  1.00  0.00     0.000 C 
BRANCH  15  16
ATOM     16  C   UNL     1     -21.840  -8.121  -6.300  1.00  0.00     0.003 C 
BRANCH  16  17
ATOM     17  C   UNL     1     -21.184  -7.297  -5.182  1.00  0.00     0.042 C 
BRANCH  17  18
ATOM     18  C   UNL     1     -21.441  -7.932  -3.813  1.00  0.00     0.233 C 
BRANCH  18  19
ATOM     19  O   UNL     1     -21.842  -6.941  -2.867  1.00  0.00    -0.466 OA
BRANCH  19  20
ATOM     20  C   UNL     1     -22.572  -5.798  -3.214  1.00  0.00     0.302 C 
ATOM     21  O   UNL     1     -23.796  -5.878  -3.502  1.00  0.00    -0.253 OA
ATOM     22  C   UNL     1     -21.906  -4.465  -3.179  1.00  0.00     0.139 C 
ENDBRANCH  19  20
ENDBRANCH  18  19
ENDBRANCH  17  18
ENDBRANCH  16  17
ENDBRANCH  15  16
ENDBRANCH  14  15
ENDBRANCH  13  14
ENDBRANCH   1  13
TORSDOF 16
ENDMDL
MODEL 4
REMARK VINA RESULT:    -4.456      1.553      4.586
REMARK INTER + INTRA:         -11.702
REMARK INTER:                  -8.635
REMARK INTRA:                  -3.066
REMARK UNBOUND:                -3.078
REMARK SMILES CCCCCC=CCC=CCCCCCCCCOC(C)=O
REMARK SMILES IDX 12 1 11 2 10 3 9 4 8 5 7 6 6 7 5 8 4 9 3 10 2 11 1 12 13 13
REMARK SMILES IDX 14 14 15 15 16 16 17 17 18 18 19 19 20 20 22 21 21 22
REMARK H PARENT
REMARK Flexibility Score: inf
ROOT
ATOM      1  C   UNL     1     -21.554  -3.580  -6.216  1.00  0.00     0.004 C 
ENDROOT
BRANCH   1   2
ATOM      2  C   UNL     1     -20.371  -4.247  -6.938  1.00  0.00     0.027 C 
BRANCH   2   3
ATOM      3  C   UNL     1     -20.105  -5.640  -6.423  1.00  0.00    -0.031 C 
ATOM      4  C   UNL     1     -19.955  -6.729  -7.201  1.00  0.00    -0.027 C 
BRANCH   4   5
ATOM      5  C   UNL     1     -19.931  -6.711  -8.708  1.00  0.00     0.054 C 
BRANCH   5   6
ATOM      6  C   UNL     1     -21.329  -6.698  -9.273  1.00  0.00    -0.027 C 
ATOM      7  C   UNL     1     -21.837  -5.714 -10.037  1.00  0.00    -0.031 C 
BRANCH   7   8
ATOM      8  C   UNL     1     -21.061  -4.515 -10.526  1.00  0.00     0.027 C 
BRANCH   8   9
ATOM      9  C   UNL     1     -21.943  -3.257 -10.620  1.00  0.00     0.004 C 
BRANCH   9  10
ATOM     10  C   UNL     1     -21.363  -2.031  -9.890  1.00  0.00     0.000 C 
BRANCH  10  11
ATOM     11  C   UNL     1     -19.939  -1.685 -10.352  1.00  0.00    -0.003 C 
ATOM     12  C   UNL     1     -18.963  -1.698  -9.179  1.00  0.00     0.004 C 
ENDBRANCH  10  11
ENDBRANCH   9  10
ENDBRANCH   8   9
ENDBRANCH   7   8
ENDBRANCH   5   6
ENDBRANCH   4   5
ENDBRANCH   2   3
ENDBRANCH   1   2
BRANCH   1  13
ATOM     13  C   UNL     1     -22.900  -3.670  -6.966  1.00  0.00     0.000 C 
BRANCH  13  14
ATOM     14  C   UNL     1     -23.630  -5.022  -6.851  1.00  0.00     0.000 C 
BRANCH  14  15
ATOM     15  C   UNL     1     -23.538  -5.635  -5.444  1.00  0.00     0.000 C 
BRANCH  15  16
ATOM     16  C   UNL     1     -24.146  -7.046  -5.371  1.00  0.00     0.003 C 
BRANCH  16  17
ATOM     17  C   UNL     1     -23.158  -8.145  -5.789  1.00  0.00     0.042 C 
BRANCH  17  18
ATOM     18  C   UNL     1     -22.560  -8.837  -4.562  1.00  0.00     0.233 C 
BRANCH  18  19
ATOM     19  O   UNL     1     -22.462 -10.245  -4.776  1.00  0.00    -0.466 OA
BRANCH  19  20
ATOM     20  C   UNL     1     -21.643 -10.818  -5.755  1.00  0.00     0.302 C 
ATOM     21  O   UNL     1     -22.100 -11.676  -6.557  1.00  0.00    -0.253 OA
ATOM     22  C   UNL     1     -20.230 -10.361  -5.888  1.00  0.00     0.139 C 
ENDBRANCH  19  20
ENDBRANCH  18  19
ENDBRANCH  17  18
ENDBRANCH  16  17
ENDBRANCH  15  16
ENDBRANCH  14  15
ENDBRANCH  13  14
ENDBRANCH   1  13
TORSDOF 16
ENDMDL
MODEL 5
REMARK VINA RESULT:    -4.416      2.508      3.900
REMARK INTER + INTRA:         -11.625
REMARK INTER:                  -9.095
REMARK INTRA:                  -2.530
REMARK UNBOUND:                -3.078
REMARK SMILES CCCCCC=CCC=CCCCCCCCCOC(C)=O
REMARK SMILES IDX 12 1 11 2 10 3 9 4 8 5 7 6 6 7 5 8 4 9 3 10 2 11 1 12 13 13
REMARK SMILES IDX 14 14 15 15 16 16 17 17 18 18 19 19 20 20 22 21 21 22
REMARK H PARENT
REMARK Flexibility Score: inf
ROOT
ATOM      1  C   UNL     1     -22.263  -5.721  -9.474  1.00  0.00     0.004 C 
ENDROOT
BRANCH   1   2
ATOM      2  C   UNL     1     -22.327  -4.272  -9.988  1.00  0.00     0.027 C 
BRANCH   2   3
ATOM      3  C   UNL     1     -21.023  -3.832 -10.608  1.00  0.00    -0.031 C 
ATOM      4  C   UNL     1     -20.060  -3.149  -9.964  1.00  0.00    -0.027 C 
BRANCH   4   5
ATOM      5  C   UNL     1     -20.089  -2.801  -8.497  1.00  0.00     0.054 C 
BRANCH   5   6
ATOM      6  C   UNL     1     -19.630  -3.963  -7.653  1.00  0.00    -0.027 C 
ATOM      7  C   UNL     1     -20.300  -4.454  -6.595  1.00  0.00    -0.031 C 
BRANCH   7   8
ATOM      8  C   UNL     1     -21.660  -3.981  -6.143  1.00  0.00     0.027 C 
BRANCH   8   9
ATOM      9  C   UNL     1     -22.422  -5.072  -5.369  1.00  0.00     0.004 C 
BRANCH   9  10
ATOM     10  C   UNL     1     -23.623  -5.659  -6.134  1.00  0.00     0.000 C 
BRANCH  10  11
ATOM     11  C   UNL     1     -24.277  -6.837  -5.396  1.00  0.00    -0.003 C 
ATOM     12  C   UNL     1     -24.496  -6.510  -3.922  1.00  0.00     0.004 C 
ENDBRANCH  10  11
ENDBRANCH   9  10
ENDBRANCH   8   9
ENDBRANCH   7   8
ENDBRANCH   5   6
ENDBRANCH   4   5
ENDBRANCH   2   3
ENDBRANCH   1   2
BRANCH   1  13
ATOM     13  C   UNL     1     -21.192  -6.599 -10.155  1.00  0.00     0.000 C 
BRANCH  13  14
ATOM     14  C   UNL     1     -20.478  -7.603  -9.230  1.00  0.00     0.000 C 
BRANCH  14  15
ATOM     15  C   UNL     1     -21.014  -7.578  -7.790  1.00  0.00     0.000 C 
BRANCH  15  16
ATOM     16  C   UNL     1     -20.693  -8.867  -7.014  1.00  0.00     0.003 C 
BRANCH  16  17
ATOM     17  C   UNL     1     -21.949  -9.580  -6.493  1.00  0.00     0.042 C 
BRANCH  17  18
ATOM     18  C   UNL     1     -21.641 -11.037  -6.138  1.00  0.00     0.233 C 
BRANCH  18  19
ATOM     19  O   UNL     1     -22.259 -11.923  -7.071  1.00  0.00    -0.466 OA
BRANCH  19  20
ATOM     20  C   UNL     1     -22.140 -13.316  -7.003  1.00  0.00     0.302 C 
ATOM     21  O   UNL     1     -21.695 -13.875  -5.965  1.00  0.00    -0.253 OA
ATOM     22  C   UNL     1     -22.607 -14.149  -8.148  1.00  0.00     0.139 C 
ENDBRANCH  19  20
ENDBRANCH  18  19
ENDBRANCH  17  18
ENDBRANCH  16  17
ENDBRANCH  15  16
ENDBRANCH  14  15
ENDBRANCH  13  14
ENDBRANCH   1  13
TORSDOF 16
ENDMDL
MODEL 6
REMARK VINA RESULT:    -4.401      1.832      4.416
REMARK INTER + INTRA:         -11.597
REMARK INTER:                  -8.132
REMARK INTRA:                  -3.464
REMARK UNBOUND:                -3.078
REMARK SMILES CCCCCC=CCC=CCCCCCCCCOC(C)=O
REMARK SMILES IDX 12 1 11 2 10 3 9 4 8 5 7 6 6 7 5 8 4 9 3 10 2 11 1 12 13 13
REMARK SMILES IDX 14 14 15 15 16 16 17 17 18 18 19 19 20 20 22 21 21 22
REMARK H PARENT
REMARK Flexibility Score: inf
ROOT
ATOM      1  C   UNL     1     -21.557  -3.599  -6.294  1.00  0.00     0.004 C 
ENDROOT
BRANCH   1   2
ATOM      2  C   UNL     1     -20.317  -4.091  -7.060  1.00  0.00     0.027 C 
BRANCH   2   3
ATOM      3  C   UNL     1     -19.797  -5.400  -6.518  1.00  0.00    -0.031 C 
ATOM      4  C   UNL     1     -19.578  -6.502  -7.257  1.00  0.00    -0.027 C 
BRANCH   4   5
ATOM      5  C   UNL     1     -19.723  -6.575  -8.756  1.00  0.00     0.054 C 
BRANCH   5   6
ATOM      6  C   UNL     1     -21.170  -6.716  -9.156  1.00  0.00    -0.027 C 
ATOM      7  C   UNL     1     -21.834  -5.852  -9.944  1.00  0.00    -0.031 C 
BRANCH   7   8
ATOM      8  C   UNL     1     -21.214  -4.658 -10.628  1.00  0.00     0.027 C 
BRANCH   8   9
ATOM      9  C   UNL     1     -22.162  -3.446 -10.644  1.00  0.00     0.004 C 
BRANCH   9  10
ATOM     10  C   UNL     1     -21.517  -2.140 -10.142  1.00  0.00     0.000 C 
BRANCH  10  11
ATOM     11  C   UNL     1     -20.037  -2.021 -10.536  1.00  0.00    -0.003 C 
ATOM     12  C   UNL     1     -19.211  -1.429  -9.397  1.00  0.00     0.004 C 
ENDBRANCH  10  11
ENDBRANCH   9  10
ENDBRANCH   8   9
ENDBRANCH   7   8
ENDBRANCH   5   6
ENDBRANCH   4   5
ENDBRANCH   2   3
ENDBRANCH   1   2
BRANCH   1  13
ATOM     13  C   UNL     1     -22.874  -3.652  -7.097  1.00  0.00     0.000 C 
BRANCH  13  14
ATOM     14  C   UNL     1     -23.689  -4.950  -6.943  1.00  0.00     0.000 C 
BRANCH  14  15
ATOM     15  C   UNL     1     -23.394  -5.690  -5.628  1.00  0.00     0.000 C 
BRANCH  15  16
ATOM     16  C   UNL     1     -22.949  -7.145  -5.852  1.00  0.00     0.003 C 
BRANCH  16  17
ATOM     17  C   UNL     1     -23.294  -8.065  -4.671  1.00  0.00     0.042 C 
BRANCH  17  18
ATOM     18  C   UNL     1     -22.065  -8.303  -3.789  1.00  0.00     0.233 C 
BRANCH  18  19
ATOM     19  O   UNL     1     -21.780  -7.148  -3.002  1.00  0.00    -0.466 OA
BRANCH  19  20
ATOM     20  C   UNL     1     -20.572  -6.444  -3.080  1.00  0.00     0.302 C 
ATOM     21  O   UNL     1     -19.498  -7.036  -3.366  1.00  0.00    -0.253 OA
ATOM     22  C   UNL     1     -20.571  -4.966  -2.883  1.00  0.00     0.139 C 
ENDBRANCH  19  20
ENDBRANCH  18  19
ENDBRANCH  17  18
ENDBRANCH  16  17
ENDBRANCH  15  16
ENDBRANCH  14  15
ENDBRANCH  13  14
ENDBRANCH   1  13
TORSDOF 16
ENDMDL
MODEL 7
REMARK VINA RESULT:    -4.394      1.759      4.085
REMARK INTER + INTRA:         -11.582
REMARK INTER:                  -8.554
REMARK INTRA:                  -3.028
REMARK UNBOUND:                -3.078
REMARK SMILES CCCCCC=CCC=CCCCCCCCCOC(C)=O
REMARK SMILES IDX 12 1 11 2 10 3 9 4 8 5 7 6 6 7 5 8 4 9 3 10 2 11 1 12 13 13
REMARK SMILES IDX 14 14 15 15 16 16 17 17 18 18 19 19 20 20 22 21 21 22
REMARK H PARENT
REMARK Flexibility Score: inf
ROOT
ATOM      1  C   UNL     1     -21.279  -3.556  -6.820  1.00  0.00     0.004 C 
ENDROOT
BRANCH   1   2
ATOM      2  C   UNL     1     -20.572  -3.064  -8.094  1.00  0.00     0.027 C 
BRANCH   2   3
ATOM      3  C   UNL     1     -21.547  -2.532  -9.115  1.00  0.00    -0.031 C 
ATOM      4  C   UNL     1     -21.739  -3.059 -10.339  1.00  0.00    -0.027 C 
BRANCH   4   5
ATOM      5  C   UNL     1     -21.082  -4.319 -10.844  1.00  0.00     0.054 C 
BRANCH   5   6
ATOM      6  C   UNL     1     -21.889  -5.538 -10.475  1.00  0.00    -0.027 C 
ATOM      7  C   UNL     1     -21.462  -6.523  -9.664  1.00  0.00    -0.031 C 
BRANCH   7   8
ATOM      8  C   UNL     1     -20.148  -6.518  -8.921  1.00  0.00     0.027 C 
BRANCH   8   9
ATOM      9  C   UNL     1     -19.610  -7.942  -8.694  1.00  0.00     0.004 C 
BRANCH   9  10
ATOM     10  C   UNL     1     -19.553  -8.360  -7.213  1.00  0.00     0.000 C 
BRANCH  10  11
ATOM     11  C   UNL     1     -20.947  -8.583  -6.606  1.00  0.00    -0.003 C 
ATOM     12  C   UNL     1     -21.289 -10.069  -6.546  1.00  0.00     0.004 C 
ENDBRANCH  10  11
ENDBRANCH   9  10
ENDBRANCH   8   9
ENDBRANCH   7   8
ENDBRANCH   5   6
ENDBRANCH   4   5
ENDBRANCH   2   3
ENDBRANCH   1   2
BRANCH   1  13
ATOM     13  C   UNL     1     -22.817  -3.432  -6.848  1.00  0.00     0.000 C 
BRANCH  13  14
ATOM     14  C   UNL     1     -23.577  -4.725  -7.198  1.00  0.00     0.000 C 
BRANCH  14  15
ATOM     15  C   UNL     1     -23.083  -5.945  -6.403  1.00  0.00     0.000 C 
BRANCH  15  16
ATOM     16  C   UNL     1     -24.158  -6.516  -5.464  1.00  0.00     0.003 C 
BRANCH  16  17
ATOM     17  C   UNL     1     -23.565  -7.208  -4.227  1.00  0.00     0.042 C 
BRANCH  17  18
ATOM     18  C   UNL     1     -23.750  -6.343  -2.977  1.00  0.00     0.233 C 
BRANCH  18  19
ATOM     19  O   UNL     1     -22.490  -5.869  -2.503  1.00  0.00    -0.466 OA
BRANCH  19  20
ATOM     20  C   UNL     1     -21.686  -4.975  -3.220  1.00  0.00     0.302 C 
ATOM     21  O   UNL     1     -22.019  -3.766  -3.343  1.00  0.00    -0.253 OA
ATOM     22  C   UNL     1     -20.391  -5.447  -3.788  1.00  0.00     0.139 C 
ENDBRANCH  19  20
ENDBRANCH  18  19
ENDBRANCH  17  18
ENDBRANCH  16  17
ENDBRANCH  15  16
ENDBRANCH  14  15
ENDBRANCH  13  14
ENDBRANCH   1  13
TORSDOF 16
ENDMDL
MODEL 8
REMARK VINA RESULT:    -4.380      2.817      5.865
REMARK INTER + INTRA:         -11.556
REMARK INTER:                  -8.026
REMARK INTRA:                  -3.530
REMARK UNBOUND:                -3.078
REMARK SMILES CCCCCC=CCC=CCCCCCCCCOC(C)=O
REMARK SMILES IDX 12 1 11 2 10 3 9 4 8 5 7 6 6 7 5 8 4 9 3 10 2 11 1 12 13 13
REMARK SMILES IDX 14 14 15 15 16 16 17 17 18 18 19 19 20 20 22 21 21 22
REMARK H PARENT
REMARK Flexibility Score: inf
ROOT
ATOM      1  C   UNL     1     -19.460  -8.625  -7.152  1.00  0.00     0.004 C 
ENDROOT
BRANCH   1   2
ATOM      2  C   UNL     1     -20.515  -8.121  -6.153  1.00  0.00     0.027 C 
BRANCH   2   3
ATOM      3  C   UNL     1     -19.906  -7.270  -5.066  1.00  0.00    -0.031 C 
ATOM      4  C   UNL     1     -19.840  -5.926  -5.091  1.00  0.00    -0.027 C 
BRANCH   4   5
ATOM      5  C   UNL     1     -20.449  -5.056  -6.161  1.00  0.00     0.054 C 
BRANCH   5   6
ATOM      6  C   UNL     1     -21.585  -4.232  -5.611  1.00  0.00    -0.027 C 
ATOM      7  C   UNL     1     -22.884  -4.577  -5.677  1.00  0.00    -0.031 C 
BRANCH   7   8
ATOM      8  C   UNL     1     -23.401  -5.884  -6.228  1.00  0.00     0.027 C 
BRANCH   8   9
ATOM      9  C   UNL     1     -23.892  -6.825  -5.113  1.00  0.00     0.004 C 
BRANCH   9  10
ATOM     10  C   UNL     1     -24.048  -6.142  -3.741  1.00  0.00     0.000 C 
BRANCH  10  11
ATOM     11  C   UNL     1     -23.127  -6.745  -2.670  1.00  0.00    -0.003 C 
ATOM     12  C   UNL     1     -22.119  -5.716  -2.168  1.00  0.00     0.004 C 
ENDBRANCH  10  11
ENDBRANCH   9  10
ENDBRANCH   8   9
ENDBRANCH   7   8
ENDBRANCH   5   6
ENDBRANCH   4   5
ENDBRANCH   2   3
ENDBRANCH   1   2
BRANCH   1  13
ATOM     13  C   UNL     1     -19.354  -7.797  -8.450  1.00  0.00     0.000 C 
BRANCH  13  14
ATOM     14  C   UNL     1     -20.686  -7.543  -9.181  1.00  0.00     0.000 C 
BRANCH  14  15
ATOM     15  C   UNL     1     -20.855  -6.082  -9.629  1.00  0.00     0.000 C 
BRANCH  15  16
ATOM     16  C   UNL     1     -22.301  -5.580  -9.483  1.00  0.00     0.003 C 
BRANCH  16  17
ATOM     17  C   UNL     1     -22.518  -4.192 -10.106  1.00  0.00     0.042 C 
BRANCH  17  18
ATOM     18  C   UNL     1     -22.240  -3.086  -9.085  1.00  0.00     0.233 C 
BRANCH  18  19
ATOM     19  O   UNL     1     -21.463  -2.043  -9.673  1.00  0.00    -0.466 OA
BRANCH  19  20
ATOM     20  C   UNL     1     -20.081  -2.137  -9.880  1.00  0.00     0.302 C 
ATOM     21  O   UNL     1     -19.552  -1.668 -10.922  1.00  0.00    -0.253 OA
ATOM     22  C   UNL     1     -19.222  -2.744  -8.823  1.00  0.00     0.139 C 
ENDBRANCH  19  20
ENDBRANCH  18  19
ENDBRANCH  17  18
ENDBRANCH  16  17
ENDBRANCH  15  16
ENDBRANCH  14  15
ENDBRANCH  13  14
ENDBRANCH   1  13
TORSDOF 16
ENDMDL
MODEL 9
REMARK VINA RESULT:    -4.314      1.292      3.762
REMARK INTER + INTRA:         -11.428
REMARK INTER:                  -8.097
REMARK INTRA:                  -3.331
REMARK UNBOUND:                -3.078
REMARK SMILES CCCCCC=CCC=CCCCCCCCCOC(C)=O
REMARK SMILES IDX 12 1 11 2 10 3 9 4 8 5 7 6 6 7 5 8 4 9 3 10 2 11 1 12 13 13
REMARK SMILES IDX 14 14 15 15 16 16 17 17 18 18 19 19 20 20 22 21 21 22
REMARK H PARENT
REMARK Flexibility Score: inf
ROOT
ATOM      1  C   UNL     1     -19.284  -5.250  -8.513  1.00  0.00     0.004 C 
ENDROOT
BRANCH   1   2
ATOM      2  C   UNL     1     -18.947  -4.601  -7.160  1.00  0.00     0.027 C 
BRANCH   2   3
ATOM      3  C   UNL     1     -19.342  -5.476  -5.996  1.00  0.00    -0.031 C 
ATOM      4  C   UNL     1     -20.445  -5.301  -5.245  1.00  0.00    -0.027 C 
BRANCH   4   5
ATOM      5  C   UNL     1     -21.508  -4.265  -5.509  1.00  0.00     0.054 C 
BRANCH   5   6
ATOM      6  C   UNL     1     -22.753  -4.895  -6.079  1.00  0.00    -0.027 C 
ATOM      7  C   UNL     1     -23.282  -4.596  -7.279  1.00  0.00    -0.031 C 
BRANCH   7   8
ATOM      8  C   UNL     1     -22.664  -3.653  -8.282  1.00  0.00     0.027 C 
BRANCH   8   9
ATOM      9  C   UNL     1     -22.650  -4.248  -9.701  1.00  0.00     0.004 C 
BRANCH   9  10
ATOM     10  C   UNL     1     -21.685  -3.537 -10.669  1.00  0.00     0.000 C 
BRANCH  10  11
ATOM     11  C   UNL     1     -21.357  -2.102 -10.231  1.00  0.00    -0.003 C 
ATOM     12  C   UNL     1     -19.855  -1.916 -10.036  1.00  0.00     0.004 C 
ENDBRANCH  10  11
ENDBRANCH   9  10
ENDBRANCH   8   9
ENDBRANCH   7   8
ENDBRANCH   5   6
ENDBRANCH   4   5
ENDBRANCH   2   3
ENDBRANCH   1   2
BRANCH   1  13
ATOM     13  C   UNL     1     -19.254  -6.793  -8.513  1.00  0.00     0.000 C 
BRANCH  13  14
ATOM     14  C   UNL     1     -20.585  -7.479  -8.874  1.00  0.00     0.000 C 
BRANCH  14  15
ATOM     15  C   UNL     1     -21.156  -8.323  -7.723  1.00  0.00     0.000 C 
BRANCH  15  16
ATOM     16  C   UNL     1     -20.062  -8.884  -6.799  1.00  0.00     0.003 C 
BRANCH  16  17
ATOM     17  C   UNL     1     -20.517 -10.129  -6.022  1.00  0.00     0.042 C 
BRANCH  17  18
ATOM     18  C   UNL     1     -22.044 -10.213  -5.971  1.00  0.00     0.233 C 
BRANCH  18  19
ATOM     19  O   UNL     1     -22.533  -9.713  -4.727  1.00  0.00    -0.466 OA
BRANCH  19  20
ATOM     20  C   UNL     1     -23.089  -8.437  -4.577  1.00  0.00     0.302 C 
ATOM     21  O   UNL     1     -23.855  -7.960  -5.456  1.00  0.00    -0.253 OA
ATOM     22  C   UNL     1     -22.820  -7.662  -3.331  1.00  0.00     0.139 C 
ENDBRANCH  19  20
ENDBRANCH  18  19
ENDBRANCH  17  18
ENDBRANCH  16  17
ENDBRANCH  15  16
ENDBRANCH  14  15
ENDBRANCH  13  14
ENDBRANCH   1  13
TORSDOF 16
ENDMDL
