MODEL 1
REMARK VINA RESULT:    -4.508      0.000      0.000
REMARK INTER + INTRA:          -8.486
REMARK INTER:                  -7.670
REMARK INTRA:                  -0.815
REMARK UNBOUND:                -0.815
REMARK SMILES CCCCCCCCCCCCCC(=O)[O-]
REMARK SMILES IDX 8 1 9 2 10 3 11 4 12 5 13 6 14 7 15 8 16 9 7 10 6 11 5 12
REMARK SMILES IDX 4 13 3 14 2 15 1 16
REMARK H PARENT
REMARK Flexibility Score: inf
ROOT
ATOM      1  C   UNL     1       4.078  -9.016  -3.399  1.00  0.00     0.000 C 
ENDROOT
BRANCH   1   2
ATOM      2  C   UNL     1       2.588  -9.362  -3.251  1.00  0.00     0.000 C 
BRANCH   2   3
ATOM      3  C   UNL     1       2.239  -9.879  -1.848  1.00  0.00     0.000 C 
BRANCH   3   4
ATOM      4  C   UNL     1       0.954  -9.220  -1.323  1.00  0.00     0.000 C 
BRANCH   4   5
ATOM      5  C   UNL     1       0.159 -10.125  -0.365  1.00  0.00     0.006 C 
BRANCH   5   6
ATOM      6  C   UNL     1      -1.361 -10.105  -0.602  1.00  0.00     0.053 C 
BRANCH   6   7
ATOM      7  C   UNL     1      -2.088  -9.226   0.370  1.00  0.00     0.041 C 
ATOM      8  O   UNL     1      -2.349  -9.640   1.530  1.00  0.00    -0.550 OA
ATOM      9  O   UNL     1      -2.447  -7.934   0.006  1.00  0.00    -0.550 OA
ENDBRANCH   6   7
ENDBRANCH   5   6
ENDBRANCH   4   5
ENDBRANCH   3   4
ENDBRANCH   2   3
ENDBRANCH   1   2
BRANCH   1  10
ATOM     10  C   UNL     1       4.655  -9.456  -4.757  1.00  0.00     0.000 C 
BRANCH  10  11
ATOM     11  C   UNL     1       3.596 -10.096  -5.670  1.00  0.00    -0.000 C 
BRANCH  11  12
ATOM     12  C   UNL     1       3.861  -9.822  -7.161  1.00  0.00    -0.000 C 
BRANCH  12  13
ATOM     13  C   UNL     1       3.837  -8.322  -7.498  1.00  0.00    -0.000 C 
BRANCH  13  14
ATOM     14  C   UNL     1       2.510  -7.647  -7.110  1.00  0.00    -0.000 C 
BRANCH  14  15
ATOM     15  C   UNL     1       2.661  -6.699  -5.910  1.00  0.00    -0.003 C 
ATOM     16  C   UNL     1       1.836  -5.421  -6.060  1.00  0.00     0.004 C 
ENDBRANCH  14  15
ENDBRANCH  13  14
ENDBRANCH  12  13
ENDBRANCH  11  12
ENDBRANCH  10  11
ENDBRANCH   1  10
TORSDOF 12
ENDMDL
MODEL 2
REMARK VINA RESULT:    -4.504      2.909      6.791
REMARK INTER + INTRA:          -8.479
REMARK INTER:                  -7.680
REMARK INTRA:                  -0.799
REMARK UNBOUND:                -0.815
REMARK SMILES CCCCCCCCCCCCCC(=O)[O-]
REMARK SMILES IDX 8 1 9 2 10 3 11 4 12 5 13 6 14 7 15 8 16 9 7 10 6 11 5 12
REMARK SMILES IDX 4 13 3 14 2 15 1 16
REMARK H PARENT
REMARK Flexibility Score: inf
ROOT
ATOM      1  C   UNL     1       2.888  -9.727  -2.808  1.00  0.00     0.000 C 
ENDROOT
BRANCH   1   2
ATOM      2  C   UNL     1       3.633 -10.125  -4.092  1.00  0.00     0.000 C 
BRANCH   2   3
ATOM      3  C   UNL     1       4.864  -9.246  -4.356  1.00  0.00     0.000 C 
BRANCH   3   4
ATOM      4  C   UNL     1       5.006  -8.935  -5.854  1.00  0.00     0.000 C 
BRANCH   4   5
ATOM      5  C   UNL     1       3.665  -8.970  -6.608  1.00  0.00     0.006 C 
BRANCH   5   6
ATOM      6  C   UNL     1       3.229  -7.606  -7.174  1.00  0.00     0.053 C 
BRANCH   6   7
ATOM      7  C   UNL     1       2.426  -6.803  -6.196  1.00  0.00     0.041 C 
ATOM      8  O   UNL     1       2.297  -7.194  -5.006  1.00  0.00    -0.550 OA
ATOM      9  O   UNL     1       1.847  -5.604  -6.591  1.00  0.00    -0.550 OA
ENDBRANCH   6   7
ENDBRANCH   5   6
ENDBRANCH   4   5
ENDBRANCH   3   4
ENDBRANCH   2   3
ENDBRANCH   1   2
BRANCH   1  10
ATOM     10  C   UNL     1       1.369  -9.950  -2.913  1.00  0.00     0.000 C 
BRANCH  10  11
ATOM     11  C   UNL     1       0.664  -9.888  -1.548  1.00  0.00    -0.000 C 
BRANCH  11  12
ATOM     12  C   UNL     1       0.869  -8.536  -0.841  1.00  0.00    -0.000 C 
BRANCH  12  13
ATOM     13  C   UNL     1      -0.270  -7.544  -1.125  1.00  0.00    -0.000 C 
BRANCH  13  14
ATOM     14  C   UNL     1      -1.660  -8.200  -1.054  1.00  0.00    -0.000 C 
BRANCH  14  15
ATOM     15  C   UNL     1      -2.206  -8.271   0.381  1.00  0.00    -0.003 C 
ATOM     16  C   UNL     1      -2.221  -9.695   0.937  1.00  0.00     0.004 C 
ENDBRANCH  14  15
ENDBRANCH  13  14
ENDBRANCH  12  13
ENDBRANCH  11  12
ENDBRANCH  10  11
ENDBRANCH   1  10
TORSDOF 12
ENDMDL
MODEL 3
REMARK VINA RESULT:    -4.447      1.476      2.042
REMARK INTER + INTRA:          -8.382
REMARK INTER:                  -7.393
REMARK INTRA:                  -0.989
REMARK UNBOUND:                -0.815
REMARK SMILES CCCCCCCCCCCCCC(=O)[O-]
REMARK SMILES IDX 8 1 9 2 10 3 11 4 12 5 13 6 14 7 15 8 16 9 7 10 6 11 5 12
REMARK SMILES IDX 4 13 3 14 2 15 1 16
REMARK H PARENT
REMARK Flexibility Score: inf
ROOT
ATOM      1  C   UNL     1       4.866  -8.663  -4.213  1.00  0.00     0.000 C 
ENDROOT
BRANCH   1   2
ATOM      2  C   UNL     1       3.882  -9.287  -3.211  1.00  0.00     0.000 C 
BRANCH   2   3
ATOM      3  C   UNL     1       2.574  -9.742  -3.874  1.00  0.00     0.000 C 
BRANCH   3   4
ATOM      4  C   UNL     1       1.395  -9.633  -2.894  1.00  0.00     0.000 C 
BRANCH   4   5
ATOM      5  C   UNL     1       1.791  -9.024  -1.537  1.00  0.00     0.006 C 
BRANCH   5   6
ATOM      6  C   UNL     1       0.607  -8.802  -0.581  1.00  0.00     0.053 C 
BRANCH   6   7
ATOM      7  C   UNL     1      -0.331  -7.735  -1.057  1.00  0.00     0.041 C 
ATOM      8  O   UNL     1       0.116  -6.627  -1.456  1.00  0.00    -0.550 OA
ATOM      9  O   UNL     1      -1.698  -7.975  -1.092  1.00  0.00    -0.550 OA
ENDBRANCH   6   7
ENDBRANCH   5   6
ENDBRANCH   4   5
ENDBRANCH   3   4
ENDBRANCH   2   3
ENDBRANCH   1   2
BRANCH   1  10
ATOM     10  C   UNL     1       5.230  -9.623  -5.360  1.00  0.00     0.000 C 
BRANCH  10  11
ATOM     11  C   UNL     1       5.083  -8.973  -6.745  1.00  0.00    -0.000 C 
BRANCH  11  12
ATOM     12  C   UNL     1       3.630  -8.984  -7.250  1.00  0.00    -0.000 C 
BRANCH  12  13
ATOM     13  C   UNL     1       3.046  -7.569  -7.395  1.00  0.00    -0.000 C 
BRANCH  13  14
ATOM     14  C   UNL     1       2.550  -6.991  -6.058  1.00  0.00    -0.000 C 
BRANCH  14  15
ATOM     15  C   UNL     1       1.869  -5.624  -6.224  1.00  0.00    -0.003 C 
ATOM     16  C   UNL     1       2.728  -4.470  -5.707  1.00  0.00     0.004 C 
ENDBRANCH  14  15
ENDBRANCH  13  14
ENDBRANCH  12  13
ENDBRANCH  11  12
ENDBRANCH  10  11
ENDBRANCH   1  10
TORSDOF 12
ENDMDL
MODEL 4
REMARK VINA RESULT:    -4.404      2.880      6.488
REMARK INTER + INTRA:          -8.309
REMARK INTER:                  -7.703
REMARK INTRA:                  -0.607
REMARK UNBOUND:                -0.815
REMARK SMILES CCCCCCCCCCCCCC(=O)[O-]
REMARK SMILES IDX 8 1 9 2 10 3 11 4 12 5 13 6 14 7 15 8 16 9 7 10 6 11 5 12
REMARK SMILES IDX 4 13 3 14 2 15 1 16
REMARK H PARENT
REMARK Flexibility Score: inf
ROOT
ATOM      1  C   UNL     1       4.100  -8.876  -3.867  1.00  0.00     0.000 C 
ENDROOT
BRANCH   1   2
ATOM      2  C   UNL     1       4.892  -8.853  -5.184  1.00  0.00     0.000 C 
BRANCH   2   3
ATOM      3  C   UNL     1       4.016  -9.174  -6.404  1.00  0.00     0.000 C 
BRANCH   3   4
ATOM      4  C   UNL     1       3.388  -7.896  -6.981  1.00  0.00     0.000 C 
BRANCH   4   5
ATOM      5  C   UNL     1       2.579  -7.099  -5.942  1.00  0.00     0.006 C 
BRANCH   5   6
ATOM      6  C   UNL     1       1.902  -5.838  -6.508  1.00  0.00     0.053 C 
BRANCH   6   7
ATOM      7  C   UNL     1       1.839  -4.718  -5.513  1.00  0.00     0.041 C 
ATOM      8  O   UNL     1       0.785  -4.508  -4.858  1.00  0.00    -0.550 OA
ATOM      9  O   UNL     1       2.958  -3.927  -5.286  1.00  0.00    -0.550 OA
ENDBRANCH   6   7
ENDBRANCH   5   6
ENDBRANCH   4   5
ENDBRANCH   3   4
ENDBRANCH   2   3
ENDBRANCH   1   2
BRANCH   1  10
ATOM     10  C   UNL     1       3.204 -10.121  -3.738  1.00  0.00     0.000 C 
BRANCH  10  11
ATOM     11  C   UNL     1       2.216 -10.021  -2.565  1.00  0.00    -0.000 C 
BRANCH  11  12
ATOM     12  C   UNL     1       1.568  -8.629  -2.458  1.00  0.00    -0.000 C 
BRANCH  12  13
ATOM     13  C   UNL     1       0.749  -8.458  -1.168  1.00  0.00    -0.000 C 
BRANCH  13  14
ATOM     14  C   UNL     1       0.790  -9.706  -0.268  1.00  0.00    -0.000 C 
BRANCH  14  15
ATOM     15  C   UNL     1      -0.569 -10.009   0.380  1.00  0.00    -0.003 C 
ATOM     16  C   UNL     1      -1.707  -9.183  -0.221  1.00  0.00     0.004 C 
ENDBRANCH  14  15
ENDBRANCH  13  14
ENDBRANCH  12  13
ENDBRANCH  11  12
ENDBRANCH  10  11
ENDBRANCH   1  10
TORSDOF 12
ENDMDL
MODEL 5
REMARK VINA RESULT:    -4.393      4.074      6.877
REMARK INTER + INTRA:          -8.290
REMARK INTER:                  -7.486
REMARK INTRA:                  -0.803
REMARK UNBOUND:                -0.815
REMARK SMILES CCCCCCCCCCCCCC(=O)[O-]
REMARK SMILES IDX 8 1 9 2 10 3 11 4 12 5 13 6 14 7 15 8 16 9 7 10 6 11 5 12
REMARK SMILES IDX 4 13 3 14 2 15 1 16
REMARK H PARENT
REMARK Flexibility Score: inf
ROOT
ATOM      1  C   UNL     1       0.763 -10.013   0.253  1.00  0.00     0.000 C 
ENDROOT
BRANCH   1   2
ATOM      2  C   UNL     1       1.952  -9.678  -0.662  1.00  0.00     0.000 C 
BRANCH   2   3
ATOM      3  C   UNL     1       1.561  -9.633  -2.146  1.00  0.00     0.000 C 
BRANCH   3   4
ATOM      4  C   UNL     1       2.808  -9.623  -3.043  1.00  0.00     0.000 C 
BRANCH   4   5
ATOM      5  C   UNL     1       2.530  -9.086  -4.458  1.00  0.00     0.006 C 
BRANCH   5   6
ATOM      6  C   UNL     1       3.621  -8.142  -4.996  1.00  0.00     0.053 C 
BRANCH   6   7
ATOM      7  C   UNL     1       4.599  -8.838  -5.892  1.00  0.00     0.041 C 
ATOM      8  O   UNL     1       5.583  -9.455  -5.403  1.00  0.00    -0.550 OA
ATOM      9  O   UNL     1       4.407  -8.834  -7.268  1.00  0.00    -0.550 OA
ENDBRANCH   6   7
ENDBRANCH   5   6
ENDBRANCH   4   5
ENDBRANCH   3   4
ENDBRANCH   2   3
ENDBRANCH   1   2
BRANCH   1  10
ATOM     10  C   UNL     1      -0.566 -10.107  -0.518  1.00  0.00     0.000 C 
BRANCH  10  11
ATOM     11  C   UNL     1      -1.729  -9.425   0.222  1.00  0.00    -0.000 C 
BRANCH  11  12
ATOM     12  C   UNL     1      -2.035  -8.021  -0.328  1.00  0.00    -0.000 C 
BRANCH  12  13
ATOM     13  C   UNL     1      -1.099  -7.623  -1.480  1.00  0.00    -0.000 C 
BRANCH  13  14
ATOM     14  C   UNL     1      -0.042  -6.587  -1.057  1.00  0.00    -0.000 C 
BRANCH  14  15
ATOM     15  C   UNL     1      -0.031  -5.351  -1.969  1.00  0.00    -0.003 C 
ATOM     16  C   UNL     1       0.594  -4.128  -1.297  1.00  0.00     0.004 C 
ENDBRANCH  14  15
ENDBRANCH  13  14
ENDBRANCH  12  13
ENDBRANCH  11  12
ENDBRANCH  10  11
ENDBRANCH   1  10
TORSDOF 12
ENDMDL
MODEL 6
REMARK VINA RESULT:    -4.185      8.736     11.104
REMARK INTER + INTRA:          -7.936
REMARK INTER:                  -7.088
REMARK INTRA:                  -0.848
REMARK UNBOUND:                -0.815
REMARK SMILES CCCCCCCCCCCCCC(=O)[O-]
REMARK SMILES IDX 8 1 9 2 10 3 11 4 12 5 13 6 14 7 15 8 16 9 7 10 6 11 5 12
REMARK SMILES IDX 4 13 3 14 2 15 1 16
REMARK H PARENT
REMARK Flexibility Score: inf
ROOT
ATOM      1  C   UNL     1       0.360   0.722   0.523  1.00  0.00     0.000 C 
ENDROOT
BRANCH   1   2
ATOM      2  C   UNL     1      -0.576   1.849   0.987  1.00  0.00     0.000 C 
BRANCH   2   3
ATOM      3  C   UNL     1      -1.597   2.248  -0.089  1.00  0.00     0.000 C 
BRANCH   3   4
ATOM      4  C   UNL     1      -1.611   1.230  -1.238  1.00  0.00     0.000 C 
BRANCH   4   5
ATOM      5  C   UNL     1      -1.425   1.878  -2.622  1.00  0.00     0.006 C 
BRANCH   5   6
ATOM      6  C   UNL     1       0.045   2.111  -3.012  1.00  0.00     0.053 C 
BRANCH   6   7
ATOM      7  C   UNL     1       0.427   3.561  -2.992  1.00  0.00     0.041 C 
ATOM      8  O   UNL     1      -0.168   4.365  -2.227  1.00  0.00    -0.550 OA
ATOM      9  O   UNL     1       1.463   4.017  -3.796  1.00  0.00    -0.550 OA
ENDBRANCH   6   7
ENDBRANCH   5   6
ENDBRANCH   4   5
ENDBRANCH   3   4
ENDBRANCH   2   3
ENDBRANCH   1   2
BRANCH   1  10
ATOM     10  C   UNL     1       0.697  -0.268   1.652  1.00  0.00     0.000 C 
BRANCH  10  11
ATOM     11  C   UNL     1       1.137  -1.643   1.122  1.00  0.00    -0.000 C 
BRANCH  11  12
ATOM     12  C   UNL     1       0.318  -2.094  -0.100  1.00  0.00    -0.000 C 
BRANCH  12  13
ATOM     13  C   UNL     1       0.803  -3.436  -0.671  1.00  0.00    -0.000 C 
BRANCH  13  14
ATOM     14  C   UNL     1       1.009  -3.394  -2.195  1.00  0.00    -0.000 C 
BRANCH  14  15
ATOM     15  C   UNL     1       0.307  -4.555  -2.917  1.00  0.00    -0.003 C 
ATOM     16  C   UNL     1       0.169  -4.317  -4.421  1.00  0.00     0.004 C 
ENDBRANCH  14  15
ENDBRANCH  13  14
ENDBRANCH  12  13
ENDBRANCH  11  12
ENDBRANCH  10  11
ENDBRANCH   1  10
TORSDOF 12
ENDMDL
MODEL 7
REMARK VINA RESULT:    -4.172      8.191     10.614
REMARK INTER + INTRA:          -7.914
REMARK INTER:                  -7.395
REMARK INTRA:                  -0.519
REMARK UNBOUND:                -0.815
REMARK SMILES CCCCCCCCCCCCCC(=O)[O-]
REMARK SMILES IDX 8 1 9 2 10 3 11 4 12 5 13 6 14 7 15 8 16 9 7 10 6 11 5 12
REMARK SMILES IDX 4 13 3 14 2 15 1 16
REMARK H PARENT
REMARK Flexibility Score: inf
ROOT
ATOM      1  C   UNL     1       0.945  -0.656   1.271  1.00  0.00     0.000 C 
ENDROOT
BRANCH   1   2
ATOM      2  C   UNL     1       0.361   0.755   1.099  1.00  0.00     0.000 C 
BRANCH   2   3
ATOM      3  C   UNL     1      -0.455   0.902  -0.193  1.00  0.00     0.000 C 
BRANCH   3   4
ATOM      4  C   UNL     1      -1.377   2.129  -0.124  1.00  0.00     0.000 C 
BRANCH   4   5
ATOM      5  C   UNL     1      -1.547   2.835  -1.482  1.00  0.00     0.006 C 
BRANCH   5   6
ATOM      6  C   UNL     1      -0.743   2.192  -2.626  1.00  0.00     0.053 C 
BRANCH   6   7
ATOM      7  C   UNL     1       0.441   3.014  -3.037  1.00  0.00     0.041 C 
ATOM      8  O   UNL     1       0.750   4.050  -2.391  1.00  0.00    -0.550 OA
ATOM      9  O   UNL     1       1.223   2.618  -4.113  1.00  0.00    -0.550 OA
ENDBRANCH   6   7
ENDBRANCH   5   6
ENDBRANCH   4   5
ENDBRANCH   3   4
ENDBRANCH   2   3
ENDBRANCH   1   2
BRANCH   1  10
ATOM     10  C   UNL     1       0.294  -1.684   0.328  1.00  0.00     0.000 C 
BRANCH  10  11
ATOM     11  C   UNL     1       1.113  -2.979   0.208  1.00  0.00    -0.000 C 
BRANCH  11  12
ATOM     12  C   UNL     1       0.705  -3.824  -1.012  1.00  0.00    -0.000 C 
BRANCH  12  13
ATOM     13  C   UNL     1       0.094  -5.177  -0.613  1.00  0.00    -0.000 C 
BRANCH  13  14
ATOM     14  C   UNL     1       0.114  -6.200  -1.762  1.00  0.00    -0.000 C 
BRANCH  14  15
ATOM     15  C   UNL     1       0.018  -7.649  -1.262  1.00  0.00    -0.003 C 
ATOM     16  C   UNL     1      -1.374  -8.001  -0.736  1.00  0.00     0.004 C 
ENDBRANCH  14  15
ENDBRANCH  13  14
ENDBRANCH  12  13
ENDBRANCH  11  12
ENDBRANCH  10  11
ENDBRANCH   1  10
TORSDOF 12
ENDMDL
MODEL 8
REMARK VINA RESULT:    -4.066      7.160      9.339
REMARK INTER + INTRA:          -7.734
REMARK INTER:                  -7.207
REMARK INTRA:                  -0.527
REMARK UNBOUND:                -0.815
REMARK SMILES CCCCCCCCCCCCCC(=O)[O-]
REMARK SMILES IDX 8 1 9 2 10 3 11 4 12 5 13 6 14 7 15 8 16 9 7 10 6 11 5 12
REMARK SMILES IDX 4 13 3 14 2 15 1 16
REMARK H PARENT
REMARK Flexibility Score: inf
ROOT
ATOM      1  C   UNL     1       0.789  -3.253  -0.316  1.00  0.00     0.000 C 
ENDROOT
BRANCH   1   2
ATOM      2  C   UNL     1       0.126  -1.901  -0.008  1.00  0.00     0.000 C 
BRANCH   2   3
ATOM      3  C   UNL     1       0.796  -1.168   1.163  1.00  0.00     0.000 C 
BRANCH   3   4
ATOM      4  C   UNL     1       0.549   0.346   1.077  1.00  0.00     0.000 C 
BRANCH   4   5
ATOM      5  C   UNL     1      -0.383   0.741  -0.082  1.00  0.00     0.006 C 
BRANCH   5   6
ATOM      6  C   UNL     1      -1.001   2.143   0.061  1.00  0.00     0.053 C 
BRANCH   6   7
ATOM      7  C   UNL     1      -2.058   2.419  -0.965  1.00  0.00     0.041 C 
ATOM      8  O   UNL     1      -2.019   1.848  -2.087  1.00  0.00    -0.550 OA
ATOM      9  O   UNL     1      -3.106   3.281  -0.670  1.00  0.00    -0.550 OA
ENDBRANCH   6   7
ENDBRANCH   5   6
ENDBRANCH   4   5
ENDBRANCH   3   4
ENDBRANCH   2   3
ENDBRANCH   1   2
BRANCH   1  10
ATOM     10  C   UNL     1       0.791  -3.581  -1.820  1.00  0.00     0.000 C 
BRANCH  10  11
ATOM     11  C   UNL     1       0.287  -5.003  -2.116  1.00  0.00    -0.000 C 
BRANCH  11  12
ATOM     12  C   UNL     1       0.092  -5.838  -0.838  1.00  0.00    -0.000 C 
BRANCH  12  13
ATOM     13  C   UNL     1       0.020  -7.346  -1.125  1.00  0.00    -0.000 C 
BRANCH  13  14
ATOM     14  C   UNL     1      -1.415  -7.831  -1.397  1.00  0.00    -0.000 C 
BRANCH  14  15
ATOM     15  C   UNL     1      -1.673  -9.244  -0.850  1.00  0.00    -0.003 C 
ATOM     16  C   UNL     1      -2.028  -9.245   0.637  1.00  0.00     0.004 C 
ENDBRANCH  14  15
ENDBRANCH  13  14
ENDBRANCH  12  13
ENDBRANCH  11  12
ENDBRANCH  10  11
ENDBRANCH   1  10
TORSDOF 12
ENDMDL
MODEL 9
REMARK VINA RESULT:    -3.973      2.068      3.884
REMARK INTER + INTRA:          -7.575
REMARK INTER:                  -6.713
REMARK INTRA:                  -0.862
REMARK UNBOUND:                -0.815
REMARK SMILES CCCCCCCCCCCCCC(=O)[O-]
REMARK SMILES IDX 8 1 9 2 10 3 11 4 12 5 13 6 14 7 15 8 16 9 7 10 6 11 5 12
REMARK SMILES IDX 4 13 3 14 2 15 1 16
REMARK H PARENT
REMARK Flexibility Score: inf
ROOT
ATOM      1  C   UNL     1       1.486 -10.099  -0.180  1.00  0.00     0.000 C 
ENDROOT
BRANCH   1   2
ATOM      2  C   UNL     1       0.170 -10.109   0.615  1.00  0.00     0.000 C 
BRANCH   2   3
ATOM      3  C   UNL     1      -1.068 -10.125  -0.294  1.00  0.00     0.000 C 
BRANCH   3   4
ATOM      4  C   UNL     1      -2.100  -9.085   0.167  1.00  0.00     0.000 C 
BRANCH   4   5
ATOM      5  C   UNL     1      -1.657  -7.635  -0.098  1.00  0.00     0.006 C 
BRANCH   5   6
ATOM      6  C   UNL     1      -1.010  -7.420  -1.478  1.00  0.00     0.053 C 
BRANCH   6   7
ATOM      7  C   UNL     1      -0.172  -6.179  -1.538  1.00  0.00     0.041 C 
ATOM      8  O   UNL     1       0.007  -5.585  -2.634  1.00  0.00    -0.550 OA
ATOM      9  O   UNL     1       0.384  -5.658  -0.377  1.00  0.00    -0.550 OA
ENDBRANCH   6   7
ENDBRANCH   5   6
ENDBRANCH   4   5
ENDBRANCH   3   4
ENDBRANCH   2   3
ENDBRANCH   1   2
BRANCH   1  10
ATOM     10  C   UNL     1       1.257 -10.118  -1.702  1.00  0.00     0.000 C 
BRANCH  10  11
ATOM     11  C   UNL     1       2.189  -9.154  -2.453  1.00  0.00    -0.000 C 
BRANCH  11  12
ATOM     12  C   UNL     1       3.172  -9.888  -3.382  1.00  0.00    -0.000 C 
BRANCH  12  13
ATOM     13  C   UNL     1       4.164  -8.932  -4.064  1.00  0.00    -0.000 C 
BRANCH  13  14
ATOM     14  C   UNL     1       3.589  -8.289  -5.338  1.00  0.00    -0.000 C 
BRANCH  14  15
ATOM     15  C   UNL     1       4.273  -8.801  -6.616  1.00  0.00    -0.003 C 
ATOM     16  C   UNL     1       3.392  -8.653  -7.856  1.00  0.00     0.004 C 
ENDBRANCH  14  15
ENDBRANCH  13  14
ENDBRANCH  12  13
ENDBRANCH  11  12
ENDBRANCH  10  11
ENDBRANCH   1  10
TORSDOF 12
ENDMDL
