MODEL 1
REMARK VINA RESULT:    -4.438      0.000      0.000
REMARK INTER + INTRA:          -8.134
REMARK INTER:                  -6.903
REMARK INTRA:                  -1.231
REMARK UNBOUND:                -1.231
REMARK SMILES COc1cc(CNC(=O)CCCCC=CC(C)C)ccc1O
REMARK SMILES IDX 11 1 12 2 13 3 14 4 15 5 16 6 17 7 18 8 10 9 8 10 9 11 7 12
REMARK SMILES IDX 6 14 5 15 4 16 19 17 3 18 20 19 21 20 2 21 1 22 22 23
REMARK H PARENT 7 13 22 24
REMARK Flexibility Score: inf
ROOT
ATOM      1  C   UNL     1     195.076 199.286 193.980  1.00  0.00     0.010 C 
ENDROOT
BRANCH   1   2
ATOM      2  C   UNL     1     196.565 198.940 193.835  1.00  0.00     0.005 C 
BRANCH   2   3
ATOM      3  C   UNL     1     197.392 199.439 195.031  1.00  0.00     0.027 C 
BRANCH   3   4
ATOM      4  C   UNL     1     197.965 198.302 195.842  1.00  0.00    -0.031 C 
ATOM      5  C   UNL     1     197.350 197.702 196.878  1.00  0.00    -0.028 C 
BRANCH   5   6
ATOM      6  C   UNL     1     195.965 198.039 197.392  1.00  0.00     0.005 C 
ATOM      7  C   UNL     1     194.971 196.970 196.931  1.00  0.00     0.012 C 
ATOM      8  C   UNL     1     195.990 198.127 198.920  1.00  0.00     0.012 C 
ENDBRANCH   5   6
ENDBRANCH   3   4
ENDBRANCH   2   3
ENDBRANCH   1   2
BRANCH   1   9
ATOM      9  C   UNL     1     194.193 198.120 193.533  1.00  0.00     0.100 C 
BRANCH   9  10
ATOM     10  C   UNL     1     194.165 198.037 192.037  1.00  0.00     0.220 C 
ATOM     11  O   UNL     1     193.647 198.973 191.374  1.00  0.00    -0.275 OA
ATOM     12  N   UNL     1     194.775 196.925 191.369  1.00  0.00    -0.352 N 
ATOM     13  H   UNL     1     195.180 196.153 191.944  1.00  0.00     0.163 HD
BRANCH  12  14
ATOM     14  C   UNL     1     195.057 196.933 189.937  1.00  0.00     0.151 C 
BRANCH  14  15
ATOM     15  C   UNL     1     196.446 196.415 189.692  1.00  0.00    -0.025 A 
ATOM     16  C   UNL     1     197.362 197.162 188.933  1.00  0.00     0.056 A 
ATOM     17  C   UNL     1     196.858 195.210 190.278  1.00  0.00     0.009 A 
ATOM     18  C   UNL     1     198.675 196.694 188.736  1.00  0.00     0.160 A 
ATOM     19  C   UNL     1     198.158 194.741 190.084  1.00  0.00     0.050 A 
ATOM     20  C   UNL     1     199.066 195.477 189.312  1.00  0.00     0.157 A 
BRANCH  18  21
ATOM     21  O   UNL     1     199.618 197.409 187.979  1.00  0.00    -0.493 OA
ATOM     22  C   UNL     1     200.460 198.432 188.499  1.00  0.00     0.278 C 
ENDBRANCH  18  21
BRANCH  20  23
ATOM     23  O   UNL     1     200.362 195.004 189.114  1.00  0.00    -0.504 OA
ATOM     24  H   UNL     1     201.123 195.265 189.730  1.00  0.00     0.293 HD
ENDBRANCH  20  23
ENDBRANCH  14  15
ENDBRANCH  12  14
ENDBRANCH   9  10
ENDBRANCH   1   9
TORSDOF 10
ENDMDL
MODEL 2
REMARK VINA RESULT:    -4.417      8.237     12.122
REMARK INTER + INTRA:          -8.101
REMARK INTER:                  -7.091
REMARK INTRA:                  -1.009
REMARK UNBOUND:                -1.231
REMARK SMILES COc1cc(CNC(=O)CCCCC=CC(C)C)ccc1O
REMARK SMILES IDX 11 1 12 2 13 3 14 4 15 5 16 6 17 7 18 8 10 9 8 10 9 11 7 12
REMARK SMILES IDX 6 14 5 15 4 16 19 17 3 18 20 19 21 20 2 21 1 22 22 23
REMARK H PARENT 7 13 22 24
REMARK Flexibility Score: inf
ROOT
ATOM      1  C   UNL     1     203.254 199.746 196.622  1.00  0.00     0.010 C 
ENDROOT
BRANCH   1   2
ATOM      2  C   UNL     1     203.648 199.653 195.141  1.00  0.00     0.005 C 
BRANCH   2   3
ATOM      3  C   UNL     1     205.156 199.409 194.961  1.00  0.00     0.027 C 
BRANCH   3   4
ATOM      4  C   UNL     1     205.466 197.967 194.643  1.00  0.00    -0.031 C 
ATOM      5  C   UNL     1     206.549 197.293 195.075  1.00  0.00    -0.028 C 
BRANCH   5   6
ATOM      6  C   UNL     1     207.628 197.854 195.978  1.00  0.00     0.005 C 
ATOM      7  C   UNL     1     207.264 197.588 197.440  1.00  0.00     0.012 C 
ATOM      8  C   UNL     1     208.974 197.211 195.633  1.00  0.00     0.012 C 
ENDBRANCH   5   6
ENDBRANCH   3   4
ENDBRANCH   2   3
ENDBRANCH   1   2
BRANCH   1   9
ATOM      9  C   UNL     1     204.486 199.928 197.510  1.00  0.00     0.100 C 
BRANCH   9  10
ATOM     10  C   UNL     1     204.130 199.683 198.944  1.00  0.00     0.220 C 
ATOM     11  O   UNL     1     204.511 198.622 199.506  1.00  0.00    -0.275 OA
ATOM     12  N   UNL     1     203.409 200.677 199.684  1.00  0.00    -0.352 N 
ATOM     13  H   UNL     1     203.088 201.538 199.188  1.00  0.00     0.163 HD
BRANCH  12  14
ATOM     14  C   UNL     1     203.303 200.644 201.140  1.00  0.00     0.151 C 
BRANCH  14  15
ATOM     15  C   UNL     1     201.857 200.572 201.542  1.00  0.00    -0.025 A 
ATOM     16  C   UNL     1     200.866 200.287 200.588  1.00  0.00     0.056 A 
ATOM     17  C   UNL     1     201.495 200.722 202.888  1.00  0.00     0.009 A 
ATOM     18  C   UNL     1     199.515 200.181 200.972  1.00  0.00     0.160 A 
ATOM     19  C   UNL     1     200.158 200.620 203.273  1.00  0.00     0.050 A 
ATOM     20  C   UNL     1     199.167 200.354 202.320  1.00  0.00     0.157 A 
BRANCH  18  21
ATOM     21  O   UNL     1     198.495 199.903 200.048  1.00  0.00    -0.493 OA
ATOM     22  C   UNL     1     198.548 200.235 198.665  1.00  0.00     0.278 C 
ENDBRANCH  18  21
BRANCH  20  23
ATOM     23  O   UNL     1     197.831 200.259 202.704  1.00  0.00    -0.504 OA
ATOM     24  H   UNL     1     197.535 200.461 203.652  1.00  0.00     0.293 HD
ENDBRANCH  20  23
ENDBRANCH  14  15
ENDBRANCH  12  14
ENDBRANCH   9  10
ENDBRANCH   1   9
TORSDOF 10
ENDMDL
MODEL 3
REMARK VINA RESULT:    -4.400      6.245      8.823
REMARK INTER + INTRA:          -8.074
REMARK INTER:                  -7.185
REMARK INTRA:                  -0.890
REMARK UNBOUND:                -1.231
REMARK SMILES COc1cc(CNC(=O)CCCCC=CC(C)C)ccc1O
REMARK SMILES IDX 11 1 12 2 13 3 14 4 15 5 16 6 17 7 18 8 10 9 8 10 9 11 7 12
REMARK SMILES IDX 6 14 5 15 4 16 19 17 3 18 20 19 21 20 2 21 1 22 22 23
REMARK H PARENT 7 13 22 24
REMARK Flexibility Score: inf
ROOT
ATOM      1  C   UNL     1     204.224 199.521 195.672  1.00  0.00     0.010 C 
ENDROOT
BRANCH   1   2
ATOM      2  C   UNL     1     204.856 198.573 194.643  1.00  0.00     0.005 C 
BRANCH   2   3
ATOM      3  C   UNL     1     206.392 198.580 194.720  1.00  0.00     0.027 C 
BRANCH   3   4
ATOM      4  C   UNL     1     206.935 197.351 195.405  1.00  0.00    -0.031 C 
ATOM      5  C   UNL     1     207.346 197.295 196.686  1.00  0.00    -0.028 C 
BRANCH   5   6
ATOM      6  C   UNL     1     207.307 198.445 197.670  1.00  0.00     0.005 C 
ATOM      7  C   UNL     1     206.092 198.295 198.588  1.00  0.00     0.012 C 
ATOM      8  C   UNL     1     208.601 198.467 198.489  1.00  0.00     0.012 C 
ENDBRANCH   5   6
ENDBRANCH   3   4
ENDBRANCH   2   3
ENDBRANCH   1   2
BRANCH   1   9
ATOM      9  C   UNL     1     202.744 199.757 195.368  1.00  0.00     0.100 C 
BRANCH   9  10
ATOM     10  C   UNL     1     201.897 199.253 196.496  1.00  0.00     0.220 C 
ATOM     11  O   UNL     1     202.329 199.325 197.677  1.00  0.00    -0.275 OA
ATOM     12  N   UNL     1     200.582 198.746 196.235  1.00  0.00    -0.352 N 
ATOM     13  H   UNL     1     200.256 198.680 195.245  1.00  0.00     0.163 HD
BRANCH  12  14
ATOM     14  C   UNL     1     199.601 198.535 197.295  1.00  0.00     0.151 C 
BRANCH  14  15
ATOM     15  C   UNL     1     198.235 198.358 196.693  1.00  0.00    -0.025 A 
ATOM     16  C   UNL     1     197.987 198.738 195.364  1.00  0.00     0.056 A 
ATOM     17  C   UNL     1     197.215 197.747 197.436  1.00  0.00     0.009 A 
ATOM     18  C   UNL     1     196.719 198.537 194.788  1.00  0.00     0.160 A 
ATOM     19  C   UNL     1     195.955 197.547 196.871  1.00  0.00     0.050 A 
ATOM     20  C   UNL     1     195.703 197.943 195.551  1.00  0.00     0.157 A 
BRANCH  18  21
ATOM     21  O   UNL     1     196.430 198.908 193.465  1.00  0.00    -0.493 OA
ATOM     22  C   UNL     1     197.060 198.353 192.316  1.00  0.00     0.278 C 
ENDBRANCH  18  21
BRANCH  20  23
ATOM     23  O   UNL     1     194.442 197.748 194.989  1.00  0.00    -0.504 OA
ATOM     24  H   UNL     1     194.034 198.423 194.353  1.00  0.00     0.293 HD
ENDBRANCH  20  23
ENDBRANCH  14  15
ENDBRANCH  12  14
ENDBRANCH   9  10
ENDBRANCH   1   9
TORSDOF 10
ENDMDL
MODEL 4
REMARK VINA RESULT:    -4.368      6.506      9.777
REMARK INTER + INTRA:          -8.024
REMARK INTER:                  -6.526
REMARK INTRA:                  -1.498
REMARK UNBOUND:                -1.231
REMARK SMILES COc1cc(CNC(=O)CCCCC=CC(C)C)ccc1O
REMARK SMILES IDX 11 1 12 2 13 3 14 4 15 5 16 6 17 7 18 8 10 9 8 10 9 11 7 12
REMARK SMILES IDX 6 14 5 15 4 16 19 17 3 18 20 19 21 20 2 21 1 22 22 23
REMARK H PARENT 7 13 22 24
REMARK Flexibility Score: inf
ROOT
ATOM      1  C   UNL     1     189.877 194.578 201.647  1.00  0.00     0.010 C 
ENDROOT
BRANCH   1   2
ATOM      2  C   UNL     1     189.900 194.428 203.175  1.00  0.00     0.005 C 
BRANCH   2   3
ATOM      3  C   UNL     1     190.028 195.786 203.885  1.00  0.00     0.027 C 
BRANCH   3   4
ATOM      4  C   UNL     1     191.192 195.821 204.844  1.00  0.00    -0.031 C 
ATOM      5  C   UNL     1     192.239 196.663 204.762  1.00  0.00    -0.028 C 
BRANCH   5   6
ATOM      6  C   UNL     1     192.419 197.740 203.713  1.00  0.00     0.005 C 
ATOM      7  C   UNL     1     192.719 199.077 204.395  1.00  0.00     0.012 C 
ATOM      8  C   UNL     1     193.557 197.352 202.765  1.00  0.00     0.012 C 
ENDBRANCH   5   6
ENDBRANCH   3   4
ENDBRANCH   2   3
ENDBRANCH   1   2
BRANCH   1   9
ATOM      9  C   UNL     1     191.276 194.866 201.101  1.00  0.00     0.100 C 
BRANCH   9  10
ATOM     10  C   UNL     1     191.234 196.033 200.162  1.00  0.00     0.220 C 
ATOM     11  O   UNL     1     190.718 197.117 200.542  1.00  0.00    -0.275 OA
ATOM     12  N   UNL     1     191.828 195.929 198.861  1.00  0.00    -0.352 N 
ATOM     13  H   UNL     1     192.232 195.012 198.565  1.00  0.00     0.163 HD
BRANCH  12  14
ATOM     14  C   UNL     1     192.098 197.098 198.029  1.00  0.00     0.151 C 
BRANCH  14  15
ATOM     15  C   UNL     1     193.573 197.386 198.024  1.00  0.00    -0.025 A 
ATOM     16  C   UNL     1     194.202 197.901 199.168  1.00  0.00     0.056 A 
ATOM     17  C   UNL     1     194.343 197.076 196.893  1.00  0.00     0.009 A 
ATOM     18  C   UNL     1     195.591 198.134 199.176  1.00  0.00     0.160 A 
ATOM     19  C   UNL     1     195.719 197.308 196.895  1.00  0.00     0.050 A 
ATOM     20  C   UNL     1     196.345 197.839 198.030  1.00  0.00     0.157 A 
BRANCH  18  21
ATOM     21  O   UNL     1     196.256 198.654 200.298  1.00  0.00    -0.493 OA
ATOM     22  C   UNL     1     196.284 200.032 200.652  1.00  0.00     0.278 C 
ENDBRANCH  18  21
BRANCH  20  23
ATOM     23  O   UNL     1     197.718 198.076 198.028  1.00  0.00    -0.504 OA
ATOM     24  H   UNL     1     198.377 197.386 198.369  1.00  0.00     0.293 HD
ENDBRANCH  20  23
ENDBRANCH  14  15
ENDBRANCH  12  14
ENDBRANCH   9  10
ENDBRANCH   1   9
TORSDOF 10
ENDMDL
MODEL 5
REMARK VINA RESULT:    -4.322      6.157      9.166
REMARK INTER + INTRA:          -7.953
REMARK INTER:                  -7.201
REMARK INTRA:                  -0.752
REMARK UNBOUND:                -1.231
REMARK SMILES COc1cc(CNC(=O)CCCCC=CC(C)C)ccc1O
REMARK SMILES IDX 11 1 12 2 13 3 14 4 15 5 16 6 17 7 18 8 10 9 8 10 9 11 7 12
REMARK SMILES IDX 6 14 5 15 4 16 19 17 3 18 20 19 21 20 2 21 1 22 22 23
REMARK H PARENT 7 13 22 24
REMARK Flexibility Score: inf
ROOT
ATOM      1  C   UNL     1     203.619 199.457 195.566  1.00  0.00     0.010 C 
ENDROOT
BRANCH   1   2
ATOM      2  C   UNL     1     204.666 200.435 195.013  1.00  0.00     0.005 C 
BRANCH   2   3
ATOM      3  C   UNL     1     206.027 199.756 194.788  1.00  0.00     0.027 C 
BRANCH   3   4
ATOM      4  C   UNL     1     205.905 198.256 194.680  1.00  0.00    -0.031 C 
ATOM      5  C   UNL     1     206.578 197.367 195.434  1.00  0.00    -0.028 C 
BRANCH   5   6
ATOM      6  C   UNL     1     207.550 197.715 196.543  1.00  0.00     0.005 C 
ATOM      7  C   UNL     1     206.779 197.977 197.839  1.00  0.00     0.012 C 
ATOM      8  C   UNL     1     208.548 196.569 196.732  1.00  0.00     0.012 C 
ENDBRANCH   5   6
ENDBRANCH   3   4
ENDBRANCH   2   3
ENDBRANCH   1   2
BRANCH   1   9
ATOM      9  C   UNL     1     202.235 200.105 195.624  1.00  0.00     0.100 C 
BRANCH   9  10
ATOM     10  C   UNL     1     201.383 199.414 196.643  1.00  0.00     0.220 C 
ATOM     11  O   UNL     1     201.724 199.436 197.855  1.00  0.00    -0.275 OA
ATOM     12  N   UNL     1     200.159 198.782 196.246  1.00  0.00    -0.352 N 
ATOM     13  H   UNL     1     199.910 198.763 195.231  1.00  0.00     0.163 HD
BRANCH  12  14
ATOM     14  C   UNL     1     199.142 198.372 197.209  1.00  0.00     0.151 C 
BRANCH  14  15
ATOM     15  C   UNL     1     197.822 198.203 196.510  1.00  0.00    -0.025 A 
ATOM     16  C   UNL     1     196.757 197.546 197.148  1.00  0.00     0.056 A 
ATOM     17  C   UNL     1     197.625 198.761 195.239  1.00  0.00     0.009 A 
ATOM     18  C   UNL     1     195.509 197.421 196.509  1.00  0.00     0.160 A 
ATOM     19  C   UNL     1     196.391 198.638 194.600  1.00  0.00     0.050 A 
ATOM     20  C   UNL     1     195.333 197.968 195.229  1.00  0.00     0.157 A 
BRANCH  18  21
ATOM     21  O   UNL     1     194.422 196.768 197.111  1.00  0.00    -0.493 OA
ATOM     22  C   UNL     1     193.744 197.233 198.272  1.00  0.00     0.278 C 
ENDBRANCH  18  21
BRANCH  20  23
ATOM     23  O   UNL     1     194.103 197.841 194.587  1.00  0.00    -0.504 OA
ATOM     24  H   UNL     1     193.847 198.434 193.807  1.00  0.00     0.293 HD
ENDBRANCH  20  23
ENDBRANCH  14  15
ENDBRANCH  12  14
ENDBRANCH   9  10
ENDBRANCH   1   9
TORSDOF 10
ENDMDL
MODEL 6
REMARK VINA RESULT:    -4.229      2.838      8.210
REMARK INTER + INTRA:          -7.809
REMARK INTER:                  -6.765
REMARK INTRA:                  -1.044
REMARK UNBOUND:                -1.231
REMARK SMILES COc1cc(CNC(=O)CCCCC=CC(C)C)ccc1O
REMARK SMILES IDX 11 1 12 2 13 3 14 4 15 5 16 6 17 7 18 8 10 9 8 10 9 11 7 12
REMARK SMILES IDX 6 14 5 15 4 16 19 17 3 18 20 19 21 20 2 21 1 22 22 23
REMARK H PARENT 7 13 22 24
REMARK Flexibility Score: inf
ROOT
ATOM      1  C   UNL     1     196.161 195.914 190.428  1.00  0.00     0.010 C 
ENDROOT
BRANCH   1   2
ATOM      2  C   UNL     1     197.417 195.035 190.521  1.00  0.00     0.005 C 
BRANCH   2   3
ATOM      3  C   UNL     1     198.005 194.723 189.135  1.00  0.00     0.027 C 
BRANCH   3   4
ATOM      4  C   UNL     1     199.435 195.187 189.004  1.00  0.00    -0.031 C 
ATOM      5  C   UNL     1     199.818 196.421 188.628  1.00  0.00    -0.028 C 
BRANCH   5   6
ATOM      6  C   UNL     1     198.884 197.568 188.302  1.00  0.00     0.005 C 
ATOM      7  C   UNL     1     199.402 198.854 188.951  1.00  0.00     0.012 C 
ATOM      8  C   UNL     1     198.784 197.735 186.783  1.00  0.00     0.012 C 
ENDBRANCH   5   6
ENDBRANCH   3   4
ENDBRANCH   2   3
ENDBRANCH   1   2
BRANCH   1   9
ATOM      9  C   UNL     1     196.420 197.307 191.005  1.00  0.00     0.100 C 
BRANCH   9  10
ATOM     10  C   UNL     1     195.245 197.754 191.821  1.00  0.00     0.220 C 
ATOM     11  O   UNL     1     194.083 197.638 191.351  1.00  0.00    -0.275 OA
ATOM     12  N   UNL     1     195.443 198.255 193.149  1.00  0.00    -0.352 N 
ATOM     13  H   UNL     1     196.419 198.358 193.507  1.00  0.00     0.163 HD
BRANCH  12  14
ATOM     14  C   UNL     1     194.345 198.410 194.099  1.00  0.00     0.151 C 
BRANCH  14  15
ATOM     15  C   UNL     1     194.853 198.204 195.498  1.00  0.00    -0.025 A 
ATOM     16  C   UNL     1     193.960 197.947 196.550  1.00  0.00     0.056 A 
ATOM     17  C   UNL     1     196.233 198.201 195.749  1.00  0.00     0.009 A 
ATOM     18  C   UNL     1     194.439 197.716 197.854  1.00  0.00     0.160 A 
ATOM     19  C   UNL     1     196.713 197.976 197.040  1.00  0.00     0.050 A 
ATOM     20  C   UNL     1     195.821 197.736 198.093  1.00  0.00     0.157 A 
BRANCH  18  21
ATOM     21  O   UNL     1     193.577 197.460 198.933  1.00  0.00    -0.493 OA
ATOM     22  C   UNL     1     192.433 196.616 198.869  1.00  0.00     0.278 C 
ENDBRANCH  18  21
BRANCH  20  23
ATOM     23  O   UNL     1     196.301 197.517 199.383  1.00  0.00    -0.504 OA
ATOM     24  H   UNL     1     197.187 197.898 199.692  1.00  0.00     0.293 HD
ENDBRANCH  20  23
ENDBRANCH  14  15
ENDBRANCH  12  14
ENDBRANCH   9  10
ENDBRANCH   1   9
TORSDOF 10
ENDMDL
MODEL 7
REMARK VINA RESULT:    -4.186      6.469      9.849
REMARK INTER + INTRA:          -7.741
REMARK INTER:                  -6.707
REMARK INTRA:                  -1.033
REMARK UNBOUND:                -1.231
REMARK SMILES COc1cc(CNC(=O)CCCCC=CC(C)C)ccc1O
REMARK SMILES IDX 11 1 12 2 13 3 14 4 15 5 16 6 17 7 18 8 10 9 8 10 9 11 7 12
REMARK SMILES IDX 6 14 5 15 4 16 19 17 3 18 20 19 21 20 2 21 1 22 22 23
REMARK H PARENT 7 13 22 24
REMARK Flexibility Score: inf
ROOT
ATOM      1  C   UNL     1     203.008 199.437 196.147  1.00  0.00     0.010 C 
ENDROOT
BRANCH   1   2
ATOM      2  C   UNL     1     203.719 200.400 195.185  1.00  0.00     0.005 C 
BRANCH   2   3
ATOM      3  C   UNL     1     205.156 199.947 194.874  1.00  0.00     0.027 C 
BRANCH   3   4
ATOM      4  C   UNL     1     205.245 198.461 194.629  1.00  0.00    -0.031 C 
ATOM      5  C   UNL     1     206.172 197.642 195.161  1.00  0.00    -0.028 C 
BRANCH   5   6
ATOM      6  C   UNL     1     207.266 198.061 196.120  1.00  0.00     0.005 C 
ATOM      7  C   UNL     1     206.725 198.057 197.552  1.00  0.00     0.012 C 
ATOM      8  C   UNL     1     208.457 197.108 195.991  1.00  0.00     0.012 C 
ENDBRANCH   5   6
ENDBRANCH   3   4
ENDBRANCH   2   3
ENDBRANCH   1   2
BRANCH   1   9
ATOM      9  C   UNL     1     203.153 199.902 197.597  1.00  0.00     0.100 C 
BRANCH   9  10
ATOM     10  C   UNL     1     201.822 199.873 198.284  1.00  0.00     0.220 C 
ATOM     11  O   UNL     1     201.763 199.598 199.511  1.00  0.00    -0.275 OA
ATOM     12  N   UNL     1     200.633 200.213 197.559  1.00  0.00    -0.352 N 
ATOM     13  H   UNL     1     200.709 200.419 196.537  1.00  0.00     0.163 HD
BRANCH  12  14
ATOM     14  C   UNL     1     199.368 200.507 198.225  1.00  0.00     0.151 C 
BRANCH  14  15
ATOM     15  C   UNL     1     198.359 199.447 197.885  1.00  0.00    -0.025 A 
ATOM     16  C   UNL     1     197.239 199.239 198.707  1.00  0.00     0.056 A 
ATOM     17  C   UNL     1     198.495 198.703 196.704  1.00  0.00     0.009 A 
ATOM     18  C   UNL     1     196.274 198.272 198.368  1.00  0.00     0.160 A 
ATOM     19  C   UNL     1     197.542 197.741 196.365  1.00  0.00     0.050 A 
ATOM     20  C   UNL     1     196.434 197.522 197.194  1.00  0.00     0.157 A 
BRANCH  18  21
ATOM     21  O   UNL     1     195.144 198.031 199.166  1.00  0.00    -0.493 OA
ATOM     22  C   UNL     1     195.187 197.754 200.561  1.00  0.00     0.278 C 
ENDBRANCH  18  21
BRANCH  20  23
ATOM     23  O   UNL     1     195.486 196.557 196.857  1.00  0.00    -0.504 OA
ATOM     24  H   UNL     1     195.732 195.577 196.775  1.00  0.00     0.293 HD
ENDBRANCH  20  23
ENDBRANCH  14  15
ENDBRANCH  12  14
ENDBRANCH   9  10
ENDBRANCH   1   9
TORSDOF 10
ENDMDL
MODEL 8
REMARK VINA RESULT:    -4.152      0.984      1.998
REMARK INTER + INTRA:          -7.689
REMARK INTER:                  -6.670
REMARK INTRA:                  -1.019
REMARK UNBOUND:                -1.231
REMARK SMILES COc1cc(CNC(=O)CCCCC=CC(C)C)ccc1O
REMARK SMILES IDX 11 1 12 2 13 3 14 4 15 5 16 6 17 7 18 8 10 9 8 10 9 11 7 12
REMARK SMILES IDX 6 14 5 15 4 16 19 17 3 18 20 19 21 20 2 21 1 22 22 23
REMARK H PARENT 7 13 22 24
REMARK Flexibility Score: inf
ROOT
ATOM      1  C   UNL     1     194.881 198.195 194.689  1.00  0.00     0.010 C 
ENDROOT
BRANCH   1   2
ATOM      2  C   UNL     1     194.363 197.648 196.027  1.00  0.00     0.005 C 
BRANCH   2   3
ATOM      3  C   UNL     1     195.478 196.973 196.843  1.00  0.00     0.027 C 
BRANCH   3   4
ATOM      4  C   UNL     1     196.102 197.915 197.844  1.00  0.00    -0.031 C 
ATOM      5  C   UNL     1     197.286 198.537 197.690  1.00  0.00    -0.028 C 
BRANCH   5   6
ATOM      6  C   UNL     1     198.183 198.426 196.475  1.00  0.00     0.005 C 
ATOM      7  C   UNL     1     198.083 199.708 195.644  1.00  0.00     0.012 C 
ATOM      8  C   UNL     1     199.628 198.185 196.921  1.00  0.00     0.012 C 
ENDBRANCH   5   6
ENDBRANCH   3   4
ENDBRANCH   2   3
ENDBRANCH   1   2
BRANCH   1   9
ATOM      9  C   UNL     1     193.742 198.789 193.859  1.00  0.00     0.100 C 
BRANCH   9  10
ATOM     10  C   UNL     1     193.551 197.995 192.602  1.00  0.00     0.220 C 
ATOM     11  O   UNL     1     192.404 197.911 192.089  1.00  0.00    -0.275 OA
ATOM     12  N   UNL     1     194.679 197.386 191.960  1.00  0.00    -0.352 N 
ATOM     13  H   UNL     1     195.616 197.456 192.418  1.00  0.00     0.163 HD
BRANCH  12  14
ATOM     14  C   UNL     1     194.620 196.876 190.594  1.00  0.00     0.151 C 
BRANCH  14  15
ATOM     15  C   UNL     1     196.002 196.513 190.129  1.00  0.00    -0.025 A 
ATOM     16  C   UNL     1     196.775 197.434 189.404  1.00  0.00     0.056 A 
ATOM     17  C   UNL     1     196.555 195.271 190.477  1.00  0.00     0.009 A 
ATOM     18  C   UNL     1     198.084 197.107 189.001  1.00  0.00     0.160 A 
ATOM     19  C   UNL     1     197.851 194.942 190.078  1.00  0.00     0.050 A 
ATOM     20  C   UNL     1     198.616 195.854 189.339  1.00  0.00     0.157 A 
BRANCH  18  21
ATOM     21  O   UNL     1     198.886 197.999 188.271  1.00  0.00    -0.493 OA
ATOM     22  C   UNL     1     199.616 199.079 188.840  1.00  0.00     0.278 C 
ENDBRANCH  18  21
BRANCH  20  23
ATOM     23  O   UNL     1     199.908 195.522 188.937  1.00  0.00    -0.504 OA
ATOM     24  H   UNL     1     200.262 195.778 188.023  1.00  0.00     0.293 HD
ENDBRANCH  20  23
ENDBRANCH  14  15
ENDBRANCH  12  14
ENDBRANCH   9  10
ENDBRANCH   1   9
TORSDOF 10
ENDMDL
