MODEL 1
REMARK VINA RESULT:    -5.373      0.000      0.000
REMARK INTER + INTRA:          -6.849
REMARK INTER:                  -7.572
REMARK INTRA:                   0.723
REMARK UNBOUND:                 0.723
REMARK SMILES CC1=CCC(=C(C)C)C(=O)CC(C)=CCC1
REMARK SMILES IDX 12 1 14 2 13 3 15 4 16 5 2 6 1 7 3 8 11 10 9 11 10 12 5 13
REMARK SMILES IDX 6 14 7 15 8 16 4 17
REMARK H PARENT
REMARK Flexibility Score: 60.00
ROOT
ATOM      1  C   UNL     1      -7.972  30.419  23.811  1.00  0.00    -0.070 C 
ATOM      2  C   UNL     1      -7.801  30.463  25.155  1.00  0.00    -0.027 C 
ATOM      3  C   UNL     1      -6.751  30.157  22.963  1.00  0.00     0.039 C 
ENDROOT
BRANCH   2   4
ATOM      4  C   UNL     1      -8.891  30.605  26.190  1.00  0.00     0.032 C 
BRANCH   4   5
ATOM      5  C   UNL     1      -9.753  31.863  25.973  1.00  0.00     0.034 C 
BRANCH   5   6
ATOM      6  C   UNL     1      -8.910  33.117  25.847  1.00  0.00    -0.077 C 
ATOM      7  C   UNL     1      -8.028  33.507  27.006  1.00  0.00     0.039 C 
ATOM      8  C   UNL     1      -8.924  33.924  24.762  1.00  0.00    -0.023 CG0
ATOM      9  G   UNL     1      -9.762  33.723  23.523  1.00  0.00     0.000 G0
ENDBRANCH   5   6
ENDBRANCH   4   5
ENDBRANCH   2   4
BRANCH   1  10
ATOM     10  C   UNL     1      -9.322  30.551  23.127  1.00  0.00     0.111 C 
BRANCH  10  11
ATOM     11  C   UNL     1      -9.313  31.645  22.087  1.00  0.00     0.163 C 
ATOM     12  O   UNL     1      -9.577  31.333  20.896  1.00  0.00    -0.294 OA
BRANCH  11  13
ATOM     13  C   UNL     1      -8.949  33.056  22.427  1.00  0.00    -0.002 C 
ATOM     14  C   UNL     1      -7.975  33.732  21.745  1.00  0.00    -0.069 C 
ATOM     15  C   UNL     1      -7.263  33.115  20.561  1.00  0.00     0.039 C 
ATOM     16  C   UNL     1      -7.586  35.146  22.119  1.00  0.00     0.039 C 
BRANCH  13  17
ATOM     17  C   UNL     1      -9.760  33.736  23.515  1.00  0.00     0.066 CG0
ATOM     18  G   UNL     1      -8.917  33.900  24.756  1.00  0.00     0.000 G0
ENDBRANCH  13  17
ENDBRANCH  11  13
ENDBRANCH  10  11
ENDBRANCH   1  10
TORSDOF 0
ENDMDL
MODEL 2
REMARK VINA RESULT:    -5.149      2.100      4.688
REMARK INTER + INTRA:          -6.532
REMARK INTER:                  -7.077
REMARK INTRA:                   0.545
REMARK UNBOUND:                 0.723
REMARK SMILES CC1=CCC(=C(C)C)C(=O)CC(C)=CCC1
REMARK SMILES IDX 12 1 14 2 13 3 15 4 16 5 2 6 1 7 3 8 11 10 9 11 10 12 5 13
REMARK SMILES IDX 6 14 7 15 8 16 4 17
REMARK H PARENT
REMARK Flexibility Score: 60.00
ROOT
ATOM      1  C   UNL     1      -8.636  33.553  25.897  1.00  0.00    -0.070 C 
ATOM      2  C   UNL     1      -8.111  34.558  25.154  1.00  0.00    -0.027 C 
ATOM      3  C   UNL     1      -8.362  33.572  27.381  1.00  0.00     0.039 C 
ENDROOT
BRANCH   2   4
ATOM      4  C   UNL     1      -8.344  34.793  23.680  1.00  0.00     0.032 C 
BRANCH   4   5
ATOM      5  C   UNL     1      -7.199  34.249  22.806  1.00  0.00     0.034 C 
BRANCH   5   6
ATOM      6  C   UNL     1      -7.661  33.132  21.890  1.00  0.00    -0.077 C 
ATOM      7  C   UNL     1      -8.207  33.497  20.534  1.00  0.00     0.039 C 
ATOM      8  C   UNL     1      -7.634  31.823  22.231  1.00  0.00    -0.023 CG0
ATOM      9  G   UNL     1      -7.158  31.264  23.550  1.00  0.00     0.000 G0
ENDBRANCH   5   6
ENDBRANCH   4   5
ENDBRANCH   2   4
BRANCH   1  10
ATOM     10  C   UNL     1      -9.529  32.462  25.332  1.00  0.00     0.111 C 
BRANCH  10  11
ATOM     11  C   UNL     1      -8.873  31.105  25.425  1.00  0.00     0.163 C 
ATOM     12  O   UNL     1      -8.836  30.541  26.551  1.00  0.00    -0.294 OA
BRANCH  11  13
ATOM     13  C   UNL     1      -8.231  30.454  24.240  1.00  0.00    -0.002 C 
ATOM     14  C   UNL     1      -8.664  29.248  23.761  1.00  0.00    -0.069 C 
ATOM     15  C   UNL     1      -9.861  28.542  24.356  1.00  0.00     0.039 C 
ATOM     16  C   UNL     1      -7.985  28.578  22.586  1.00  0.00     0.039 C 
BRANCH  13  17
ATOM     17  C   UNL     1      -7.125  31.225  23.544  1.00  0.00     0.066 CG0
ATOM     18  G   UNL     1      -7.646  31.818  22.257  1.00  0.00     0.000 G0
ENDBRANCH  13  17
ENDBRANCH  11  13
ENDBRANCH  10  11
ENDBRANCH   1  10
TORSDOF 0
ENDMDL
MODEL 3
REMARK VINA RESULT:    -5.095      1.988      3.731
REMARK INTER + INTRA:          -6.457
REMARK INTER:                  -7.033
REMARK INTRA:                   0.576
REMARK UNBOUND:                 0.723
REMARK SMILES CC1=CCC(=C(C)C)C(=O)CC(C)=CCC1
REMARK SMILES IDX 12 1 14 2 13 3 15 4 16 5 2 6 1 7 3 8 11 10 9 11 10 12 5 13
REMARK SMILES IDX 6 14 7 15 8 16 4 17
REMARK H PARENT
REMARK Flexibility Score: 60.00
ROOT
ATOM      1  C   UNL     1      -8.584  34.216  25.430  1.00  0.00    -0.070 C 
ATOM      2  C   UNL     1      -8.482  33.809  26.719  1.00  0.00    -0.027 C 
ATOM      3  C   UNL     1      -7.820  35.456  25.032  1.00  0.00     0.039 C 
ENDROOT
BRANCH   2   4
ATOM      4  C   UNL     1      -9.071  32.548  27.305  1.00  0.00     0.032 C 
BRANCH   4   5
ATOM      5  C   UNL     1      -8.106  31.350  27.222  1.00  0.00     0.034 C 
BRANCH   5   6
ATOM      6  C   UNL     1      -8.716  30.176  26.482  1.00  0.00    -0.077 C 
ATOM      7  C   UNL     1      -9.647  29.259  27.236  1.00  0.00     0.039 C 
ATOM      8  C   UNL     1      -8.454  29.886  25.188  1.00  0.00    -0.023 CG0
ATOM      9  G   UNL     1      -7.527  30.659  24.281  1.00  0.00     0.000 G0
ENDBRANCH   5   6
ENDBRANCH   4   5
ENDBRANCH   2   4
BRANCH   1  10
ATOM     10  C   UNL     1      -9.363  33.464  24.365  1.00  0.00     0.111 C 
BRANCH  10  11
ATOM     11  C   UNL     1      -8.445  32.851  23.336  1.00  0.00     0.163 C 
ATOM     12  O   UNL     1      -7.831  33.624  22.554  1.00  0.00    -0.294 OA
BRANCH  11  13
ATOM     13  C   UNL     1      -8.295  31.369  23.193  1.00  0.00    -0.002 C 
ATOM     14  C   UNL     1      -8.780  30.699  22.103  1.00  0.00    -0.069 C 
ATOM     15  C   UNL     1      -9.429  31.429  20.948  1.00  0.00     0.039 C 
ATOM     16  C   UNL     1      -8.659  29.195  21.983  1.00  0.00     0.039 C 
BRANCH  13  17
ATOM     17  C   UNL     1      -7.514  30.646  24.275  1.00  0.00     0.066 CG0
ATOM     18  G   UNL     1      -8.465  29.906  25.185  1.00  0.00     0.000 G0
ENDBRANCH  13  17
ENDBRANCH  11  13
ENDBRANCH  10  11
ENDBRANCH   1  10
TORSDOF 0
ENDMDL
MODEL 4
REMARK VINA RESULT:    -4.999      1.936      4.733
REMARK INTER + INTRA:          -6.321
REMARK INTER:                  -6.836
REMARK INTRA:                   0.515
REMARK UNBOUND:                 0.723
REMARK SMILES CC1=CCC(=C(C)C)C(=O)CC(C)=CCC1
REMARK SMILES IDX 12 1 14 2 13 3 15 4 16 5 2 6 1 7 3 8 11 10 9 11 10 12 5 13
REMARK SMILES IDX 6 14 7 15 8 16 4 17
REMARK H PARENT
REMARK Flexibility Score: 60.00
ROOT
ATOM      1  C   UNL     1      -7.802  33.910  22.483  1.00  0.00    -0.070 C 
ATOM      2  C   UNL     1      -7.864  33.135  21.373  1.00  0.00    -0.027 C 
ATOM      3  C   UNL     1      -8.031  35.392  22.308  1.00  0.00     0.039 C 
ENDROOT
BRANCH   2   4
ATOM      4  C   UNL     1      -7.771  31.629  21.330  1.00  0.00     0.032 C 
BRANCH   4   5
ATOM      5  C   UNL     1      -8.987  30.942  21.981  1.00  0.00     0.034 C 
BRANCH   5   6
ATOM      6  C   UNL     1      -8.577  29.943  23.045  1.00  0.00    -0.077 C 
ATOM      7  C   UNL     1      -7.652  28.818  22.654  1.00  0.00     0.039 C 
ATOM      8  C   UNL     1      -9.015  29.987  24.323  1.00  0.00    -0.023 CG0
ATOM      9  G   UNL     1      -9.968  31.008  24.896  1.00  0.00     0.000 G0
ENDBRANCH   5   6
ENDBRANCH   4   5
ENDBRANCH   2   4
BRANCH   1  10
ATOM     10  C   UNL     1      -7.584  33.364  23.884  1.00  0.00     0.111 C 
BRANCH  10  11
ATOM     11  C   UNL     1      -8.874  33.304  24.663  1.00  0.00     0.163 C 
ATOM     12  O   UNL     1      -9.655  34.290  24.596  1.00  0.00    -0.294 OA
BRANCH  11  13
ATOM     13  C   UNL     1      -9.214  32.141  25.542  1.00  0.00    -0.002 C 
ATOM     14  C   UNL     1      -8.912  32.136  26.876  1.00  0.00    -0.069 C 
ATOM     15  C   UNL     1      -8.287  33.336  27.552  1.00  0.00     0.039 C 
ATOM     16  C   UNL     1      -9.225  30.941  27.751  1.00  0.00     0.039 C 
BRANCH  13  17
ATOM     17  C   UNL     1      -9.975  30.993  24.905  1.00  0.00     0.066 CG0
ATOM     18  G   UNL     1      -9.005  29.991  24.328  1.00  0.00     0.000 G0
ENDBRANCH  13  17
ENDBRANCH  11  13
ENDBRANCH  10  11
ENDBRANCH   1  10
TORSDOF 0
ENDMDL
MODEL 5
REMARK VINA RESULT:    -4.915      2.109      5.104
REMARK INTER + INTRA:          -6.204
REMARK INTER:                  -6.897
REMARK INTRA:                   0.694
REMARK UNBOUND:                 0.723
REMARK SMILES CC1=CCC(=C(C)C)C(=O)CC(C)=CCC1
REMARK SMILES IDX 12 1 14 2 13 3 15 4 16 5 2 6 1 7 3 8 11 10 9 11 10 12 5 13
REMARK SMILES IDX 6 14 7 15 8 16 4 17
REMARK H PARENT
REMARK Flexibility Score: 60.00
ROOT
ATOM      1  C   UNL     1      -7.751  34.913  24.048  1.00  0.00    -0.070 C 
ATOM      2  C   UNL     1      -7.400  34.831  22.742  1.00  0.00    -0.027 C 
ATOM      3  C   UNL     1      -6.871  35.742  24.953  1.00  0.00     0.039 C 
ENDROOT
BRANCH   2   4
ATOM      4  C   UNL     1      -8.187  34.150  21.647  1.00  0.00     0.032 C 
BRANCH   4   5
ATOM      5  C   UNL     1      -7.778  32.677  21.453  1.00  0.00     0.034 C 
BRANCH   5   6
ATOM      6  C   UNL     1      -8.875  31.720  21.873  1.00  0.00    -0.077 C 
ATOM      7  C   UNL     1      -9.973  31.412  20.886  1.00  0.00     0.039 C 
ATOM      8  C   UNL     1      -8.942  31.143  23.094  1.00  0.00    -0.023 CG0
ATOM      9  G   UNL     1      -7.962  31.352  24.223  1.00  0.00     0.000 G0
ENDBRANCH   5   6
ENDBRANCH   4   5
ENDBRANCH   2   4
BRANCH   1  10
ATOM     10  C   UNL     1      -9.003  34.279  24.628  1.00  0.00     0.111 C 
BRANCH  10  11
ATOM     11  C   UNL     1      -8.671  33.296  25.724  1.00  0.00     0.163 C 
ATOM     12  O   UNL     1      -8.360  33.752  26.856  1.00  0.00    -0.294 OA
BRANCH  11  13
ATOM     13  C   UNL     1      -8.650  31.819  25.483  1.00  0.00    -0.002 C 
ATOM     14  C   UNL     1      -9.294  30.946  26.316  1.00  0.00    -0.069 C 
ATOM     15  C   UNL     1     -10.124  31.430  27.484  1.00  0.00     0.039 C 
ATOM     16  C   UNL     1      -9.238  29.450  26.087  1.00  0.00     0.039 C 
BRANCH  13  17
ATOM     17  C   UNL     1      -7.946  31.333  24.229  1.00  0.00     0.066 CG0
ATOM     18  G   UNL     1      -8.946  31.166  23.111  1.00  0.00     0.000 G0
ENDBRANCH  13  17
ENDBRANCH  11  13
ENDBRANCH  10  11
ENDBRANCH   1  10
TORSDOF 0
ENDMDL
MODEL 6
REMARK VINA RESULT:    -4.830      1.038      3.307
REMARK INTER + INTRA:          -6.083
REMARK INTER:                  -7.863
REMARK INTRA:                   1.780
REMARK UNBOUND:                 0.723
REMARK SMILES CC1=CCC(=C(C)C)C(=O)CC(C)=CCC1
REMARK SMILES IDX 12 1 14 2 13 3 15 4 16 5 2 6 1 7 3 8 11 10 9 11 10 12 5 13
REMARK SMILES IDX 6 14 7 15 8 16 4 17
REMARK H PARENT
REMARK Flexibility Score: 60.00
ROOT
ATOM      1  C   UNL     1      -8.078  33.743  21.544  1.00  0.00    -0.070 C 
ATOM      2  C   UNL     1      -7.334  34.590  22.296  1.00  0.00    -0.027 C 
ATOM      3  C   UNL     1      -7.493  33.284  20.231  1.00  0.00     0.039 C 
ENDROOT
BRANCH   2   4
ATOM      4  C   UNL     1      -7.673  35.089  23.680  1.00  0.00     0.032 C 
BRANCH   4   5
ATOM      5  C   UNL     1      -9.020  34.543  24.192  1.00  0.00     0.034 C 
BRANCH   5   6
ATOM      6  C   UNL     1      -8.888  33.878  25.548  1.00  0.00    -0.077 C 
ATOM      7  C   UNL     1      -8.214  34.644  26.659  1.00  0.00     0.039 C 
ATOM      8  C   UNL     1      -9.319  32.625  25.815  1.00  0.00    -0.023 CG0
ATOM      9  G   UNL     1      -9.983  31.692  24.831  1.00  0.00     0.000 G0
ENDBRANCH   5   6
ENDBRANCH   4   5
ENDBRANCH   2   4
BRANCH   1  10
ATOM     10  C   UNL     1      -9.422  33.186  21.980  1.00  0.00     0.111 C 
BRANCH  10  11
ATOM     11  C   UNL     1      -9.325  31.727  22.351  1.00  0.00     0.163 C 
ATOM     12  O   UNL     1      -9.567  30.871  21.459  1.00  0.00    -0.294 OA
BRANCH  11  13
ATOM     13  C   UNL     1      -9.006  31.284  23.744  1.00  0.00    -0.002 C 
ATOM     14  C   UNL     1      -7.854  30.606  24.037  1.00  0.00    -0.069 C 
ATOM     15  C   UNL     1      -6.806  30.331  22.981  1.00  0.00     0.039 C 
ATOM     16  C   UNL     1      -7.556  30.128  25.442  1.00  0.00     0.039 C 
BRANCH  13  17
ATOM     17  C   UNL     1      -9.979  31.686  24.837  1.00  0.00     0.066 CG0
ATOM     18  G   UNL     1      -9.300  32.617  25.812  1.00  0.00     0.000 G0
ENDBRANCH  13  17
ENDBRANCH  11  13
ENDBRANCH  10  11
ENDBRANCH   1  10
TORSDOF 0
ENDMDL
MODEL 7
REMARK VINA RESULT:    -4.694      2.118      3.829
REMARK INTER + INTRA:          -5.891
REMARK INTER:                  -6.654
REMARK INTRA:                   0.763
REMARK UNBOUND:                 0.723
REMARK SMILES CC1=CCC(=C(C)C)C(=O)CC(C)=CCC1
REMARK SMILES IDX 12 1 14 2 13 3 15 4 16 5 2 6 1 7 3 8 11 10 9 11 10 12 5 13
REMARK SMILES IDX 6 14 7 15 8 16 4 17
REMARK H PARENT
REMARK Flexibility Score: 60.00
ROOT
ATOM      1  C   UNL     1      -9.033  30.471  26.122  1.00  0.00    -0.070 C 
ATOM      2  C   UNL     1      -8.939  29.379  25.325  1.00  0.00    -0.027 C 
ATOM      3  C   UNL     1      -8.358  30.407  27.471  1.00  0.00     0.039 C 
ENDROOT
BRANCH   2   4
ATOM      4  C   UNL     1      -9.443  29.263  23.907  1.00  0.00     0.032 C 
BRANCH   4   5
ATOM      5  C   UNL     1      -8.345  29.541  22.863  1.00  0.00     0.034 C 
BRANCH   5   6
ATOM      6  C   UNL     1      -8.653  30.762  22.020  1.00  0.00    -0.077 C 
ATOM      7  C   UNL     1      -9.442  30.574  20.748  1.00  0.00     0.039 C 
ATOM      8  C   UNL     1      -8.240  32.011  22.329  1.00  0.00    -0.023 CG0
ATOM      9  G   UNL     1      -7.415  32.395  23.534  1.00  0.00     0.000 G0
ENDBRANCH   5   6
ENDBRANCH   4   5
ENDBRANCH   2   4
BRANCH   1  10
ATOM     10  C   UNL     1      -9.716  31.763  25.708  1.00  0.00     0.111 C 
BRANCH  10  11
ATOM     11  C   UNL     1      -8.745  32.917  25.668  1.00  0.00     0.163 C 
ATOM     12  O   UNL     1      -8.467  33.496  26.752  1.00  0.00    -0.294 OA
BRANCH  11  13
ATOM     13  C   UNL     1      -8.157  33.412  24.384  1.00  0.00    -0.002 C 
ATOM     14  C   UNL     1      -8.235  34.728  24.018  1.00  0.00    -0.069 C 
ATOM     15  C   UNL     1      -8.853  35.768  24.926  1.00  0.00     0.039 C 
ATOM     16  C   UNL     1      -7.672  35.215  22.700  1.00  0.00     0.039 C 
BRANCH  13  17
ATOM     17  C   UNL     1      -7.404  32.405  23.535  1.00  0.00     0.066 CG0
ATOM     18  G   UNL     1      -8.239  32.016  22.339  1.00  0.00     0.000 G0
ENDBRANCH  13  17
ENDBRANCH  11  13
ENDBRANCH  10  11
ENDBRANCH   1  10
TORSDOF 0
ENDMDL
MODEL 8
REMARK VINA RESULT:    -4.416      1.491      3.915
REMARK INTER + INTRA:          -5.500
REMARK INTER:                  -6.086
REMARK INTRA:                   0.586
REMARK UNBOUND:                 0.723
REMARK SMILES CC1=CCC(=C(C)C)C(=O)CC(C)=CCC1
REMARK SMILES IDX 12 1 14 2 13 3 15 4 16 5 2 6 1 7 3 8 11 10 9 11 10 12 5 13
REMARK SMILES IDX 6 14 7 15 8 16 4 17
REMARK H PARENT
REMARK Flexibility Score: 60.00
ROOT
ATOM      1  C   UNL     1      -8.014  33.013  21.248  1.00  0.00    -0.070 C 
ATOM      2  C   UNL     1      -7.744  34.323  21.465  1.00  0.00    -0.027 C 
ATOM      3  C   UNL     1      -7.382  32.364  20.040  1.00  0.00     0.039 C 
ENDROOT
BRANCH   2   4
ATOM      4  C   UNL     1      -8.179  35.139  22.658  1.00  0.00     0.032 C 
BRANCH   4   5
ATOM      5  C   UNL     1      -7.568  34.631  23.978  1.00  0.00     0.034 C 
BRANCH   5   6
ATOM      6  C   UNL     1      -8.619  34.407  25.046  1.00  0.00    -0.077 C 
ATOM      7  C   UNL     1      -9.559  35.540  25.374  1.00  0.00     0.039 C 
ATOM      8  C   UNL     1      -8.748  33.256  25.743  1.00  0.00    -0.023 CG0
ATOM      9  G   UNL     1      -7.884  32.028  25.586  1.00  0.00     0.000 G0
ENDBRANCH   5   6
ENDBRANCH   4   5
ENDBRANCH   2   4
BRANCH   1  10
ATOM     10  C   UNL     1      -8.854  32.158  22.181  1.00  0.00     0.111 C 
BRANCH  10  11
ATOM     11  C   UNL     1      -7.993  31.362  23.131  1.00  0.00     0.163 C 
ATOM     12  O   UNL     1      -6.918  30.876  22.691  1.00  0.00    -0.294 OA
BRANCH  11  13
ATOM     13  C   UNL     1      -8.409  31.099  24.544  1.00  0.00    -0.002 C 
ATOM     14  C   UNL     1      -9.183  30.021  24.876  1.00  0.00    -0.069 C 
ATOM     15  C   UNL     1      -9.597  28.995  23.845  1.00  0.00     0.039 C 
ATOM     16  C   UNL     1      -9.632  29.782  26.302  1.00  0.00     0.039 C 
BRANCH  13  17
ATOM     17  C   UNL     1      -7.875  32.040  25.608  1.00  0.00     0.066 CG0
ATOM     18  G   UNL     1      -8.770  33.250  25.719  1.00  0.00     0.000 G0
ENDBRANCH  13  17
ENDBRANCH  11  13
ENDBRANCH  10  11
ENDBRANCH   1  10
TORSDOF 0
ENDMDL
MODEL 9
REMARK VINA RESULT:    -4.320      1.815      4.366
REMARK INTER + INTRA:          -5.364
REMARK INTER:                  -6.075
REMARK INTRA:                   0.710
REMARK UNBOUND:                 0.723
REMARK SMILES CC1=CCC(=C(C)C)C(=O)CC(C)=CCC1
REMARK SMILES IDX 12 1 14 2 13 3 15 4 16 5 2 6 1 7 3 8 11 10 9 11 10 12 5 13
REMARK SMILES IDX 6 14 7 15 8 16 4 17
REMARK H PARENT
REMARK Flexibility Score: 60.00
ROOT
ATOM      1  C   UNL     1      -8.405  33.334  21.427  1.00  0.00    -0.070 C 
ATOM      2  C   UNL     1      -8.689  32.063  21.054  1.00  0.00    -0.027 C 
ATOM      3  C   UNL     1      -7.497  34.136  20.526  1.00  0.00     0.039 C 
ENDROOT
BRANCH   2   4
ATOM      4  C   UNL     1      -9.650  31.124  21.743  1.00  0.00     0.032 C 
BRANCH   4   5
ATOM      5  C   UNL     1      -8.977  29.812  22.190  1.00  0.00     0.034 C 
BRANCH   5   6
ATOM      6  C   UNL     1      -7.731  30.062  23.017  1.00  0.00    -0.077 C 
ATOM      7  C   UNL     1      -6.445  29.399  22.593  1.00  0.00     0.039 C 
ATOM      8  C   UNL     1      -7.711  30.828  24.131  1.00  0.00    -0.023 CG0
ATOM      9  G   UNL     1      -8.898  31.542  24.732  1.00  0.00     0.000 G0
ENDBRANCH   5   6
ENDBRANCH   4   5
ENDBRANCH   2   4
BRANCH   1  10
ATOM     10  C   UNL     1      -8.998  34.007  22.653  1.00  0.00     0.111 C 
BRANCH  10  11
ATOM     11  C   UNL     1      -8.106  33.850  23.859  1.00  0.00     0.163 C 
ATOM     12  O   UNL     1      -6.981  34.418  23.843  1.00  0.00    -0.294 OA
BRANCH  11  13
ATOM     13  C   UNL     1      -8.499  33.005  25.030  1.00  0.00    -0.002 C 
ATOM     14  C   UNL     1      -8.568  33.519  26.296  1.00  0.00    -0.069 C 
ATOM     15  C   UNL     1      -8.322  34.985  26.571  1.00  0.00     0.039 C 
ATOM     16  C   UNL     1      -8.930  32.649  27.481  1.00  0.00     0.039 C 
BRANCH  13  17
ATOM     17  C   UNL     1      -8.893  31.568  24.743  1.00  0.00     0.066 CG0
ATOM     18  G   UNL     1      -7.724  30.826  24.143  1.00  0.00     0.000 G0
ENDBRANCH  13  17
ENDBRANCH  11  13
ENDBRANCH  10  11
ENDBRANCH   1  10
TORSDOF 0
ENDMDL
