MODEL 1
REMARK VINA RESULT:    -6.162      0.000      0.000
REMARK INTER + INTRA:          -6.930
REMARK INTER:                  -7.423
REMARK INTRA:                   0.493
REMARK UNBOUND:                 0.493
REMARK SMILES O=c1c(O)c(-c2ccc(O)c(O)c2)oc2cc(O)cc(O)c12
REMARK SMILES IDX 5 1 3 2 2 3 1 4 22 5 20 6 19 7 17 8 16 9 15 10 14 11 6 12
REMARK SMILES IDX 7 13 8 14 9 15 13 16 11 17 10 18 12 20 4 22 21 24 18 26
REMARK H PARENT 10 19 12 21 4 23 21 25 18 27
REMARK Flexibility Score: inf
ROOT
ATOM      1  C   UNL     1     -13.101  -8.510  -3.278  1.00  0.00     0.180 A 
ATOM      2  C   UNL     1     -12.387  -8.770  -4.460  1.00  0.00     0.208 A 
ATOM      3  C   UNL     1     -13.043  -8.634  -5.695  1.00  0.00     0.238 A 
ATOM      4  O   UNL     1     -12.384  -8.815  -6.752  1.00  0.00    -0.285 OA
ATOM      5  C   UNL     1     -14.407  -8.256  -5.731  1.00  0.00     0.111 A 
ATOM      6  C   UNL     1     -15.181  -8.127  -6.923  1.00  0.00     0.134 A 
ATOM      7  C   UNL     1     -16.484  -7.620  -6.849  1.00  0.00     0.093 A 
ATOM      8  C   UNL     1     -17.063  -7.300  -5.618  1.00  0.00     0.123 A 
ATOM      9  C   UNL     1     -16.336  -7.479  -4.444  1.00  0.00     0.094 A 
ATOM     10  C   UNL     1     -15.021  -7.948  -4.488  1.00  0.00     0.146 A 
ATOM     11  O   UNL     1     -14.360  -8.093  -3.346  1.00  0.00    -0.452 OA
ENDROOT
BRANCH   1  12
ATOM     12  C   UNL     1     -12.486  -8.656  -1.938  1.00  0.00     0.025 A 
ATOM     13  C   UNL     1     -11.090  -8.750  -1.826  1.00  0.00     0.016 A 
ATOM     14  C   UNL     1     -10.488  -8.868  -0.570  1.00  0.00     0.051 A 
ATOM     15  C   UNL     1     -11.267  -8.878   0.590  1.00  0.00     0.157 A 
ATOM     16  C   UNL     1     -13.267  -8.646  -0.769  1.00  0.00     0.062 A 
ATOM     17  C   UNL     1     -12.664  -8.763   0.492  1.00  0.00     0.158 A 
BRANCH  15  18
ATOM     18  O   UNL     1     -10.639  -8.999   1.829  1.00  0.00    -0.504 OA
ATOM     19  H   UNL     1     -10.651  -8.253   2.513  1.00  0.00     0.293 HD
ENDBRANCH  15  18
BRANCH  17  20
ATOM     20  O   UNL     1     -13.446  -8.757   1.646  1.00  0.00    -0.504 OA
ATOM     21  H   UNL     1     -14.174  -8.067   1.791  1.00  0.00     0.293 HD
ENDBRANCH  17  20
ENDBRANCH   1  12
BRANCH   2  22
ATOM     22  O   UNL     1     -11.036  -9.121  -4.403  1.00  0.00    -0.502 OA
ATOM     23  H   UNL     1     -10.325  -8.639  -4.940  1.00  0.00     0.293 HD
ENDBRANCH   2  22
BRANCH   6  24
ATOM     24  O   UNL     1     -14.730  -8.505  -8.190  1.00  0.00    -0.507 OA
ATOM     25  H   UNL     1     -15.328  -8.695  -8.981  1.00  0.00     0.293 HD
ENDBRANCH   6  24
BRANCH   8  26
ATOM     26  O   UNL     1     -18.366  -6.811  -5.552  1.00  0.00    -0.508 OA
ATOM     27  H   UNL     1     -19.166  -7.413  -5.705  1.00  0.00     0.293 HD
ENDBRANCH   8  26
TORSDOF 6
ENDMDL
MODEL 2
REMARK VINA RESULT:    -5.820      1.326      2.905
REMARK INTER + INTRA:          -6.518
REMARK INTER:                  -6.911
REMARK INTRA:                   0.393
REMARK UNBOUND:                 0.493
REMARK SMILES O=c1c(O)c(-c2ccc(O)c(O)c2)oc2cc(O)cc(O)c12
REMARK SMILES IDX 5 1 3 2 2 3 1 4 22 5 20 6 19 7 17 8 16 9 15 10 14 11 6 12
REMARK SMILES IDX 7 13 8 14 9 15 13 16 11 17 10 18 12 20 4 22 21 24 18 26
REMARK H PARENT 10 19 12 21 4 23 21 25 18 27
REMARK Flexibility Score: inf
ROOT
ATOM      1  C   UNL     1     -14.062  -8.395  -2.734  1.00  0.00     0.180 A 
ATOM      2  C   UNL     1     -15.391  -8.471  -2.285  1.00  0.00     0.208 A 
ATOM      3  C   UNL     1     -16.433  -8.239  -3.199  1.00  0.00     0.238 A 
ATOM      4  O   UNL     1     -17.622  -8.361  -2.804  1.00  0.00    -0.285 OA
ATOM      5  C   UNL     1     -16.131  -7.919  -4.545  1.00  0.00     0.111 A 
ATOM      6  C   UNL     1     -17.106  -7.626  -5.546  1.00  0.00     0.134 A 
ATOM      7  C   UNL     1     -16.699  -7.451  -6.874  1.00  0.00     0.093 A 
ATOM      8  C   UNL     1     -15.347  -7.495  -7.226  1.00  0.00     0.123 A 
ATOM      9  C   UNL     1     -14.385  -7.721  -6.246  1.00  0.00     0.094 A 
ATOM     10  C   UNL     1     -14.761  -7.935  -4.917  1.00  0.00     0.146 A 
ATOM     11  O   UNL     1     -13.812  -8.159  -4.016  1.00  0.00    -0.452 OA
ENDROOT
BRANCH   1  12
ATOM     12  C   UNL     1     -12.911  -8.602  -1.825  1.00  0.00     0.025 A 
ATOM     13  C   UNL     1     -11.630  -8.793  -2.366  1.00  0.00     0.016 A 
ATOM     14  C   UNL     1     -10.527  -8.970  -1.527  1.00  0.00     0.051 A 
ATOM     15  C   UNL     1     -10.683  -8.943  -0.138  1.00  0.00     0.157 A 
ATOM     16  C   UNL     1     -13.062  -8.555  -0.428  1.00  0.00     0.062 A 
ATOM     17  C   UNL     1     -11.956  -8.730   0.416  1.00  0.00     0.158 A 
BRANCH  15  18
ATOM     18  O   UNL     1      -9.564  -9.124   0.674  1.00  0.00    -0.504 OA
ATOM     19  H   UNL     1      -8.660  -8.733   0.440  1.00  0.00     0.293 HD
ENDBRANCH  15  18
BRANCH  17  20
ATOM     20  O   UNL     1     -12.117  -8.688   1.800  1.00  0.00    -0.504 OA
ATOM     21  H   UNL     1     -11.745  -9.415   2.401  1.00  0.00     0.293 HD
ENDBRANCH  17  20
ENDBRANCH   1  12
BRANCH   2  22
ATOM     22  O   UNL     1     -15.668  -8.809  -0.957  1.00  0.00    -0.502 OA
ATOM     23  H   UNL     1     -16.082  -9.696  -0.696  1.00  0.00     0.293 HD
ENDBRANCH   2  22
BRANCH   6  24
ATOM     24  O   UNL     1     -18.469  -7.469  -5.284  1.00  0.00    -0.507 OA
ATOM     25  H   UNL     1     -19.084  -8.206  -4.973  1.00  0.00     0.293 HD
ENDBRANCH   6  24
BRANCH   8  26
ATOM     26  O   UNL     1     -14.951  -7.305  -8.548  1.00  0.00    -0.508 OA
ATOM     27  H   UNL     1     -14.181  -6.693  -8.788  1.00  0.00     0.293 HD
ENDBRANCH   8  26
TORSDOF 6
ENDMDL
MODEL 3
REMARK VINA RESULT:    -5.667      2.859      7.586
REMARK INTER + INTRA:          -6.334
REMARK INTER:                  -6.018
REMARK INTRA:                  -0.316
REMARK UNBOUND:                 0.493
REMARK SMILES O=c1c(O)c(-c2ccc(O)c(O)c2)oc2cc(O)cc(O)c12
REMARK SMILES IDX 5 1 3 2 2 3 1 4 22 5 20 6 19 7 17 8 16 9 15 10 14 11 6 12
REMARK SMILES IDX 7 13 8 14 9 15 13 16 11 17 10 18 12 20 4 22 21 24 18 26
REMARK H PARENT 10 19 12 21 4 23 21 25 18 27
REMARK Flexibility Score: inf
ROOT
ATOM      1  C   UNL     1     -16.032  -6.304  -4.594  1.00  0.00     0.180 A 
ATOM      2  C   UNL     1     -16.178  -4.922  -4.390  1.00  0.00     0.208 A 
ATOM      3  C   UNL     1     -15.886  -4.385  -3.126  1.00  0.00     0.238 A 
ATOM      4  O   UNL     1     -15.967  -3.139  -2.965  1.00  0.00    -0.285 OA
ATOM      5  C   UNL     1     -15.466  -5.238  -2.077  1.00  0.00     0.111 A 
ATOM      6  C   UNL     1     -15.182  -4.808  -0.746  1.00  0.00     0.134 A 
ATOM      7  C   UNL     1     -14.649  -5.718   0.175  1.00  0.00     0.093 A 
ATOM      8  C   UNL     1     -14.451  -7.058  -0.169  1.00  0.00     0.123 A 
ATOM      9  C   UNL     1     -14.782  -7.500  -1.447  1.00  0.00     0.094 A 
ATOM     10  C   UNL     1     -15.281  -6.608  -2.399  1.00  0.00     0.146 A 
ATOM     11  O   UNL     1     -15.573  -7.069  -3.610  1.00  0.00    -0.452 OA
ENDROOT
BRANCH   1  12
ATOM     12  C   UNL     1     -16.345  -6.948  -5.890  1.00  0.00     0.025 A 
ATOM     13  C   UNL     1     -17.631  -7.461  -6.113  1.00  0.00     0.016 A 
ATOM     14  C   UNL     1     -17.954  -8.055  -7.336  1.00  0.00     0.051 A 
ATOM     15  C   UNL     1     -17.004  -8.129  -8.359  1.00  0.00     0.157 A 
ATOM     16  C   UNL     1     -15.397  -7.005  -6.927  1.00  0.00     0.062 A 
ATOM     17  C   UNL     1     -15.719  -7.598  -8.157  1.00  0.00     0.158 A 
BRANCH  15  18
ATOM     18  O   UNL     1     -17.354  -8.728  -9.568  1.00  0.00    -0.504 OA
ATOM     19  H   UNL     1     -16.662  -8.992 -10.258  1.00  0.00     0.293 HD
ENDBRANCH  15  18
BRANCH  17  20
ATOM     20  O   UNL     1     -14.772  -7.656  -9.177  1.00  0.00    -0.504 OA
ATOM     21  H   UNL     1     -14.492  -6.827  -9.690  1.00  0.00     0.293 HD
ENDBRANCH  17  20
ENDBRANCH   1  12
BRANCH   2  22
ATOM     22  O   UNL     1     -16.573  -4.094  -5.445  1.00  0.00    -0.502 OA
ATOM     23  H   UNL     1     -17.532  -3.794  -5.572  1.00  0.00     0.293 HD
ENDBRANCH   2  22
BRANCH   6  24
ATOM     24  O   UNL     1     -15.429  -3.516  -0.275  1.00  0.00    -0.507 OA
ATOM     25  H   UNL     1     -16.217  -3.253   0.298  1.00  0.00     0.293 HD
ENDBRANCH   6  24
BRANCH   8  26
ATOM     26  O   UNL     1     -13.935  -7.960   0.759  1.00  0.00    -0.508 OA
ATOM     27  H   UNL     1     -13.175  -7.707   1.378  1.00  0.00     0.293 HD
ENDBRANCH   8  26
TORSDOF 6
ENDMDL
MODEL 4
REMARK VINA RESULT:    -5.617      1.616      7.363
REMARK INTER + INTRA:          -6.274
REMARK INTER:                  -6.567
REMARK INTRA:                   0.293
REMARK UNBOUND:                 0.493
REMARK SMILES O=c1c(O)c(-c2ccc(O)c(O)c2)oc2cc(O)cc(O)c12
REMARK SMILES IDX 5 1 3 2 2 3 1 4 22 5 20 6 19 7 17 8 16 9 15 10 14 11 6 12
REMARK SMILES IDX 7 13 8 14 9 15 13 16 11 17 10 18 12 20 4 22 21 24 18 26
REMARK H PARENT 10 19 12 21 4 23 21 25 18 27
REMARK Flexibility Score: inf
ROOT
ATOM      1  C   UNL     1     -14.912  -8.194  -4.061  1.00  0.00     0.180 A 
ATOM      2  C   UNL     1     -15.569  -7.941  -2.846  1.00  0.00     0.208 A 
ATOM      3  C   UNL     1     -14.841  -8.025  -1.647  1.00  0.00     0.238 A 
ATOM      4  O   UNL     1     -15.422  -7.744  -0.566  1.00  0.00    -0.285 OA
ATOM      5  C   UNL     1     -13.470  -8.376  -1.679  1.00  0.00     0.111 A 
ATOM      6  C   UNL     1     -12.646  -8.528  -0.524  1.00  0.00     0.134 A 
ATOM      7  C   UNL     1     -11.272  -8.749  -0.680  1.00  0.00     0.093 A 
ATOM      8  C   UNL     1     -10.705  -8.887  -1.950  1.00  0.00     0.123 A 
ATOM      9  C   UNL     1     -11.511  -8.799  -3.081  1.00  0.00     0.094 A 
ATOM     10  C   UNL     1     -12.879  -8.543  -2.959  1.00  0.00     0.146 A 
ATOM     11  O   UNL     1     -13.610  -8.455  -4.064  1.00  0.00    -0.452 OA
ENDROOT
BRANCH   1  12
ATOM     12  C   UNL     1     -15.617  -8.150  -5.363  1.00  0.00     0.025 A 
ATOM     13  C   UNL     1     -16.979  -8.485  -5.422  1.00  0.00     0.016 A 
ATOM     14  C   UNL     1     -17.669  -8.432  -6.635  1.00  0.00     0.051 A 
ATOM     15  C   UNL     1     -17.016  -8.027  -7.803  1.00  0.00     0.157 A 
ATOM     16  C   UNL     1     -14.967  -7.723  -6.534  1.00  0.00     0.062 A 
ATOM     17  C   UNL     1     -15.659  -7.666  -7.753  1.00  0.00     0.158 A 
BRANCH  15  18
ATOM     18  O   UNL     1     -17.729  -7.985  -9.000  1.00  0.00    -0.504 OA
ATOM     19  H   UNL     1     -17.317  -8.261  -9.883  1.00  0.00     0.293 HD
ENDBRANCH  15  18
BRANCH  17  20
ATOM     20  O   UNL     1     -15.005  -7.248  -8.911  1.00  0.00    -0.504 OA
ATOM     21  H   UNL     1     -14.266  -7.800  -9.333  1.00  0.00     0.293 HD
ENDBRANCH  17  20
ENDBRANCH   1  12
BRANCH   2  22
ATOM     22  O   UNL     1     -16.918  -7.575  -2.838  1.00  0.00    -0.502 OA
ATOM     23  H   UNL     1     -17.636  -8.131  -3.287  1.00  0.00     0.293 HD
ENDBRANCH   2  22
BRANCH   6  24
ATOM     24  O   UNL     1     -13.128  -8.500   0.788  1.00  0.00    -0.507 OA
ATOM     25  H   UNL     1     -14.102  -8.426   1.041  1.00  0.00     0.293 HD
ENDBRANCH   6  24
BRANCH   8  26
ATOM     26  O   UNL     1      -9.339  -9.123  -2.095  1.00  0.00    -0.508 OA
ATOM     27  H   UNL     1      -8.785  -9.512  -1.342  1.00  0.00     0.293 HD
ENDBRANCH   8  26
TORSDOF 6
ENDMDL
MODEL 5
REMARK VINA RESULT:    -5.504      1.393      6.767
REMARK INTER + INTRA:          -6.138
REMARK INTER:                  -6.336
REMARK INTRA:                   0.198
REMARK UNBOUND:                 0.493
REMARK SMILES O=c1c(O)c(-c2ccc(O)c(O)c2)oc2cc(O)cc(O)c12
REMARK SMILES IDX 5 1 3 2 2 3 1 4 22 5 20 6 19 7 17 8 16 9 15 10 14 11 6 12
REMARK SMILES IDX 7 13 8 14 9 15 13 16 11 17 10 18 12 20 4 22 21 24 18 26
REMARK H PARENT 10 19 12 21 4 23 21 25 18 27
REMARK Flexibility Score: inf
ROOT
ATOM      1  C   UNL     1     -14.015  -8.638  -3.972  1.00  0.00     0.180 A 
ATOM      2  C   UNL     1     -12.622  -8.787  -4.077  1.00  0.00     0.208 A 
ATOM      3  C   UNL     1     -11.851  -8.838  -2.904  1.00  0.00     0.238 A 
ATOM      4  O   UNL     1     -10.610  -9.026  -3.003  1.00  0.00    -0.285 OA
ATOM      5  C   UNL     1     -12.482  -8.725  -1.641  1.00  0.00     0.111 A 
ATOM      6  C   UNL     1     -11.795  -8.725  -0.390  1.00  0.00     0.134 A 
ATOM      7  C   UNL     1     -12.531  -8.739   0.801  1.00  0.00     0.093 A 
ATOM      8  C   UNL     1     -13.928  -8.687   0.785  1.00  0.00     0.123 A 
ATOM      9  C   UNL     1     -14.604  -8.627  -0.430  1.00  0.00     0.094 A 
ATOM     10  C   UNL     1     -13.899  -8.648  -1.636  1.00  0.00     0.146 A 
ATOM     11  O   UNL     1     -14.584  -8.601  -2.773  1.00  0.00    -0.452 OA
ENDROOT
BRANCH   1  12
ATOM     12  C   UNL     1     -14.890  -8.549  -5.163  1.00  0.00     0.025 A 
ATOM     13  C   UNL     1     -16.202  -9.043  -5.093  1.00  0.00     0.016 A 
ATOM     14  C   UNL     1     -17.052  -8.952  -6.199  1.00  0.00     0.051 A 
ATOM     15  C   UNL     1     -16.611  -8.353  -7.383  1.00  0.00     0.157 A 
ATOM     16  C   UNL     1     -14.456  -7.928  -6.348  1.00  0.00     0.062 A 
ATOM     17  C   UNL     1     -15.308  -7.834  -7.458  1.00  0.00     0.158 A 
BRANCH  15  18
ATOM     18  O   UNL     1     -17.481  -8.278  -8.470  1.00  0.00    -0.504 OA
ATOM     19  H   UNL     1     -18.017  -9.076  -8.786  1.00  0.00     0.293 HD
ENDBRANCH  15  18
BRANCH  17  20
ATOM     20  O   UNL     1     -14.866  -7.223  -8.630  1.00  0.00    -0.504 OA
ATOM     21  H   UNL     1     -14.226  -6.437  -8.610  1.00  0.00     0.293 HD
ENDBRANCH  17  20
ENDBRANCH   1  12
BRANCH   2  22
ATOM     22  O   UNL     1     -12.021  -8.918  -5.333  1.00  0.00    -0.502 OA
ATOM     23  H   UNL     1     -11.637  -8.129  -5.838  1.00  0.00     0.293 HD
ENDBRANCH   2  22
BRANCH   6  24
ATOM     24  O   UNL     1     -10.404  -8.683  -0.264  1.00  0.00    -0.507 OA
ATOM     25  H   UNL     1      -9.753  -8.834  -1.019  1.00  0.00     0.293 HD
ENDBRANCH   6  24
BRANCH   8  26
ATOM     26  O   UNL     1     -14.651  -8.685   1.976  1.00  0.00    -0.508 OA
ATOM     27  H   UNL     1     -14.215  -8.910   2.862  1.00  0.00     0.293 HD
ENDBRANCH   8  26
TORSDOF 6
ENDMDL
MODEL 6
REMARK VINA RESULT:    -5.460      1.533      2.047
REMARK INTER + INTRA:          -6.084
REMARK INTER:                  -6.625
REMARK INTRA:                   0.541
REMARK UNBOUND:                 0.493
REMARK SMILES O=c1c(O)c(-c2ccc(O)c(O)c2)oc2cc(O)cc(O)c12
REMARK SMILES IDX 5 1 3 2 2 3 1 4 22 5 20 6 19 7 17 8 16 9 15 10 14 11 6 12
REMARK SMILES IDX 7 13 8 14 9 15 13 16 11 17 10 18 12 20 4 22 21 24 18 26
REMARK H PARENT 10 19 12 21 4 23 21 25 18 27
REMARK Flexibility Score: inf
ROOT
ATOM      1  C   UNL     1     -12.247  -8.737  -1.571  1.00  0.00     0.180 A 
ATOM      2  C   UNL     1     -11.675  -8.901  -2.844  1.00  0.00     0.208 A 
ATOM      3  C   UNL     1     -12.497  -8.799  -3.979  1.00  0.00     0.238 A 
ATOM      4  O   UNL     1     -11.970  -8.893  -5.118  1.00  0.00    -0.285 OA
ATOM      5  C   UNL     1     -13.883  -8.551  -3.825  1.00  0.00     0.111 A 
ATOM      6  C   UNL     1     -14.815  -8.468  -4.903  1.00  0.00     0.134 A 
ATOM      7  C   UNL     1     -16.138  -8.088  -4.643  1.00  0.00     0.093 A 
ATOM      8  C   UNL     1     -16.576  -7.852  -3.337  1.00  0.00     0.123 A 
ATOM      9  C   UNL     1     -15.688  -7.988  -2.274  1.00  0.00     0.094 A 
ATOM     10  C   UNL     1     -14.353  -8.331  -2.504  1.00  0.00     0.146 A 
ATOM     11  O   UNL     1     -13.537  -8.439  -1.463  1.00  0.00    -0.452 OA
ENDROOT
BRANCH   1  12
ATOM     12  C   UNL     1     -11.451  -8.855  -0.329  1.00  0.00     0.025 A 
ATOM     13  C   UNL     1     -10.058  -9.008  -0.413  1.00  0.00     0.016 A 
ATOM     14  C   UNL     1      -9.286  -9.101   0.748  1.00  0.00     0.051 A 
ATOM     15  C   UNL     1      -9.888  -9.027   2.007  1.00  0.00     0.157 A 
ATOM     16  C   UNL     1     -12.053  -8.760   0.939  1.00  0.00     0.062 A 
ATOM     17  C   UNL     1     -11.279  -8.852   2.105  1.00  0.00     0.158 A 
BRANCH  15  18
ATOM     18  O   UNL     1      -9.092  -9.125   3.148  1.00  0.00    -0.504 OA
ATOM     19  H   UNL     1      -9.098  -9.947   3.739  1.00  0.00     0.293 HD
ENDBRANCH  15  18
BRANCH  17  20
ATOM     20  O   UNL     1     -11.885  -8.762   3.357  1.00  0.00    -0.504 OA
ATOM     21  H   UNL     1     -11.460  -8.242   4.117  1.00  0.00     0.293 HD
ENDBRANCH  17  20
ENDBRANCH   1  12
BRANCH   2  22
ATOM     22  O   UNL     1     -10.302  -9.124  -2.975  1.00  0.00    -0.502 OA
ATOM     23  H   UNL     1      -9.719  -9.401  -2.194  1.00  0.00     0.293 HD
ENDBRANCH   2  22
BRANCH   6  24
ATOM     24  O   UNL     1     -14.503  -8.773  -6.230  1.00  0.00    -0.507 OA
ATOM     25  H   UNL     1     -15.162  -8.762  -6.994  1.00  0.00     0.293 HD
ENDBRANCH   6  24
BRANCH   8  26
ATOM     26  O   UNL     1     -17.898  -7.490  -3.087  1.00  0.00    -0.508 OA
ATOM     27  H   UNL     1     -18.382  -6.814  -3.667  1.00  0.00     0.293 HD
ENDBRANCH   8  26
TORSDOF 6
ENDMDL
MODEL 7
REMARK VINA RESULT:    -5.366      1.525      3.368
REMARK INTER + INTRA:          -5.972
REMARK INTER:                  -6.301
REMARK INTRA:                   0.329
REMARK UNBOUND:                 0.493
REMARK SMILES O=c1c(O)c(-c2ccc(O)c(O)c2)oc2cc(O)cc(O)c12
REMARK SMILES IDX 5 1 3 2 2 3 1 4 22 5 20 6 19 7 17 8 16 9 15 10 14 11 6 12
REMARK SMILES IDX 7 13 8 14 9 15 13 16 11 17 10 18 12 20 4 22 21 24 18 26
REMARK H PARENT 10 19 12 21 4 23 21 25 18 27
REMARK Flexibility Score: inf
ROOT
ATOM      1  C   UNL     1     -13.075  -8.194  -1.230  1.00  0.00     0.180 A 
ATOM      2  C   UNL     1     -14.323  -7.598  -0.977  1.00  0.00     0.208 A 
ATOM      3  C   UNL     1     -15.193  -7.356  -2.053  1.00  0.00     0.238 A 
ATOM      4  O   UNL     1     -16.330  -6.872  -1.813  1.00  0.00    -0.285 OA
ATOM      5  C   UNL     1     -14.798  -7.697  -3.369  1.00  0.00     0.111 A 
ATOM      6  C   UNL     1     -15.583  -7.460  -4.537  1.00  0.00     0.134 A 
ATOM      7  C   UNL     1     -15.150  -7.957  -5.773  1.00  0.00     0.093 A 
ATOM      8  C   UNL     1     -13.929  -8.626  -5.891  1.00  0.00     0.123 A 
ATOM      9  C   UNL     1     -13.129  -8.810  -4.767  1.00  0.00     0.094 A 
ATOM     10  C   UNL     1     -13.550  -8.357  -3.514  1.00  0.00     0.146 A 
ATOM     11  O   UNL     1     -12.761  -8.563  -2.467  1.00  0.00    -0.452 OA
ENDROOT
BRANCH   1  12
ATOM     12  C   UNL     1     -12.095  -8.457  -0.153  1.00  0.00     0.025 A 
ATOM     13  C   UNL     1     -10.724  -8.465  -0.453  1.00  0.00     0.016 A 
ATOM     14  C   UNL     1      -9.780  -8.692   0.552  1.00  0.00     0.051 A 
ATOM     15  C   UNL     1     -10.189  -8.898   1.873  1.00  0.00     0.157 A 
ATOM     16  C   UNL     1     -12.503  -8.644   1.180  1.00  0.00     0.062 A 
ATOM     17  C   UNL     1     -11.557  -8.870   2.191  1.00  0.00     0.158 A 
BRANCH  15  18
ATOM     18  O   UNL     1      -9.225  -9.124   2.854  1.00  0.00    -0.504 OA
ATOM     19  H   UNL     1      -8.431  -9.732   2.699  1.00  0.00     0.293 HD
ENDBRANCH  15  18
BRANCH  17  20
ATOM     20  O   UNL     1     -11.971  -9.060   3.508  1.00  0.00    -0.504 OA
ATOM     21  H   UNL     1     -12.954  -9.073   3.760  1.00  0.00     0.293 HD
ENDBRANCH  17  20
ENDBRANCH   1  12
BRANCH   2  22
ATOM     22  O   UNL     1     -14.701  -7.289   0.332  1.00  0.00    -0.502 OA
ATOM     23  H   UNL     1     -14.260  -7.711   1.141  1.00  0.00     0.293 HD
ENDBRANCH   2  22
BRANCH   6  24
ATOM     24  O   UNL     1     -16.771  -6.724  -4.543  1.00  0.00    -0.507 OA
ATOM     25  H   UNL     1     -17.452  -6.736  -5.287  1.00  0.00     0.293 HD
ENDBRANCH   6  24
BRANCH   8  26
ATOM     26  O   UNL     1     -13.499  -9.104  -7.127  1.00  0.00    -0.508 OA
ATOM     27  H   UNL     1     -12.667  -9.674  -7.215  1.00  0.00     0.293 HD
ENDBRANCH   8  26
TORSDOF 6
ENDMDL
MODEL 8
REMARK VINA RESULT:    -5.135      1.640      7.419
REMARK INTER + INTRA:          -5.693
REMARK INTER:                  -5.923
REMARK INTRA:                   0.230
REMARK UNBOUND:                 0.493
REMARK SMILES O=c1c(O)c(-c2ccc(O)c(O)c2)oc2cc(O)cc(O)c12
REMARK SMILES IDX 5 1 3 2 2 3 1 4 22 5 20 6 19 7 17 8 16 9 15 10 14 11 6 12
REMARK SMILES IDX 7 13 8 14 9 15 13 16 11 17 10 18 12 20 4 22 21 24 18 26
REMARK H PARENT 10 19 12 21 4 23 21 25 18 27
REMARK Flexibility Score: inf
ROOT
ATOM      1  C   UNL     1     -13.840  -8.153  -2.209  1.00  0.00     0.180 A 
ATOM      2  C   UNL     1     -14.834  -8.121  -1.217  1.00  0.00     0.208 A 
ATOM      3  C   UNL     1     -14.471  -8.355   0.119  1.00  0.00     0.238 A 
ATOM      4  O   UNL     1     -15.356  -8.272   1.010  1.00  0.00    -0.285 OA
ATOM      5  C   UNL     1     -13.121  -8.635   0.444  1.00  0.00     0.111 A 
ATOM      6  C   UNL     1     -12.648  -8.927   1.759  1.00  0.00     0.134 A 
ATOM      7  C   UNL     1     -11.273  -9.059   1.984  1.00  0.00     0.093 A 
ATOM      8  C   UNL     1     -10.359  -8.974   0.930  1.00  0.00     0.123 A 
ATOM      9  C   UNL     1     -10.817  -8.749  -0.366  1.00  0.00     0.094 A 
ATOM     10  C   UNL     1     -12.180  -8.576  -0.617  1.00  0.00     0.146 A 
ATOM     11  O   UNL     1     -12.573  -8.352  -1.865  1.00  0.00    -0.452 OA
ENDROOT
BRANCH   1  12
ATOM     12  C   UNL     1     -14.149  -7.941  -3.642  1.00  0.00     0.025 A 
ATOM     13  C   UNL     1     -15.107  -6.983  -4.007  1.00  0.00     0.016 A 
ATOM     14  C   UNL     1     -15.400  -6.752  -5.354  1.00  0.00     0.051 A 
ATOM     15  C   UNL     1     -14.730  -7.461  -6.355  1.00  0.00     0.157 A 
ATOM     16  C   UNL     1     -13.461  -8.639  -4.651  1.00  0.00     0.062 A 
ATOM     17  C   UNL     1     -13.752  -8.407  -6.003  1.00  0.00     0.158 A 
BRANCH  15  18
ATOM     18  O   UNL     1     -15.044  -7.211  -7.690  1.00  0.00    -0.504 OA
ATOM     19  H   UNL     1     -15.438  -7.923  -8.292  1.00  0.00     0.293 HD
ENDBRANCH  15  18
BRANCH  17  20
ATOM     20  O   UNL     1     -13.070  -9.108  -6.996  1.00  0.00    -0.504 OA
ATOM     21  H   UNL     1     -12.452  -9.880  -6.773  1.00  0.00     0.293 HD
ENDBRANCH  17  20
ENDBRANCH   1  12
BRANCH   2  22
ATOM     22  O   UNL     1     -16.157  -7.822  -1.556  1.00  0.00    -0.502 OA
ATOM     23  H   UNL     1     -16.451  -7.659  -2.512  1.00  0.00     0.293 HD
ENDBRANCH   2  22
BRANCH   6  24
ATOM     24  O   UNL     1     -13.483  -9.123   2.862  1.00  0.00    -0.507 OA
ATOM     25  H   UNL     1     -13.934  -8.384   3.381  1.00  0.00     0.293 HD
ENDBRANCH   6  24
BRANCH   8  26
ATOM     26  O   UNL     1      -8.993  -9.122   1.161  1.00  0.00    -0.508 OA
ATOM     27  H   UNL     1      -8.427  -8.356   1.503  1.00  0.00     0.293 HD
ENDBRANCH   8  26
TORSDOF 6
ENDMDL
