MODEL 1
REMARK VINA RESULT:    -5.360      0.000      0.000
REMARK INTER + INTRA:          -6.964
REMARK INTER:                  -6.613
REMARK INTRA:                  -0.352
REMARK UNBOUND:                -0.352
REMARK SMILES O=c1c(O)c(-c2cc(O)c(O)c(O)c2)oc2cc(O)cc(O)c12
REMARK SMILES IDX 5 1 3 2 2 3 1 4 23 5 21 6 20 7 18 8 17 9 16 10 15 11 6 12
REMARK SMILES IDX 7 13 8 14 14 15 10 16 12 17 9 18 11 20 13 22 4 24 22 26
REMARK SMILES IDX 19 28
REMARK H PARENT 9 19 11 21 13 23 4 25 22 27 19 29
REMARK Flexibility Score: inf
ROOT
ATOM      1  C   UNL     1     220.247 218.014 220.552  1.00  0.00     0.180 A 
ATOM      2  C   UNL     1     221.018 219.155 220.269  1.00  0.00     0.208 A 
ATOM      3  C   UNL     1     220.366 220.373 220.018  1.00  0.00     0.238 A 
ATOM      4  O   UNL     1     221.059 221.378 219.711  1.00  0.00    -0.285 OA
ATOM      5  C   UNL     1     218.952 220.438 220.068  1.00  0.00     0.111 A 
ATOM      6  C   UNL     1     218.189 221.628 219.870  1.00  0.00     0.134 A 
ATOM      7  C   UNL     1     216.792 221.550 219.814  1.00  0.00     0.093 A 
ATOM      8  C   UNL     1     216.129 220.337 220.014  1.00  0.00     0.123 A 
ATOM      9  C   UNL     1     216.864 219.181 220.268  1.00  0.00     0.094 A 
ATOM     10  C   UNL     1     218.260 219.220 220.294  1.00  0.00     0.146 A 
ATOM     11  O   UNL     1     218.921 218.093 220.529  1.00  0.00    -0.452 OA
ENDROOT
BRANCH   1  12
ATOM     12  C   UNL     1     220.863 216.702 220.853  1.00  0.00     0.029 A 
ATOM     13  C   UNL     1     221.286 216.421 222.160  1.00  0.00     0.062 A 
ATOM     14  C   UNL     1     221.891 215.198 222.476  1.00  0.00     0.162 A 
ATOM     15  C   UNL     1     221.089 215.752 219.845  1.00  0.00     0.062 A 
ATOM     16  C   UNL     1     222.094 214.236 221.458  1.00  0.00     0.200 A 
ATOM     17  C   UNL     1     221.694 214.525 220.146  1.00  0.00     0.162 A 
BRANCH  14  18
ATOM     18  O   UNL     1     222.273 214.986 223.802  1.00  0.00    -0.504 OA
ATOM     19  H   UNL     1     222.943 215.556 224.297  1.00  0.00     0.293 HD
ENDBRANCH  14  18
BRANCH  16  20
ATOM     20  O   UNL     1     222.687 212.996 221.705  1.00  0.00    -0.502 OA
ATOM     21  H   UNL     1     222.538 212.174 221.139  1.00  0.00     0.293 HD
ENDBRANCH  16  20
BRANCH  17  22
ATOM     22  O   UNL     1     221.909 213.584 219.139  1.00  0.00    -0.504 OA
ATOM     23  H   UNL     1     221.619 213.754 218.184  1.00  0.00     0.293 HD
ENDBRANCH  17  22
ENDBRANCH   1  12
BRANCH   2  24
ATOM     24  O   UNL     1     222.411 219.063 220.203  1.00  0.00    -0.502 OA
ATOM     25  H   UNL     1     222.921 219.147 219.332  1.00  0.00     0.293 HD
ENDBRANCH   2  24
BRANCH   6  26
ATOM     26  O   UNL     1     218.748 222.904 219.751  1.00  0.00    -0.507 OA
ATOM     27  H   UNL     1     219.655 223.098 219.354  1.00  0.00     0.293 HD
ENDBRANCH   6  26
BRANCH   8  28
ATOM     28  O   UNL     1     214.738 220.271 219.972  1.00  0.00    -0.508 OA
ATOM     29  H   UNL     1     214.207 219.802 220.697  1.00  0.00     0.293 HD
ENDBRANCH   8  28
TORSDOF 7
ENDMDL
MODEL 2
REMARK VINA RESULT:    -5.331      4.637      9.223
REMARK INTER + INTRA:          -6.930
REMARK INTER:                  -6.580
REMARK INTRA:                  -0.350
REMARK UNBOUND:                -0.352
REMARK SMILES O=c1c(O)c(-c2cc(O)c(O)c(O)c2)oc2cc(O)cc(O)c12
REMARK SMILES IDX 5 1 3 2 2 3 1 4 23 5 21 6 20 7 18 8 17 9 16 10 15 11 6 12
REMARK SMILES IDX 7 13 8 14 14 15 10 16 12 17 9 18 11 20 13 22 4 24 22 26
REMARK SMILES IDX 19 28
REMARK H PARENT 9 19 11 21 13 23 4 25 22 27 19 29
REMARK Flexibility Score: inf
ROOT
ATOM      1  C   UNL     1     214.130 216.342 220.587  1.00  0.00     0.180 A 
ATOM      2  C   UNL     1     213.353 215.207 220.296  1.00  0.00     0.208 A 
ATOM      3  C   UNL     1     214.001 213.988 220.032  1.00  0.00     0.238 A 
ATOM      4  O   UNL     1     213.303 212.989 219.719  1.00  0.00    -0.285 OA
ATOM      5  C   UNL     1     215.415 213.918 220.079  1.00  0.00     0.111 A 
ATOM      6  C   UNL     1     216.173 212.727 219.869  1.00  0.00     0.134 A 
ATOM      7  C   UNL     1     217.570 212.800 219.810  1.00  0.00     0.093 A 
ATOM      8  C   UNL     1     218.238 214.010 220.019  1.00  0.00     0.123 A 
ATOM      9  C   UNL     1     217.508 215.166 220.284  1.00  0.00     0.094 A 
ATOM     10  C   UNL     1     216.112 215.132 220.314  1.00  0.00     0.146 A 
ATOM     11  O   UNL     1     215.455 216.259 220.559  1.00  0.00    -0.452 OA
ENDROOT
BRANCH   1  12
ATOM     12  C   UNL     1     213.518 217.654 220.900  1.00  0.00     0.029 A 
ATOM     13  C   UNL     1     213.091 217.921 222.209  1.00  0.00     0.062 A 
ATOM     14  C   UNL     1     212.490 219.143 222.537  1.00  0.00     0.162 A 
ATOM     15  C   UNL     1     213.303 218.617 219.902  1.00  0.00     0.062 A 
ATOM     16  C   UNL     1     212.298 220.118 221.529  1.00  0.00     0.200 A 
ATOM     17  C   UNL     1     212.703 219.843 220.215  1.00  0.00     0.162 A 
BRANCH  14  18
ATOM     18  O   UNL     1     212.102 219.342 223.863  1.00  0.00    -0.504 OA
ATOM     19  H   UNL     1     211.257 219.820 224.140  1.00  0.00     0.293 HD
ENDBRANCH  14  18
BRANCH  16  20
ATOM     20  O   UNL     1     211.710 221.359 221.788  1.00  0.00    -0.502 OA
ATOM     21  H   UNL     1     212.176 222.119 222.261  1.00  0.00     0.293 HD
ENDBRANCH  16  20
BRANCH  17  22
ATOM     22  O   UNL     1     212.499 220.798 219.219  1.00  0.00    -0.504 OA
ATOM     23  H   UNL     1     212.923 221.716 219.268  1.00  0.00     0.293 HD
ENDBRANCH  17  22
ENDBRANCH   1  12
BRANCH   2  24
ATOM     24  O   UNL     1     211.961 215.304 220.234  1.00  0.00    -0.502 OA
ATOM     25  H   UNL     1     211.475 216.192 220.281  1.00  0.00     0.293 HD
ENDBRANCH   2  24
BRANCH   6  26
ATOM     26  O   UNL     1     215.609 211.454 219.740  1.00  0.00    -0.507 OA
ATOM     27  H   UNL     1     214.644 211.275 219.506  1.00  0.00     0.293 HD
ENDBRANCH   6  26
BRANCH   8  28
ATOM     28  O   UNL     1     219.629 214.071 219.974  1.00  0.00    -0.508 OA
ATOM     29  H   UNL     1     220.203 213.605 220.667  1.00  0.00     0.293 HD
ENDBRANCH   8  28
TORSDOF 7
ENDMDL
MODEL 3
REMARK VINA RESULT:    -5.323      4.678      7.080
REMARK INTER + INTRA:          -6.920
REMARK INTER:                  -6.676
REMARK INTRA:                  -0.244
REMARK UNBOUND:                -0.352
REMARK SMILES O=c1c(O)c(-c2cc(O)c(O)c(O)c2)oc2cc(O)cc(O)c12
REMARK SMILES IDX 5 1 3 2 2 3 1 4 23 5 21 6 20 7 18 8 17 9 16 10 15 11 6 12
REMARK SMILES IDX 7 13 8 14 14 15 10 16 12 17 9 18 11 20 13 22 4 24 22 26
REMARK SMILES IDX 19 28
REMARK H PARENT 9 19 11 21 13 23 4 25 22 27 19 29
REMARK Flexibility Score: inf
ROOT
ATOM      1  C   UNL     1     217.143 214.788 220.521  1.00  0.00     0.180 A 
ATOM      2  C   UNL     1     217.323 216.181 220.467  1.00  0.00     0.208 A 
ATOM      3  C   UNL     1     218.611 216.692 220.239  1.00  0.00     0.238 A 
ATOM      4  O   UNL     1     218.776 217.940 220.245  1.00  0.00    -0.285 OA
ATOM      5  C   UNL     1     219.698 215.804 220.052  1.00  0.00     0.111 A 
ATOM      6  C   UNL     1     221.038 216.212 219.774  1.00  0.00     0.134 A 
ATOM      7  C   UNL     1     222.057 215.252 219.738  1.00  0.00     0.093 A 
ATOM      8  C   UNL     1     221.774 213.894 219.904  1.00  0.00     0.123 A 
ATOM      9  C   UNL     1     220.461 213.481 220.115  1.00  0.00     0.094 A 
ATOM     10  C   UNL     1     219.428 214.418 220.193  1.00  0.00     0.146 A 
ATOM     11  O   UNL     1     218.192 213.983 220.407  1.00  0.00    -0.452 OA
ENDROOT
BRANCH   1  12
ATOM     12  C   UNL     1     215.811 214.175 220.732  1.00  0.00     0.029 A 
ATOM     13  C   UNL     1     215.202 214.264 221.992  1.00  0.00     0.062 A 
ATOM     14  C   UNL     1     213.953 213.678 222.234  1.00  0.00     0.162 A 
ATOM     15  C   UNL     1     215.169 213.454 219.714  1.00  0.00     0.062 A 
ATOM     16  C   UNL     1     213.301 212.973 221.194  1.00  0.00     0.200 A 
ATOM     17  C   UNL     1     213.919 212.863 219.941  1.00  0.00     0.162 A 
BRANCH  14  18
ATOM     18  O   UNL     1     213.404 213.819 223.510  1.00  0.00    -0.504 OA
ATOM     19  H   UNL     1     213.944 213.807 224.363  1.00  0.00     0.293 HD
ENDBRANCH  14  18
BRANCH  16  20
ATOM     20  O   UNL     1     212.053 212.370 221.365  1.00  0.00    -0.502 OA
ATOM     21  H   UNL     1     211.885 211.576 221.966  1.00  0.00     0.293 HD
ENDBRANCH  16  20
BRANCH  17  22
ATOM     22  O   UNL     1     213.284 212.154 218.921  1.00  0.00    -0.504 OA
ATOM     23  H   UNL     1     213.738 211.382 218.449  1.00  0.00     0.293 HD
ENDBRANCH  17  22
ENDBRANCH   1  12
BRANCH   2  24
ATOM     24  O   UNL     1     216.240 217.039 220.676  1.00  0.00    -0.502 OA
ATOM     25  H   UNL     1     215.970 217.747 220.004  1.00  0.00     0.293 HD
ENDBRANCH   2  24
BRANCH   6  26
ATOM     26  O   UNL     1     221.413 217.531 219.503  1.00  0.00    -0.507 OA
ATOM     27  H   UNL     1     221.203 218.023 218.648  1.00  0.00     0.293 HD
ENDBRANCH   6  26
BRANCH   8  28
ATOM     28  O   UNL     1     222.792 212.944 219.849  1.00  0.00    -0.508 OA
ATOM     29  H   UNL     1     223.045 212.390 220.659  1.00  0.00     0.293 HD
ENDBRANCH   8  28
TORSDOF 7
ENDMDL
MODEL 4
REMARK VINA RESULT:    -5.318      3.731      5.699
REMARK INTER + INTRA:          -6.913
REMARK INTER:                  -6.663
REMARK INTRA:                  -0.250
REMARK UNBOUND:                -0.352
REMARK SMILES O=c1c(O)c(-c2cc(O)c(O)c(O)c2)oc2cc(O)cc(O)c12
REMARK SMILES IDX 5 1 3 2 2 3 1 4 23 5 21 6 20 7 18 8 17 9 16 10 15 11 6 12
REMARK SMILES IDX 7 13 8 14 14 15 10 16 12 17 9 18 11 20 13 22 4 24 22 26
REMARK SMILES IDX 19 28
REMARK H PARENT 9 19 11 21 13 23 4 25 22 27 19 29
REMARK Flexibility Score: inf
ROOT
ATOM      1  C   UNL     1     217.227 219.622 220.542  1.00  0.00     0.180 A 
ATOM      2  C   UNL     1     217.063 218.226 220.526  1.00  0.00     0.208 A 
ATOM      3  C   UNL     1     215.781 217.694 220.309  1.00  0.00     0.238 A 
ATOM      4  O   UNL     1     215.631 216.445 220.350  1.00  0.00    -0.285 OA
ATOM      5  C   UNL     1     214.684 218.563 220.096  1.00  0.00     0.111 A 
ATOM      6  C   UNL     1     213.350 218.133 219.826  1.00  0.00     0.134 A 
ATOM      7  C   UNL     1     212.320 219.079 219.761  1.00  0.00     0.093 A 
ATOM      8  C   UNL     1     212.586 220.444 219.889  1.00  0.00     0.123 A 
ATOM      9  C   UNL     1     213.894 220.878 220.092  1.00  0.00     0.094 A 
ATOM     10  C   UNL     1     214.938 219.956 220.198  1.00  0.00     0.146 A 
ATOM     11  O   UNL     1     216.168 220.412 220.403  1.00  0.00    -0.452 OA
ENDROOT
BRANCH   1  12
ATOM     12  C   UNL     1     218.551 220.257 220.739  1.00  0.00     0.029 A 
ATOM     13  C   UNL     1     219.151 220.223 222.006  1.00  0.00     0.062 A 
ATOM     14  C   UNL     1     220.392 220.830 222.233  1.00  0.00     0.162 A 
ATOM     15  C   UNL     1     219.194 220.945 219.698  1.00  0.00     0.062 A 
ATOM     16  C   UNL     1     221.045 221.501 221.172  1.00  0.00     0.200 A 
ATOM     17  C   UNL     1     220.435 221.557 219.911  1.00  0.00     0.162 A 
BRANCH  14  18
ATOM     18  O   UNL     1     220.933 220.743 223.517  1.00  0.00    -0.504 OA
ATOM     19  H   UNL     1     220.392 220.826 224.366  1.00  0.00     0.293 HD
ENDBRANCH  14  18
BRANCH  16  20
ATOM     20  O   UNL     1     222.286 222.123 221.329  1.00  0.00    -0.502 OA
ATOM     21  H   UNL     1     222.751 222.243 222.216  1.00  0.00     0.293 HD
ENDBRANCH  16  20
BRANCH  17  22
ATOM     22  O   UNL     1     221.071 222.232 218.869  1.00  0.00    -0.504 OA
ATOM     23  H   UNL     1     222.035 222.534 218.942  1.00  0.00     0.293 HD
ENDBRANCH  17  22
ENDBRANCH   1  12
BRANCH   2  24
ATOM     24  O   UNL     1     218.156 217.387 220.761  1.00  0.00    -0.502 OA
ATOM     25  H   UNL     1     218.090 216.379 220.698  1.00  0.00     0.293 HD
ENDBRANCH   2  24
BRANCH   6  26
ATOM     26  O   UNL     1     212.992 216.802 219.591  1.00  0.00    -0.507 OA
ATOM     27  H   UNL     1     213.646 216.053 219.421  1.00  0.00     0.293 HD
ENDBRANCH   6  26
BRANCH   8  28
ATOM     28  O   UNL     1     211.558 221.380 219.806  1.00  0.00    -0.508 OA
ATOM     29  H   UNL     1     211.249 221.902 220.618  1.00  0.00     0.293 HD
ENDBRANCH   8  28
TORSDOF 7
ENDMDL
MODEL 5
REMARK VINA RESULT:    -5.309      1.404      3.000
REMARK INTER + INTRA:          -6.902
REMARK INTER:                  -6.631
REMARK INTRA:                  -0.271
REMARK UNBOUND:                -0.352
REMARK SMILES O=c1c(O)c(-c2cc(O)c(O)c(O)c2)oc2cc(O)cc(O)c12
REMARK SMILES IDX 5 1 3 2 2 3 1 4 23 5 21 6 20 7 18 8 17 9 16 10 15 11 6 12
REMARK SMILES IDX 7 13 8 14 14 15 10 16 12 17 9 18 11 20 13 22 4 24 22 26
REMARK SMILES IDX 19 28
REMARK H PARENT 9 19 11 21 13 23 4 25 22 27 19 29
REMARK Flexibility Score: inf
ROOT
ATOM      1  C   UNL     1     219.696 217.302 220.513  1.00  0.00     0.180 A 
ATOM      2  C   UNL     1     218.309 217.497 220.397  1.00  0.00     0.208 A 
ATOM      3  C   UNL     1     217.821 218.793 220.161  1.00  0.00     0.238 A 
ATOM      4  O   UNL     1     216.576 218.970 220.112  1.00  0.00    -0.285 OA
ATOM      5  C   UNL     1     218.727 219.873 220.029  1.00  0.00     0.111 A 
ATOM      6  C   UNL     1     218.346 221.220 219.749  1.00  0.00     0.134 A 
ATOM      7  C   UNL     1     219.316 222.230 219.769  1.00  0.00     0.093 A 
ATOM      8  C   UNL     1     220.662 221.931 219.993  1.00  0.00     0.123 A 
ATOM      9  C   UNL     1     221.052 220.612 220.207  1.00  0.00     0.094 A 
ATOM     10  C   UNL     1     220.103 219.587 220.230  1.00  0.00     0.146 A 
ATOM     11  O   UNL     1     220.516 218.345 220.449  1.00  0.00    -0.452 OA
ENDROOT
BRANCH   1  12
ATOM     12  C   UNL     1     220.286 215.962 220.736  1.00  0.00     0.029 A 
ATOM     13  C   UNL     1     220.185 215.365 222.001  1.00  0.00     0.062 A 
ATOM     14  C   UNL     1     220.749 214.108 222.253  1.00  0.00     0.162 A 
ATOM     15  C   UNL     1     220.998 215.299 219.724  1.00  0.00     0.062 A 
ATOM     16  C   UNL     1     221.445 213.435 221.220  1.00  0.00     0.200 A 
ATOM     17  C   UNL     1     221.568 214.041 219.962  1.00  0.00     0.162 A 
BRANCH  14  18
ATOM     18  O   UNL     1     220.596 213.572 223.533  1.00  0.00    -0.504 OA
ATOM     19  H   UNL     1     220.774 212.606 223.768  1.00  0.00     0.293 HD
ENDBRANCH  14  18
BRANCH  16  20
ATOM     20  O   UNL     1     222.026 212.179 221.402  1.00  0.00    -0.502 OA
ATOM     21  H   UNL     1     221.580 211.307 221.159  1.00  0.00     0.293 HD
ENDBRANCH  16  20
BRANCH  17  22
ATOM     22  O   UNL     1     222.267 213.387 218.949  1.00  0.00    -0.504 OA
ATOM     23  H   UNL     1     223.271 213.478 218.852  1.00  0.00     0.293 HD
ENDBRANCH  17  22
ENDBRANCH   1  12
BRANCH   2  24
ATOM     24  O   UNL     1     217.432 216.420 220.553  1.00  0.00    -0.502 OA
ATOM     25  H   UNL     1     216.448 216.483 220.324  1.00  0.00     0.293 HD
ENDBRANCH   2  24
BRANCH   6  26
ATOM     26  O   UNL     1     217.044 221.611 219.422  1.00  0.00    -0.507 OA
ATOM     27  H   UNL     1     216.288 220.975 219.218  1.00  0.00     0.293 HD
ENDBRANCH   6  26
BRANCH   8  28
ATOM     28  O   UNL     1     221.623 222.940 219.995  1.00  0.00    -0.508 OA
ATOM     29  H   UNL     1     222.197 223.124 220.809  1.00  0.00     0.293 HD
ENDBRANCH   8  28
TORSDOF 7
ENDMDL
MODEL 6
REMARK VINA RESULT:    -5.306      0.114      1.763
REMARK INTER + INTRA:          -6.898
REMARK INTER:                  -6.531
REMARK INTRA:                  -0.367
REMARK UNBOUND:                -0.352
REMARK SMILES O=c1c(O)c(-c2cc(O)c(O)c(O)c2)oc2cc(O)cc(O)c12
REMARK SMILES IDX 5 1 3 2 2 3 1 4 23 5 21 6 20 7 18 8 17 9 16 10 15 11 6 12
REMARK SMILES IDX 7 13 8 14 14 15 10 16 12 17 9 18 11 20 13 22 4 24 22 26
REMARK SMILES IDX 19 28
REMARK H PARENT 9 19 11 21 13 23 4 25 22 27 19 29
REMARK Flexibility Score: inf
ROOT
ATOM      1  C   UNL     1     220.301 217.978 220.598  1.00  0.00     0.180 A 
ATOM      2  C   UNL     1     221.042 219.139 220.311  1.00  0.00     0.208 A 
ATOM      3  C   UNL     1     220.356 220.334 220.037  1.00  0.00     0.238 A 
ATOM      4  O   UNL     1     221.022 221.355 219.728  1.00  0.00    -0.285 OA
ATOM      5  C   UNL     1     218.940 220.356 220.069  1.00  0.00     0.111 A 
ATOM      6  C   UNL     1     218.144 221.520 219.848  1.00  0.00     0.134 A 
ATOM      7  C   UNL     1     216.751 221.399 219.775  1.00  0.00     0.093 A 
ATOM      8  C   UNL     1     216.123 220.168 219.980  1.00  0.00     0.123 A 
ATOM      9  C   UNL     1     216.888 219.039 220.257  1.00  0.00     0.094 A 
ATOM     10  C   UNL     1     218.282 219.120 220.301  1.00  0.00     0.146 A 
ATOM     11  O   UNL     1     218.974 218.017 220.556  1.00  0.00    -0.452 OA
ENDROOT
BRANCH   1  12
ATOM     12  C   UNL     1     220.953 216.689 220.921  1.00  0.00     0.029 A 
ATOM     13  C   UNL     1     221.146 215.739 219.907  1.00  0.00     0.062 A 
ATOM     14  C   UNL     1     221.741 214.501 220.180  1.00  0.00     0.162 A 
ATOM     15  C   UNL     1     221.331 216.370 222.234  1.00  0.00     0.062 A 
ATOM     16  C   UNL     1     222.141 214.197 221.503  1.00  0.00     0.200 A 
ATOM     17  C   UNL     1     221.927 215.135 222.523  1.00  0.00     0.162 A 
BRANCH  14  18
ATOM     18  O   UNL     1     221.911 213.613 219.117  1.00  0.00    -0.504 OA
ATOM     19  H   UNL     1     222.745 213.560 218.551  1.00  0.00     0.293 HD
ENDBRANCH  14  18
BRANCH  16  20
ATOM     20  O   UNL     1     222.743 212.984 221.844  1.00  0.00    -0.502 OA
ATOM     21  H   UNL     1     222.272 212.233 222.327  1.00  0.00     0.293 HD
ENDBRANCH  16  20
BRANCH  17  22
ATOM     22  O   UNL     1     222.306 214.829 223.830  1.00  0.00    -0.504 OA
ATOM     23  H   UNL     1     223.069 215.311 224.287  1.00  0.00     0.293 HD
ENDBRANCH  17  22
ENDBRANCH   1  12
BRANCH   2  24
ATOM     24  O   UNL     1     222.438 219.088 220.263  1.00  0.00    -0.502 OA
ATOM     25  H   UNL     1     223.009 219.920 220.188  1.00  0.00     0.293 HD
ENDBRANCH   2  24
BRANCH   6  26
ATOM     26  O   UNL     1     218.666 222.811 219.721  1.00  0.00    -0.507 OA
ATOM     27  H   UNL     1     218.464 223.575 220.348  1.00  0.00     0.293 HD
ENDBRANCH   6  26
BRANCH   8  28
ATOM     28  O   UNL     1     214.735 220.060 219.922  1.00  0.00    -0.508 OA
ATOM     29  H   UNL     1     214.131 220.829 220.189  1.00  0.00     0.293 HD
ENDBRANCH   8  28
TORSDOF 7
ENDMDL
MODEL 7
REMARK VINA RESULT:    -5.251      4.748      6.734
REMARK INTER + INTRA:          -6.830
REMARK INTER:                  -6.560
REMARK INTRA:                  -0.270
REMARK UNBOUND:                -0.352
REMARK SMILES O=c1c(O)c(-c2cc(O)c(O)c(O)c2)oc2cc(O)cc(O)c12
REMARK SMILES IDX 5 1 3 2 2 3 1 4 23 5 21 6 20 7 18 8 17 9 16 10 15 11 6 12
REMARK SMILES IDX 7 13 8 14 14 15 10 16 12 17 9 18 11 20 13 22 4 24 22 26
REMARK SMILES IDX 19 28
REMARK H PARENT 9 19 11 21 13 23 4 25 22 27 19 29
REMARK Flexibility Score: inf
ROOT
ATOM      1  C   UNL     1     217.408 214.389 220.511  1.00  0.00     0.180 A 
ATOM      2  C   UNL     1     218.509 213.531 220.342  1.00  0.00     0.208 A 
ATOM      3  C   UNL     1     219.786 214.089 220.162  1.00  0.00     0.238 A 
ATOM      4  O   UNL     1     220.759 213.318 219.957  1.00  0.00    -0.285 OA
ATOM      5  C   UNL     1     219.946 215.496 220.168  1.00  0.00     0.111 A 
ATOM      6  C   UNL     1     221.199 216.168 220.035  1.00  0.00     0.134 A 
ATOM      7  C   UNL     1     221.224 217.564 219.925  1.00  0.00     0.093 A 
ATOM      8  C   UNL     1     220.049 218.315 220.009  1.00  0.00     0.123 A 
ATOM      9  C   UNL     1     218.829 217.671 220.200  1.00  0.00     0.094 A 
ATOM     10  C   UNL     1     218.767 216.278 220.277  1.00  0.00     0.146 A 
ATOM     11  O   UNL     1     217.582 215.704 220.448  1.00  0.00    -0.452 OA
ENDROOT
BRANCH   1  12
ATOM     12  C   UNL     1     216.037 213.875 220.732  1.00  0.00     0.029 A 
ATOM     13  C   UNL     1     215.475 213.938 222.016  1.00  0.00     0.062 A 
ATOM     14  C   UNL     1     214.189 213.443 222.266  1.00  0.00     0.162 A 
ATOM     15  C   UNL     1     215.307 213.271 219.697  1.00  0.00     0.062 A 
ATOM     16  C   UNL     1     213.450 212.857 221.210  1.00  0.00     0.200 A 
ATOM     17  C   UNL     1     214.020 212.771 219.933  1.00  0.00     0.162 A 
BRANCH  14  18
ATOM     18  O   UNL     1     213.692 213.553 223.565  1.00  0.00    -0.504 OA
ATOM     19  H   UNL     1     213.437 212.765 224.143  1.00  0.00     0.293 HD
ENDBRANCH  14  18
BRANCH  16  20
ATOM     20  O   UNL     1     212.161 212.348 221.389  1.00  0.00    -0.502 OA
ATOM     21  H   UNL     1     211.896 211.731 222.143  1.00  0.00     0.293 HD
ENDBRANCH  16  20
BRANCH  17  22
ATOM     22  O   UNL     1     213.298 212.179 218.896  1.00  0.00    -0.504 OA
ATOM     23  H   UNL     1     212.373 212.501 218.643  1.00  0.00     0.293 HD
ENDBRANCH  17  22
ENDBRANCH   1  12
BRANCH   2  24
ATOM     24  O   UNL     1     218.324 212.146 220.317  1.00  0.00    -0.502 OA
ATOM     25  H   UNL     1     218.758 211.527 220.991  1.00  0.00     0.293 HD
ENDBRANCH   2  24
BRANCH   6  26
ATOM     26  O   UNL     1     222.437 215.520 220.032  1.00  0.00    -0.507 OA
ATOM     27  H   UNL     1     223.140 215.623 220.748  1.00  0.00     0.293 HD
ENDBRANCH   6  26
BRANCH   8  28
ATOM     28  O   UNL     1     220.085 219.704 219.915  1.00  0.00    -0.508 OA
ATOM     29  H   UNL     1     219.934 220.295 220.724  1.00  0.00     0.293 HD
ENDBRANCH   8  28
TORSDOF 7
ENDMDL
MODEL 8
REMARK VINA RESULT:    -5.244      4.790      8.624
REMARK INTER + INTRA:          -6.822
REMARK INTER:                  -6.551
REMARK INTRA:                  -0.271
REMARK UNBOUND:                -0.352
REMARK SMILES O=c1c(O)c(-c2cc(O)c(O)c(O)c2)oc2cc(O)cc(O)c12
REMARK SMILES IDX 5 1 3 2 2 3 1 4 23 5 21 6 20 7 18 8 17 9 16 10 15 11 6 12
REMARK SMILES IDX 7 13 8 14 14 15 10 16 12 17 9 18 11 20 13 22 4 24 22 26
REMARK SMILES IDX 19 28
REMARK H PARENT 9 19 11 21 13 23 4 25 22 27 19 29
REMARK Flexibility Score: inf
ROOT
ATOM      1  C   UNL     1     214.680 217.071 220.544  1.00  0.00     0.180 A 
ATOM      2  C   UNL     1     216.053 216.834 220.359  1.00  0.00     0.208 A 
ATOM      3  C   UNL     1     216.491 215.521 220.119  1.00  0.00     0.238 A 
ATOM      4  O   UNL     1     217.726 215.307 220.009  1.00  0.00    -0.285 OA
ATOM      5  C   UNL     1     215.549 214.466 220.053  1.00  0.00     0.111 A 
ATOM      6  C   UNL     1     215.876 213.104 219.777  1.00  0.00     0.134 A 
ATOM      7  C   UNL     1     214.880 212.123 219.865  1.00  0.00     0.093 A 
ATOM      8  C   UNL     1     213.557 212.464 220.154  1.00  0.00     0.123 A 
ATOM      9  C   UNL     1     213.217 213.798 220.366  1.00  0.00     0.094 A 
ATOM     10  C   UNL     1     214.194 214.795 220.321  1.00  0.00     0.146 A 
ATOM     11  O   UNL     1     213.829 216.052 220.540  1.00  0.00    -0.452 OA
ENDROOT
BRANCH   1  12
ATOM     12  C   UNL     1     214.140 218.431 220.774  1.00  0.00     0.029 A 
ATOM     13  C   UNL     1     214.326 219.046 222.021  1.00  0.00     0.062 A 
ATOM     14  C   UNL     1     213.813 220.322 222.281  1.00  0.00     0.162 A 
ATOM     15  C   UNL     1     213.394 219.098 219.790  1.00  0.00     0.062 A 
ATOM     16  C   UNL     1     213.081 220.998 221.275  1.00  0.00     0.200 A 
ATOM     17  C   UNL     1     212.874 220.375 220.036  1.00  0.00     0.162 A 
BRANCH  14  18
ATOM     18  O   UNL     1     214.049 220.874 223.541  1.00  0.00    -0.504 OA
ATOM     19  H   UNL     1     213.449 220.737 224.341  1.00  0.00     0.293 HD
ENDBRANCH  14  18
BRANCH  16  20
ATOM     20  O   UNL     1     212.546 222.274 221.466  1.00  0.00    -0.502 OA
ATOM     21  H   UNL     1     211.894 222.511 222.200  1.00  0.00     0.293 HD
ENDBRANCH  16  20
BRANCH  17  22
ATOM     22  O   UNL     1     212.139 221.034 219.050  1.00  0.00    -0.504 OA
ATOM     23  H   UNL     1     211.151 221.224 219.163  1.00  0.00     0.293 HD
ENDBRANCH  17  22
ENDBRANCH   1  12
BRANCH   2  24
ATOM     24  O   UNL     1     216.967 217.887 220.450  1.00  0.00    -0.502 OA
ATOM     25  H   UNL     1     216.712 218.847 220.252  1.00  0.00     0.293 HD
ENDBRANCH   2  24
BRANCH   6  26
ATOM     26  O   UNL     1     217.147 212.670 219.389  1.00  0.00    -0.507 OA
ATOM     27  H   UNL     1     217.860 212.342 220.023  1.00  0.00     0.293 HD
ENDBRANCH   6  26
BRANCH   8  28
ATOM     28  O   UNL     1     212.569 211.484 220.224  1.00  0.00    -0.508 OA
ATOM     29  H   UNL     1     212.120 211.124 219.390  1.00  0.00     0.293 HD
ENDBRANCH   8  28
TORSDOF 7
ENDMDL
MODEL 9
REMARK VINA RESULT:    -5.208      4.255      6.002
REMARK INTER + INTRA:          -6.777
REMARK INTER:                  -6.490
REMARK INTRA:                  -0.287
REMARK UNBOUND:                -0.352
REMARK SMILES O=c1c(O)c(-c2cc(O)c(O)c(O)c2)oc2cc(O)cc(O)c12
REMARK SMILES IDX 5 1 3 2 2 3 1 4 23 5 21 6 20 7 18 8 17 9 16 10 15 11 6 12
REMARK SMILES IDX 7 13 8 14 14 15 10 16 12 17 9 18 11 20 13 22 4 24 22 26
REMARK SMILES IDX 19 28
REMARK H PARENT 9 19 11 21 13 23 4 25 22 27 19 29
REMARK Flexibility Score: inf
ROOT
ATOM      1  C   UNL     1     217.013 220.081 220.519  1.00  0.00     0.180 A 
ATOM      2  C   UNL     1     215.908 220.937 220.374  1.00  0.00     0.208 A 
ATOM      3  C   UNL     1     214.630 220.378 220.207  1.00  0.00     0.238 A 
ATOM      4  O   UNL     1     213.652 221.148 220.023  1.00  0.00    -0.285 OA
ATOM      5  C   UNL     1     214.473 218.970 220.202  1.00  0.00     0.111 A 
ATOM      6  C   UNL     1     213.221 218.296 220.081  1.00  0.00     0.134 A 
ATOM      7  C   UNL     1     213.198 216.901 219.957  1.00  0.00     0.093 A 
ATOM      8  C   UNL     1     214.376 216.153 220.018  1.00  0.00     0.123 A 
ATOM      9  C   UNL     1     215.597 216.798 220.197  1.00  0.00     0.094 A 
ATOM     10  C   UNL     1     215.657 218.191 220.287  1.00  0.00     0.146 A 
ATOM     11  O   UNL     1     216.842 218.766 220.446  1.00  0.00    -0.452 OA
ENDROOT
BRANCH   1  12
ATOM     12  C   UNL     1     218.386 220.597 220.726  1.00  0.00     0.029 A 
ATOM     13  C   UNL     1     218.952 220.560 222.008  1.00  0.00     0.062 A 
ATOM     14  C   UNL     1     220.240 221.057 222.244  1.00  0.00     0.162 A 
ATOM     15  C   UNL     1     219.114 221.177 219.676  1.00  0.00     0.062 A 
ATOM     16  C   UNL     1     220.977 221.619 221.174  1.00  0.00     0.200 A 
ATOM     17  C   UNL     1     220.403 221.679 219.897  1.00  0.00     0.162 A 
BRANCH  14  18
ATOM     18  O   UNL     1     220.741 220.974 223.544  1.00  0.00    -0.504 OA
ATOM     19  H   UNL     1     221.580 221.439 223.859  1.00  0.00     0.293 HD
ENDBRANCH  14  18
BRANCH  16  20
ATOM     20  O   UNL     1     222.267 222.129 221.339  1.00  0.00    -0.502 OA
ATOM     21  H   UNL     1     222.516 223.097 221.200  1.00  0.00     0.293 HD
ENDBRANCH  16  20
BRANCH  17  22
ATOM     22  O   UNL     1     221.123 222.248 218.846  1.00  0.00    -0.504 OA
ATOM     23  H   UNL     1     220.658 222.688 218.062  1.00  0.00     0.293 HD
ENDBRANCH  17  22
ENDBRANCH   1  12
BRANCH   2  24
ATOM     24  O   UNL     1     216.089 222.323 220.360  1.00  0.00    -0.502 OA
ATOM     25  H   UNL     1     216.826 222.770 219.828  1.00  0.00     0.293 HD
ENDBRANCH   2  24
BRANCH   6  26
ATOM     26  O   UNL     1     211.981 218.941 220.102  1.00  0.00    -0.507 OA
ATOM     27  H   UNL     1     211.162 218.595 220.579  1.00  0.00     0.293 HD
ENDBRANCH   6  26
BRANCH   8  28
ATOM     28  O   UNL     1     214.343 214.764 219.911  1.00  0.00    -0.508 OA
ATOM     29  H   UNL     1     213.664 214.209 220.419  1.00  0.00     0.293 HD
ENDBRANCH   8  28
TORSDOF 7
ENDMDL
