MODEL 1
REMARK VINA RESULT:    -3.711      0.000      0.000
REMARK INTER + INTRA:          -7.691
REMARK INTER:                  -6.532
REMARK INTRA:                  -1.159
REMARK UNBOUND:                -1.159
REMARK SMILES CCCCCCCCCCCCCCC(=O)[O-]
REMARK SMILES IDX 9 1 10 2 11 3 12 4 13 5 14 6 15 7 16 8 17 9 8 10 7 11 6 12
REMARK SMILES IDX 5 13 4 14 3 15 2 16 1 17
REMARK H PARENT
REMARK Flexibility Score: inf
ROOT
ATOM      1  C   UNL     1     -43.938 -37.788  13.912  1.00  0.00     0.000 C 
ENDROOT
BRANCH   1   2
ATOM      2  C   UNL     1     -44.055 -38.251  15.372  1.00  0.00     0.000 C 
BRANCH   2   3
ATOM      3  C   UNL     1     -45.254 -37.603  16.096  1.00  0.00     0.000 C 
BRANCH   3   4
ATOM      4  C   UNL     1     -45.767 -38.422  17.292  1.00  0.00     0.000 C 
BRANCH   4   5
ATOM      5  C   UNL     1     -45.893 -37.588  18.578  1.00  0.00     0.006 C 
BRANCH   5   6
ATOM      6  C   UNL     1     -44.529 -37.122  19.104  1.00  0.00     0.053 C 
BRANCH   6   7
ATOM      7  C   UNL     1     -44.588 -36.759  20.556  1.00  0.00     0.041 C 
ATOM      8  O   UNL     1     -43.969 -35.748  20.981  1.00  0.00    -0.550 OA
ATOM      9  O   UNL     1     -45.357 -37.515  21.432  1.00  0.00    -0.550 OA
ENDBRANCH   6   7
ENDBRANCH   5   6
ENDBRANCH   4   5
ENDBRANCH   3   4
ENDBRANCH   2   3
ENDBRANCH   1   2
BRANCH   1  10
ATOM     10  C   UNL     1     -45.123 -38.287  13.078  1.00  0.00     0.000 C 
BRANCH  10  11
ATOM     11  C   UNL     1     -46.082 -37.139  12.742  1.00  0.00    -0.000 C 
BRANCH  11  12
ATOM     12  C   UNL     1     -45.309 -35.889  12.295  1.00  0.00    -0.000 C 
BRANCH  12  13
ATOM     13  C   UNL     1     -46.125 -34.598  12.464  1.00  0.00    -0.000 C 
BRANCH  13  14
ATOM     14  C   UNL     1     -45.568 -33.687  13.572  1.00  0.00    -0.000 C 
BRANCH  14  15
ATOM     15  C   UNL     1     -45.853 -34.222  14.986  1.00  0.00    -0.000 C 
BRANCH  15  16
ATOM     16  C   UNL     1     -45.054 -33.535  16.108  1.00  0.00    -0.003 C 
ATOM     17  C   UNL     1     -44.398 -32.229  15.661  1.00  0.00     0.004 C 
ENDBRANCH  15  16
ENDBRANCH  14  15
ENDBRANCH  13  14
ENDBRANCH  12  13
ENDBRANCH  11  12
ENDBRANCH  10  11
ENDBRANCH   1  10
TORSDOF 13
ENDMDL
MODEL 2
REMARK VINA RESULT:    -3.662      0.853      3.367
REMARK INTER + INTRA:          -7.604
REMARK INTER:                  -6.188
REMARK INTRA:                  -1.415
REMARK UNBOUND:                -1.159
REMARK SMILES CCCCCCCCCCCCCCC(=O)[O-]
REMARK SMILES IDX 9 1 10 2 11 3 12 4 13 5 14 6 15 7 16 8 17 9 8 10 7 11 6 12
REMARK SMILES IDX 5 13 4 14 3 15 2 16 1 17
REMARK H PARENT
REMARK Flexibility Score: inf
ROOT
ATOM      1  C   UNL     1     -44.618 -34.482  16.680  1.00  0.00     0.000 C 
ENDROOT
BRANCH   1   2
ATOM      2  C   UNL     1     -45.461 -35.714  16.317  1.00  0.00     0.000 C 
BRANCH   2   3
ATOM      3  C   UNL     1     -44.701 -37.035  16.558  1.00  0.00     0.000 C 
BRANCH   3   4
ATOM      4  C   UNL     1     -45.501 -38.065  17.373  1.00  0.00     0.000 C 
BRANCH   4   5
ATOM      5  C   UNL     1     -45.700 -37.644  18.839  1.00  0.00     0.006 C 
BRANCH   5   6
ATOM      6  C   UNL     1     -44.428 -37.039  19.447  1.00  0.00     0.053 C 
BRANCH   6   7
ATOM      7  C   UNL     1     -44.657 -36.554  20.845  1.00  0.00     0.041 C 
ATOM      8  O   UNL     1     -44.079 -35.513  21.257  1.00  0.00    -0.550 OA
ATOM      9  O   UNL     1     -45.537 -37.229  21.681  1.00  0.00    -0.550 OA
ENDBRANCH   6   7
ENDBRANCH   5   6
ENDBRANCH   4   5
ENDBRANCH   3   4
ENDBRANCH   2   3
ENDBRANCH   1   2
BRANCH   1  10
ATOM     10  C   UNL     1     -45.414 -33.189  16.475  1.00  0.00     0.000 C 
BRANCH  10  11
ATOM     11  C   UNL     1     -44.778 -32.317  15.385  1.00  0.00    -0.000 C 
BRANCH  11  12
ATOM     12  C   UNL     1     -45.717 -32.171  14.180  1.00  0.00    -0.000 C 
BRANCH  12  13
ATOM     13  C   UNL     1     -45.265 -33.008  12.974  1.00  0.00    -0.000 C 
BRANCH  13  14
ATOM     14  C   UNL     1     -46.014 -34.348  12.868  1.00  0.00    -0.000 C 
BRANCH  14  15
ATOM     15  C   UNL     1     -45.078 -35.536  12.582  1.00  0.00    -0.000 C 
BRANCH  15  16
ATOM     16  C   UNL     1     -45.690 -36.920  12.864  1.00  0.00    -0.003 C 
ATOM     17  C   UNL     1     -44.637 -38.013  13.041  1.00  0.00     0.004 C 
ENDBRANCH  15  16
ENDBRANCH  14  15
ENDBRANCH  13  14
ENDBRANCH  12  13
ENDBRANCH  11  12
ENDBRANCH  10  11
ENDBRANCH   1  10
TORSDOF 13
ENDMDL
MODEL 3
REMARK VINA RESULT:    -3.496      2.878      5.874
REMARK INTER + INTRA:          -7.312
REMARK INTER:                  -6.036
REMARK INTRA:                  -1.275
REMARK UNBOUND:                -1.159
REMARK SMILES CCCCCCCCCCCCCCC(=O)[O-]
REMARK SMILES IDX 9 1 10 2 11 3 12 4 13 5 14 6 15 7 16 8 17 9 8 10 7 11 6 12
REMARK SMILES IDX 5 13 4 14 3 15 2 16 1 17
REMARK H PARENT
REMARK Flexibility Score: inf
ROOT
ATOM      1  C   UNL     1     -44.408 -37.782  15.148  1.00  0.00     0.000 C 
ENDROOT
BRANCH   1   2
ATOM      2  C   UNL     1     -44.297 -37.611  13.625  1.00  0.00     0.000 C 
BRANCH   2   3
ATOM      3  C   UNL     1     -45.559 -36.965  13.015  1.00  0.00     0.000 C 
BRANCH   3   4
ATOM      4  C   UNL     1     -45.259 -35.741  12.134  1.00  0.00     0.000 C 
BRANCH   4   5
ATOM      5  C   UNL     1     -46.001 -34.476  12.595  1.00  0.00     0.006 C 
BRANCH   5   6
ATOM      6  C   UNL     1     -45.750 -34.162  14.076  1.00  0.00     0.053 C 
BRANCH   6   7
ATOM      7  C   UNL     1     -45.276 -32.755  14.273  1.00  0.00     0.041 C 
ATOM      8  O   UNL     1     -45.519 -32.151  15.352  1.00  0.00    -0.550 OA
ATOM      9  O   UNL     1     -44.537 -32.123  13.281  1.00  0.00    -0.550 OA
ENDBRANCH   6   7
ENDBRANCH   5   6
ENDBRANCH   4   5
ENDBRANCH   3   4
ENDBRANCH   2   3
ENDBRANCH   1   2
BRANCH   1  10
ATOM     10  C   UNL     1     -45.869 -37.956  15.577  1.00  0.00     0.000 C 
BRANCH  10  11
ATOM     11  C   UNL     1     -46.117 -37.325  16.953  1.00  0.00    -0.000 C 
BRANCH  11  12
ATOM     12  C   UNL     1     -45.228 -36.091  17.161  1.00  0.00    -0.000 C 
BRANCH  12  13
ATOM     13  C   UNL     1     -44.673 -35.996  18.590  1.00  0.00    -0.000 C 
BRANCH  13  14
ATOM     14  C   UNL     1     -45.281 -37.050  19.532  1.00  0.00    -0.000 C 
BRANCH  14  15
ATOM     15  C   UNL     1     -44.922 -36.809  21.009  1.00  0.00    -0.000 C 
BRANCH  15  16
ATOM     16  C   UNL     1     -44.104 -35.533  21.273  1.00  0.00    -0.003 C 
ATOM     17  C   UNL     1     -44.916 -34.431  21.952  1.00  0.00     0.004 C 
ENDBRANCH  15  16
ENDBRANCH  14  15
ENDBRANCH  13  14
ENDBRANCH  12  13
ENDBRANCH  11  12
ENDBRANCH  10  11
ENDBRANCH   1  10
TORSDOF 13
ENDMDL
MODEL 4
REMARK VINA RESULT:    -3.400      3.006      6.283
REMARK INTER + INTRA:          -7.143
REMARK INTER:                  -5.819
REMARK INTRA:                  -1.324
REMARK UNBOUND:                -1.159
REMARK SMILES CCCCCCCCCCCCCCC(=O)[O-]
REMARK SMILES IDX 9 1 10 2 11 3 12 4 13 5 14 6 15 7 16 8 17 9 8 10 7 11 6 12
REMARK SMILES IDX 5 13 4 14 3 15 2 16 1 17
REMARK H PARENT
REMARK Flexibility Score: inf
ROOT
ATOM      1  C   UNL     1     -44.802 -33.444  16.304  1.00  0.00     0.000 C 
ENDROOT
BRANCH   1   2
ATOM      2  C   UNL     1     -45.897 -33.858  15.309  1.00  0.00     0.000 C 
BRANCH   2   3
ATOM      3  C   UNL     1     -45.756 -33.137  13.952  1.00  0.00     0.000 C 
BRANCH   3   4
ATOM      4  C   UNL     1     -45.444 -34.083  12.781  1.00  0.00     0.000 C 
BRANCH   4   5
ATOM      5  C   UNL     1     -45.763 -35.554  13.099  1.00  0.00     0.006 C 
BRANCH   5   6
ATOM      6  C   UNL     1     -44.634 -36.499  12.668  1.00  0.00     0.053 C 
BRANCH   6   7
ATOM      7  C   UNL     1     -44.771 -37.852  13.297  1.00  0.00     0.041 C 
ATOM      8  O   UNL     1     -45.666 -38.646  12.900  1.00  0.00    -0.550 OA
ATOM      9  O   UNL     1     -43.890 -38.249  14.294  1.00  0.00    -0.550 OA
ENDBRANCH   6   7
ENDBRANCH   5   6
ENDBRANCH   4   5
ENDBRANCH   3   4
ENDBRANCH   2   3
ENDBRANCH   1   2
BRANCH   1  10
ATOM     10  C   UNL     1     -44.371 -34.631  17.174  1.00  0.00     0.000 C 
BRANCH  10  11
ATOM     11  C   UNL     1     -45.058 -35.924  16.720  1.00  0.00    -0.000 C 
BRANCH  11  12
ATOM     12  C   UNL     1     -45.419 -36.807  17.924  1.00  0.00    -0.000 C 
BRANCH  12  13
ATOM     13  C   UNL     1     -44.253 -36.965  18.910  1.00  0.00    -0.000 C 
BRANCH  13  14
ATOM     14  C   UNL     1     -44.722 -37.048  20.374  1.00  0.00    -0.000 C 
BRANCH  14  15
ATOM     15  C   UNL     1     -45.851 -36.053  20.696  1.00  0.00    -0.000 C 
BRANCH  15  16
ATOM     16  C   UNL     1     -45.393 -34.594  20.869  1.00  0.00    -0.003 C 
ATOM     17  C   UNL     1     -44.964 -34.267  22.299  1.00  0.00     0.004 C 
ENDBRANCH  15  16
ENDBRANCH  14  15
ENDBRANCH  13  14
ENDBRANCH  12  13
ENDBRANCH  11  12
ENDBRANCH  10  11
ENDBRANCH   1  10
TORSDOF 13
ENDMDL
MODEL 5
REMARK VINA RESULT:    -3.339      4.225      7.681
REMARK INTER + INTRA:          -7.037
REMARK INTER:                  -6.250
REMARK INTRA:                  -0.786
REMARK UNBOUND:                -1.159
REMARK SMILES CCCCCCCCCCCCCCC(=O)[O-]
REMARK SMILES IDX 9 1 10 2 11 3 12 4 13 5 14 6 15 7 16 8 17 9 8 10 7 11 6 12
REMARK SMILES IDX 5 13 4 14 3 15 2 16 1 17
REMARK H PARENT
REMARK Flexibility Score: inf
ROOT
ATOM      1  C   UNL     1     -44.968 -36.447  19.132  1.00  0.00     0.000 C 
ENDROOT
BRANCH   1   2
ATOM      2  C   UNL     1     -45.918 -37.615  18.828  1.00  0.00     0.000 C 
BRANCH   2   3
ATOM      3  C   UNL     1     -45.576 -38.316  17.497  1.00  0.00     0.000 C 
BRANCH   3   4
ATOM      4  C   UNL     1     -44.195 -37.935  16.939  1.00  0.00     0.000 C 
BRANCH   4   5
ATOM      5  C   UNL     1     -44.091 -38.128  15.416  1.00  0.00     0.006 C 
BRANCH   5   6
ATOM      6  C   UNL     1     -44.741 -36.975  14.639  1.00  0.00     0.053 C 
BRANCH   6   7
ATOM      7  C   UNL     1     -44.611 -37.160  13.159  1.00  0.00     0.041 C 
ATOM      8  O   UNL     1     -44.573 -38.320  12.667  1.00  0.00    -0.550 OA
ATOM      9  O   UNL     1     -44.567 -36.054  12.320  1.00  0.00    -0.550 OA
ENDBRANCH   6   7
ENDBRANCH   5   6
ENDBRANCH   4   5
ENDBRANCH   3   4
ENDBRANCH   2   3
ENDBRANCH   1   2
BRANCH   1  10
ATOM     10  C   UNL     1     -44.436 -36.529  20.567  1.00  0.00     0.000 C 
BRANCH  10  11
ATOM     11  C   UNL     1     -45.587 -36.577  21.579  1.00  0.00    -0.000 C 
BRANCH  11  12
ATOM     12  C   UNL     1     -45.723 -35.240  22.323  1.00  0.00    -0.000 C 
BRANCH  12  13
ATOM     13  C   UNL     1     -44.475 -34.355  22.178  1.00  0.00    -0.000 C 
BRANCH  13  14
ATOM     14  C   UNL     1     -44.603 -33.023  22.937  1.00  0.00    -0.000 C 
BRANCH  14  15
ATOM     15  C   UNL     1     -43.346 -32.678  23.755  1.00  0.00    -0.000 C 
BRANCH  15  16
ATOM     16  C   UNL     1     -43.449 -32.992  25.258  1.00  0.00    -0.003 C 
ATOM     17  C   UNL     1     -44.869 -32.847  25.803  1.00  0.00     0.004 C 
ENDBRANCH  15  16
ENDBRANCH  14  15
ENDBRANCH  13  14
ENDBRANCH  12  13
ENDBRANCH  11  12
ENDBRANCH  10  11
ENDBRANCH   1  10
TORSDOF 13
ENDMDL
MODEL 6
REMARK VINA RESULT:    -3.328      6.696     11.225
REMARK INTER + INTRA:          -7.016
REMARK INTER:                  -5.825
REMARK INTRA:                  -1.191
REMARK UNBOUND:                -1.159
REMARK SMILES CCCCCCCCCCCCCCC(=O)[O-]
REMARK SMILES IDX 9 1 10 2 11 3 12 4 13 5 14 6 15 7 16 8 17 9 8 10 7 11 6 12
REMARK SMILES IDX 5 13 4 14 3 15 2 16 1 17
REMARK H PARENT
REMARK Flexibility Score: inf
ROOT
ATOM      1  C   UNL     1     -42.485 -31.985  25.388  1.00  0.00     0.000 C 
ENDROOT
BRANCH   1   2
ATOM      2  C   UNL     1     -42.760 -32.339  23.918  1.00  0.00     0.000 C 
BRANCH   2   3
ATOM      3  C   UNL     1     -43.850 -33.421  23.770  1.00  0.00     0.000 C 
BRANCH   3   4
ATOM      4  C   UNL     1     -45.051 -32.973  22.922  1.00  0.00     0.000 C 
BRANCH   4   5
ATOM      5  C   UNL     1     -45.257 -33.841  21.669  1.00  0.00     0.006 C 
BRANCH   5   6
ATOM      6  C   UNL     1     -45.570 -35.302  22.021  1.00  0.00     0.053 C 
BRANCH   6   7
ATOM      7  C   UNL     1     -44.726 -36.256  21.233  1.00  0.00     0.041 C 
ATOM      8  O   UNL     1     -43.606 -35.890  20.786  1.00  0.00    -0.550 OA
ATOM      9  O   UNL     1     -45.159 -37.559  21.023  1.00  0.00    -0.550 OA
ENDBRANCH   6   7
ENDBRANCH   5   6
ENDBRANCH   4   5
ENDBRANCH   3   4
ENDBRANCH   2   3
ENDBRANCH   1   2
BRANCH   1  10
ATOM     10  C   UNL     1     -43.079 -33.040  26.328  1.00  0.00     0.000 C 
BRANCH  10  11
ATOM     11  C   UNL     1     -42.060 -33.463  27.394  1.00  0.00    -0.000 C 
BRANCH  11  12
ATOM     12  C   UNL     1     -40.980 -32.386  27.580  1.00  0.00    -0.000 C 
BRANCH  12  13
ATOM     13  C   UNL     1     -39.752 -32.907  28.341  1.00  0.00    -0.000 C 
BRANCH  13  14
ATOM     14  C   UNL     1     -38.451 -32.772  27.530  1.00  0.00    -0.000 C 
BRANCH  14  15
ATOM     15  C   UNL     1     -38.260 -33.910  26.512  1.00  0.00    -0.000 C 
BRANCH  15  16
ATOM     16  C   UNL     1     -37.893 -33.447  25.091  1.00  0.00    -0.003 C 
ATOM     17  C   UNL     1     -39.009 -32.653  24.413  1.00  0.00     0.004 C 
ENDBRANCH  15  16
ENDBRANCH  14  15
ENDBRANCH  13  14
ENDBRANCH  12  13
ENDBRANCH  11  12
ENDBRANCH  10  11
ENDBRANCH   1  10
TORSDOF 13
ENDMDL
MODEL 7
REMARK VINA RESULT:    -3.247      2.706      5.019
REMARK INTER + INTRA:          -6.873
REMARK INTER:                  -6.221
REMARK INTRA:                  -0.653
REMARK UNBOUND:                -1.159
REMARK SMILES CCCCCCCCCCCCCCC(=O)[O-]
REMARK SMILES IDX 9 1 10 2 11 3 12 4 13 5 14 6 15 7 16 8 17 9 8 10 7 11 6 12
REMARK SMILES IDX 5 13 4 14 3 15 2 16 1 17
REMARK H PARENT
REMARK Flexibility Score: inf
ROOT
ATOM      1  C   UNL     1     -44.658 -36.737  18.706  1.00  0.00     0.000 C 
ENDROOT
BRANCH   1   2
ATOM      2  C   UNL     1     -45.353 -35.738  19.643  1.00  0.00     0.000 C 
BRANCH   2   3
ATOM      3  C   UNL     1     -44.732 -35.731  21.055  1.00  0.00     0.000 C 
BRANCH   3   4
ATOM      4  C   UNL     1     -45.668 -35.165  22.136  1.00  0.00     0.000 C 
BRANCH   4   5
ATOM      5  C   UNL     1     -45.233 -33.777  22.636  1.00  0.00     0.006 C 
BRANCH   5   6
ATOM      6  C   UNL     1     -43.734 -33.719  22.958  1.00  0.00     0.053 C 
BRANCH   6   7
ATOM      7  C   UNL     1     -43.409 -32.594  23.891  1.00  0.00     0.041 C 
ATOM      8  O   UNL     1     -44.299 -32.124  24.649  1.00  0.00    -0.550 OA
ATOM      9  O   UNL     1     -42.116 -32.090  23.950  1.00  0.00    -0.550 OA
ENDBRANCH   6   7
ENDBRANCH   5   6
ENDBRANCH   4   5
ENDBRANCH   3   4
ENDBRANCH   2   3
ENDBRANCH   1   2
BRANCH   1  10
ATOM     10  C   UNL     1     -45.580 -37.917  18.375  1.00  0.00     0.000 C 
BRANCH  10  11
ATOM     11  C   UNL     1     -45.796 -38.039  16.862  1.00  0.00    -0.000 C 
BRANCH  11  12
ATOM     12  C   UNL     1     -44.775 -37.190  16.090  1.00  0.00    -0.000 C 
BRANCH  12  13
ATOM     13  C   UNL     1     -43.838 -38.041  15.219  1.00  0.00    -0.000 C 
BRANCH  13  14
ATOM     14  C   UNL     1     -44.195 -37.971  13.724  1.00  0.00    -0.000 C 
BRANCH  14  15
ATOM     15  C   UNL     1     -45.343 -36.990  13.428  1.00  0.00    -0.000 C 
BRANCH  15  16
ATOM     16  C   UNL     1     -45.019 -35.920  12.370  1.00  0.00    -0.003 C 
ATOM     17  C   UNL     1     -45.660 -34.566  12.673  1.00  0.00     0.004 C 
ENDBRANCH  15  16
ENDBRANCH  14  15
ENDBRANCH  13  14
ENDBRANCH  12  13
ENDBRANCH  11  12
ENDBRANCH  10  11
ENDBRANCH   1  10
TORSDOF 13
ENDMDL
MODEL 8
REMARK VINA RESULT:    -3.213      2.879      6.077
REMARK INTER + INTRA:          -6.815
REMARK INTER:                  -5.460
REMARK INTRA:                  -1.355
REMARK UNBOUND:                -1.159
REMARK SMILES CCCCCCCCCCCCCCC(=O)[O-]
REMARK SMILES IDX 9 1 10 2 11 3 12 4 13 5 14 6 15 7 16 8 17 9 8 10 7 11 6 12
REMARK SMILES IDX 5 13 4 14 3 15 2 16 1 17
REMARK H PARENT
REMARK Flexibility Score: inf
ROOT
ATOM      1  C   UNL     1     -44.498 -32.177  14.310  1.00  0.00     0.000 C 
ENDROOT
BRANCH   1   2
ATOM      2  C   UNL     1     -45.799 -32.018  13.509  1.00  0.00     0.000 C 
BRANCH   2   3
ATOM      3  C   UNL     1     -46.124 -33.270  12.668  1.00  0.00     0.000 C 
BRANCH   3   4
ATOM      4  C   UNL     1     -45.087 -34.396  12.816  1.00  0.00     0.000 C 
BRANCH   4   5
ATOM      5  C   UNL     1     -45.715 -35.799  12.751  1.00  0.00     0.006 C 
BRANCH   5   6
ATOM      6  C   UNL     1     -45.597 -36.549  14.084  1.00  0.00     0.053 C 
BRANCH   6   7
ATOM      7  C   UNL     1     -44.840 -37.833  13.934  1.00  0.00     0.041 C 
ATOM      8  O   UNL     1     -45.098 -38.612  12.978  1.00  0.00    -0.550 OA
ATOM      9  O   UNL     1     -43.826 -38.152  14.828  1.00  0.00    -0.550 OA
ENDBRANCH   6   7
ENDBRANCH   5   6
ENDBRANCH   4   5
ENDBRANCH   3   4
ENDBRANCH   2   3
ENDBRANCH   1   2
BRANCH   1  10
ATOM     10  C   UNL     1     -44.758 -32.041  15.815  1.00  0.00     0.000 C 
BRANCH  10  11
ATOM     11  C   UNL     1     -46.121 -32.634  16.194  1.00  0.00    -0.000 C 
BRANCH  11  12
ATOM     12  C   UNL     1     -45.962 -33.766  17.219  1.00  0.00    -0.000 C 
BRANCH  12  13
ATOM     13  C   UNL     1     -44.629 -34.515  17.070  1.00  0.00    -0.000 C 
BRANCH  13  14
ATOM     14  C   UNL     1     -44.689 -35.947  17.629  1.00  0.00    -0.000 C 
BRANCH  14  15
ATOM     15  C   UNL     1     -44.341 -36.020  19.126  1.00  0.00    -0.000 C 
BRANCH  15  16
ATOM     16  C   UNL     1     -45.337 -36.825  19.981  1.00  0.00    -0.003 C 
ATOM     17  C   UNL     1     -45.401 -36.347  21.431  1.00  0.00     0.004 C 
ENDBRANCH  15  16
ENDBRANCH  14  15
ENDBRANCH  13  14
ENDBRANCH  12  13
ENDBRANCH  11  12
ENDBRANCH  10  11
ENDBRANCH   1  10
TORSDOF 13
ENDMDL
MODEL 9
REMARK VINA RESULT:    -3.195      9.759     12.748
REMARK INTER + INTRA:          -6.782
REMARK INTER:                  -5.354
REMARK INTRA:                  -1.428
REMARK UNBOUND:                -1.159
REMARK SMILES CCCCCCCCCCCCCCC(=O)[O-]
REMARK SMILES IDX 9 1 10 2 11 3 12 4 13 5 14 6 15 7 16 8 17 9 8 10 7 11 6 12
REMARK SMILES IDX 5 13 4 14 3 15 2 16 1 17
REMARK H PARENT
REMARK Flexibility Score: inf
ROOT
ATOM      1  C   UNL     1     -41.476 -33.091  27.877  1.00  0.00     0.000 C 
ENDROOT
BRANCH   1   2
ATOM      2  C   UNL     1     -40.134 -32.488  27.436  1.00  0.00     0.000 C 
BRANCH   2   3
ATOM      3  C   UNL     1     -38.967 -32.933  28.342  1.00  0.00     0.000 C 
BRANCH   3   4
ATOM      4  C   UNL     1     -37.908 -33.776  27.612  1.00  0.00     0.000 C 
BRANCH   4   5
ATOM      5  C   UNL     1     -38.267 -34.045  26.141  1.00  0.00     0.006 C 
BRANCH   5   6
ATOM      6  C   UNL     1     -37.430 -33.197  25.174  1.00  0.00     0.053 C 
BRANCH   6   7
ATOM      7  C   UNL     1     -38.191 -32.860  23.929  1.00  0.00     0.041 C 
ATOM      8  O   UNL     1     -39.437 -32.675  23.979  1.00  0.00    -0.550 OA
ATOM      9  O   UNL     1     -37.522 -32.716  22.721  1.00  0.00    -0.550 OA
ENDBRANCH   6   7
ENDBRANCH   5   6
ENDBRANCH   4   5
ENDBRANCH   3   4
ENDBRANCH   2   3
ENDBRANCH   1   2
BRANCH   1  10
ATOM     10  C   UNL     1     -42.362 -32.034  28.546  1.00  0.00     0.000 C 
BRANCH  10  11
ATOM     11  C   UNL     1     -43.674 -32.651  29.045  1.00  0.00    -0.000 C 
BRANCH  11  12
ATOM     12  C   UNL     1     -43.913 -34.027  28.406  1.00  0.00    -0.000 C 
BRANCH  12  13
ATOM     13  C   UNL     1     -45.286 -34.131  27.725  1.00  0.00    -0.000 C 
BRANCH  13  14
ATOM     14  C   UNL     1     -45.611 -32.903  26.857  1.00  0.00    -0.000 C 
BRANCH  14  15
ATOM     15  C   UNL     1     -45.066 -33.023  25.423  1.00  0.00    -0.000 C 
BRANCH  15  16
ATOM     16  C   UNL     1     -43.865 -32.112  25.112  1.00  0.00    -0.003 C 
ATOM     17  C   UNL     1     -42.965 -32.665  24.007  1.00  0.00     0.004 C 
ENDBRANCH  15  16
ENDBRANCH  14  15
ENDBRANCH  13  14
ENDBRANCH  12  13
ENDBRANCH  11  12
ENDBRANCH  10  11
ENDBRANCH   1  10
TORSDOF 13
ENDMDL
