MODEL 1
REMARK VINA RESULT:    -4.173      0.000      0.000
REMARK INTER + INTRA:          -6.338
REMARK INTER:                  -5.881
REMARK INTRA:                  -0.458
REMARK UNBOUND:                -0.458
REMARK SMILES CCCCCCCCC(=O)[O-]
REMARK SMILES IDX 6 1 7 2 8 3 9 4 10 5 11 6 5 7 4 8 3 9 2 10 1 11
REMARK H PARENT
REMARK Flexibility Score: inf
ROOT
ATOM      1  C   UNL     1      12.463  48.966  96.075  1.00  0.00     0.000 C 
ENDROOT
BRANCH   1   2
ATOM      2  C   UNL     1      11.002  48.502  96.181  1.00  0.00     0.006 C 
BRANCH   2   3
ATOM      3  C   UNL     1      10.514  48.414  97.633  1.00  0.00     0.053 C 
BRANCH   3   4
ATOM      4  C   UNL     1       9.267  49.219  97.814  1.00  0.00     0.041 C 
ATOM      5  O   UNL     1       9.317  50.352  98.363  1.00  0.00    -0.550 OA
ATOM      6  O   UNL     1       8.040  48.699  97.422  1.00  0.00    -0.550 OA
ENDBRANCH   3   4
ENDBRANCH   2   3
ENDBRANCH   1   2
BRANCH   1   7
ATOM      7  C   UNL     1      12.963  49.645  97.361  1.00  0.00     0.000 C 
BRANCH   7   8
ATOM      8  C   UNL     1      14.054  50.676  97.047  1.00  0.00    -0.000 C 
BRANCH   8   9
ATOM      9  C   UNL     1      14.164  50.919  95.538  1.00  0.00    -0.000 C 
BRANCH   9  10
ATOM     10  C   UNL     1      15.579  50.615  95.033  1.00  0.00    -0.003 C 
ATOM     11  C   UNL     1      15.581  49.418  94.086  1.00  0.00     0.004 C 
ENDBRANCH   9  10
ENDBRANCH   8   9
ENDBRANCH   7   8
ENDBRANCH   1   7
TORSDOF 7
ENDMDL
MODEL 2
REMARK VINA RESULT:    -4.116      0.949      1.657
REMARK INTER + INTRA:          -6.258
REMARK INTER:                  -5.850
REMARK INTRA:                  -0.408
REMARK UNBOUND:                -0.458
REMARK SMILES CCCCCCCCC(=O)[O-]
REMARK SMILES IDX 6 1 7 2 8 3 9 4 10 5 11 6 5 7 4 8 3 9 2 10 1 11
REMARK H PARENT
REMARK Flexibility Score: inf
ROOT
ATOM      1  C   UNL     1      11.089  48.865  96.631  1.00  0.00     0.000 C 
ENDROOT
BRANCH   1   2
ATOM      2  C   UNL     1      10.835  49.103  98.128  1.00  0.00     0.006 C 
BRANCH   2   3
ATOM      3  C   UNL     1       9.625  50.013  98.384  1.00  0.00     0.053 C 
BRANCH   3   4
ATOM      4  C   UNL     1       8.450  49.556  97.579  1.00  0.00     0.041 C 
ATOM      5  O   UNL     1       7.881  48.465  97.850  1.00  0.00    -0.550 OA
ATOM      6  O   UNL     1       8.012  50.310  96.498  1.00  0.00    -0.550 OA
ENDBRANCH   3   4
ENDBRANCH   2   3
ENDBRANCH   1   2
BRANCH   1   7
ATOM      7  C   UNL     1      12.571  49.016  96.252  1.00  0.00     0.000 C 
BRANCH   7   8
ATOM      8  C   UNL     1      13.371  49.634  97.406  1.00  0.00    -0.000 C 
BRANCH   8   9
ATOM      9  C   UNL     1      14.110  50.897  96.949  1.00  0.00    -0.000 C 
BRANCH   9  10
ATOM     10  C   UNL     1      14.222  50.946  95.421  1.00  0.00    -0.003 C 
ATOM     11  C   UNL     1      15.635  50.598  94.960  1.00  0.00     0.004 C 
ENDBRANCH   9  10
ENDBRANCH   8   9
ENDBRANCH   7   8
ENDBRANCH   1   7
TORSDOF 7
ENDMDL
MODEL 3
REMARK VINA RESULT:    -3.952      4.593      6.291
REMARK INTER + INTRA:          -6.027
REMARK INTER:                  -5.493
REMARK INTRA:                  -0.534
REMARK UNBOUND:                -0.458
REMARK SMILES CCCCCCCCC(=O)[O-]
REMARK SMILES IDX 6 1 7 2 8 3 9 4 10 5 11 6 5 7 4 8 3 9 2 10 1 11
REMARK H PARENT
REMARK Flexibility Score: inf
ROOT
ATOM      1  C   UNL     1      15.314  49.387  93.808  1.00  0.00     0.000 C 
ENDROOT
BRANCH   1   2
ATOM      2  C   UNL     1      16.332  48.238  93.891  1.00  0.00     0.006 C 
BRANCH   2   3
ATOM      3  C   UNL     1      16.772  47.944  95.332  1.00  0.00     0.053 C 
BRANCH   3   4
ATOM      4  C   UNL     1      17.604  46.701  95.379  1.00  0.00     0.041 C 
ATOM      5  O   UNL     1      17.665  45.940  94.377  1.00  0.00    -0.550 OA
ATOM      6  O   UNL     1      18.273  46.356  96.546  1.00  0.00    -0.550 OA
ENDBRANCH   3   4
ENDBRANCH   2   3
ENDBRANCH   1   2
BRANCH   1   7
ATOM      7  C   UNL     1      15.591  50.498  94.832  1.00  0.00     0.000 C 
BRANCH   7   8
ATOM      8  C   UNL     1      14.290  50.970  95.493  1.00  0.00    -0.000 C 
BRANCH   8   9
ATOM      9  C   UNL     1      14.321  50.727  97.006  1.00  0.00    -0.000 C 
BRANCH   9  10
ATOM     10  C   UNL     1      13.081  49.951  97.464  1.00  0.00    -0.003 C 
ATOM     11  C   UNL     1      12.617  48.970  96.390  1.00  0.00     0.004 C 
ENDBRANCH   9  10
ENDBRANCH   8   9
ENDBRANCH   7   8
ENDBRANCH   1   7
TORSDOF 7
ENDMDL
MODEL 4
REMARK VINA RESULT:    -3.860     13.134     14.374
REMARK INTER + INTRA:          -5.898
REMARK INTER:                  -5.434
REMARK INTRA:                  -0.464
REMARK UNBOUND:                -0.458
REMARK SMILES CCCCCCCCC(=O)[O-]
REMARK SMILES IDX 6 1 7 2 8 3 9 4 10 5 11 6 5 7 4 8 3 9 2 10 1 11
REMARK H PARENT
REMARK Flexibility Score: inf
ROOT
ATOM      1  C   UNL     1      19.919  39.423  96.091  1.00  0.00     0.000 C 
ENDROOT
BRANCH   1   2
ATOM      2  C   UNL     1      21.236  40.160  96.378  1.00  0.00     0.006 C 
BRANCH   2   3
ATOM      3  C   UNL     1      21.799  39.844  97.770  1.00  0.00     0.053 C 
BRANCH   3   4
ATOM      4  C   UNL     1      23.100  39.114  97.653  1.00  0.00     0.041 C 
ATOM      5  O   UNL     1      23.518  38.407  98.608  1.00  0.00    -0.550 OA
ATOM      6  O   UNL     1      23.876  39.254  96.510  1.00  0.00    -0.550 OA
ENDBRANCH   3   4
ENDBRANCH   2   3
ENDBRANCH   1   2
BRANCH   1   7
ATOM      7  C   UNL     1      19.278  38.843  97.361  1.00  0.00     0.000 C 
BRANCH   7   8
ATOM      8  C   UNL     1      17.946  38.154  97.037  1.00  0.00    -0.000 C 
BRANCH   8   9
ATOM      9  C   UNL     1      17.894  37.721  95.567  1.00  0.00    -0.000 C 
BRANCH   9  10
ATOM     10  C   UNL     1      16.544  38.081  94.935  1.00  0.00    -0.003 C 
ATOM     11  C   UNL     1      16.351  39.595  94.873  1.00  0.00     0.004 C 
ENDBRANCH   9  10
ENDBRANCH   8   9
ENDBRANCH   7   8
ENDBRANCH   1   7
TORSDOF 7
ENDMDL
MODEL 5
REMARK VINA RESULT:    -3.779     10.015     11.176
REMARK INTER + INTRA:          -5.783
REMARK INTER:                  -5.534
REMARK INTRA:                  -0.249
REMARK UNBOUND:                -0.458
REMARK SMILES CCCCCCCCC(=O)[O-]
REMARK SMILES IDX 6 1 7 2 8 3 9 4 10 5 11 6 5 7 4 8 3 9 2 10 1 11
REMARK H PARENT
REMARK Flexibility Score: inf
ROOT
ATOM      1  C   UNL     1      15.619  40.516  95.192  1.00  0.00     0.000 C 
ENDROOT
BRANCH   1   2
ATOM      2  C   UNL     1      16.521  39.536  94.425  1.00  0.00     0.006 C 
BRANCH   2   3
ATOM      3  C   UNL     1      16.757  38.228  95.191  1.00  0.00     0.053 C 
BRANCH   3   4
ATOM      4  C   UNL     1      18.021  38.309  95.986  1.00  0.00     0.041 C 
ATOM      5  O   UNL     1      18.131  37.674  97.069  1.00  0.00    -0.550 OA
ATOM      6  O   UNL     1      19.061  39.125  95.559  1.00  0.00    -0.550 OA
ENDBRANCH   3   4
ENDBRANCH   2   3
ENDBRANCH   1   2
BRANCH   1   7
ATOM      7  C   UNL     1      15.053  41.626  94.292  1.00  0.00     0.000 C 
BRANCH   7   8
ATOM      8  C   UNL     1      13.974  42.429  95.028  1.00  0.00    -0.000 C 
BRANCH   8   9
ATOM      9  C   UNL     1      12.774  42.705  94.114  1.00  0.00    -0.000 C 
BRANCH   9  10
ATOM     10  C   UNL     1      11.500  42.940  94.934  1.00  0.00    -0.003 C 
ATOM     11  C   UNL     1      11.442  42.007  96.142  1.00  0.00     0.004 C 
ENDBRANCH   9  10
ENDBRANCH   8   9
ENDBRANCH   7   8
ENDBRANCH   1   7
TORSDOF 7
ENDMDL
MODEL 6
REMARK VINA RESULT:    -3.752      3.352      5.749
REMARK INTER + INTRA:          -5.744
REMARK INTER:                  -5.373
REMARK INTRA:                  -0.371
REMARK UNBOUND:                -0.458
REMARK SMILES CCCCCCCCC(=O)[O-]
REMARK SMILES IDX 6 1 7 2 8 3 9 4 10 5 11 6 5 7 4 8 3 9 2 10 1 11
REMARK H PARENT
REMARK Flexibility Score: inf
ROOT
ATOM      1  C   UNL     1      12.038  49.198  96.886  1.00  0.00     0.000 C 
ENDROOT
BRANCH   1   2
ATOM      2  C   UNL     1      13.479  49.467  97.346  1.00  0.00     0.006 C 
BRANCH   2   3
ATOM      3  C   UNL     1      14.135  50.628  96.586  1.00  0.00     0.053 C 
BRANCH   3   4
ATOM      4  C   UNL     1      15.247  50.123  95.723  1.00  0.00     0.041 C 
ATOM      5  O   UNL     1      15.782  50.882  94.870  1.00  0.00    -0.550 OA
ATOM      6  O   UNL     1      15.662  48.801  95.823  1.00  0.00    -0.550 OA
ENDBRANCH   3   4
ENDBRANCH   2   3
ENDBRANCH   1   2
BRANCH   1   7
ATOM      7  C   UNL     1      11.023  49.286  98.036  1.00  0.00     0.000 C 
BRANCH   7   8
ATOM      8  C   UNL     1       9.710  48.589  97.662  1.00  0.00    -0.000 C 
BRANCH   8   9
ATOM      9  C   UNL     1       9.771  48.025  96.238  1.00  0.00    -0.000 C 
BRANCH   9  10
ATOM     10  C   UNL     1       9.526  46.512  96.234  1.00  0.00    -0.003 C 
ATOM     11  C   UNL     1       8.866  46.057  97.533  1.00  0.00     0.004 C 
ENDBRANCH   9  10
ENDBRANCH   8   9
ENDBRANCH   7   8
ENDBRANCH   1   7
TORSDOF 7
ENDMDL
MODEL 7
REMARK VINA RESULT:    -3.713      3.036      5.623
REMARK INTER + INTRA:          -5.691
REMARK INTER:                  -5.352
REMARK INTRA:                  -0.338
REMARK UNBOUND:                -0.458
REMARK SMILES CCCCCCCCC(=O)[O-]
REMARK SMILES IDX 6 1 7 2 8 3 9 4 10 5 11 6 5 7 4 8 3 9 2 10 1 11
REMARK H PARENT
REMARK Flexibility Score: inf
ROOT
ATOM      1  C   UNL     1      12.143  48.894  95.901  1.00  0.00     0.000 C 
ENDROOT
BRANCH   1   2
ATOM      2  C   UNL     1      12.761  49.247  97.263  1.00  0.00     0.006 C 
BRANCH   2   3
ATOM      3  C   UNL     1      13.763  50.406  97.173  1.00  0.00     0.053 C 
BRANCH   3   4
ATOM      4  C   UNL     1      14.610  50.271  95.948  1.00  0.00     0.041 C 
ATOM      5  O   UNL     1      14.520  51.117  95.019  1.00  0.00    -0.550 OA
ATOM      6  O   UNL     1      15.462  49.183  95.807  1.00  0.00    -0.550 OA
ENDBRANCH   3   4
ENDBRANCH   2   3
ENDBRANCH   1   2
BRANCH   1   7
ATOM      7  C   UNL     1      10.773  48.210  96.033  1.00  0.00     0.000 C 
BRANCH   7   8
ATOM      8  C   UNL     1      10.296  48.217  97.491  1.00  0.00    -0.000 C 
BRANCH   8   9
ATOM      9  C   UNL     1       8.911  48.863  97.615  1.00  0.00    -0.000 C 
BRANCH   9  10
ATOM     10  C   UNL     1       9.011  50.266  98.224  1.00  0.00    -0.003 C 
ATOM     11  C   UNL     1       7.726  51.058  97.998  1.00  0.00     0.004 C 
ENDBRANCH   9  10
ENDBRANCH   8   9
ENDBRANCH   7   8
ENDBRANCH   1   7
TORSDOF 7
ENDMDL
MODEL 8
REMARK VINA RESULT:    -3.713      4.274      6.117
REMARK INTER + INTRA:          -5.690
REMARK INTER:                  -5.202
REMARK INTRA:                  -0.487
REMARK UNBOUND:                -0.458
REMARK SMILES CCCCCCCCC(=O)[O-]
REMARK SMILES IDX 6 1 7 2 8 3 9 4 10 5 11 6 5 7 4 8 3 9 2 10 1 11
REMARK H PARENT
REMARK Flexibility Score: inf
ROOT
ATOM      1  C   UNL     1      15.443  50.740  95.227  1.00  0.00     0.000 C 
ENDROOT
BRANCH   1   2
ATOM      2  C   UNL     1      15.836  49.287  94.917  1.00  0.00     0.006 C 
BRANCH   2   3
ATOM      3  C   UNL     1      15.334  48.820  93.545  1.00  0.00     0.053 C 
BRANCH   3   4
ATOM      4  C   UNL     1      16.291  47.840  92.945  1.00  0.00     0.041 C 
ATOM      5  O   UNL     1      16.349  47.695  91.695  1.00  0.00    -0.550 OA
ATOM      6  O   UNL     1      17.085  47.050  93.766  1.00  0.00    -0.550 OA
ENDBRANCH   3   4
ENDBRANCH   2   3
ENDBRANCH   1   2
BRANCH   1   7
ATOM      7  C   UNL     1      14.056  50.851  95.878  1.00  0.00     0.000 C 
BRANCH   7   8
ATOM      8  C   UNL     1      13.967  49.973  97.132  1.00  0.00    -0.000 C 
BRANCH   8   9
ATOM      9  C   UNL     1      12.570  49.360  97.277  1.00  0.00    -0.000 C 
BRANCH   9  10
ATOM     10  C   UNL     1      12.083  48.779  95.945  1.00  0.00    -0.003 C 
ATOM     11  C   UNL     1      10.679  48.194  96.078  1.00  0.00     0.004 C 
ENDBRANCH   9  10
ENDBRANCH   8   9
ENDBRANCH   7   8
ENDBRANCH   1   7
TORSDOF 7
ENDMDL
MODEL 9
REMARK VINA RESULT:    -3.555      3.340      5.121
REMARK INTER + INTRA:          -5.468
REMARK INTER:                  -5.005
REMARK INTRA:                  -0.463
REMARK UNBOUND:                -0.458
REMARK SMILES CCCCCCCCC(=O)[O-]
REMARK SMILES IDX 6 1 7 2 8 3 9 4 10 5 11 6 5 7 4 8 3 9 2 10 1 11
REMARK H PARENT
REMARK Flexibility Score: inf
ROOT
ATOM      1  C   UNL     1      11.856  49.593  97.652  1.00  0.00     0.000 C 
ENDROOT
BRANCH   1   2
ATOM      2  C   UNL     1      13.286  49.274  97.187  1.00  0.00     0.006 C 
BRANCH   2   3
ATOM      3  C   UNL     1      14.057  50.526  96.746  1.00  0.00     0.053 C 
BRANCH   3   4
ATOM      4  C   UNL     1      15.169  50.153  95.819  1.00  0.00     0.041 C 
ATOM      5  O   UNL     1      15.661  51.013  95.041  1.00  0.00    -0.550 OA
ATOM      6  O   UNL     1      15.631  48.844  95.777  1.00  0.00    -0.550 OA
ENDBRANCH   3   4
ENDBRANCH   2   3
ENDBRANCH   1   2
BRANCH   1   7
ATOM      7  C   UNL     1      10.846  48.509  97.246  1.00  0.00     0.000 C 
BRANCH   7   8
ATOM      8  C   UNL     1      11.007  48.137  95.767  1.00  0.00    -0.000 C 
BRANCH   8   9
ATOM      9  C   UNL     1       9.663  48.205  95.033  1.00  0.00    -0.000 C 
BRANCH   9  10
ATOM     10  C   UNL     1       9.696  49.260  93.922  1.00  0.00    -0.003 C 
ATOM     11  C   UNL     1      11.130  49.585  93.512  1.00  0.00     0.004 C 
ENDBRANCH   9  10
ENDBRANCH   8   9
ENDBRANCH   7   8
ENDBRANCH   1   7
TORSDOF 7
ENDMDL
