MODEL 1
REMARK VINA RESULT:    -4.336      0.000      0.000
REMARK INTER + INTRA:          -5.107
REMARK INTER:                  -4.969
REMARK INTRA:                  -0.138
REMARK UNBOUND:                -0.138
REMARK SMILES O=C([O-])C=Cc1ccc(O)cc1
REMARK SMILES IDX 6 1 7 2 12 3 8 4 11 5 9 6 5 7 4 8 2 9 1 10 3 11 10 12
REMARK H PARENT 10 13
REMARK Flexibility Score: inf
ROOT
ATOM      1  C   UNL     1      70.755  38.101  20.412  1.00  0.00    -0.025 A 
ATOM      2  C   UNL     1      70.572  39.228  21.232  1.00  0.00     0.012 A 
ATOM      3  C   UNL     1      71.987  37.417  20.462  1.00  0.00     0.012 A 
ATOM      4  C   UNL     1      71.602  39.678  22.063  1.00  0.00     0.047 A 
ATOM      5  C   UNL     1      73.015  37.870  21.296  1.00  0.00     0.047 A 
ATOM      6  C   UNL     1      72.826  39.003  22.096  1.00  0.00     0.115 A 
ENDROOT
BRANCH   1   7
ATOM      7  C   UNL     1      69.628  37.656  19.555  1.00  0.00     0.010 C 
ATOM      8  C   UNL     1      68.512  37.083  20.030  1.00  0.00     0.025 C 
BRANCH   8   9
ATOM      9  C   UNL     1      67.424  36.646  19.142  1.00  0.00     0.064 C 
ATOM     10  O   UNL     1      67.628  35.715  18.321  1.00  0.00    -0.545 OA
ATOM     11  O   UNL     1      66.171  37.246  19.195  1.00  0.00    -0.545 OA
ENDBRANCH   8   9
ENDBRANCH   1   7
BRANCH   6  12
ATOM     12  O   UNL     1      73.843  39.464  22.929  1.00  0.00    -0.508 OA
ATOM     13  H   UNL     1      73.692  39.599  23.922  1.00  0.00     0.293 HD
ENDBRANCH   6  12
TORSDOF 3
ENDMDL
MODEL 2
REMARK VINA RESULT:    -4.000      1.278      5.973
REMARK INTER + INTRA:          -4.722
REMARK INTER:                  -4.581
REMARK INTRA:                  -0.141
REMARK UNBOUND:                -0.138
REMARK SMILES O=C([O-])C=Cc1ccc(O)cc1
REMARK SMILES IDX 6 1 7 2 12 3 8 4 11 5 9 6 5 7 4 8 2 9 1 10 3 11 10 12
REMARK H PARENT 10 13
REMARK Flexibility Score: inf
ROOT
ATOM      1  C   UNL     1      70.090  37.512  19.610  1.00  0.00    -0.025 A 
ATOM      2  C   UNL     1      70.318  36.667  18.510  1.00  0.00     0.012 A 
ATOM      3  C   UNL     1      68.787  37.600  20.141  1.00  0.00     0.012 A 
ATOM      4  C   UNL     1      69.265  35.947  17.935  1.00  0.00     0.047 A 
ATOM      5  C   UNL     1      67.737  36.877  19.564  1.00  0.00     0.047 A 
ATOM      6  C   UNL     1      67.973  36.051  18.458  1.00  0.00     0.115 A 
ENDROOT
BRANCH   1   7
ATOM      7  C   UNL     1      71.241  38.246  20.190  1.00  0.00     0.010 C 
ATOM      8  C   UNL     1      72.335  37.648  20.683  1.00  0.00     0.025 C 
BRANCH   8   9
ATOM      9  C   UNL     1      73.448  38.416  21.261  1.00  0.00     0.064 C 
ATOM     10  O   UNL     1      73.251  39.125  22.281  1.00  0.00    -0.545 OA
ATOM     11  O   UNL     1      74.719  38.373  20.697  1.00  0.00    -0.545 OA
ENDBRANCH   8   9
ENDBRANCH   1   7
BRANCH   6  12
ATOM     12  O   UNL     1      66.935  35.328  17.875  1.00  0.00    -0.508 OA
ATOM     13  H   UNL     1      66.927  34.315  17.884  1.00  0.00     0.293 HD
ENDBRANCH   6  12
TORSDOF 3
ENDMDL
MODEL 3
REMARK VINA RESULT:    -3.965      1.888      5.503
REMARK INTER + INTRA:          -4.682
REMARK INTER:                  -4.536
REMARK INTRA:                  -0.146
REMARK UNBOUND:                -0.138
REMARK SMILES O=C([O-])C=Cc1ccc(O)cc1
REMARK SMILES IDX 6 1 7 2 12 3 8 4 11 5 9 6 5 7 4 8 2 9 1 10 3 11 10 12
REMARK H PARENT 10 13
REMARK Flexibility Score: inf
ROOT
ATOM      1  C   UNL     1      69.867  37.565  20.020  1.00  0.00    -0.025 A 
ATOM      2  C   UNL     1      69.321  38.696  20.651  1.00  0.00     0.012 A 
ATOM      3  C   UNL     1      68.996  36.652  19.390  1.00  0.00     0.012 A 
ATOM      4  C   UNL     1      67.938  38.899  20.677  1.00  0.00     0.047 A 
ATOM      5  C   UNL     1      67.613  36.859  19.417  1.00  0.00     0.047 A 
ATOM      6  C   UNL     1      67.080  37.981  20.063  1.00  0.00     0.115 A 
ENDROOT
BRANCH   1   7
ATOM      7  C   UNL     1      71.341  37.400  20.010  1.00  0.00     0.010 C 
ATOM      8  C   UNL     1      72.204  38.419  19.894  1.00  0.00     0.025 C 
BRANCH   8   9
ATOM      9  C   UNL     1      73.660  38.208  19.878  1.00  0.00     0.064 C 
ATOM     10  O   UNL     1      74.280  38.070  20.964  1.00  0.00    -0.545 OA
ATOM     11  O   UNL     1      74.364  38.156  18.680  1.00  0.00    -0.545 OA
ENDBRANCH   8   9
ENDBRANCH   1   7
BRANCH   6  12
ATOM     12  O   UNL     1      65.705  38.197  20.097  1.00  0.00    -0.508 OA
ATOM     13  H   UNL     1      65.088  37.590  20.625  1.00  0.00     0.293 HD
ENDBRANCH   6  12
TORSDOF 3
ENDMDL
MODEL 4
REMARK VINA RESULT:    -3.934      1.901      5.634
REMARK INTER + INTRA:          -4.647
REMARK INTER:                  -4.507
REMARK INTRA:                  -0.139
REMARK UNBOUND:                -0.138
REMARK SMILES O=C([O-])C=Cc1ccc(O)cc1
REMARK SMILES IDX 6 1 7 2 12 3 8 4 11 5 9 6 5 7 4 8 2 9 1 10 3 11 10 12
REMARK H PARENT 10 13
REMARK Flexibility Score: inf
ROOT
ATOM      1  C   UNL     1      69.561  37.564  19.776  1.00  0.00    -0.025 A 
ATOM      2  C   UNL     1      68.693  36.601  19.233  1.00  0.00     0.012 A 
ATOM      3  C   UNL     1      69.010  38.670  20.455  1.00  0.00     0.012 A 
ATOM      4  C   UNL     1      67.307  36.751  19.342  1.00  0.00     0.047 A 
ATOM      5  C   UNL     1      67.623  38.816  20.562  1.00  0.00     0.047 A 
ATOM      6  C   UNL     1      66.768  37.858  20.003  1.00  0.00     0.115 A 
ENDROOT
BRANCH   1   7
ATOM      7  C   UNL     1      71.024  37.355  19.644  1.00  0.00     0.010 C 
ATOM      8  C   UNL     1      71.942  38.267  19.996  1.00  0.00     0.025 C 
BRANCH   8   9
ATOM      9  C   UNL     1      73.383  38.021  19.836  1.00  0.00     0.064 C 
ATOM     10  O   UNL     1      73.843  37.735  18.701  1.00  0.00    -0.545 OA
ATOM     11  O   UNL     1      74.249  38.101  20.921  1.00  0.00    -0.545 OA
ENDBRANCH   8   9
ENDBRANCH   1   7
BRANCH   6  12
ATOM     12  O   UNL     1      65.385  37.994  20.104  1.00  0.00    -0.508 OA
ATOM     13  H   UNL     1      64.782  37.188  20.220  1.00  0.00     0.293 HD
ENDBRANCH   6  12
TORSDOF 3
ENDMDL
MODEL 5
REMARK VINA RESULT:    -3.858      1.211      1.536
REMARK INTER + INTRA:          -4.560
REMARK INTER:                  -4.407
REMARK INTRA:                  -0.152
REMARK UNBOUND:                -0.138
REMARK SMILES O=C([O-])C=Cc1ccc(O)cc1
REMARK SMILES IDX 6 1 7 2 12 3 8 4 11 5 9 6 5 7 4 8 2 9 1 10 3 11 10 12
REMARK H PARENT 10 13
REMARK Flexibility Score: inf
ROOT
ATOM      1  C   UNL     1      72.184  38.066  20.595  1.00  0.00    -0.025 A 
ATOM      2  C   UNL     1      71.646  39.037  21.458  1.00  0.00     0.012 A 
ATOM      3  C   UNL     1      73.585  37.940  20.503  1.00  0.00     0.012 A 
ATOM      4  C   UNL     1      72.486  39.881  22.191  1.00  0.00     0.047 A 
ATOM      5  C   UNL     1      74.422  38.785  21.239  1.00  0.00     0.047 A 
ATOM      6  C   UNL     1      73.874  39.759  22.083  1.00  0.00     0.115 A 
ENDROOT
BRANCH   1   7
ATOM      7  C   UNL     1      71.251  37.188  19.846  1.00  0.00     0.010 C 
ATOM      8  C   UNL     1      69.943  37.442  19.702  1.00  0.00     0.025 C 
BRANCH   8   9
ATOM      9  C   UNL     1      69.052  36.537  18.959  1.00  0.00     0.064 C 
ATOM     10  O   UNL     1      69.495  35.907  17.965  1.00  0.00    -0.545 OA
ATOM     11  O   UNL     1      67.726  36.363  19.340  1.00  0.00    -0.545 OA
ENDBRANCH   8   9
ENDBRANCH   1   7
BRANCH   6  12
ATOM     12  O   UNL     1      74.698  40.607  22.820  1.00  0.00    -0.508 OA
ATOM     13  H   UNL     1      74.314  41.319  23.431  1.00  0.00     0.293 HD
ENDBRANCH   6  12
TORSDOF 3
ENDMDL
MODEL 6
REMARK VINA RESULT:    -3.682      2.599      3.057
REMARK INTER + INTRA:          -4.358
REMARK INTER:                  -4.208
REMARK INTRA:                  -0.150
REMARK UNBOUND:                -0.138
REMARK SMILES O=C([O-])C=Cc1ccc(O)cc1
REMARK SMILES IDX 6 1 7 2 12 3 8 4 11 5 9 6 5 7 4 8 2 9 1 10 3 11 10 12
REMARK H PARENT 10 13
REMARK Flexibility Score: inf
ROOT
ATOM      1  C   UNL     1      72.353  38.263  19.774  1.00  0.00    -0.025 A 
ATOM      2  C   UNL     1      72.375  38.736  18.450  1.00  0.00     0.012 A 
ATOM      3  C   UNL     1      73.549  38.278  20.520  1.00  0.00     0.012 A 
ATOM      4  C   UNL     1      73.567  39.187  17.875  1.00  0.00     0.047 A 
ATOM      5  C   UNL     1      74.740  38.731  19.942  1.00  0.00     0.047 A 
ATOM      6  C   UNL     1      74.752  39.184  18.616  1.00  0.00     0.115 A 
ENDROOT
BRANCH   1   7
ATOM      7  C   UNL     1      71.062  37.805  20.342  1.00  0.00     0.010 C 
ATOM      8  C   UNL     1      69.865  38.144  19.841  1.00  0.00     0.025 C 
BRANCH   8   9
ATOM      9  C   UNL     1      68.608  37.675  20.445  1.00  0.00     0.064 C 
ATOM     10  O   UNL     1      68.145  36.551  20.121  1.00  0.00    -0.545 OA
ATOM     11  O   UNL     1      67.923  38.454  21.371  1.00  0.00    -0.545 OA
ENDBRANCH   8   9
ENDBRANCH   1   7
BRANCH   6  12
ATOM     12  O   UNL     1      75.932  39.636  18.030  1.00  0.00    -0.508 OA
ATOM     13  H   UNL     1      75.927  40.129  17.144  1.00  0.00     0.293 HD
ENDBRANCH   6  12
TORSDOF 3
ENDMDL
MODEL 7
REMARK VINA RESULT:    -3.636      3.571      4.204
REMARK INTER + INTRA:          -4.305
REMARK INTER:                  -4.165
REMARK INTRA:                  -0.140
REMARK UNBOUND:                -0.138
REMARK SMILES O=C([O-])C=Cc1ccc(O)cc1
REMARK SMILES IDX 6 1 7 2 12 3 8 4 11 5 9 6 5 7 4 8 2 9 1 10 3 11 10 12
REMARK H PARENT 10 13
REMARK Flexibility Score: inf
ROOT
ATOM      1  C   UNL     1      74.161  38.756  19.173  1.00  0.00    -0.025 A 
ATOM      2  C   UNL     1      74.245  39.760  20.153  1.00  0.00     0.012 A 
ATOM      3  C   UNL     1      74.989  38.845  18.035  1.00  0.00     0.012 A 
ATOM      4  C   UNL     1      75.114  40.843  19.989  1.00  0.00     0.047 A 
ATOM      5  C   UNL     1      75.858  39.929  17.876  1.00  0.00     0.047 A 
ATOM      6  C   UNL     1      75.921  40.932  18.852  1.00  0.00     0.115 A 
ENDROOT
BRANCH   1   7
ATOM      7  C   UNL     1      73.231  37.621  19.397  1.00  0.00     0.010 C 
ATOM      8  C   UNL     1      71.895  37.743  19.402  1.00  0.00     0.025 C 
BRANCH   8   9
ATOM      9  C   UNL     1      71.011  36.592  19.641  1.00  0.00     0.064 C 
ATOM     10  O   UNL     1      71.428  35.429  19.407  1.00  0.00    -0.545 OA
ATOM     11  O   UNL     1      69.718  36.768  20.122  1.00  0.00    -0.545 OA
ENDBRANCH   8   9
ENDBRANCH   1   7
BRANCH   6  12
ATOM     12  O   UNL     1      76.782  42.017  18.703  1.00  0.00    -0.508 OA
ATOM     13  H   UNL     1      77.786  41.912  18.800  1.00  0.00     0.293 HD
ENDBRANCH   6  12
TORSDOF 3
ENDMDL
