MODEL 1
REMARK VINA RESULT:    -2.801      0.000      0.000
REMARK INTER + INTRA:          -3.625
REMARK INTER:                  -3.292
REMARK INTRA:                  -0.333
REMARK UNBOUND:                -0.333
REMARK SMILES [NH3+][C@H](CO)C(=O)[O-]
REMARK SMILES IDX 3 1 2 2 1 3 5 7 6 8 7 9 4 10
REMARK H PARENT 1 4 1 5 1 6 4 11
REMARK Flexibility Score: inf
ROOT
ATOM      1  C   UNL     1      14.319  16.626  46.251  1.00  0.00     0.227 C 
ENDROOT
BRANCH   1   2
ATOM      2  C   UNL     1      14.687  18.076  46.605  1.00  0.00     0.253 C 
BRANCH   2   3
ATOM      3  N   UNL     1      14.169  18.448  47.928  1.00  0.00    -0.348 N 
ATOM      4  H   UNL     1      13.308  17.892  48.139  1.00  0.00     0.345 HD
ATOM      5  H   UNL     1      14.884  18.233  48.661  1.00  0.00     0.345 HD
ATOM      6  H   UNL     1      13.937  19.467  47.968  1.00  0.00     0.345 HD
ENDBRANCH   2   3
BRANCH   2   7
ATOM      7  C   UNL     1      16.177  18.283  46.529  1.00  0.00     0.102 C 
ATOM      8  O   UNL     1      16.909  18.058  47.529  1.00  0.00    -0.544 OA
ATOM      9  O   UNL     1      16.758  18.689  45.334  1.00  0.00    -0.544 OA
ENDBRANCH   2   7
ENDBRANCH   1   2
BRANCH   1  10
ATOM     10  O   UNL     1      15.324  16.031  45.477  1.00  0.00    -0.390 OA
ATOM     11  H   UNL     1      15.946  15.599  46.118  1.00  0.00     0.210 HD
ENDBRANCH   1  10
TORSDOF 4
ENDMDL
MODEL 2
REMARK VINA RESULT:    -2.798      8.047      8.424
REMARK INTER + INTRA:          -3.622
REMARK INTER:                  -3.235
REMARK INTRA:                  -0.388
REMARK UNBOUND:                -0.333
REMARK SMILES [NH3+][C@H](CO)C(=O)[O-]
REMARK SMILES IDX 3 1 2 2 1 3 5 7 6 8 7 9 4 10
REMARK H PARENT 1 4 1 5 1 6 4 11
REMARK Flexibility Score: inf
ROOT
ATOM      1  C   UNL     1      22.650  15.927  43.256  1.00  0.00     0.227 C 
ENDROOT
BRANCH   1   2
ATOM      2  C   UNL     1      22.671  17.337  43.869  1.00  0.00     0.253 C 
BRANCH   2   3
ATOM      3  N   UNL     1      23.672  17.439  44.938  1.00  0.00    -0.348 N 
ATOM      4  H   UNL     1      24.630  17.308  44.537  1.00  0.00     0.345 HD
ATOM      5  H   UNL     1      23.628  18.389  45.375  1.00  0.00     0.345 HD
ATOM      6  H   UNL     1      23.509  16.716  45.676  1.00  0.00     0.345 HD
ENDBRANCH   2   3
BRANCH   2   7
ATOM      7  C   UNL     1      22.906  18.379  42.805  1.00  0.00     0.102 C 
ATOM      8  O   UNL     1      24.056  18.858  42.620  1.00  0.00    -0.544 OA
ATOM      9  O   UNL     1      21.856  18.788  41.994  1.00  0.00    -0.544 OA
ENDBRANCH   2   7
ENDBRANCH   1   2
BRANCH   1  10
ATOM     10  O   UNL     1      23.153  15.944  41.949  1.00  0.00    -0.390 OA
ATOM     11  H   UNL     1      23.813  15.205  41.897  1.00  0.00     0.210 HD
ENDBRANCH   1  10
TORSDOF 4
ENDMDL
MODEL 3
REMARK VINA RESULT:    -2.745     17.436     18.429
REMARK INTER + INTRA:          -3.560
REMARK INTER:                  -3.225
REMARK INTRA:                  -0.335
REMARK UNBOUND:                -0.333
REMARK SMILES [NH3+][C@H](CO)C(=O)[O-]
REMARK SMILES IDX 3 1 2 2 1 3 5 7 6 8 7 9 4 10
REMARK H PARENT 1 4 1 5 1 6 4 11
REMARK Flexibility Score: inf
ROOT
ATOM      1  C   UNL     1      20.738  30.963  59.870  1.00  0.00     0.227 C 
ENDROOT
BRANCH   1   2
ATOM      2  C   UNL     1      21.062  29.691  59.069  1.00  0.00     0.253 C 
BRANCH   2   3
ATOM      3  N   UNL     1      19.877  28.834  58.928  1.00  0.00    -0.348 N 
ATOM      4  H   UNL     1      19.125  29.164  59.577  1.00  0.00     0.345 HD
ATOM      5  H   UNL     1      19.513  28.894  57.949  1.00  0.00     0.345 HD
ATOM      6  H   UNL     1      20.105  27.838  59.147  1.00  0.00     0.345 HD
ENDBRANCH   2   3
BRANCH   2   7
ATOM      7  C   UNL     1      21.642  30.039  57.723  1.00  0.00     0.102 C 
ATOM      8  O   UNL     1      20.888  30.285  56.744  1.00  0.00    -0.544 OA
ATOM      9  O   UNL     1      23.019  30.127  57.566  1.00  0.00    -0.544 OA
ENDBRANCH   2   7
ENDBRANCH   1   2
BRANCH   1  10
ATOM     10  O   UNL     1      21.524  32.038  59.436  1.00  0.00    -0.390 OA
ATOM     11  H   UNL     1      22.311  31.639  58.982  1.00  0.00     0.210 HD
ENDBRANCH   1  10
TORSDOF 4
ENDMDL
MODEL 4
REMARK VINA RESULT:    -2.720      8.049      8.870
REMARK INTER + INTRA:          -3.531
REMARK INTER:                  -3.159
REMARK INTRA:                  -0.372
REMARK UNBOUND:                -0.333
REMARK SMILES [NH3+][C@H](CO)C(=O)[O-]
REMARK SMILES IDX 3 1 2 2 1 3 5 7 6 8 7 9 4 10
REMARK H PARENT 1 4 1 5 1 6 4 11
REMARK Flexibility Score: inf
ROOT
ATOM      1  C   UNL     1      23.907  18.935  42.338  1.00  0.00     0.227 C 
ENDROOT
BRANCH   1   2
ATOM      2  C   UNL     1      22.745  17.955  42.108  1.00  0.00     0.253 C 
BRANCH   2   3
ATOM      3  N   UNL     1      23.052  17.008  41.029  1.00  0.00    -0.348 N 
ATOM      4  H   UNL     1      23.055  16.032  41.407  1.00  0.00     0.345 HD
ATOM      5  H   UNL     1      22.318  17.068  40.286  1.00  0.00     0.345 HD
ATOM      6  H   UNL     1      23.985  17.212  40.604  1.00  0.00     0.345 HD
ENDBRANCH   2   3
BRANCH   2   7
ATOM      7  C   UNL     1      22.397  17.230  43.382  1.00  0.00     0.102 C 
ATOM      8  O   UNL     1      22.728  16.026  43.546  1.00  0.00    -0.544 OA
ATOM      9  O   UNL     1      21.738  17.903  44.403  1.00  0.00    -0.544 OA
ENDBRANCH   2   7
ENDBRANCH   1   2
BRANCH   1  10
ATOM     10  O   UNL     1      24.471  18.750  43.607  1.00  0.00    -0.390 OA
ATOM     11  H   UNL     1      25.408  19.069  43.542  1.00  0.00     0.210 HD
ENDBRANCH   1  10
TORSDOF 4
ENDMDL
MODEL 5
REMARK VINA RESULT:    -2.690     20.531     21.012
REMARK INTER + INTRA:          -3.496
REMARK INTER:                  -3.114
REMARK INTRA:                  -0.381
REMARK UNBOUND:                -0.333
REMARK SMILES [NH3+][C@H](CO)C(=O)[O-]
REMARK SMILES IDX 3 1 2 2 1 3 5 7 6 8 7 9 4 10
REMARK H PARENT 1 4 1 5 1 6 4 11
REMARK Flexibility Score: inf
ROOT
ATOM      1  C   UNL     1      27.990  33.302  52.418  1.00  0.00     0.227 C 
ENDROOT
BRANCH   1   2
ATOM      2  C   UNL     1      27.516  33.723  53.819  1.00  0.00     0.253 C 
BRANCH   2   3
ATOM      3  N   UNL     1      28.227  34.921  54.284  1.00  0.00    -0.348 N 
ATOM      4  H   UNL     1      28.036  35.718  53.633  1.00  0.00     0.345 HD
ATOM      5  H   UNL     1      27.885  35.188  55.236  1.00  0.00     0.345 HD
ATOM      6  H   UNL     1      29.258  34.753  54.326  1.00  0.00     0.345 HD
ENDBRANCH   2   3
BRANCH   2   7
ATOM      7  C   UNL     1      26.024  33.938  53.837  1.00  0.00     0.102 C 
ATOM      8  O   UNL     1      25.543  35.102  53.824  1.00  0.00    -0.544 OA
ATOM      9  O   UNL     1      25.169  32.844  53.828  1.00  0.00    -0.544 OA
ENDBRANCH   2   7
ENDBRANCH   1   2
BRANCH   1  10
ATOM     10  O   UNL     1      26.950  33.413  51.486  1.00  0.00    -0.390 OA
ATOM     11  H   UNL     1      26.726  32.488  51.209  1.00  0.00     0.210 HD
ENDBRANCH   1  10
TORSDOF 4
ENDMDL
MODEL 6
REMARK VINA RESULT:    -2.638      8.791      9.580
REMARK INTER + INTRA:          -3.435
REMARK INTER:                  -3.424
REMARK INTRA:                  -0.011
REMARK UNBOUND:                -0.333
REMARK SMILES [NH3+][C@H](CO)C(=O)[O-]
REMARK SMILES IDX 3 1 2 2 1 3 5 7 6 8 7 9 4 10
REMARK H PARENT 1 4 1 5 1 6 4 11
REMARK Flexibility Score: inf
ROOT
ATOM      1  C   UNL     1      24.023  19.015  41.159  1.00  0.00     0.227 C 
ENDROOT
BRANCH   1   2
ATOM      2  C   UNL     1      22.919  17.968  41.376  1.00  0.00     0.253 C 
BRANCH   2   3
ATOM      3  N   UNL     1      23.078  16.829  40.462  1.00  0.00    -0.348 N 
ATOM      4  H   UNL     1      23.800  17.056  39.739  1.00  0.00     0.345 HD
ATOM      5  H   UNL     1      23.403  15.990  40.997  1.00  0.00     0.345 HD
ATOM      6  H   UNL     1      22.176  16.601  39.985  1.00  0.00     0.345 HD
ENDBRANCH   2   3
BRANCH   2   7
ATOM      7  C   UNL     1      22.890  17.510  42.812  1.00  0.00     0.102 C 
ATOM      8  O   UNL     1      23.211  18.296  43.742  1.00  0.00    -0.544 OA
ATOM      9  O   UNL     1      22.469  16.223  43.118  1.00  0.00    -0.544 OA
ENDBRANCH   2   7
ENDBRANCH   1   2
BRANCH   1  10
ATOM     10  O   UNL     1      24.817  18.680  40.054  1.00  0.00    -0.390 OA
ATOM     11  H   UNL     1      25.361  19.484  39.851  1.00  0.00     0.210 HD
ENDBRANCH   1  10
TORSDOF 4
ENDMDL
MODEL 7
REMARK VINA RESULT:    -2.564     21.590     22.629
REMARK INTER + INTRA:          -3.347
REMARK INTER:                  -3.120
REMARK INTRA:                  -0.227
REMARK UNBOUND:                -0.333
REMARK SMILES [NH3+][C@H](CO)C(=O)[O-]
REMARK SMILES IDX 3 1 2 2 1 3 5 7 6 8 7 9 4 10
REMARK H PARENT 1 4 1 5 1 6 4 11
REMARK Flexibility Score: inf
ROOT
ATOM      1  C   UNL     1      30.572  33.662  54.585  1.00  0.00     0.227 C 
ENDROOT
BRANCH   1   2
ATOM      2  C   UNL     1      29.094  33.790  54.181  1.00  0.00     0.253 C 
BRANCH   2   3
ATOM      3  N   UNL     1      28.569  35.125  54.499  1.00  0.00    -0.348 N 
ATOM      4  H   UNL     1      29.225  35.856  54.136  1.00  0.00     0.345 HD
ATOM      5  H   UNL     1      27.642  35.260  54.034  1.00  0.00     0.345 HD
ATOM      6  H   UNL     1      28.456  35.249  55.530  1.00  0.00     0.345 HD
ENDBRANCH   2   3
BRANCH   2   7
ATOM      7  C   UNL     1      28.908  33.469  52.721  1.00  0.00     0.102 C 
ATOM      8  O   UNL     1      27.755  33.296  52.244  1.00  0.00    -0.544 OA
ATOM      9  O   UNL     1      30.013  33.400  51.883  1.00  0.00    -0.544 OA
ENDBRANCH   2   7
ENDBRANCH   1   2
BRANCH   1  10
ATOM     10  O   UNL     1      31.305  34.776  54.153  1.00  0.00    -0.390 OA
ATOM     11  H   UNL     1      31.716  34.517  53.289  1.00  0.00     0.210 HD
ENDBRANCH   1  10
TORSDOF 4
ENDMDL
MODEL 8
REMARK VINA RESULT:    -2.459      9.213      9.671
REMARK INTER + INTRA:          -3.224
REMARK INTER:                  -3.207
REMARK INTRA:                  -0.017
REMARK UNBOUND:                -0.333
REMARK SMILES [NH3+][C@H](CO)C(=O)[O-]
REMARK SMILES IDX 3 1 2 2 1 3 5 7 6 8 7 9 4 10
REMARK H PARENT 1 4 1 5 1 6 4 11
REMARK Flexibility Score: inf
ROOT
ATOM      1  C   UNL     1      23.039  17.762  40.130  1.00  0.00     0.227 C 
ENDROOT
BRANCH   1   2
ATOM      2  C   UNL     1      22.949  18.041  41.639  1.00  0.00     0.253 C 
BRANCH   2   3
ATOM      3  N   UNL     1      23.010  16.795  42.415  1.00  0.00    -0.348 N 
ATOM      4  H   UNL     1      22.598  16.012  41.856  1.00  0.00     0.345 HD
ATOM      5  H   UNL     1      24.007  16.558  42.624  1.00  0.00     0.345 HD
ATOM      6  H   UNL     1      22.485  16.887  43.315  1.00  0.00     0.345 HD
ENDBRANCH   2   3
BRANCH   2   7
ATOM      7  C   UNL     1      24.027  19.001  42.071  1.00  0.00     0.102 C 
ATOM      8  O   UNL     1      24.718  19.617  41.217  1.00  0.00    -0.544 OA
ATOM      9  O   UNL     1      24.237  19.241  43.423  1.00  0.00    -0.544 OA
ENDBRANCH   2   7
ENDBRANCH   1   2
BRANCH   1  10
ATOM     10  O   UNL     1      23.006  16.385  39.875  1.00  0.00    -0.390 OA
ATOM     11  H   UNL     1      23.901  16.148  39.520  1.00  0.00     0.210 HD
ENDBRANCH   1  10
TORSDOF 4
ENDMDL
MODEL 9
REMARK VINA RESULT:    -2.299     21.559     22.491
REMARK INTER + INTRA:          -3.035
REMARK INTER:                  -2.675
REMARK INTRA:                  -0.360
REMARK UNBOUND:                -0.333
REMARK SMILES [NH3+][C@H](CO)C(=O)[O-]
REMARK SMILES IDX 3 1 2 2 1 3 5 7 6 8 7 9 4 10
REMARK H PARENT 1 4 1 5 1 6 4 11
REMARK Flexibility Score: inf
ROOT
ATOM      1  C   UNL     1      27.872  32.678  54.498  1.00  0.00     0.227 C 
ENDROOT
BRANCH   1   2
ATOM      2  C   UNL     1      28.365  33.946  53.782  1.00  0.00     0.253 C 
BRANCH   2   3
ATOM      3  N   UNL     1      27.536  35.109  54.127  1.00  0.00    -0.348 N 
ATOM      4  H   UNL     1      27.430  35.170  55.167  1.00  0.00     0.345 HD
ATOM      5  H   UNL     1      28.000  35.985  53.794  1.00  0.00     0.345 HD
ATOM      6  H   UNL     1      26.588  35.038  53.691  1.00  0.00     0.345 HD
ENDBRANCH   2   3
BRANCH   2   7
ATOM      7  C   UNL     1      29.816  34.206  54.091  1.00  0.00     0.102 C 
ATOM      8  O   UNL     1      30.149  35.125  54.885  1.00  0.00    -0.544 OA
ATOM      9  O   UNL     1      30.797  33.401  53.527  1.00  0.00    -0.544 OA
ENDBRANCH   2   7
ENDBRANCH   1   2
BRANCH   1  10
ATOM     10  O   UNL     1      28.683  32.383  55.602  1.00  0.00    -0.390 OA
ATOM     11  H   UNL     1      29.279  31.644  55.317  1.00  0.00     0.210 HD
ENDBRANCH   1  10
TORSDOF 4
ENDMDL
