MODEL 1
REMARK VINA RESULT:    -3.453      0.000      0.000
REMARK INTER + INTRA:          -5.367
REMARK INTER:                  -4.664
REMARK INTRA:                  -0.704
REMARK UNBOUND:                -0.704
REMARK SMILES CCCCCCC=CC(=O)[O-]
REMARK SMILES IDX 5 1 6 2 7 3 8 4 9 5 10 6 11 7 4 8 3 9 2 10 1 11
REMARK H PARENT
REMARK Flexibility Score: inf
ROOT
ATOM      1  C   UNL     1      18.327 -23.147  -2.040  1.00  0.00     0.004 C 
ENDROOT
BRANCH   1   2
ATOM      2  C   UNL     1      19.370 -22.666  -1.021  1.00  0.00     0.027 C 
BRANCH   2   3
ATOM      3  C   UNL     1      18.743 -21.863   0.091  1.00  0.00    -0.025 C 
ATOM      4  C   UNL     1      18.680 -20.525   0.191  1.00  0.00     0.020 C 
BRANCH   4   5
ATOM      5  C   UNL     1      19.159 -19.523  -0.786  1.00  0.00     0.064 C 
ATOM      6  O   UNL     1      18.314 -18.903  -1.481  1.00  0.00    -0.545 OA
ATOM      7  O   UNL     1      20.506 -19.254  -0.981  1.00  0.00    -0.545 OA
ENDBRANCH   4   5
ENDBRANCH   2   3
ENDBRANCH   1   2
BRANCH   1   8
ATOM      8  C   UNL     1      18.475 -22.467  -3.411  1.00  0.00     0.000 C 
BRANCH   8   9
ATOM      9  C   UNL     1      17.408 -21.376  -3.638  1.00  0.00    -0.000 C 
BRANCH   9  10
ATOM     10  C   UNL     1      16.099 -21.625  -2.869  1.00  0.00    -0.003 C 
ATOM     11  C   UNL     1      14.868 -21.646  -3.773  1.00  0.00     0.004 C 
ENDBRANCH   9  10
ENDBRANCH   8   9
ENDBRANCH   1   8
TORSDOF 6
ENDMDL
MODEL 2
REMARK VINA RESULT:    -3.418      8.070      9.785
REMARK INTER + INTRA:          -5.321
REMARK INTER:                  -4.489
REMARK INTRA:                  -0.832
REMARK UNBOUND:                -0.704
REMARK SMILES CCCCCCC=CC(=O)[O-]
REMARK SMILES IDX 5 1 6 2 7 3 8 4 9 5 10 6 11 7 4 8 3 9 2 10 1 11
REMARK H PARENT
REMARK Flexibility Score: inf
ROOT
ATOM      1  C   UNL     1      15.651 -13.870  -2.983  1.00  0.00     0.004 C 
ENDROOT
BRANCH   1   2
ATOM      2  C   UNL     1      15.740 -12.715  -3.991  1.00  0.00     0.027 C 
BRANCH   2   3
ATOM      3  C   UNL     1      16.901 -11.799  -3.699  1.00  0.00    -0.025 C 
ATOM      4  C   UNL     1      16.884 -10.673  -2.966  1.00  0.00     0.020 C 
BRANCH   4   5
ATOM      5  C   UNL     1      15.740 -10.093  -2.230  1.00  0.00     0.064 C 
ATOM      6  O   UNL     1      15.317 -10.686  -1.204  1.00  0.00    -0.545 OA
ATOM      7  O   UNL     1      15.099  -8.932  -2.637  1.00  0.00    -0.545 OA
ENDBRANCH   4   5
ENDBRANCH   2   3
ENDBRANCH   1   2
BRANCH   1   8
ATOM      8  C   UNL     1      17.030 -14.436  -2.603  1.00  0.00     0.000 C 
BRANCH   8   9
ATOM      9  C   UNL     1      17.100 -14.853  -1.119  1.00  0.00    -0.000 C 
BRANCH   9  10
ATOM     10  C   UNL     1      16.952 -13.675  -0.140  1.00  0.00    -0.003 C 
ATOM     11  C   UNL     1      18.136 -12.710  -0.183  1.00  0.00     0.004 C 
ENDBRANCH   9  10
ENDBRANCH   8   9
ENDBRANCH   1   8
TORSDOF 6
ENDMDL
MODEL 3
REMARK VINA RESULT:    -3.246      1.499      2.586
REMARK INTER + INTRA:          -5.088
REMARK INTER:                  -4.372
REMARK INTRA:                  -0.716
REMARK UNBOUND:                -0.704
REMARK SMILES CCCCCCC=CC(=O)[O-]
REMARK SMILES IDX 5 1 6 2 7 3 8 4 9 5 10 6 11 7 4 8 3 9 2 10 1 11
REMARK H PARENT
REMARK Flexibility Score: inf
ROOT
ATOM      1  C   UNL     1      16.456 -23.309  -2.253  1.00  0.00     0.004 C 
ENDROOT
BRANCH   1   2
ATOM      2  C   UNL     1      17.952 -22.974  -2.347  1.00  0.00     0.027 C 
BRANCH   2   3
ATOM      3  C   UNL     1      18.236 -21.964  -3.430  1.00  0.00    -0.025 C 
ATOM      4  C   UNL     1      18.502 -20.657  -3.273  1.00  0.00     0.020 C 
BRANCH   4   5
ATOM      5  C   UNL     1      18.632 -19.909  -2.004  1.00  0.00     0.064 C 
ATOM      6  O   UNL     1      19.767 -19.813  -1.471  1.00  0.00    -0.545 OA
ATOM      7  O   UNL     1      17.547 -19.325  -1.365  1.00  0.00    -0.545 OA
ENDBRANCH   4   5
ENDBRANCH   2   3
ENDBRANCH   1   2
BRANCH   1   8
ATOM      8  C   UNL     1      15.690 -22.353  -1.322  1.00  0.00     0.000 C 
BRANCH   8   9
ATOM      9  C   UNL     1      14.869 -21.309  -2.108  1.00  0.00    -0.000 C 
BRANCH   9  10
ATOM     10  C   UNL     1      14.495 -21.762  -3.530  1.00  0.00    -0.003 C 
ATOM     11  C   UNL     1      13.122 -22.429  -3.603  1.00  0.00     0.004 C 
ENDBRANCH   9  10
ENDBRANCH   8   9
ENDBRANCH   1   8
TORSDOF 6
ENDMDL
MODEL 4
REMARK VINA RESULT:    -3.222     10.602     11.849
REMARK INTER + INTRA:          -5.056
REMARK INTER:                  -4.444
REMARK INTRA:                  -0.612
REMARK UNBOUND:                -0.704
REMARK SMILES CCCCCCC=CC(=O)[O-]
REMARK SMILES IDX 5 1 6 2 7 3 8 4 9 5 10 6 11 7 4 8 3 9 2 10 1 11
REMARK H PARENT
REMARK Flexibility Score: inf
ROOT
ATOM      1  C   UNL     1      16.699 -11.030  -2.354  1.00  0.00     0.004 C 
ENDROOT
BRANCH   1   2
ATOM      2  C   UNL     1      15.922  -9.706  -2.370  1.00  0.00     0.027 C 
BRANCH   2   3
ATOM      3  C   UNL     1      14.527  -9.864  -1.822  1.00  0.00    -0.025 C 
ATOM      4  C   UNL     1      13.543  -8.949  -1.827  1.00  0.00     0.020 C 
BRANCH   4   5
ATOM      5  C   UNL     1      13.575  -7.593  -2.416  1.00  0.00     0.064 C 
ATOM      6  O   UNL     1      13.124  -7.427  -3.578  1.00  0.00    -0.545 OA
ATOM      7  O   UNL     1      14.101  -6.498  -1.745  1.00  0.00    -0.545 OA
ENDBRANCH   4   5
ENDBRANCH   2   3
ENDBRANCH   1   2
BRANCH   1   8
ATOM      8  C   UNL     1      16.959 -11.585  -3.764  1.00  0.00     0.000 C 
BRANCH   8   9
ATOM      9  C   UNL     1      15.906 -12.633  -4.181  1.00  0.00    -0.000 C 
BRANCH   9  10
ATOM     10  C   UNL     1      15.246 -13.350  -2.991  1.00  0.00    -0.003 C 
ATOM     11  C   UNL     1      13.720 -13.350  -3.063  1.00  0.00     0.004 C 
ENDBRANCH   9  10
ENDBRANCH   8   9
ENDBRANCH   1   8
TORSDOF 6
ENDMDL
MODEL 5
REMARK VINA RESULT:    -3.205      7.525      9.574
REMARK INTER + INTRA:          -5.032
REMARK INTER:                  -4.220
REMARK INTRA:                  -0.812
REMARK UNBOUND:                -0.704
REMARK SMILES CCCCCCC=CC(=O)[O-]
REMARK SMILES IDX 5 1 6 2 7 3 8 4 9 5 10 6 11 7 4 8 3 9 2 10 1 11
REMARK H PARENT
REMARK Flexibility Score: inf
ROOT
ATOM      1  C   UNL     1      16.789 -11.305  -3.491  1.00  0.00     0.004 C 
ENDROOT
BRANCH   1   2
ATOM      2  C   UNL     1      16.212 -12.697  -3.784  1.00  0.00     0.027 C 
BRANCH   2   3
ATOM      3  C   UNL     1      17.027 -13.791  -3.142  1.00  0.00    -0.025 C 
ATOM      4  C   UNL     1      16.592 -14.733  -2.287  1.00  0.00     0.020 C 
BRANCH   4   5
ATOM      5  C   UNL     1      15.209 -14.954  -1.815  1.00  0.00     0.064 C 
ATOM      6  O   UNL     1      14.816 -14.344  -0.787  1.00  0.00    -0.545 OA
ATOM      7  O   UNL     1      14.331 -15.823  -2.447  1.00  0.00    -0.545 OA
ENDBRANCH   4   5
ENDBRANCH   2   3
ENDBRANCH   1   2
BRANCH   1   8
ATOM      8  C   UNL     1      16.031 -10.569  -2.373  1.00  0.00     0.000 C 
BRANCH   8   9
ATOM      9  C   UNL     1      16.905 -10.357  -1.119  1.00  0.00    -0.000 C 
BRANCH   9  10
ATOM     10  C   UNL     1      16.860 -11.535  -0.131  1.00  0.00    -0.003 C 
ATOM     11  C   UNL     1      18.212 -12.228   0.036  1.00  0.00     0.004 C 
ENDBRANCH   9  10
ENDBRANCH   8   9
ENDBRANCH   1   8
TORSDOF 6
ENDMDL
MODEL 6
REMARK VINA RESULT:    -3.134      7.697      9.556
REMARK INTER + INTRA:          -4.937
REMARK INTER:                  -4.142
REMARK INTRA:                  -0.796
REMARK UNBOUND:                -0.704
REMARK SMILES CCCCCCC=CC(=O)[O-]
REMARK SMILES IDX 5 1 6 2 7 3 8 4 9 5 10 6 11 7 4 8 3 9 2 10 1 11
REMARK H PARENT
REMARK Flexibility Score: inf
ROOT
ATOM      1  C   UNL     1      17.358 -14.211  -1.180  1.00  0.00     0.004 C 
ENDROOT
BRANCH   1   2
ATOM      2  C   UNL     1      16.876 -14.616  -2.581  1.00  0.00     0.027 C 
BRANCH   2   3
ATOM      3  C   UNL     1      16.567 -13.416  -3.440  1.00  0.00    -0.025 C 
ATOM      4  C   UNL     1      15.369 -12.836  -3.625  1.00  0.00     0.020 C 
BRANCH   4   5
ATOM      5  C   UNL     1      14.082 -13.200  -2.993  1.00  0.00     0.064 C 
ATOM      6  O   UNL     1      13.106 -13.490  -3.732  1.00  0.00    -0.545 OA
ATOM      7  O   UNL     1      13.902 -13.215  -1.618  1.00  0.00    -0.545 OA
ENDBRANCH   4   5
ENDBRANCH   2   3
ENDBRANCH   1   2
BRANCH   1   8
ATOM      8  C   UNL     1      17.998 -12.812  -1.152  1.00  0.00     0.000 C 
BRANCH   8   9
ATOM      9  C   UNL     1      17.423 -11.932  -0.023  1.00  0.00    -0.000 C 
BRANCH   9  10
ATOM     10  C   UNL     1      16.359 -10.930  -0.504  1.00  0.00    -0.003 C 
ATOM     11  C   UNL     1      16.841 -10.053  -1.657  1.00  0.00     0.004 C 
ENDBRANCH   9  10
ENDBRANCH   8   9
ENDBRANCH   1   8
TORSDOF 6
ENDMDL
MODEL 7
REMARK VINA RESULT:    -3.117      8.700     10.218
REMARK INTER + INTRA:          -4.914
REMARK INTER:                  -3.974
REMARK INTRA:                  -0.940
REMARK UNBOUND:                -0.704
REMARK SMILES CCCCCCC=CC(=O)[O-]
REMARK SMILES IDX 5 1 6 2 7 3 8 4 9 5 10 6 11 7 4 8 3 9 2 10 1 11
REMARK H PARENT
REMARK Flexibility Score: inf
ROOT
ATOM      1  C   UNL     1      14.649 -13.445  -2.618  1.00  0.00     0.004 C 
ENDROOT
BRANCH   1   2
ATOM      2  C   UNL     1      13.847 -12.239  -2.110  1.00  0.00     0.027 C 
BRANCH   2   3
ATOM      3  C   UNL     1      14.513 -11.575  -0.931  1.00  0.00    -0.025 C 
ATOM      4  C   UNL     1      15.302 -10.488  -0.950  1.00  0.00     0.020 C 
BRANCH   4   5
ATOM      5  C   UNL     1      15.662  -9.654  -2.117  1.00  0.00     0.064 C 
ATOM      6  O   UNL     1      16.785  -9.822  -2.657  1.00  0.00    -0.545 OA
ATOM      7  O   UNL     1      14.818  -8.679  -2.628  1.00  0.00    -0.545 OA
ENDBRANCH   4   5
ENDBRANCH   2   3
ENDBRANCH   1   2
BRANCH   1   8
ATOM      8  C   UNL     1      15.665 -13.068  -3.709  1.00  0.00     0.000 C 
BRANCH   8   9
ATOM      9  C   UNL     1      17.122 -13.184  -3.213  1.00  0.00    -0.000 C 
BRANCH   9  10
ATOM     10  C   UNL     1      17.257 -13.912  -1.864  1.00  0.00    -0.003 C 
ATOM     11  C   UNL     1      17.971 -13.077  -0.803  1.00  0.00     0.004 C 
ENDBRANCH   9  10
ENDBRANCH   8   9
ENDBRANCH   1   8
TORSDOF 6
ENDMDL
MODEL 8
REMARK VINA RESULT:    -3.103      4.467      6.086
REMARK INTER + INTRA:          -4.895
REMARK INTER:                  -4.619
REMARK INTRA:                  -0.276
REMARK UNBOUND:                -0.704
REMARK SMILES CCCCCCC=CC(=O)[O-]
REMARK SMILES IDX 5 1 6 2 7 3 8 4 9 5 10 6 11 7 4 8 3 9 2 10 1 11
REMARK H PARENT
REMARK Flexibility Score: inf
ROOT
ATOM      1  C   UNL     1      17.090 -15.452   0.077  1.00  0.00     0.004 C 
ENDROOT
BRANCH   1   2
ATOM      2  C   UNL     1      17.555 -16.728  -0.639  1.00  0.00     0.027 C 
BRANCH   2   3
ATOM      3  C   UNL     1      17.819 -17.853   0.329  1.00  0.00    -0.025 C 
ATOM      4  C   UNL     1      18.543 -18.963   0.107  1.00  0.00     0.020 C 
BRANCH   4   5
ATOM      5  C   UNL     1      19.295 -19.321  -1.115  1.00  0.00     0.064 C 
ATOM      6  O   UNL     1      20.539 -19.134  -1.136  1.00  0.00    -0.545 OA
ATOM      7  O   UNL     1      18.681 -19.835  -2.248  1.00  0.00    -0.545 OA
ENDBRANCH   4   5
ENDBRANCH   2   3
ENDBRANCH   1   2
BRANCH   1   8
ATOM      8  C   UNL     1      17.231 -14.194  -0.797  1.00  0.00     0.000 C 
BRANCH   8   9
ATOM      9  C   UNL     1      17.066 -14.507  -2.299  1.00  0.00    -0.000 C 
BRANCH   9  10
ATOM     10  C   UNL     1      16.973 -13.252  -3.183  1.00  0.00    -0.003 C 
ATOM     11  C   UNL     1      15.542 -12.923  -3.605  1.00  0.00     0.004 C 
ENDBRANCH   9  10
ENDBRANCH   8   9
ENDBRANCH   1   8
TORSDOF 6
ENDMDL
MODEL 9
REMARK VINA RESULT:    -3.098      1.987      4.226
REMARK INTER + INTRA:          -4.889
REMARK INTER:                  -4.233
REMARK INTRA:                  -0.656
REMARK UNBOUND:                -0.704
REMARK SMILES CCCCCCC=CC(=O)[O-]
REMARK SMILES IDX 5 1 6 2 7 3 8 4 9 5 10 6 11 7 4 8 3 9 2 10 1 11
REMARK H PARENT
REMARK Flexibility Score: inf
ROOT
ATOM      1  C   UNL     1      19.088 -22.892  -1.106  1.00  0.00     0.004 C 
ENDROOT
BRANCH   1   2
ATOM      2  C   UNL     1      18.233 -23.287  -2.319  1.00  0.00     0.027 C 
BRANCH   2   3
ATOM      3  C   UNL     1      18.253 -22.228  -3.392  1.00  0.00    -0.025 C 
ATOM      4  C   UNL     1      17.230 -21.452  -3.788  1.00  0.00     0.020 C 
BRANCH   4   5
ATOM      5  C   UNL     1      15.859 -21.414  -3.233  1.00  0.00     0.064 C 
ATOM      6  O   UNL     1      15.626 -20.672  -2.245  1.00  0.00    -0.545 OA
ATOM      7  O   UNL     1      14.823 -22.180  -3.747  1.00  0.00    -0.545 OA
ENDBRANCH   4   5
ENDBRANCH   2   3
ENDBRANCH   1   2
BRANCH   1   8
ATOM      8  C   UNL     1      18.646 -21.561  -0.474  1.00  0.00     0.000 C 
BRANCH   8   9
ATOM      9  C   UNL     1      19.841 -20.626  -0.192  1.00  0.00    -0.000 C 
BRANCH   9  10
ATOM     10  C   UNL     1      19.700 -19.235  -0.835  1.00  0.00    -0.003 C 
ATOM     11  C   UNL     1      18.284 -18.671  -0.736  1.00  0.00     0.004 C 
ENDBRANCH   9  10
ENDBRANCH   8   9
ENDBRANCH   1   8
TORSDOF 6
ENDMDL
