MODEL 1
REMARK VINA RESULT:    -4.097      0.000      0.000
REMARK INTER + INTRA:         -10.248
REMARK INTER:                  -7.689
REMARK INTRA:                  -2.559
REMARK UNBOUND:                -2.559
REMARK SMILES CCCCCCCCC=CCCCCCCCC(=O)[O-]
REMARK SMILES IDX 10 1 9 2 11 3 12 4 13 5 14 6 15 7 16 8 17 9 18 10 19 11
REMARK SMILES IDX 20 12 8 13 7 14 6 15 5 16 4 17 3 18 2 19 1 20
REMARK H PARENT
REMARK Flexibility Score: inf
ROOT
ATOM      1  C   UNL     1       3.394  18.252  28.909  1.00  0.00    -0.031 C 
ATOM      2  C   UNL     1       2.562  18.118  27.860  1.00  0.00    -0.031 C 
ENDROOT
BRANCH   1   3
ATOM      3  C   UNL     1       3.527  17.243  30.025  1.00  0.00     0.027 C 
BRANCH   3   4
ATOM      4  C   UNL     1       2.740  17.654  31.284  1.00  0.00     0.004 C 
BRANCH   4   5
ATOM      5  C   UNL     1       1.786  16.564  31.802  1.00  0.00     0.000 C 
BRANCH   5   6
ATOM      6  C   UNL     1       1.901  15.248  31.015  1.00  0.00     0.000 C 
BRANCH   6   7
ATOM      7  C   UNL     1       0.532  14.614  30.722  1.00  0.00     0.000 C 
BRANCH   7   8
ATOM      8  C   UNL     1       0.579  13.630  29.541  1.00  0.00     0.006 C 
BRANCH   8   9
ATOM      9  C   UNL     1      -0.599  12.647  29.558  1.00  0.00     0.053 C 
BRANCH   9  10
ATOM     10  C   UNL     1      -0.473  11.645  30.664  1.00  0.00     0.041 C 
ATOM     11  O   UNL     1      -1.473  11.354  31.372  1.00  0.00    -0.550 OA
ATOM     12  O   UNL     1       0.757  11.060  30.938  1.00  0.00    -0.550 OA
ENDBRANCH   9  10
ENDBRANCH   8   9
ENDBRANCH   7   8
ENDBRANCH   6   7
ENDBRANCH   5   6
ENDBRANCH   4   5
ENDBRANCH   3   4
ENDBRANCH   1   3
BRANCH   2  13
ATOM     13  C   UNL     1       1.677  16.914  27.644  1.00  0.00     0.027 C 
BRANCH  13  14
ATOM     14  C   UNL     1       0.194  17.314  27.645  1.00  0.00     0.004 C 
BRANCH  14  15
ATOM     15  C   UNL     1      -0.336  17.631  29.053  1.00  0.00     0.000 C 
BRANCH  15  16
ATOM     16  C   UNL     1      -1.400  18.741  29.046  1.00  0.00     0.000 C 
BRANCH  16  17
ATOM     17  C   UNL     1      -1.046  19.915  29.977  1.00  0.00    -0.000 C 
BRANCH  17  18
ATOM     18  C   UNL     1       0.460  20.119  30.238  1.00  0.00    -0.000 C 
BRANCH  18  19
ATOM     19  C   UNL     1       0.913  21.587  30.320  1.00  0.00    -0.003 C 
ATOM     20  C   UNL     1      -0.251  22.574  30.242  1.00  0.00     0.004 C 
ENDBRANCH  18  19
ENDBRANCH  17  18
ENDBRANCH  16  17
ENDBRANCH  15  16
ENDBRANCH  14  15
ENDBRANCH  13  14
ENDBRANCH   2  13
TORSDOF 15
ENDMDL
MODEL 2
REMARK VINA RESULT:    -4.021      3.720      6.910
REMARK INTER + INTRA:         -10.106
REMARK INTER:                  -7.391
REMARK INTRA:                  -2.715
REMARK UNBOUND:                -2.559
REMARK SMILES CCCCCCCCC=CCCCCCCCC(=O)[O-]
REMARK SMILES IDX 10 1 9 2 11 3 12 4 13 5 14 6 15 7 16 8 17 9 18 10 19 11
REMARK SMILES IDX 20 12 8 13 7 14 6 15 5 16 4 17 3 18 2 19 1 20
REMARK H PARENT
REMARK Flexibility Score: inf
ROOT
ATOM      1  C   UNL     1       0.646  17.450  27.679  1.00  0.00    -0.031 C 
ATOM      2  C   UNL     1       1.666  16.599  27.462  1.00  0.00    -0.031 C 
ENDROOT
BRANCH   1   3
ATOM      3  C   UNL     1      -0.438  17.235  28.707  1.00  0.00     0.027 C 
BRANCH   3   4
ATOM      4  C   UNL     1      -1.010  18.562  29.243  1.00  0.00     0.004 C 
BRANCH   4   5
ATOM      5  C   UNL     1       0.051  19.487  29.865  1.00  0.00     0.000 C 
BRANCH   5   6
ATOM      6  C   UNL     1       0.935  18.771  30.899  1.00  0.00     0.000 C 
BRANCH   6   7
ATOM      7  C   UNL     1       2.434  18.922  30.599  1.00  0.00     0.000 C 
BRANCH   7   8
ATOM      8  C   UNL     1       2.718  20.005  29.544  1.00  0.00     0.006 C 
BRANCH   8   9
ATOM      9  C   UNL     1       3.809  19.578  28.554  1.00  0.00     0.053 C 
BRANCH   9  10
ATOM     10  C   UNL     1       5.111  20.267  28.827  1.00  0.00     0.041 C 
ATOM     11  O   UNL     1       5.640  20.191  29.966  1.00  0.00    -0.550 OA
ATOM     12  O   UNL     1       5.721  21.022  27.833  1.00  0.00    -0.550 OA
ENDBRANCH   9  10
ENDBRANCH   8   9
ENDBRANCH   7   8
ENDBRANCH   6   7
ENDBRANCH   5   6
ENDBRANCH   4   5
ENDBRANCH   3   4
ENDBRANCH   1   3
BRANCH   2  13
ATOM     13  C   UNL     1       1.879  15.330  28.252  1.00  0.00     0.027 C 
BRANCH  13  14
ATOM     14  C   UNL     1       2.900  15.549  29.378  1.00  0.00     0.004 C 
BRANCH  14  15
ATOM     15  C   UNL     1       2.542  14.785  30.663  1.00  0.00     0.000 C 
BRANCH  15  16
ATOM     16  C   UNL     1       1.141  15.142  31.190  1.00  0.00     0.000 C 
BRANCH  16  17
ATOM     17  C   UNL     1       0.367  13.916  31.708  1.00  0.00    -0.000 C 
BRANCH  17  18
ATOM     18  C   UNL     1       0.756  12.570  31.064  1.00  0.00    -0.000 C 
BRANCH  18  19
ATOM     19  C   UNL     1      -0.142  12.124  29.897  1.00  0.00    -0.003 C 
ATOM     20  C   UNL     1       0.644  11.824  28.622  1.00  0.00     0.004 C 
ENDBRANCH  18  19
ENDBRANCH  17  18
ENDBRANCH  16  17
ENDBRANCH  15  16
ENDBRANCH  14  15
ENDBRANCH  13  14
ENDBRANCH   2  13
TORSDOF 15
ENDMDL
MODEL 3
REMARK VINA RESULT:    -4.009      1.588      2.965
REMARK INTER + INTRA:         -10.084
REMARK INTER:                  -7.223
REMARK INTRA:                  -2.860
REMARK UNBOUND:                -2.559
REMARK SMILES CCCCCCCCC=CCCCCCCCC(=O)[O-]
REMARK SMILES IDX 10 1 9 2 11 3 12 4 13 5 14 6 15 7 16 8 17 9 18 10 19 11
REMARK SMILES IDX 20 12 8 13 7 14 6 15 5 16 4 17 3 18 2 19 1 20
REMARK H PARENT
REMARK Flexibility Score: inf
ROOT
ATOM      1  C   UNL     1       3.250  20.681  30.680  1.00  0.00    -0.031 C 
ATOM      2  C   UNL     1       3.952  20.468  29.551  1.00  0.00    -0.031 C 
ENDROOT
BRANCH   1   3
ATOM      3  C   UNL     1       1.812  20.267  30.879  1.00  0.00     0.027 C 
BRANCH   3   4
ATOM      4  C   UNL     1       1.660  19.163  31.943  1.00  0.00     0.004 C 
BRANCH   4   5
ATOM      5  C   UNL     1       2.372  17.849  31.577  1.00  0.00     0.000 C 
BRANCH   5   6
ATOM      6  C   UNL     1       1.438  16.629  31.630  1.00  0.00     0.000 C 
BRANCH   6   7
ATOM      7  C   UNL     1       2.057  15.383  30.979  1.00  0.00     0.000 C 
BRANCH   7   8
ATOM      8  C   UNL     1       1.123  14.162  31.038  1.00  0.00     0.006 C 
BRANCH   8   9
ATOM      9  C   UNL     1       0.720  13.672  29.641  1.00  0.00     0.053 C 
BRANCH   9  10
ATOM     10  C   UNL     1       1.224  12.288  29.369  1.00  0.00     0.041 C 
ATOM     11  O   UNL     1       0.689  11.585  28.473  1.00  0.00    -0.550 OA
ATOM     12  O   UNL     1       2.261  11.762  30.129  1.00  0.00    -0.550 OA
ENDBRANCH   9  10
ENDBRANCH   8   9
ENDBRANCH   7   8
ENDBRANCH   6   7
ENDBRANCH   5   6
ENDBRANCH   4   5
ENDBRANCH   3   4
ENDBRANCH   1   3
BRANCH   2  13
ATOM     13  C   UNL     1       3.398  19.747  28.345  1.00  0.00     0.027 C 
BRANCH  13  14
ATOM     14  C   UNL     1       3.946  18.315  28.260  1.00  0.00     0.004 C 
BRANCH  14  15
ATOM     15  C   UNL     1       2.858  17.280  27.930  1.00  0.00     0.000 C 
BRANCH  15  16
ATOM     16  C   UNL     1       1.446  17.888  27.928  1.00  0.00     0.000 C 
BRANCH  16  17
ATOM     17  C   UNL     1       0.336  16.824  28.013  1.00  0.00    -0.000 C 
BRANCH  17  18
ATOM     18  C   UNL     1      -0.933  17.254  28.776  1.00  0.00    -0.000 C 
BRANCH  18  19
ATOM     19  C   UNL     1      -0.955  18.726  29.224  1.00  0.00    -0.003 C 
ATOM     20  C   UNL     1      -2.370  19.277  29.391  1.00  0.00     0.004 C 
ENDBRANCH  18  19
ENDBRANCH  17  18
ENDBRANCH  16  17
ENDBRANCH  15  16
ENDBRANCH  14  15
ENDBRANCH  13  14
ENDBRANCH   2  13
TORSDOF 15
ENDMDL
MODEL 4
REMARK VINA RESULT:    -4.006      1.316      3.148
REMARK INTER + INTRA:         -10.077
REMARK INTER:                  -7.749
REMARK INTRA:                  -2.328
REMARK UNBOUND:                -2.559
REMARK SMILES CCCCCCCCC=CCCCCCCCC(=O)[O-]
REMARK SMILES IDX 10 1 9 2 11 3 12 4 13 5 14 6 15 7 16 8 17 9 18 10 19 11
REMARK SMILES IDX 20 12 8 13 7 14 6 15 5 16 4 17 3 18 2 19 1 20
REMARK H PARENT
REMARK Flexibility Score: inf
ROOT
ATOM      1  C   UNL     1      -0.435  17.478  28.444  1.00  0.00    -0.031 C 
ATOM      2  C   UNL     1      -0.528  18.413  29.407  1.00  0.00    -0.031 C 
ENDROOT
BRANCH   1   3
ATOM      3  C   UNL     1       0.739  17.337  27.505  1.00  0.00     0.027 C 
BRANCH   3   4
ATOM      4  C   UNL     1       1.668  16.171  27.896  1.00  0.00     0.004 C 
BRANCH   4   5
ATOM      5  C   UNL     1       2.668  16.523  29.011  1.00  0.00     0.000 C 
BRANCH   5   6
ATOM      6  C   UNL     1       2.192  16.077  30.403  1.00  0.00     0.000 C 
BRANCH   6   7
ATOM      7  C   UNL     1       1.875  14.576  30.466  1.00  0.00     0.000 C 
BRANCH   7   8
ATOM      8  C   UNL     1       0.477  14.291  31.041  1.00  0.00     0.006 C 
BRANCH   8   9
ATOM      9  C   UNL     1      -0.553  13.999  29.943  1.00  0.00     0.053 C 
BRANCH   9  10
ATOM     10  C   UNL     1      -0.638  12.536  29.633  1.00  0.00     0.041 C 
ATOM     11  O   UNL     1       0.117  12.028  28.762  1.00  0.00    -0.550 OA
ATOM     12  O   UNL     1      -1.575  11.739  30.279  1.00  0.00    -0.550 OA
ENDBRANCH   9  10
ENDBRANCH   8   9
ENDBRANCH   7   8
ENDBRANCH   6   7
ENDBRANCH   5   6
ENDBRANCH   4   5
ENDBRANCH   3   4
ENDBRANCH   1   3
BRANCH   2  13
ATOM     13  C   UNL     1       0.555  19.424  29.699  1.00  0.00     0.027 C 
BRANCH  13  14
ATOM     14  C   UNL     1       0.923  19.420  31.189  1.00  0.00     0.004 C 
BRANCH  14  15
ATOM     15  C   UNL     1       1.750  20.649  31.602  1.00  0.00     0.000 C 
BRANCH  15  16
ATOM     16  C   UNL     1       1.852  21.695  30.479  1.00  0.00     0.000 C 
BRANCH  16  17
ATOM     17  C   UNL     1       1.064  22.981  30.787  1.00  0.00    -0.000 C 
BRANCH  17  18
ATOM     18  C   UNL     1      -0.339  23.062  30.153  1.00  0.00    -0.000 C 
BRANCH  18  19
ATOM     19  C   UNL     1      -1.489  22.575  31.052  1.00  0.00    -0.003 C 
ATOM     20  C   UNL     1      -2.432  21.606  30.341  1.00  0.00     0.004 C 
ENDBRANCH  18  19
ENDBRANCH  17  18
ENDBRANCH  16  17
ENDBRANCH  15  16
ENDBRANCH  14  15
ENDBRANCH  13  14
ENDBRANCH   2  13
TORSDOF 15
ENDMDL
MODEL 5
REMARK VINA RESULT:    -3.977      1.313      2.758
REMARK INTER + INTRA:         -10.022
REMARK INTER:                  -7.825
REMARK INTRA:                  -2.198
REMARK UNBOUND:                -2.559
REMARK SMILES CCCCCCCCC=CCCCCCCCC(=O)[O-]
REMARK SMILES IDX 10 1 9 2 11 3 12 4 13 5 14 6 15 7 16 8 17 9 18 10 19 11
REMARK SMILES IDX 20 12 8 13 7 14 6 15 5 16 4 17 3 18 2 19 1 20
REMARK H PARENT
REMARK Flexibility Score: inf
ROOT
ATOM      1  C   UNL     1       1.692  16.856  27.370  1.00  0.00    -0.031 C 
ATOM      2  C   UNL     1       2.865  17.448  27.660  1.00  0.00    -0.031 C 
ENDROOT
BRANCH   1   3
ATOM      3  C   UNL     1       0.340  17.489  27.594  1.00  0.00     0.027 C 
BRANCH   3   4
ATOM      4  C   UNL     1      -0.235  17.169  28.987  1.00  0.00     0.004 C 
BRANCH   4   5
ATOM      5  C   UNL     1      -0.017  15.711  29.427  1.00  0.00     0.000 C 
BRANCH   5   6
ATOM      6  C   UNL     1       0.851  15.591  30.690  1.00  0.00     0.000 C 
BRANCH   6   7
ATOM      7  C   UNL     1       2.095  14.717  30.471  1.00  0.00     0.000 C 
BRANCH   7   8
ATOM      8  C   UNL     1       2.033  13.397  31.259  1.00  0.00     0.006 C 
BRANCH   8   9
ATOM      9  C   UNL     1       0.619  12.803  31.285  1.00  0.00     0.053 C 
BRANCH   9  10
ATOM     10  C   UNL     1       0.348  11.956  30.080  1.00  0.00     0.041 C 
ATOM     11  O   UNL     1       1.272  11.274  29.564  1.00  0.00    -0.550 OA
ATOM     12  O   UNL     1      -0.916  11.948  29.503  1.00  0.00    -0.550 OA
ENDBRANCH   9  10
ENDBRANCH   8   9
ENDBRANCH   7   8
ENDBRANCH   6   7
ENDBRANCH   5   6
ENDBRANCH   4   5
ENDBRANCH   3   4
ENDBRANCH   1   3
BRANCH   2  13
ATOM     13  C   UNL     1       2.981  18.847  28.215  1.00  0.00     0.027 C 
BRANCH  13  14
ATOM     14  C   UNL     1       3.411  18.821  29.689  1.00  0.00     0.004 C 
BRANCH  14  15
ATOM     15  C   UNL     1       2.324  19.354  30.636  1.00  0.00     0.000 C 
BRANCH  15  16
ATOM     16  C   UNL     1       1.368  20.339  29.942  1.00  0.00     0.000 C 
BRANCH  16  17
ATOM     17  C   UNL     1       0.013  20.465  30.662  1.00  0.00    -0.000 C 
BRANCH  17  18
ATOM     18  C   UNL     1      -0.707  21.817  30.480  1.00  0.00    -0.000 C 
BRANCH  18  19
ATOM     19  C   UNL     1      -2.200  21.715  30.123  1.00  0.00    -0.003 C 
ATOM     20  C   UNL     1      -2.649  20.282  29.844  1.00  0.00     0.004 C 
ENDBRANCH  18  19
ENDBRANCH  17  18
ENDBRANCH  16  17
ENDBRANCH  15  16
ENDBRANCH  14  15
ENDBRANCH  13  14
ENDBRANCH   2  13
TORSDOF 15
ENDMDL
MODEL 6
REMARK VINA RESULT:    -3.933      2.719      5.039
REMARK INTER + INTRA:          -9.940
REMARK INTER:                  -6.912
REMARK INTRA:                  -3.029
REMARK UNBOUND:                -2.559
REMARK SMILES CCCCCCCCC=CCCCCCCCC(=O)[O-]
REMARK SMILES IDX 10 1 9 2 11 3 12 4 13 5 14 6 15 7 16 8 17 9 18 10 19 11
REMARK SMILES IDX 20 12 8 13 7 14 6 15 5 16 4 17 3 18 2 19 1 20
REMARK H PARENT
REMARK Flexibility Score: inf
ROOT
ATOM      1  C   UNL     1      -0.848  18.390  28.985  1.00  0.00    -0.031 C 
ATOM      2  C   UNL     1      -0.504  19.338  29.876  1.00  0.00    -0.031 C 
ENDROOT
BRANCH   1   3
ATOM      3  C   UNL     1       0.079  17.301  28.499  1.00  0.00     0.027 C 
BRANCH   3   4
ATOM      4  C   UNL     1      -0.184  15.952  29.195  1.00  0.00     0.004 C 
BRANCH   4   5
ATOM      5  C   UNL     1       0.747  15.680  30.389  1.00  0.00     0.000 C 
BRANCH   5   6
ATOM      6  C   UNL     1       1.150  14.202  30.508  1.00  0.00     0.000 C 
BRANCH   6   7
ATOM      7  C   UNL     1       1.209  13.494  29.146  1.00  0.00     0.000 C 
BRANCH   7   8
ATOM      8  C   UNL     1       2.624  13.496  28.542  1.00  0.00     0.006 C 
BRANCH   8   9
ATOM      9  C   UNL     1       2.722  14.390  27.299  1.00  0.00     0.053 C 
BRANCH   9  10
ATOM     10  C   UNL     1       4.132  14.506  26.806  1.00  0.00     0.041 C 
ATOM     11  O   UNL     1       5.044  13.813  27.328  1.00  0.00    -0.550 OA
ATOM     12  O   UNL     1       4.444  15.406  25.795  1.00  0.00    -0.550 OA
ENDBRANCH   9  10
ENDBRANCH   8   9
ENDBRANCH   7   8
ENDBRANCH   6   7
ENDBRANCH   5   6
ENDBRANCH   4   5
ENDBRANCH   3   4
ENDBRANCH   1   3
BRANCH   2  13
ATOM     13  C   UNL     1       0.851  19.410  30.539  1.00  0.00     0.027 C 
BRANCH  13  14
ATOM     14  C   UNL     1       1.713  20.513  29.908  1.00  0.00     0.004 C 
BRANCH  14  15
ATOM     15  C   UNL     1       3.135  20.037  29.567  1.00  0.00     0.000 C 
BRANCH  15  16
ATOM     16  C   UNL     1       3.232  19.431  28.157  1.00  0.00     0.000 C 
BRANCH  16  17
ATOM     17  C   UNL     1       3.687  17.960  28.168  1.00  0.00    -0.000 C 
BRANCH  17  18
ATOM     18  C   UNL     1       3.721  17.291  29.557  1.00  0.00    -0.000 C 
BRANCH  18  19
ATOM     19  C   UNL     1       4.932  16.375  29.808  1.00  0.00    -0.003 C 
ATOM     20  C   UNL     1       4.714  15.405  30.968  1.00  0.00     0.004 C 
ENDBRANCH  18  19
ENDBRANCH  17  18
ENDBRANCH  16  17
ENDBRANCH  15  16
ENDBRANCH  14  15
ENDBRANCH  13  14
ENDBRANCH   2  13
TORSDOF 15
ENDMDL
MODEL 7
REMARK VINA RESULT:    -3.931      2.114      4.868
REMARK INTER + INTRA:          -9.936
REMARK INTER:                  -7.117
REMARK INTRA:                  -2.819
REMARK UNBOUND:                -2.559
REMARK SMILES CCCCCCCCC=CCCCCCCCC(=O)[O-]
REMARK SMILES IDX 10 1 9 2 11 3 12 4 13 5 14 6 15 7 16 8 17 9 18 10 19 11
REMARK SMILES IDX 20 12 8 13 7 14 6 15 5 16 4 17 3 18 2 19 1 20
REMARK H PARENT
REMARK Flexibility Score: inf
ROOT
ATOM      1  C   UNL     1      -0.444  18.175  29.516  1.00  0.00    -0.031 C 
ATOM      2  C   UNL     1      -0.341  17.585  28.310  1.00  0.00    -0.031 C 
ENDROOT
BRANCH   1   3
ATOM      3  C   UNL     1       0.661  18.967  30.173  1.00  0.00     0.027 C 
BRANCH   3   4
ATOM      4  C   UNL     1       1.403  18.157  31.252  1.00  0.00     0.004 C 
BRANCH   4   5
ATOM      5  C   UNL     1       2.644  17.415  30.725  1.00  0.00     0.000 C 
BRANCH   5   6
ATOM      6  C   UNL     1       2.618  15.910  31.039  1.00  0.00     0.000 C 
BRANCH   6   7
ATOM      7  C   UNL     1       1.191  15.363  31.192  1.00  0.00     0.000 C 
BRANCH   7   8
ATOM      8  C   UNL     1       0.845  14.310  30.125  1.00  0.00     0.006 C 
BRANCH   8   9
ATOM      9  C   UNL     1      -0.668  14.165  29.924  1.00  0.00     0.053 C 
BRANCH   9  10
ATOM     10  C   UNL     1      -1.124  12.752  30.127  1.00  0.00     0.041 C 
ATOM     11  O   UNL     1      -0.668  11.830  29.402  1.00  0.00    -0.550 OA
ATOM     12  O   UNL     1      -2.080  12.460  31.092  1.00  0.00    -0.550 OA
ENDBRANCH   9  10
ENDBRANCH   8   9
ENDBRANCH   7   8
ENDBRANCH   6   7
ENDBRANCH   5   6
ENDBRANCH   4   5
ENDBRANCH   3   4
ENDBRANCH   1   3
BRANCH   2  13
ATOM     13  C   UNL     1       0.888  17.674  27.437  1.00  0.00     0.027 C 
BRANCH  13  14
ATOM     14  C   UNL     1       1.588  16.312  27.332  1.00  0.00     0.004 C 
BRANCH  14  15
ATOM     15  C   UNL     1       3.121  16.429  27.324  1.00  0.00     0.000 C 
BRANCH  15  16
ATOM     16  C   UNL     1       3.801  15.218  26.663  1.00  0.00     0.000 C 
BRANCH  16  17
ATOM     17  C   UNL     1       5.166  14.882  27.291  1.00  0.00    -0.000 C 
BRANCH  17  18
ATOM     18  C   UNL     1       5.110  14.316  28.725  1.00  0.00    -0.000 C 
BRANCH  18  19
ATOM     19  C   UNL     1       4.914  12.793  28.815  1.00  0.00    -0.003 C 
ATOM     20  C   UNL     1       3.951  12.381  29.928  1.00  0.00     0.004 C 
ENDBRANCH  18  19
ENDBRANCH  17  18
ENDBRANCH  16  17
ENDBRANCH  15  16
ENDBRANCH  14  15
ENDBRANCH  13  14
ENDBRANCH   2  13
TORSDOF 15
ENDMDL
MODEL 8
REMARK VINA RESULT:    -3.924      1.325      2.077
REMARK INTER + INTRA:          -9.924
REMARK INTER:                  -7.361
REMARK INTRA:                  -2.563
REMARK UNBOUND:                -2.559
REMARK SMILES CCCCCCCCC=CCCCCCCCC(=O)[O-]
REMARK SMILES IDX 10 1 9 2 11 3 12 4 13 5 14 6 15 7 16 8 17 9 18 10 19 11
REMARK SMILES IDX 20 12 8 13 7 14 6 15 5 16 4 17 3 18 2 19 1 20
REMARK H PARENT
REMARK Flexibility Score: inf
ROOT
ATOM      1  C   UNL     1       2.870  16.379  27.799  1.00  0.00    -0.031 C 
ATOM      2  C   UNL     1       1.567  16.369  27.462  1.00  0.00    -0.031 C 
ENDROOT
BRANCH   1   3
ATOM      3  C   UNL     1       3.636  17.615  28.205  1.00  0.00     0.027 C 
BRANCH   3   4
ATOM      4  C   UNL     1       4.015  17.606  29.699  1.00  0.00     0.004 C 
BRANCH   4   5
ATOM      5  C   UNL     1       3.579  16.331  30.441  1.00  0.00     0.000 C 
BRANCH   5   6
ATOM      6  C   UNL     1       2.515  16.601  31.518  1.00  0.00     0.000 C 
BRANCH   6   7
ATOM      7  C   UNL     1       1.242  15.767  31.312  1.00  0.00     0.000 C 
BRANCH   7   8
ATOM      8  C   UNL     1       1.548  14.314  30.908  1.00  0.00     0.006 C 
BRANCH   8   9
ATOM      9  C   UNL     1       0.565  13.787  29.855  1.00  0.00     0.053 C 
BRANCH   9  10
ATOM     10  C   UNL     1       1.152  12.663  29.058  1.00  0.00     0.041 C 
ATOM     11  O   UNL     1       0.881  11.469  29.352  1.00  0.00    -0.550 OA
ATOM     12  O   UNL     1       2.029  12.932  28.014  1.00  0.00    -0.550 OA
ENDBRANCH   9  10
ENDBRANCH   8   9
ENDBRANCH   7   8
ENDBRANCH   6   7
ENDBRANCH   5   6
ENDBRANCH   4   5
ENDBRANCH   3   4
ENDBRANCH   1   3
BRANCH   2  13
ATOM     13  C   UNL     1       0.688  17.597  27.485  1.00  0.00     0.027 C 
BRANCH  13  14
ATOM     14  C   UNL     1      -0.470  17.426  28.479  1.00  0.00     0.004 C 
BRANCH  14  15
ATOM     15  C   UNL     1      -0.660  18.650  29.389  1.00  0.00     0.000 C 
BRANCH  15  16
ATOM     16  C   UNL     1       0.673  19.194  29.932  1.00  0.00     0.000 C 
BRANCH  16  17
ATOM     17  C   UNL     1       0.539  20.596  30.552  1.00  0.00    -0.000 C 
BRANCH  17  18
ATOM     18  C   UNL     1      -0.782  21.330  30.243  1.00  0.00    -0.000 C 
BRANCH  18  19
ATOM     19  C   UNL     1      -1.093  22.524  31.163  1.00  0.00    -0.003 C 
ATOM     20  C   UNL     1      -1.478  23.785  30.392  1.00  0.00     0.004 C 
ENDBRANCH  18  19
ENDBRANCH  17  18
ENDBRANCH  16  17
ENDBRANCH  15  16
ENDBRANCH  14  15
ENDBRANCH  13  14
ENDBRANCH   2  13
TORSDOF 15
ENDMDL
MODEL 9
REMARK VINA RESULT:    -3.866      1.413      3.620
REMARK INTER + INTRA:          -9.815
REMARK INTER:                  -6.932
REMARK INTRA:                  -2.883
REMARK UNBOUND:                -2.559
REMARK SMILES CCCCCCCCC=CCCCCCCCC(=O)[O-]
REMARK SMILES IDX 10 1 9 2 11 3 12 4 13 5 14 6 15 7 16 8 17 9 18 10 19 11
REMARK SMILES IDX 20 12 8 13 7 14 6 15 5 16 4 17 3 18 2 19 1 20
REMARK H PARENT
REMARK Flexibility Score: inf
ROOT
ATOM      1  C   UNL     1      -0.445  17.631  28.737  1.00  0.00    -0.031 C 
ATOM      2  C   UNL     1      -0.528  18.561  29.706  1.00  0.00    -0.031 C 
ENDROOT
BRANCH   1   3
ATOM      3  C   UNL     1       0.622  17.605  27.669  1.00  0.00     0.027 C 
BRANCH   3   4
ATOM      4  C   UNL     1       1.558  16.389  27.804  1.00  0.00     0.004 C 
BRANCH   4   5
ATOM      5  C   UNL     1       1.129  15.395  28.897  1.00  0.00     0.000 C 
BRANCH   5   6
ATOM      6  C   UNL     1       2.312  14.617  29.495  1.00  0.00     0.000 C 
BRANCH   6   7
ATOM      7  C   UNL     1       2.007  14.061  30.894  1.00  0.00     0.000 C 
BRANCH   7   8
ATOM      8  C   UNL     1       0.616  14.476  31.403  1.00  0.00     0.006 C 
BRANCH   8   9
ATOM      9  C   UNL     1      -0.188  13.281  31.931  1.00  0.00     0.053 C 
BRANCH   9  10
ATOM     10  C   UNL     1      -1.034  12.662  30.862  1.00  0.00     0.041 C 
ATOM     11  O   UNL     1      -1.224  11.417  30.846  1.00  0.00    -0.550 OA
ATOM     12  O   UNL     1      -1.583  13.454  29.861  1.00  0.00    -0.550 OA
ENDBRANCH   9  10
ENDBRANCH   8   9
ENDBRANCH   7   8
ENDBRANCH   6   7
ENDBRANCH   5   6
ENDBRANCH   4   5
ENDBRANCH   3   4
ENDBRANCH   1   3
BRANCH   2  13
ATOM     13  C   UNL     1       0.467  19.685  29.873  1.00  0.00     0.027 C 
BRANCH  13  14
ATOM     14  C   UNL     1       1.232  19.550  31.198  1.00  0.00     0.004 C 
BRANCH  14  15
ATOM     15  C   UNL     1       1.429  18.086  31.625  1.00  0.00     0.000 C 
BRANCH  15  16
ATOM     16  C   UNL     1       2.912  17.684  31.685  1.00  0.00     0.000 C 
BRANCH  16  17
ATOM     17  C   UNL     1       3.657  17.945  30.364  1.00  0.00    -0.000 C 
BRANCH  17  18
ATOM     18  C   UNL     1       4.656  19.119  30.391  1.00  0.00    -0.000 C 
BRANCH  18  19
ATOM     19  C   UNL     1       4.874  19.819  29.037  1.00  0.00    -0.003 C 
ATOM     20  C   UNL     1       3.738  19.566  28.047  1.00  0.00     0.004 C 
ENDBRANCH  18  19
ENDBRANCH  17  18
ENDBRANCH  16  17
ENDBRANCH  15  16
ENDBRANCH  14  15
ENDBRANCH  13  14
ENDBRANCH   2  13
TORSDOF 15
ENDMDL
