MODEL 1
REMARK VINA RESULT:    -3.720      0.000      0.000
REMARK INTER + INTRA:          -4.723
REMARK INTER:                  -4.590
REMARK INTRA:                  -0.133
REMARK UNBOUND:                -0.133
REMARK SMILES CCCCCC(=O)[O-]
REMARK SMILES IDX 4 1 5 2 6 3 7 4 8 5 3 6 2 7 1 8
REMARK H PARENT
REMARK Flexibility Score: inf
ROOT
ATOM      1  C   UNL     1      13.349 -30.139  23.708  1.00  0.00     0.006 C 
ENDROOT
BRANCH   1   2
ATOM      2  C   UNL     1      13.502 -31.504  23.031  1.00  0.00     0.053 C 
BRANCH   2   3
ATOM      3  C   UNL     1      13.910 -31.337  21.601  1.00  0.00     0.041 C 
ATOM      4  O   UNL     1      13.201 -31.821  20.679  1.00  0.00    -0.550 OA
ATOM      5  O   UNL     1      15.047 -30.605  21.283  1.00  0.00    -0.550 OA
ENDBRANCH   2   3
ENDBRANCH   1   2
BRANCH   1   6
ATOM      6  C   UNL     1      12.098 -29.410  23.195  1.00  0.00     0.000 C 
BRANCH   6   7
ATOM      7  C   UNL     1      11.831 -28.097  23.948  1.00  0.00    -0.003 C 
ATOM      8  C   UNL     1      13.104 -27.292  24.204  1.00  0.00     0.004 C 
ENDBRANCH   6   7
ENDBRANCH   1   6
TORSDOF 4
ENDMDL
MODEL 2
REMARK VINA RESULT:    -3.668      1.590      1.917
REMARK INTER + INTRA:          -4.658
REMARK INTER:                  -4.570
REMARK INTRA:                  -0.088
REMARK UNBOUND:                -0.133
REMARK SMILES CCCCCC(=O)[O-]
REMARK SMILES IDX 4 1 5 2 6 3 7 4 8 5 3 6 2 7 1 8
REMARK H PARENT
REMARK Flexibility Score: inf
ROOT
ATOM      1  C   UNL     1      12.781 -31.009  22.374  1.00  0.00     0.006 C 
ENDROOT
BRANCH   1   2
ATOM      2  C   UNL     1      13.432 -31.487  21.073  1.00  0.00     0.053 C 
BRANCH   2   3
ATOM      3  C   UNL     1      14.219 -32.738  21.309  1.00  0.00     0.041 C 
ATOM      4  O   UNL     1      14.546 -33.473  20.341  1.00  0.00    -0.550 OA
ATOM      5  O   UNL     1      14.632 -33.067  22.594  1.00  0.00    -0.550 OA
ENDBRANCH   2   3
ENDBRANCH   1   2
BRANCH   1   6
ATOM      6  C   UNL     1      13.480 -29.749  22.906  1.00  0.00     0.000 C 
BRANCH   6   7
ATOM      7  C   UNL     1      12.750 -29.134  24.110  1.00  0.00    -0.003 C 
ATOM      8  C   UNL     1      11.509 -28.338  23.707  1.00  0.00     0.004 C 
ENDBRANCH   6   7
ENDBRANCH   1   6
TORSDOF 4
ENDMDL
MODEL 3
REMARK VINA RESULT:    -3.625      2.657      4.389
REMARK INTER + INTRA:          -4.605
REMARK INTER:                  -4.499
REMARK INTRA:                  -0.106
REMARK UNBOUND:                -0.133
REMARK SMILES CCCCCC(=O)[O-]
REMARK SMILES IDX 4 1 5 2 6 3 7 4 8 5 3 6 2 7 1 8
REMARK H PARENT
REMARK Flexibility Score: inf
ROOT
ATOM      1  C   UNL     1      13.608 -30.116  22.590  1.00  0.00     0.006 C 
ENDROOT
BRANCH   1   2
ATOM      2  C   UNL     1      13.057 -29.846  23.994  1.00  0.00     0.053 C 
BRANCH   2   3
ATOM      3  C   UNL     1      12.348 -28.529  24.035  1.00  0.00     0.041 C 
ATOM      4  O   UNL     1      12.935 -27.506  24.475  1.00  0.00    -0.550 OA
ATOM      5  O   UNL     1      11.054 -28.421  23.542  1.00  0.00    -0.550 OA
ENDBRANCH   2   3
ENDBRANCH   1   2
BRANCH   1   6
ATOM      6  C   UNL     1      12.684 -31.065  21.812  1.00  0.00     0.000 C 
BRANCH   6   7
ATOM      7  C   UNL     1      13.408 -31.779  20.660  1.00  0.00    -0.003 C 
ATOM      8  C   UNL     1      14.377 -32.855  21.147  1.00  0.00     0.004 C 
ENDBRANCH   6   7
ENDBRANCH   1   6
TORSDOF 4
ENDMDL
MODEL 4
REMARK VINA RESULT:    -3.604      1.056      1.174
REMARK INTER + INTRA:          -4.579
REMARK INTER:                  -4.430
REMARK INTRA:                  -0.150
REMARK UNBOUND:                -0.133
REMARK SMILES CCCCCC(=O)[O-]
REMARK SMILES IDX 4 1 5 2 6 3 7 4 8 5 3 6 2 7 1 8
REMARK H PARENT
REMARK Flexibility Score: inf
ROOT
ATOM      1  C   UNL     1      13.970 -29.835  23.247  1.00  0.00     0.006 C 
ENDROOT
BRANCH   1   2
ATOM      2  C   UNL     1      14.499 -30.294  21.885  1.00  0.00     0.053 C 
BRANCH   2   3
ATOM      3  C   UNL     1      13.974 -31.655  21.550  1.00  0.00     0.041 C 
ATOM      4  O   UNL     1      13.209 -31.814  20.563  1.00  0.00    -0.550 OA
ATOM      5  O   UNL     1      14.368 -32.755  22.301  1.00  0.00    -0.550 OA
ENDBRANCH   2   3
ENDBRANCH   1   2
BRANCH   1   6
ATOM      6  C   UNL     1      12.446 -29.649  23.210  1.00  0.00     0.000 C 
BRANCH   6   7
ATOM      7  C   UNL     1      11.983 -28.421  24.010  1.00  0.00    -0.003 C 
ATOM      8  C   UNL     1      13.074 -27.360  24.150  1.00  0.00     0.004 C 
ENDBRANCH   6   7
ENDBRANCH   1   6
TORSDOF 4
ENDMDL
MODEL 5
REMARK VINA RESULT:    -3.508      9.195     10.141
REMARK INTER + INTRA:          -4.461
REMARK INTER:                  -4.321
REMARK INTRA:                  -0.140
REMARK UNBOUND:                -0.133
REMARK SMILES CCCCCC(=O)[O-]
REMARK SMILES IDX 4 1 5 2 6 3 7 4 8 5 3 6 2 7 1 8
REMARK H PARENT
REMARK Flexibility Score: inf
ROOT
ATOM      1  C   UNL     1      20.771 -25.674  20.064  1.00  0.00     0.006 C 
ENDROOT
BRANCH   1   2
ATOM      2  C   UNL     1      22.092 -25.049  20.523  1.00  0.00     0.053 C 
BRANCH   2   3
ATOM      3  C   UNL     1      23.183 -25.353  19.545  1.00  0.00     0.041 C 
ATOM      4  O   UNL     1      23.818 -24.416  18.993  1.00  0.00    -0.550 OA
ATOM      5  O   UNL     1      23.532 -26.671  19.281  1.00  0.00    -0.550 OA
ENDBRANCH   2   3
ENDBRANCH   1   2
BRANCH   1   6
ATOM      6  C   UNL     1      20.169 -26.557  21.168  1.00  0.00     0.000 C 
BRANCH   6   7
ATOM      7  C   UNL     1      19.802 -27.961  20.665  1.00  0.00    -0.003 C 
ATOM      8  C   UNL     1      20.849 -29.013  21.031  1.00  0.00     0.004 C 
ENDBRANCH   6   7
ENDBRANCH   1   6
TORSDOF 4
ENDMDL
MODEL 6
REMARK VINA RESULT:    -3.406      2.348      3.214
REMARK INTER + INTRA:          -4.335
REMARK INTER:                  -4.179
REMARK INTRA:                  -0.156
REMARK UNBOUND:                -0.133
REMARK SMILES CCCCCC(=O)[O-]
REMARK SMILES IDX 4 1 5 2 6 3 7 4 8 5 3 6 2 7 1 8
REMARK H PARENT
REMARK Flexibility Score: inf
ROOT
ATOM      1  C   UNL     1      15.215 -32.434  23.413  1.00  0.00     0.006 C 
ENDROOT
BRANCH   1   2
ATOM      2  C   UNL     1      15.139 -33.891  22.947  1.00  0.00     0.053 C 
BRANCH   2   3
ATOM      3  C   UNL     1      15.083 -33.960  21.452  1.00  0.00     0.041 C 
ATOM      4  O   UNL     1      14.378 -33.140  20.806  1.00  0.00    -0.550 OA
ATOM      5  O   UNL     1      15.846 -34.900  20.771  1.00  0.00    -0.550 OA
ENDBRANCH   2   3
ENDBRANCH   1   2
BRANCH   1   6
ATOM      6  C   UNL     1      13.861 -31.964  23.968  1.00  0.00     0.000 C 
BRANCH   6   7
ATOM      7  C   UNL     1      13.451 -30.585  23.430  1.00  0.00    -0.003 C 
ATOM      8  C   UNL     1      12.366 -30.667  22.356  1.00  0.00     0.004 C 
ENDBRANCH   6   7
ENDBRANCH   1   6
TORSDOF 4
ENDMDL
MODEL 7
REMARK VINA RESULT:    -3.395      2.746      4.264
REMARK INTER + INTRA:          -4.322
REMARK INTER:                  -4.246
REMARK INTRA:                  -0.076
REMARK UNBOUND:                -0.133
REMARK SMILES CCCCCC(=O)[O-]
REMARK SMILES IDX 4 1 5 2 6 3 7 4 8 5 3 6 2 7 1 8
REMARK H PARENT
REMARK Flexibility Score: inf
ROOT
ATOM      1  C   UNL     1      13.969 -29.892  23.122  1.00  0.00     0.006 C 
ENDROOT
BRANCH   1   2
ATOM      2  C   UNL     1      12.817 -29.629  24.097  1.00  0.00     0.053 C 
BRANCH   2   3
ATOM      3  C   UNL     1      12.197 -28.294  23.828  1.00  0.00     0.041 C 
ATOM      4  O   UNL     1      11.002 -28.218  23.439  1.00  0.00    -0.550 OA
ATOM      5  O   UNL     1      12.924 -27.132  24.054  1.00  0.00    -0.550 OA
ENDBRANCH   2   3
ENDBRANCH   1   2
BRANCH   1   6
ATOM      6  C   UNL     1      14.062 -31.385  22.772  1.00  0.00     0.000 C 
BRANCH   6   7
ATOM      7  C   UNL     1      14.025 -32.285  24.017  1.00  0.00    -0.003 C 
ATOM      8  C   UNL     1      14.872 -33.548  23.858  1.00  0.00     0.004 C 
ENDBRANCH   6   7
ENDBRANCH   1   6
TORSDOF 4
ENDMDL
MODEL 8
REMARK VINA RESULT:    -3.373      2.943      3.905
REMARK INTER + INTRA:          -4.295
REMARK INTER:                  -4.226
REMARK INTRA:                  -0.068
REMARK UNBOUND:                -0.133
REMARK SMILES CCCCCC(=O)[O-]
REMARK SMILES IDX 4 1 5 2 6 3 7 4 8 5 3 6 2 7 1 8
REMARK H PARENT
REMARK Flexibility Score: inf
ROOT
ATOM      1  C   UNL     1      14.379 -32.647  21.471  1.00  0.00     0.006 C 
ENDROOT
BRANCH   1   2
ATOM      2  C   UNL     1      14.622 -33.692  20.378  1.00  0.00     0.053 C 
BRANCH   2   3
ATOM      3  C   UNL     1      15.598 -34.725  20.848  1.00  0.00     0.041 C 
ATOM      4  O   UNL     1      15.915 -34.789  22.065  1.00  0.00    -0.550 OA
ATOM      5  O   UNL     1      16.120 -35.647  19.950  1.00  0.00    -0.550 OA
ENDBRANCH   2   3
ENDBRANCH   1   2
BRANCH   1   6
ATOM      6  C   UNL     1      13.493 -31.505  20.951  1.00  0.00     0.000 C 
BRANCH   6   7
ATOM      7  C   UNL     1      12.572 -30.931  22.039  1.00  0.00    -0.003 C 
ATOM      8  C   UNL     1      13.322 -30.576  23.323  1.00  0.00     0.004 C 
ENDBRANCH   6   7
ENDBRANCH   1   6
TORSDOF 4
ENDMDL
MODEL 9
REMARK VINA RESULT:    -3.320      1.722      2.168
REMARK INTER + INTRA:          -4.230
REMARK INTER:                  -4.085
REMARK INTRA:                  -0.145
REMARK UNBOUND:                -0.133
REMARK SMILES CCCCCC(=O)[O-]
REMARK SMILES IDX 4 1 5 2 6 3 7 4 8 5 3 6 2 7 1 8
REMARK H PARENT
REMARK Flexibility Score: inf
ROOT
ATOM      1  C   UNL     1      13.487 -31.111  21.612  1.00  0.00     0.006 C 
ENDROOT
BRANCH   1   2
ATOM      2  C   UNL     1      14.771 -31.362  22.408  1.00  0.00     0.053 C 
BRANCH   2   3
ATOM      3  C   UNL     1      15.917 -30.612  21.805  1.00  0.00     0.041 C 
ATOM      4  O   UNL     1      16.850 -31.234  21.231  1.00  0.00    -0.550 OA
ATOM      5  O   UNL     1      15.931 -29.224  21.834  1.00  0.00    -0.550 OA
ENDBRANCH   2   3
ENDBRANCH   1   2
BRANCH   1   6
ATOM      6  C   UNL     1      12.364 -30.604  22.529  1.00  0.00     0.000 C 
BRANCH   6   7
ATOM      7  C   UNL     1      12.885 -29.690  23.649  1.00  0.00    -0.003 C 
ATOM      8  C   UNL     1      11.930 -28.539  23.965  1.00  0.00     0.004 C 
ENDBRANCH   6   7
ENDBRANCH   1   6
TORSDOF 4
ENDMDL
