MODEL 1
REMARK VINA RESULT:    -5.143      0.000      0.000
REMARK INTER + INTRA:         -11.783
REMARK INTER:                  -9.052
REMARK INTRA:                  -2.731
REMARK UNBOUND:                -2.731
REMARK SMILES CCCCCCC=CCCCCCCCC(=O)[O-]
REMARK SMILES IDX 10 1 11 2 12 3 13 4 14 5 15 6 16 7 17 8 18 9 9 10 8 11 7 12
REMARK SMILES IDX 6 13 5 14 4 15 3 16 2 17 1 18
REMARK H PARENT
REMARK Flexibility Score: inf
ROOT
ATOM      1  C   UNL     1      44.236   9.766  -8.417  1.00  0.00     0.004 C 
ENDROOT
BRANCH   1   2
ATOM      2  C   UNL     1      45.351   9.143  -9.278  1.00  0.00     0.000 C 
BRANCH   2   3
ATOM      3  C   UNL     1      46.512   8.515  -8.484  1.00  0.00     0.000 C 
BRANCH   3   4
ATOM      4  C   UNL     1      47.802   9.350  -8.554  1.00  0.00     0.000 C 
BRANCH   4   5
ATOM      5  C   UNL     1      48.888   8.843  -7.591  1.00  0.00     0.006 C 
BRANCH   5   6
ATOM      6  C   UNL     1      50.003   9.871  -7.357  1.00  0.00     0.053 C 
BRANCH   6   7
ATOM      7  C   UNL     1      50.224  10.076  -5.892  1.00  0.00     0.041 C 
ATOM      8  O   UNL     1      50.200   9.093  -5.105  1.00  0.00    -0.550 OA
ATOM      9  O   UNL     1      50.403  11.357  -5.387  1.00  0.00    -0.550 OA
ENDBRANCH   6   7
ENDBRANCH   5   6
ENDBRANCH   4   5
ENDBRANCH   3   4
ENDBRANCH   2   3
ENDBRANCH   1   2
BRANCH   1  10
ATOM     10  C   UNL     1      43.946  11.229  -8.782  1.00  0.00     0.027 C 
BRANCH  10  11
ATOM     11  C   UNL     1      45.076  11.816  -9.589  1.00  0.00    -0.031 C 
ATOM     12  C   UNL     1      46.000  12.659  -9.094  1.00  0.00    -0.031 C 
BRANCH  12  13
ATOM     13  C   UNL     1      46.046  13.088  -7.648  1.00  0.00     0.027 C 
BRANCH  13  14
ATOM     14  C   UNL     1      47.254  12.481  -6.927  1.00  0.00     0.004 C 
BRANCH  14  15
ATOM     15  C   UNL     1      46.903  12.110  -5.480  1.00  0.00     0.000 C 
BRANCH  15  16
ATOM     16  C   UNL     1      45.452  11.622  -5.321  1.00  0.00    -0.000 C 
BRANCH  16  17
ATOM     17  C   UNL     1      45.341  10.139  -4.907  1.00  0.00    -0.003 C 
ATOM     18  C   UNL     1      46.707   9.503  -4.647  1.00  0.00     0.004 C 
ENDBRANCH  16  17
ENDBRANCH  15  16
ENDBRANCH  14  15
ENDBRANCH  13  14
ENDBRANCH  12  13
ENDBRANCH  10  11
ENDBRANCH   1  10
TORSDOF 13
ENDMDL
MODEL 2
REMARK VINA RESULT:    -5.057     17.045     19.580
REMARK INTER + INTRA:         -11.632
REMARK INTER:                  -9.130
REMARK INTRA:                  -2.502
REMARK UNBOUND:                -2.731
REMARK SMILES CCCCCCC=CCCCCCCCC(=O)[O-]
REMARK SMILES IDX 10 1 11 2 12 3 13 4 14 5 15 6 16 7 17 8 18 9 9 10 8 11 7 12
REMARK SMILES IDX 6 13 5 14 4 15 3 16 2 17 1 18
REMARK H PARENT
REMARK Flexibility Score: inf
ROOT
ATOM      1  C   UNL     1      34.599   0.410   3.053  1.00  0.00     0.004 C 
ENDROOT
BRANCH   1   2
ATOM      2  C   UNL     1      35.774   1.400   3.163  1.00  0.00     0.000 C 
BRANCH   2   3
ATOM      3  C   UNL     1      35.380   2.837   3.556  1.00  0.00     0.000 C 
BRANCH   3   4
ATOM      4  C   UNL     1      33.863   3.080   3.483  1.00  0.00     0.000 C 
BRANCH   4   5
ATOM      5  C   UNL     1      33.239   3.344   4.864  1.00  0.00     0.006 C 
BRANCH   5   6
ATOM      6  C   UNL     1      33.929   4.487   5.620  1.00  0.00     0.053 C 
BRANCH   6   7
ATOM      7  C   UNL     1      34.095   4.131   7.063  1.00  0.00     0.041 C 
ATOM      8  O   UNL     1      34.797   4.856   7.817  1.00  0.00    -0.550 OA
ATOM      9  O   UNL     1      33.519   2.971   7.565  1.00  0.00    -0.550 OA
ENDBRANCH   6   7
ENDBRANCH   5   6
ENDBRANCH   4   5
ENDBRANCH   3   4
ENDBRANCH   2   3
ENDBRANCH   1   2
BRANCH   1  10
ATOM     10  C   UNL     1      34.627  -0.673   4.141  1.00  0.00     0.027 C 
BRANCH  10  11
ATOM     11  C   UNL     1      34.353  -0.078   5.500  1.00  0.00    -0.031 C 
ATOM     12  C   UNL     1      35.248  -0.045   6.504  1.00  0.00    -0.031 C 
BRANCH  12  13
ATOM     13  C   UNL     1      36.660  -0.563   6.378  1.00  0.00     0.027 C 
BRANCH  13  14
ATOM     14  C   UNL     1      37.680   0.499   6.805  1.00  0.00     0.004 C 
BRANCH  14  15
ATOM     15  C   UNL     1      36.991   1.842   7.084  1.00  0.00     0.000 C 
BRANCH  15  16
ATOM     16  C   UNL     1      37.713   3.034   6.431  1.00  0.00    -0.000 C 
BRANCH  16  17
ATOM     17  C   UNL     1      38.790   2.618   5.407  1.00  0.00    -0.003 C 
ATOM     18  C   UNL     1      39.003   3.677   4.325  1.00  0.00     0.004 C 
ENDBRANCH  16  17
ENDBRANCH  15  16
ENDBRANCH  14  15
ENDBRANCH  13  14
ENDBRANCH  12  13
ENDBRANCH  10  11
ENDBRANCH   1  10
TORSDOF 13
ENDMDL
MODEL 3
REMARK VINA RESULT:    -5.052     18.644     19.912
REMARK INTER + INTRA:         -11.622
REMARK INTER:                  -9.437
REMARK INTRA:                  -2.186
REMARK UNBOUND:                -2.731
REMARK SMILES CCCCCCC=CCCCCCCCC(=O)[O-]
REMARK SMILES IDX 10 1 11 2 12 3 13 4 14 5 15 6 16 7 17 8 18 9 9 10 8 11 7 12
REMARK SMILES IDX 6 13 5 14 4 15 3 16 2 17 1 18
REMARK H PARENT
REMARK Flexibility Score: inf
ROOT
ATOM      1  C   UNL     1      35.157   0.231   2.811  1.00  0.00     0.004 C 
ENDROOT
BRANCH   1   2
ATOM      2  C   UNL     1      36.651   0.376   3.154  1.00  0.00     0.000 C 
BRANCH   2   3
ATOM      3  C   UNL     1      37.175  -0.613   4.212  1.00  0.00     0.000 C 
BRANCH   3   4
ATOM      4  C   UNL     1      37.224  -0.005   5.624  1.00  0.00     0.000 C 
BRANCH   4   5
ATOM      5  C   UNL     1      36.076  -0.497   6.521  1.00  0.00     0.006 C 
BRANCH   5   6
ATOM      6  C   UNL     1      35.134   0.633   6.956  1.00  0.00     0.053 C 
BRANCH   6   7
ATOM      7  C   UNL     1      33.781   0.087   7.288  1.00  0.00     0.041 C 
ATOM      8  O   UNL     1      33.209  -0.708   6.496  1.00  0.00    -0.550 OA
ATOM      9  O   UNL     1      33.129   0.496   8.443  1.00  0.00    -0.550 OA
ENDBRANCH   6   7
ENDBRANCH   5   6
ENDBRANCH   4   5
ENDBRANCH   3   4
ENDBRANCH   2   3
ENDBRANCH   1   2
BRANCH   1  10
ATOM     10  C   UNL     1      34.276   1.266   3.526  1.00  0.00     0.027 C 
BRANCH  10  11
ATOM     11  C   UNL     1      35.012   2.571   3.698  1.00  0.00    -0.031 C 
ATOM     12  C   UNL     1      34.553   3.608   4.420  1.00  0.00    -0.031 C 
BRANCH  12  13
ATOM     13  C   UNL     1      33.255   3.576   5.190  1.00  0.00     0.027 C 
BRANCH  13  14
ATOM     14  C   UNL     1      33.479   3.916   6.668  1.00  0.00     0.004 C 
BRANCH  14  15
ATOM     15  C   UNL     1      34.244   5.239   6.819  1.00  0.00     0.000 C 
BRANCH  15  16
ATOM     16  C   UNL     1      35.360   5.170   7.875  1.00  0.00    -0.000 C 
BRANCH  16  17
ATOM     17  C   UNL     1      36.767   4.965   7.275  1.00  0.00    -0.003 C 
ATOM     18  C   UNL     1      37.257   3.524   7.419  1.00  0.00     0.004 C 
ENDBRANCH  16  17
ENDBRANCH  15  16
ENDBRANCH  14  15
ENDBRANCH  13  14
ENDBRANCH  12  13
ENDBRANCH  10  11
ENDBRANCH   1  10
TORSDOF 13
ENDMDL
MODEL 4
REMARK VINA RESULT:    -5.045      2.755      5.213
REMARK INTER + INTRA:         -11.610
REMARK INTER:                  -9.245
REMARK INTRA:                  -2.365
REMARK UNBOUND:                -2.731
REMARK SMILES CCCCCCC=CCCCCCCCC(=O)[O-]
REMARK SMILES IDX 10 1 11 2 12 3 13 4 14 5 15 6 16 7 17 8 18 9 9 10 8 11 7 12
REMARK SMILES IDX 6 13 5 14 4 15 3 16 2 17 1 18
REMARK H PARENT
REMARK Flexibility Score: inf
ROOT
ATOM      1  C   UNL     1      49.997  10.213  -5.263  1.00  0.00     0.004 C 
ENDROOT
BRANCH   1   2
ATOM      2  C   UNL     1      49.259  11.512  -5.635  1.00  0.00     0.000 C 
BRANCH   2   3
ATOM      3  C   UNL     1      48.051  11.852  -4.743  1.00  0.00     0.000 C 
BRANCH   3   4
ATOM      4  C   UNL     1      46.850  12.388  -5.543  1.00  0.00     0.000 C 
BRANCH   4   5
ATOM      5  C   UNL     1      47.133  12.468  -7.052  1.00  0.00     0.006 C 
BRANCH   5   6
ATOM      6  C   UNL     1      45.920  12.949  -7.859  1.00  0.00     0.053 C 
BRANCH   6   7
ATOM      7  C   UNL     1      45.940  12.356  -9.233  1.00  0.00     0.041 C 
ATOM      8  O   UNL     1      44.877  11.924  -9.751  1.00  0.00    -0.550 OA
ATOM      9  O   UNL     1      47.141  12.230  -9.919  1.00  0.00    -0.550 OA
ENDBRANCH   6   7
ENDBRANCH   5   6
ENDBRANCH   4   5
ENDBRANCH   3   4
ENDBRANCH   2   3
ENDBRANCH   1   2
BRANCH   1  10
ATOM     10  C   UNL     1      49.610   9.028  -6.161  1.00  0.00     0.027 C 
BRANCH  10  11
ATOM     11  C   UNL     1      49.305   9.492  -7.563  1.00  0.00    -0.031 C 
ATOM     12  C   UNL     1      48.220   9.115  -8.264  1.00  0.00    -0.031 C 
BRANCH  12  13
ATOM     13  C   UNL     1      47.145   8.211  -7.712  1.00  0.00     0.027 C 
BRANCH  13  14
ATOM     14  C   UNL     1      45.981   9.024  -7.133  1.00  0.00     0.004 C 
BRANCH  14  15
ATOM     15  C   UNL     1      45.803   8.740  -5.635  1.00  0.00     0.000 C 
BRANCH  15  16
ATOM     16  C   UNL     1      46.336   7.358  -5.219  1.00  0.00    -0.000 C 
BRANCH  16  17
ATOM     17  C   UNL     1      45.249   6.263  -5.175  1.00  0.00    -0.003 C 
ATOM     18  C   UNL     1      45.835   4.856  -5.291  1.00  0.00     0.004 C 
ENDBRANCH  16  17
ENDBRANCH  15  16
ENDBRANCH  14  15
ENDBRANCH  13  14
ENDBRANCH  12  13
ENDBRANCH  10  11
ENDBRANCH   1  10
TORSDOF 13
ENDMDL
MODEL 5
REMARK VINA RESULT:    -5.011      1.770      4.488
REMARK INTER + INTRA:         -11.550
REMARK INTER:                  -9.204
REMARK INTRA:                  -2.346
REMARK UNBOUND:                -2.731
REMARK SMILES CCCCCCC=CCCCCCCCC(=O)[O-]
REMARK SMILES IDX 10 1 11 2 12 3 13 4 14 5 15 6 16 7 17 8 18 9 9 10 8 11 7 12
REMARK SMILES IDX 6 13 5 14 4 15 3 16 2 17 1 18
REMARK H PARENT
REMARK Flexibility Score: inf
ROOT
ATOM      1  C   UNL     1      50.177   9.888  -5.857  1.00  0.00     0.004 C 
ENDROOT
BRANCH   1   2
ATOM      2  C   UNL     1      50.013   9.640  -7.368  1.00  0.00     0.000 C 
BRANCH   2   3
ATOM      3  C   UNL     1      49.219   8.373  -7.737  1.00  0.00     0.000 C 
BRANCH   3   4
ATOM      4  C   UNL     1      47.754   8.671  -8.101  1.00  0.00     0.000 C 
BRANCH   4   5
ATOM      5  C   UNL     1      46.756   7.961  -7.172  1.00  0.00     0.006 C 
BRANCH   5   6
ATOM      6  C   UNL     1      45.905   8.940  -6.353  1.00  0.00     0.053 C 
BRANCH   6   7
ATOM      7  C   UNL     1      46.320   8.916  -4.916  1.00  0.00     0.041 C 
ATOM      8  O   UNL     1      47.341   8.269  -4.563  1.00  0.00    -0.550 OA
ATOM      9  O   UNL     1      45.550   9.563  -3.959  1.00  0.00    -0.550 OA
ENDBRANCH   6   7
ENDBRANCH   5   6
ENDBRANCH   4   5
ENDBRANCH   3   4
ENDBRANCH   2   3
ENDBRANCH   1   2
BRANCH   1  10
ATOM     10  C   UNL     1      50.126  11.378  -5.487  1.00  0.00     0.027 C 
BRANCH  10  11
ATOM     11  C   UNL     1      48.868  11.699  -4.720  1.00  0.00    -0.031 C 
ATOM     12  C   UNL     1      47.724  12.120  -5.288  1.00  0.00    -0.031 C 
BRANCH  12  13
ATOM     13  C   UNL     1      47.544  12.280  -6.778  1.00  0.00     0.027 C 
BRANCH  13  14
ATOM     14  C   UNL     1      46.087  12.607  -7.128  1.00  0.00     0.004 C 
BRANCH  14  15
ATOM     15  C   UNL     1      45.911  12.775  -8.644  1.00  0.00     0.000 C 
BRANCH  15  16
ATOM     16  C   UNL     1      45.255  11.554  -9.310  1.00  0.00    -0.000 C 
BRANCH  16  17
ATOM     17  C   UNL     1      46.124  10.909 -10.411  1.00  0.00    -0.003 C 
ATOM     18  C   UNL     1      47.551  11.456 -10.421  1.00  0.00     0.004 C 
ENDBRANCH  16  17
ENDBRANCH  15  16
ENDBRANCH  14  15
ENDBRANCH  13  14
ENDBRANCH  12  13
ENDBRANCH  10  11
ENDBRANCH   1  10
TORSDOF 13
ENDMDL
MODEL 6
REMARK VINA RESULT:    -4.993     17.839     19.502
REMARK INTER + INTRA:         -11.519
REMARK INTER:                  -9.158
REMARK INTRA:                  -2.361
REMARK UNBOUND:                -2.731
REMARK SMILES CCCCCCC=CCCCCCCCC(=O)[O-]
REMARK SMILES IDX 10 1 11 2 12 3 13 4 14 5 15 6 16 7 17 8 18 9 9 10 8 11 7 12
REMARK SMILES IDX 6 13 5 14 4 15 3 16 2 17 1 18
REMARK H PARENT
REMARK Flexibility Score: inf
ROOT
ATOM      1  C   UNL     1      35.584  -0.315   3.412  1.00  0.00     0.004 C 
ENDROOT
BRANCH   1   2
ATOM      2  C   UNL     1      35.187  -1.133   4.656  1.00  0.00     0.000 C 
BRANCH   2   3
ATOM      3  C   UNL     1      35.802  -0.642   5.980  1.00  0.00     0.000 C 
BRANCH   3   4
ATOM      4  C   UNL     1      37.165   0.045   5.787  1.00  0.00     0.000 C 
BRANCH   4   5
ATOM      5  C   UNL     1      37.328   1.294   6.669  1.00  0.00     0.006 C 
BRANCH   5   6
ATOM      6  C   UNL     1      37.864   2.504   5.893  1.00  0.00     0.053 C 
BRANCH   6   7
ATOM      7  C   UNL     1      37.373   3.777   6.508  1.00  0.00     0.041 C 
ATOM      8  O   UNL     1      36.919   4.698   5.779  1.00  0.00    -0.550 OA
ATOM      9  O   UNL     1      37.466   3.968   7.880  1.00  0.00    -0.550 OA
ENDBRANCH   6   7
ENDBRANCH   5   6
ENDBRANCH   4   5
ENDBRANCH   3   4
ENDBRANCH   2   3
ENDBRANCH   1   2
BRANCH   1  10
ATOM     10  C   UNL     1      34.590   0.812   3.097  1.00  0.00     0.027 C 
BRANCH  10  11
ATOM     11  C   UNL     1      35.266   2.159   3.162  1.00  0.00    -0.031 C 
ATOM     12  C   UNL     1      34.648   3.297   3.524  1.00  0.00    -0.031 C 
BRANCH  12  13
ATOM     13  C   UNL     1      33.203   3.359   3.957  1.00  0.00     0.027 C 
BRANCH  13  14
ATOM     14  C   UNL     1      33.087   3.641   5.460  1.00  0.00     0.004 C 
BRANCH  14  15
ATOM     15  C   UNL     1      33.864   2.600   6.276  1.00  0.00     0.000 C 
BRANCH  15  16
ATOM     16  C   UNL     1      34.048   3.007   7.749  1.00  0.00    -0.000 C 
BRANCH  16  17
ATOM     17  C   UNL     1      34.181   1.807   8.710  1.00  0.00    -0.003 C 
ATOM     18  C   UNL     1      33.291   0.633   8.302  1.00  0.00     0.004 C 
ENDBRANCH  16  17
ENDBRANCH  15  16
ENDBRANCH  14  15
ENDBRANCH  13  14
ENDBRANCH  12  13
ENDBRANCH  10  11
ENDBRANCH   1  10
TORSDOF 13
ENDMDL
MODEL 7
REMARK VINA RESULT:    -4.928     16.199     18.655
REMARK INTER + INTRA:         -11.404
REMARK INTER:                  -8.974
REMARK INTRA:                  -2.431
REMARK UNBOUND:                -2.731
REMARK SMILES CCCCCCC=CCCCCCCCC(=O)[O-]
REMARK SMILES IDX 10 1 11 2 12 3 13 4 14 5 15 6 16 7 17 8 18 9 9 10 8 11 7 12
REMARK SMILES IDX 6 13 5 14 4 15 3 16 2 17 1 18
REMARK H PARENT
REMARK Flexibility Score: inf
ROOT
ATOM      1  C   UNL     1      34.931  -0.589   3.871  1.00  0.00     0.004 C 
ENDROOT
BRANCH   1   2
ATOM      2  C   UNL     1      34.485   0.680   3.119  1.00  0.00     0.000 C 
BRANCH   2   3
ATOM      3  C   UNL     1      34.272   1.921   4.007  1.00  0.00     0.000 C 
BRANCH   3   4
ATOM      4  C   UNL     1      35.040   3.154   3.503  1.00  0.00     0.000 C 
BRANCH   4   5
ATOM      5  C   UNL     1      36.557   3.040   3.729  1.00  0.00     0.006 C 
BRANCH   5   6
ATOM      6  C   UNL     1      37.346   2.914   2.419  1.00  0.00     0.053 C 
BRANCH   6   7
ATOM      7  C   UNL     1      38.415   1.875   2.553  1.00  0.00     0.041 C 
ATOM      8  O   UNL     1      38.126   0.718   2.956  1.00  0.00    -0.550 OA
ATOM      9  O   UNL     1      39.738   2.200   2.285  1.00  0.00    -0.550 OA
ENDBRANCH   6   7
ENDBRANCH   5   6
ENDBRANCH   4   5
ENDBRANCH   3   4
ENDBRANCH   2   3
ENDBRANCH   1   2
BRANCH   1  10
ATOM     10  C   UNL     1      35.078  -0.367   5.383  1.00  0.00     0.027 C 
BRANCH  10  11
ATOM     11  C   UNL     1      36.527  -0.429   5.798  1.00  0.00    -0.031 C 
ATOM     12  C   UNL     1      37.126   0.479   6.589  1.00  0.00    -0.031 C 
BRANCH  12  13
ATOM     13  C   UNL     1      36.404   1.655   7.202  1.00  0.00     0.027 C 
BRANCH  13  14
ATOM     14  C   UNL     1      37.293   2.904   7.217  1.00  0.00     0.004 C 
BRANCH  14  15
ATOM     15  C   UNL     1      36.484   4.149   7.605  1.00  0.00     0.000 C 
BRANCH  15  16
ATOM     16  C   UNL     1      35.003   3.841   7.881  1.00  0.00    -0.000 C 
BRANCH  16  17
ATOM     17  C   UNL     1      34.035   4.506   6.878  1.00  0.00    -0.003 C 
ATOM     18  C   UNL     1      34.618   5.778   6.263  1.00  0.00     0.004 C 
ENDBRANCH  16  17
ENDBRANCH  15  16
ENDBRANCH  14  15
ENDBRANCH  13  14
ENDBRANCH  12  13
ENDBRANCH  10  11
ENDBRANCH   1  10
TORSDOF 13
ENDMDL
MODEL 8
REMARK VINA RESULT:    -4.924     16.686     19.285
REMARK INTER + INTRA:         -11.397
REMARK INTER:                  -9.051
REMARK INTRA:                  -2.346
REMARK UNBOUND:                -2.731
REMARK SMILES CCCCCCC=CCCCCCCCC(=O)[O-]
REMARK SMILES IDX 10 1 11 2 12 3 13 4 14 5 15 6 16 7 17 8 18 9 9 10 8 11 7 12
REMARK SMILES IDX 6 13 5 14 4 15 3 16 2 17 1 18
REMARK H PARENT
REMARK Flexibility Score: inf
ROOT
ATOM      1  C   UNL     1      34.548   5.088   6.767  1.00  0.00     0.004 C 
ENDROOT
BRANCH   1   2
ATOM      2  C   UNL     1      33.546   3.948   6.504  1.00  0.00     0.000 C 
BRANCH   2   3
ATOM      3  C   UNL     1      33.159   3.750   5.026  1.00  0.00     0.000 C 
BRANCH   3   4
ATOM      4  C   UNL     1      34.072   2.747   4.300  1.00  0.00     0.000 C 
BRANCH   4   5
ATOM      5  C   UNL     1      34.924   3.409   3.205  1.00  0.00     0.006 C 
BRANCH   5   6
ATOM      6  C   UNL     1      36.277   3.912   3.726  1.00  0.00     0.053 C 
BRANCH   6   7
ATOM      7  C   UNL     1      36.475   5.349   3.359  1.00  0.00     0.041 C 
ATOM      8  O   UNL     1      36.391   5.712   2.156  1.00  0.00    -0.550 OA
ATOM      9  O   UNL     1      36.806   6.278   4.337  1.00  0.00    -0.550 OA
ENDBRANCH   6   7
ENDBRANCH   5   6
ENDBRANCH   4   5
ENDBRANCH   3   4
ENDBRANCH   2   3
ENDBRANCH   1   2
BRANCH   1  10
ATOM     10  C   UNL     1      35.456   4.818   7.977  1.00  0.00     0.027 C 
BRANCH  10  11
ATOM     11  C   UNL     1      36.884   4.609   7.541  1.00  0.00    -0.031 C 
ATOM     12  C   UNL     1      37.424   3.407   7.270  1.00  0.00    -0.031 C 
BRANCH  12  13
ATOM     13  C   UNL     1      36.646   2.114   7.326  1.00  0.00     0.027 C 
BRANCH  13  14
ATOM     14  C   UNL     1      37.116   1.139   6.240  1.00  0.00     0.004 C 
BRANCH  14  15
ATOM     15  C   UNL     1      36.416  -0.220   6.383  1.00  0.00     0.000 C 
BRANCH  15  16
ATOM     16  C   UNL     1      35.234  -0.391   5.413  1.00  0.00    -0.000 C 
BRANCH  16  17
ATOM     17  C   UNL     1      33.899  -0.717   6.115  1.00  0.00    -0.003 C 
ATOM     18  C   UNL     1      33.569   0.279   7.227  1.00  0.00     0.004 C 
ENDBRANCH  16  17
ENDBRANCH  15  16
ENDBRANCH  14  15
ENDBRANCH  13  14
ENDBRANCH  12  13
ENDBRANCH  10  11
ENDBRANCH   1  10
TORSDOF 13
ENDMDL
MODEL 9
REMARK VINA RESULT:    -4.921     15.979     18.430
REMARK INTER + INTRA:         -11.392
REMARK INTER:                  -9.045
REMARK INTRA:                  -2.347
REMARK UNBOUND:                -2.731
REMARK SMILES CCCCCCC=CCCCCCCCC(=O)[O-]
REMARK SMILES IDX 10 1 11 2 12 3 13 4 14 5 15 6 16 7 17 8 18 9 9 10 8 11 7 12
REMARK SMILES IDX 6 13 5 14 4 15 3 16 2 17 1 18
REMARK H PARENT
REMARK Flexibility Score: inf
ROOT
ATOM      1  C   UNL     1      35.979  -0.537   6.039  1.00  0.00     0.004 C 
ENDROOT
BRANCH   1   2
ATOM      2  C   UNL     1      36.307   0.729   6.853  1.00  0.00     0.000 C 
BRANCH   2   3
ATOM      3  C   UNL     1      37.703   1.326   6.594  1.00  0.00     0.000 C 
BRANCH   3   4
ATOM      4  C   UNL     1      37.691   2.863   6.521  1.00  0.00     0.000 C 
BRANCH   4   5
ATOM      5  C   UNL     1      38.051   3.392   5.123  1.00  0.00     0.006 C 
BRANCH   5   6
ATOM      6  C   UNL     1      39.099   2.528   4.412  1.00  0.00     0.053 C 
BRANCH   6   7
ATOM      7  C   UNL     1      40.348   3.316   4.172  1.00  0.00     0.041 C 
ATOM      8  O   UNL     1      40.310   4.369   3.481  1.00  0.00    -0.550 OA
ATOM      9  O   UNL     1      41.564   2.860   4.664  1.00  0.00    -0.550 OA
ENDBRANCH   6   7
ENDBRANCH   5   6
ENDBRANCH   4   5
ENDBRANCH   3   4
ENDBRANCH   2   3
ENDBRANCH   1   2
BRANCH   1  10
ATOM     10  C   UNL     1      36.507  -0.474   4.598  1.00  0.00     0.027 C 
BRANCH  10  11
ATOM     11  C   UNL     1      35.376  -0.572   3.606  1.00  0.00    -0.031 C 
ATOM     12  C   UNL     1      34.669   0.482   3.159  1.00  0.00    -0.031 C 
BRANCH  12  13
ATOM     13  C   UNL     1      34.954   1.908   3.565  1.00  0.00     0.027 C 
BRANCH  13  14
ATOM     14  C   UNL     1      33.939   2.403   4.601  1.00  0.00     0.004 C 
BRANCH  14  15
ATOM     15  C   UNL     1      34.261   3.836   5.045  1.00  0.00     0.000 C 
BRANCH  15  16
ATOM     16  C   UNL     1      33.956   4.086   6.532  1.00  0.00    -0.000 C 
BRANCH  16  17
ATOM     17  C   UNL     1      34.802   5.217   7.155  1.00  0.00    -0.003 C 
ATOM     18  C   UNL     1      35.326   4.855   8.545  1.00  0.00     0.004 C 
ENDBRANCH  16  17
ENDBRANCH  15  16
ENDBRANCH  14  15
ENDBRANCH  13  14
ENDBRANCH  12  13
ENDBRANCH  10  11
ENDBRANCH   1  10
TORSDOF 13
ENDMDL
