MODEL 1
REMARK VINA RESULT:    18.501      0.000      0.000
REMARK INTER + INTRA:          18.501
REMARK INTER:                  18.501
REMARK INTRA:                   0.000
REMARK UNBOUND:                 0.000
REMARK SMILES C=C1CCC[C@]2(C)C=C3OC(=O)C(C)=C3C[C@H]12
REMARK SMILES IDX 14 1 13 2 15 3 16 4 17 5 2 6 1 7 3 8 4 9 5 10 6 11 8 12 9 13
REMARK SMILES IDX 10 14 11 15 12 16 7 17
REMARK H PARENT
REMARK Flexibility Score: inf
ROOT
ATOM      1  C   UNL     1       9.792   7.093  18.220  1.00  0.00     0.053 C 
ATOM      2  C   UNL     1       8.445   6.533  18.553  1.00  0.00     0.041 C 
ATOM      3  C   UNL     1       8.197   5.369  19.148  1.00  0.00     0.005 C 
ATOM      4  C   UNL     1       9.162   4.350  19.664  1.00  0.00     0.049 C 
ATOM      5  C   UNL     1       8.448   2.979  19.831  1.00  0.00     0.029 C 
ATOM      6  C   UNL     1       8.341   2.256  18.493  1.00  0.00    -0.073 C 
ATOM      7  C   UNL     1       9.443   1.793  17.881  1.00  0.00     0.008 C 
ATOM      8  C   UNL     1       6.981   2.035  17.875  1.00  0.00     0.031 C 
ATOM      9  C   UNL     1       5.990   1.418  18.878  1.00  0.00     0.005 C 
ATOM     10  C   UNL     1       6.270   1.768  20.358  1.00  0.00     0.012 C 
ATOM     11  C   UNL     1       7.041   3.100  20.546  1.00  0.00    -0.004 C 
ATOM     12  C   UNL     1       6.196   4.249  20.002  1.00  0.00     0.027 C 
ATOM     13  C   UNL     1       6.772   5.281  19.394  1.00  0.00     0.131 C 
ATOM     14  O   UNL     1       6.130   6.413  18.914  1.00  0.00    -0.423 OA
ATOM     15  C   UNL     1       7.150   7.201  18.394  1.00  0.00     0.339 C 
ATOM     16  O   UNL     1       6.968   8.332  17.875  1.00  0.00    -0.246 OA
ATOM     17  C   UNL     1       7.241   3.344  22.056  1.00  0.00     0.016 C 
ENDROOT
TORSDOF 0
ENDMDL
