MODEL 1
REMARK VINA RESULT:    -4.677      0.000      0.000
REMARK INTER + INTRA:          -5.356
REMARK INTER:                  -5.224
REMARK INTRA:                  -0.132
REMARK UNBOUND:                -0.132
REMARK SMILES COc1cc2ccc(=O)oc2cc1OC
REMARK SMILES IDX 3 1 13 2 12 3 11 4 5 5 4 6 6 7 7 8 8 9 9 10 10 11 2 12 1 13
REMARK SMILES IDX 14 14 15 15
REMARK H PARENT
REMARK Flexibility Score: inf
ROOT
ATOM      1  C   UNL     1     131.071 134.845 127.553  1.00  0.00     0.161 A 
ATOM      2  C   UNL     1     131.631 134.696 126.272  1.00  0.00     0.164 A 
ATOM      3  C   UNL     1     131.799 135.825 125.447  1.00  0.00     0.098 A 
ATOM      4  C   UNL     1     131.413 137.091 125.892  1.00  0.00     0.142 A 
ATOM      5  C   UNL     1     130.853 137.242 127.176  1.00  0.00     0.022 A 
ATOM      6  C   UNL     1     130.682 136.123 128.001  1.00  0.00     0.062 A 
ATOM      7  C   UNL     1     130.476 138.522 127.593  1.00  0.00     0.019 A 
ATOM      8  C   UNL     1     130.666 139.606 126.735  1.00  0.00     0.094 A 
ATOM      9  C   UNL     1     131.228 139.380 125.474  1.00  0.00     0.336 A 
ATOM     10  O   UNL     1     131.408 140.343 124.685  1.00  0.00    -0.246 OA
ATOM     11  O   UNL     1     131.577 138.151 125.104  1.00  0.00    -0.423 OA
ENDROOT
BRANCH   1  12
ATOM     12  O   UNL     1     130.918 133.699 128.349  1.00  0.00    -0.493 OA
ATOM     13  C   UNL     1     129.677 133.044 128.590  1.00  0.00     0.278 C 
ENDBRANCH   1  12
BRANCH   2  14
ATOM     14  O   UNL     1     132.007 133.408 125.857  1.00  0.00    -0.493 OA
ATOM     15  C   UNL     1     133.318 133.046 125.434  1.00  0.00     0.278 C 
ENDBRANCH   2  14
TORSDOF 2
ENDMDL
MODEL 2
REMARK VINA RESULT:    -4.516      1.421      1.949
REMARK INTER + INTRA:          -5.176
REMARK INTER:                  -5.047
REMARK INTRA:                  -0.130
REMARK UNBOUND:                -0.132
REMARK SMILES COc1cc2ccc(=O)oc2cc1OC
REMARK SMILES IDX 3 1 13 2 12 3 11 4 5 5 4 6 6 7 7 8 8 9 9 10 10 11 2 12 1 13
REMARK SMILES IDX 14 14 15 15
REMARK H PARENT
REMARK Flexibility Score: inf
ROOT
ATOM      1  C   UNL     1     131.989 133.003 127.510  1.00  0.00     0.161 A 
ATOM      2  C   UNL     1     132.430 133.062 126.177  1.00  0.00     0.164 A 
ATOM      3  C   UNL     1     132.287 134.257 125.446  1.00  0.00     0.098 A 
ATOM      4  C   UNL     1     131.708 135.383 126.036  1.00  0.00     0.142 A 
ATOM      5  C   UNL     1     131.266 135.324 127.373  1.00  0.00     0.022 A 
ATOM      6  C   UNL     1     131.405 134.138 128.105  1.00  0.00     0.062 A 
ATOM      7  C   UNL     1     130.691 136.468 127.936  1.00  0.00     0.019 A 
ATOM      8  C   UNL     1     130.574 137.626 127.166  1.00  0.00     0.094 A 
ATOM      9  C   UNL     1     131.035 137.610 125.846  1.00  0.00     0.336 A 
ATOM     10  O   UNL     1     130.939 138.644 125.134  1.00  0.00    -0.246 OA
ATOM     11  O   UNL     1     131.578 136.508 125.336  1.00  0.00    -0.423 OA
ENDROOT
BRANCH   1  12
ATOM     12  O   UNL     1     132.147 131.795 128.209  1.00  0.00    -0.493 OA
ATOM     13  C   UNL     1     131.082 130.914 128.550  1.00  0.00     0.278 C 
ENDBRANCH   1  12
BRANCH   2  14
ATOM     14  O   UNL     1     133.006 131.911 125.615  1.00  0.00    -0.493 OA
ATOM     15  C   UNL     1     134.276 131.875 124.970  1.00  0.00     0.278 C 
ENDBRANCH   2  14
TORSDOF 2
ENDMDL
MODEL 3
REMARK VINA RESULT:    -4.497      1.429      5.289
REMARK INTER + INTRA:          -5.155
REMARK INTER:                  -5.037
REMARK INTRA:                  -0.118
REMARK UNBOUND:                -0.132
REMARK SMILES COc1cc2ccc(=O)oc2cc1OC
REMARK SMILES IDX 3 1 13 2 12 3 11 4 5 5 4 6 6 7 7 8 8 9 9 10 10 11 2 12 1 13
REMARK SMILES IDX 14 14 15 15
REMARK H PARENT
REMARK Flexibility Score: inf
ROOT
ATOM      1  C   UNL     1     130.566 139.937 126.789  1.00  0.00     0.161 A 
ATOM      2  C   UNL     1     131.192 139.817 125.537  1.00  0.00     0.164 A 
ATOM      3  C   UNL     1     131.639 138.555 125.097  1.00  0.00     0.098 A 
ATOM      4  C   UNL     1     131.464 137.424 125.898  1.00  0.00     0.142 A 
ATOM      5  C   UNL     1     130.835 137.544 127.154  1.00  0.00     0.022 A 
ATOM      6  C   UNL     1     130.390 138.796 127.596  1.00  0.00     0.062 A 
ATOM      7  C   UNL     1     130.675 136.393 127.931  1.00  0.00     0.019 A 
ATOM      8  C   UNL     1     131.136 135.169 127.447  1.00  0.00     0.094 A 
ATOM      9  C   UNL     1     131.750 135.126 126.191  1.00  0.00     0.336 A 
ATOM     10  O   UNL     1     132.173 134.032 125.735  1.00  0.00    -0.246 OA
ATOM     11  O   UNL     1     131.889 136.237 125.472  1.00  0.00    -0.423 OA
ENDROOT
BRANCH   1  12
ATOM     12  O   UNL     1     130.133 141.210 127.197  1.00  0.00    -0.493 OA
ATOM     13  C   UNL     1     128.773 141.570 127.410  1.00  0.00     0.278 C 
ENDBRANCH   1  12
BRANCH   2  14
ATOM     14  O   UNL     1     131.352 140.975 124.760  1.00  0.00    -0.493 OA
ATOM     15  C   UNL     1     132.276 141.104 123.683  1.00  0.00     0.278 C 
ENDBRANCH   2  14
TORSDOF 2
ENDMDL
MODEL 4
REMARK VINA RESULT:    -4.496      2.310      5.659
REMARK INTER + INTRA:          -5.153
REMARK INTER:                  -4.992
REMARK INTRA:                  -0.161
REMARK UNBOUND:                -0.132
REMARK SMILES COc1cc2ccc(=O)oc2cc1OC
REMARK SMILES IDX 3 1 13 2 12 3 11 4 5 5 4 6 6 7 7 8 8 9 9 10 10 11 2 12 1 13
REMARK SMILES IDX 14 14 15 15
REMARK H PARENT
REMARK Flexibility Score: inf
ROOT
ATOM      1  C   UNL     1     132.945 135.797 127.696  1.00  0.00     0.161 A 
ATOM      2  C   UNL     1     132.066 135.711 126.603  1.00  0.00     0.164 A 
ATOM      3  C   UNL     1     132.230 134.685 125.653  1.00  0.00     0.098 A 
ATOM      4  C   UNL     1     133.260 133.752 125.789  1.00  0.00     0.142 A 
ATOM      5  C   UNL     1     134.142 133.837 126.886  1.00  0.00     0.022 A 
ATOM      6  C   UNL     1     133.984 134.856 127.833  1.00  0.00     0.062 A 
ATOM      7  C   UNL     1     135.164 132.888 126.994  1.00  0.00     0.019 A 
ATOM      8  C   UNL     1     135.280 131.892 126.025  1.00  0.00     0.094 A 
ATOM      9  C   UNL     1     134.368 131.870 124.964  1.00  0.00     0.336 A 
ATOM     10  O   UNL     1     134.455 130.980 124.079  1.00  0.00    -0.246 OA
ATOM     11  O   UNL     1     133.406 132.785 124.886  1.00  0.00    -0.423 OA
ENDROOT
BRANCH   1  12
ATOM     12  O   UNL     1     132.753 136.833 128.624  1.00  0.00    -0.493 OA
ATOM     13  C   UNL     1     133.552 138.009 128.698  1.00  0.00     0.278 C 
ENDBRANCH   1  12
BRANCH   2  14
ATOM     14  O   UNL     1     131.042 136.667 126.497  1.00  0.00    -0.493 OA
ATOM     15  C   UNL     1     131.007 137.708 125.525  1.00  0.00     0.278 C 
ENDBRANCH   2  14
TORSDOF 2
ENDMDL
MODEL 5
REMARK VINA RESULT:    -4.370      1.957      2.313
REMARK INTER + INTRA:          -5.013
REMARK INTER:                  -4.856
REMARK INTRA:                  -0.156
REMARK UNBOUND:                -0.132
REMARK SMILES COc1cc2ccc(=O)oc2cc1OC
REMARK SMILES IDX 3 1 13 2 12 3 11 4 5 5 4 6 6 7 7 8 8 9 9 10 10 11 2 12 1 13
REMARK SMILES IDX 14 14 15 15
REMARK H PARENT
REMARK Flexibility Score: inf
ROOT
ATOM      1  C   UNL     1     131.751 136.068 126.643  1.00  0.00     0.161 A 
ATOM      2  C   UNL     1     133.133 135.991 126.401  1.00  0.00     0.164 A 
ATOM      3  C   UNL     1     133.799 137.075 125.798  1.00  0.00     0.098 A 
ATOM      4  C   UNL     1     133.095 138.226 125.437  1.00  0.00     0.142 A 
ATOM      5  C   UNL     1     131.709 138.305 125.681  1.00  0.00     0.022 A 
ATOM      6  C   UNL     1     131.042 137.229 126.280  1.00  0.00     0.062 A 
ATOM      7  C   UNL     1     131.032 139.471 125.308  1.00  0.00     0.019 A 
ATOM      8  C   UNL     1     131.741 140.514 124.714  1.00  0.00     0.094 A 
ATOM      9  C   UNL     1     133.116 140.366 124.504  1.00  0.00     0.336 A 
ATOM     10  O   UNL     1     133.774 141.295 123.969  1.00  0.00    -0.246 OA
ATOM     11  O   UNL     1     133.734 139.245 124.868  1.00  0.00    -0.423 OA
ENDROOT
BRANCH   1  12
ATOM     12  O   UNL     1     131.119 134.969 127.246  1.00  0.00    -0.493 OA
ATOM     13  C   UNL     1     130.711 134.920 128.609  1.00  0.00     0.278 C 
ENDBRANCH   1  12
BRANCH   2  14
ATOM     14  O   UNL     1     133.809 134.818 126.775  1.00  0.00    -0.493 OA
ATOM     15  C   UNL     1     134.778 134.741 127.817  1.00  0.00     0.278 C 
ENDBRANCH   2  14
TORSDOF 2
ENDMDL
MODEL 6
REMARK VINA RESULT:    -4.326      1.398      4.992
REMARK INTER + INTRA:          -4.963
REMARK INTER:                  -4.797
REMARK INTRA:                  -0.166
REMARK UNBOUND:                -0.132
REMARK SMILES COc1cc2ccc(=O)oc2cc1OC
REMARK SMILES IDX 3 1 13 2 12 3 11 4 5 5 4 6 6 7 7 8 8 9 9 10 10 11 2 12 1 13
REMARK SMILES IDX 14 14 15 15
REMARK H PARENT
REMARK Flexibility Score: inf
ROOT
ATOM      1  C   UNL     1     131.003 137.881 127.015  1.00  0.00     0.161 A 
ATOM      2  C   UNL     1     131.747 137.782 125.827  1.00  0.00     0.164 A 
ATOM      3  C   UNL     1     132.172 136.519 125.370  1.00  0.00     0.098 A 
ATOM      4  C   UNL     1     131.860 135.364 126.091  1.00  0.00     0.142 A 
ATOM      5  C   UNL     1     131.112 135.462 127.282  1.00  0.00     0.022 A 
ATOM      6  C   UNL     1     130.688 136.716 127.741  1.00  0.00     0.062 A 
ATOM      7  C   UNL     1     130.815 134.288 127.981  1.00  0.00     0.019 A 
ATOM      8  C   UNL     1     131.260 133.064 127.484  1.00  0.00     0.094 A 
ATOM      9  C   UNL     1     131.997 133.043 126.295  1.00  0.00     0.336 A 
ATOM     10  O   UNL     1     132.408 131.949 125.829  1.00  0.00    -0.246 OA
ATOM     11  O   UNL     1     132.265 134.176 125.650  1.00  0.00    -0.423 OA
ENDROOT
BRANCH   1  12
ATOM     12  O   UNL     1     130.596 139.156 127.440  1.00  0.00    -0.493 OA
ATOM     13  C   UNL     1     131.206 139.886 128.500  1.00  0.00     0.278 C 
ENDBRANCH   1  12
BRANCH   2  14
ATOM     14  O   UNL     1     132.045 138.964 125.129  1.00  0.00    -0.493 OA
ATOM     15  C   UNL     1     133.316 139.607 125.134  1.00  0.00     0.278 C 
ENDBRANCH   2  14
TORSDOF 2
ENDMDL
MODEL 7
REMARK VINA RESULT:    -4.321      9.285     11.549
REMARK INTER + INTRA:          -4.958
REMARK INTER:                  -4.824
REMARK INTRA:                  -0.134
REMARK UNBOUND:                -0.132
REMARK SMILES COc1cc2ccc(=O)oc2cc1OC
REMARK SMILES IDX 3 1 13 2 12 3 11 4 5 5 4 6 6 7 7 8 8 9 9 10 10 11 2 12 1 13
REMARK SMILES IDX 14 14 15 15
REMARK H PARENT
REMARK Flexibility Score: inf
ROOT
ATOM      1  C   UNL     1     140.558 141.438 121.404  1.00  0.00     0.161 A 
ATOM      2  C   UNL     1     139.555 142.287 121.902  1.00  0.00     0.164 A 
ATOM      3  C   UNL     1     138.858 141.934 123.074  1.00  0.00     0.098 A 
ATOM      4  C   UNL     1     139.156 140.746 123.744  1.00  0.00     0.142 A 
ATOM      5  C   UNL     1     140.163 139.894 123.245  1.00  0.00     0.022 A 
ATOM      6  C   UNL     1     140.859 140.240 122.080  1.00  0.00     0.062 A 
ATOM      7  C   UNL     1     140.439 138.711 123.938  1.00  0.00     0.019 A 
ATOM      8  C   UNL     1     139.718 138.410 125.094  1.00  0.00     0.094 A 
ATOM      9  C   UNL     1     138.733 139.303 125.530  1.00  0.00     0.336 A 
ATOM     10  O   UNL     1     138.072 139.051 126.570  1.00  0.00    -0.246 OA
ATOM     11  O   UNL     1     138.492 140.421 124.850  1.00  0.00    -0.423 OA
ENDROOT
BRANCH   1  12
ATOM     12  O   UNL     1     141.232 141.821 120.233  1.00  0.00    -0.493 OA
ATOM     13  C   UNL     1     142.627 142.096 120.158  1.00  0.00     0.278 C 
ENDBRANCH   1  12
BRANCH   2  14
ATOM     14  O   UNL     1     139.280 143.474 121.202  1.00  0.00    -0.493 OA
ATOM     15  C   UNL     1     138.136 143.680 120.379  1.00  0.00     0.278 C 
ENDBRANCH   2  14
TORSDOF 2
ENDMDL
MODEL 8
REMARK VINA RESULT:    -4.293      2.626      6.572
REMARK INTER + INTRA:          -4.927
REMARK INTER:                  -4.789
REMARK INTRA:                  -0.138
REMARK UNBOUND:                -0.132
REMARK SMILES COc1cc2ccc(=O)oc2cc1OC
REMARK SMILES IDX 3 1 13 2 12 3 11 4 5 5 4 6 6 7 7 8 8 9 9 10 10 11 2 12 1 13
REMARK SMILES IDX 14 14 15 15
REMARK H PARENT
REMARK Flexibility Score: inf
ROOT
ATOM      1  C   UNL     1     133.095 134.775 126.463  1.00  0.00     0.161 A 
ATOM      2  C   UNL     1     131.822 134.251 126.745  1.00  0.00     0.164 A 
ATOM      3  C   UNL     1     131.588 132.869 126.606  1.00  0.00     0.098 A 
ATOM      4  C   UNL     1     132.613 132.016 126.190  1.00  0.00     0.142 A 
ATOM      5  C   UNL     1     133.890 132.541 125.908  1.00  0.00     0.022 A 
ATOM      6  C   UNL     1     134.128 133.914 126.043  1.00  0.00     0.062 A 
ATOM      7  C   UNL     1     134.895 131.661 125.493  1.00  0.00     0.019 A 
ATOM      8  C   UNL     1     134.610 130.301 125.373  1.00  0.00     0.094 A 
ATOM      9  C   UNL     1     133.318 129.852 125.670  1.00  0.00     0.336 A 
ATOM     10  O   UNL     1     133.039 128.629 125.569  1.00  0.00    -0.246 OA
ATOM     11  O   UNL     1     132.381 130.711 126.063  1.00  0.00    -0.423 OA
ENDROOT
BRANCH   1  12
ATOM     12  O   UNL     1     133.293 136.157 126.611  1.00  0.00    -0.493 OA
ATOM     13  C   UNL     1     133.410 137.076 125.531  1.00  0.00     0.278 C 
ENDBRANCH   1  12
BRANCH   2  14
ATOM     14  O   UNL     1     130.815 135.137 127.159  1.00  0.00    -0.493 OA
ATOM     15  C   UNL     1     130.380 135.293 128.507  1.00  0.00     0.278 C 
ENDBRANCH   2  14
TORSDOF 2
ENDMDL
MODEL 9
REMARK VINA RESULT:    -4.283      1.723      2.818
REMARK INTER + INTRA:          -4.916
REMARK INTER:                  -4.777
REMARK INTRA:                  -0.139
REMARK UNBOUND:                -0.132
REMARK SMILES COc1cc2ccc(=O)oc2cc1OC
REMARK SMILES IDX 3 1 13 2 12 3 11 4 5 5 4 6 6 7 7 8 8 9 9 10 10 11 2 12 1 13
REMARK SMILES IDX 14 14 15 15
REMARK H PARENT
REMARK Flexibility Score: inf
ROOT
ATOM      1  C   UNL     1     133.470 134.690 126.562  1.00  0.00     0.161 A 
ATOM      2  C   UNL     1     132.101 134.688 126.245  1.00  0.00     0.164 A 
ATOM      3  C   UNL     1     131.485 135.874 125.799  1.00  0.00     0.098 A 
ATOM      4  C   UNL     1     132.226 137.051 125.671  1.00  0.00     0.142 A 
ATOM      5  C   UNL     1     133.599 137.053 125.988  1.00  0.00     0.022 A 
ATOM      6  C   UNL     1     134.217 135.877 126.433  1.00  0.00     0.062 A 
ATOM      7  C   UNL     1     134.313 138.248 125.850  1.00  0.00     0.019 A 
ATOM      8  C   UNL     1     133.654 139.393 125.404  1.00  0.00     0.094 A 
ATOM      9  C   UNL     1     132.289 139.316 125.108  1.00  0.00     0.336 A 
ATOM     10  O   UNL     1     131.674 140.337 124.705  1.00  0.00    -0.246 OA
ATOM     11  O   UNL     1     131.634 138.166 125.249  1.00  0.00    -0.423 OA
ENDROOT
BRANCH   1  12
ATOM     12  O   UNL     1     134.051 133.490 127.003  1.00  0.00    -0.493 OA
ATOM     13  C   UNL     1     134.867 132.645 126.200  1.00  0.00     0.278 C 
ENDBRANCH   1  12
BRANCH   2  14
ATOM     14  O   UNL     1     131.387 133.487 126.386  1.00  0.00    -0.493 OA
ATOM     15  C   UNL     1     130.494 133.200 127.458  1.00  0.00     0.278 C 
ENDBRANCH   2  14
TORSDOF 2
ENDMDL
