MODEL 1
REMARK VINA RESULT:    -4.449      0.000      0.000
REMARK INTER + INTRA:         -17.051
REMARK INTER:                 -11.731
REMARK INTRA:                  -5.320
REMARK UNBOUND:                -5.320
REMARK SMILES CCCCCCCCCCCCCCCCCCCCCCCCCCCCCC(=O)[O-]
REMARK SMILES IDX 16 1 17 2 18 3 19 4 20 5 21 6 22 7 23 8 24 9 25 10 26 11
REMARK SMILES IDX 27 12 28 13 29 14 30 15 31 16 32 17 15 18 14 19 13 20 12 21
REMARK SMILES IDX 11 22 10 23 9 24 8 25 7 26 6 27 5 28 4 29 3 30 2 31 1 32
REMARK H PARENT
REMARK Flexibility Score: inf
ROOT
ATOM      1  C   UNL     1     -10.874   0.701  19.416  1.00  0.00     0.000 C 
ENDROOT
BRANCH   1   2
ATOM      2  C   UNL     1     -11.091  -0.589  20.228  1.00  0.00     0.000 C 
BRANCH   2   3
ATOM      3  C   UNL     1      -9.928  -0.974  21.164  1.00  0.00     0.000 C 
BRANCH   3   4
ATOM      4  C   UNL     1      -9.695   0.058  22.281  1.00  0.00     0.000 C 
BRANCH   4   5
ATOM      5  C   UNL     1      -8.856  -0.499  23.441  1.00  0.00     0.000 C 
BRANCH   5   6
ATOM      6  C   UNL     1      -9.622  -0.519  24.776  1.00  0.00     0.000 C 
BRANCH   6   7
ATOM      7  C   UNL     1     -10.889   0.352  24.732  1.00  0.00     0.000 C 
BRANCH   7   8
ATOM      8  C   UNL     1     -12.077  -0.310  25.454  1.00  0.00     0.000 C 
BRANCH   8   9
ATOM      9  C   UNL     1     -13.389  -0.224  24.653  1.00  0.00     0.000 C 
BRANCH   9  10
ATOM     10  C   UNL     1     -13.218   0.122  23.162  1.00  0.00     0.000 C 
BRANCH  10  11
ATOM     11  C   UNL     1     -13.829   1.482  22.789  1.00  0.00     0.000 C 
BRANCH  11  12
ATOM     12  C   UNL     1     -12.796   2.367  22.075  1.00  0.00     0.000 C 
BRANCH  12  13
ATOM     13  C   UNL     1     -13.445   3.419  21.156  1.00  0.00     0.006 C 
BRANCH  13  14
ATOM     14  C   UNL     1     -13.376   4.856  21.697  1.00  0.00     0.053 C 
BRANCH  14  15
ATOM     15  C   UNL     1     -12.409   4.985  22.834  1.00  0.00     0.041 C 
ATOM     16  O   UNL     1     -12.808   4.854  24.023  1.00  0.00    -0.550 OA
ATOM     17  O   UNL     1     -11.065   5.230  22.582  1.00  0.00    -0.550 OA
ENDBRANCH  14  15
ENDBRANCH  13  14
ENDBRANCH  12  13
ENDBRANCH  11  12
ENDBRANCH  10  11
ENDBRANCH   9  10
ENDBRANCH   8   9
ENDBRANCH   7   8
ENDBRANCH   6   7
ENDBRANCH   5   6
ENDBRANCH   4   5
ENDBRANCH   3   4
ENDBRANCH   2   3
ENDBRANCH   1   2
BRANCH   1  18
ATOM     18  C   UNL     1      -9.562   0.694  18.619  1.00  0.00     0.000 C 
BRANCH  18  19
ATOM     19  C   UNL     1      -8.733   1.948  18.925  1.00  0.00     0.000 C 
BRANCH  19  20
ATOM     20  C   UNL     1      -9.489   2.897  19.869  1.00  0.00     0.000 C 
BRANCH  20  21
ATOM     21  C   UNL     1      -8.858   4.304  19.938  1.00  0.00     0.000 C 
BRANCH  21  22
ATOM     22  C   UNL     1      -9.513   5.341  19.005  1.00  0.00     0.000 C 
BRANCH  22  23
ATOM     23  C   UNL     1     -11.054   5.361  19.019  1.00  0.00     0.000 C 
BRANCH  23  24
ATOM     24  C   UNL     1     -11.728   5.023  17.672  1.00  0.00    -0.000 C 
BRANCH  24  25
ATOM     25  C   UNL     1     -12.474   3.677  17.639  1.00  0.00    -0.000 C 
BRANCH  25  26
ATOM     26  C   UNL     1     -12.015   2.767  16.492  1.00  0.00    -0.000 C 
BRANCH  26  27
ATOM     27  C   UNL     1     -10.641   3.203  15.962  1.00  0.00    -0.000 C 
BRANCH  27  28
ATOM     28  C   UNL     1      -9.872   2.060  15.273  1.00  0.00    -0.000 C 
BRANCH  28  29
ATOM     29  C   UNL     1     -10.624   0.717  15.206  1.00  0.00    -0.000 C 
BRANCH  29  30
ATOM     30  C   UNL     1     -10.916   0.266  13.767  1.00  0.00    -0.000 C 
BRANCH  30  31
ATOM     31  C   UNL     1     -12.422   0.094  13.541  1.00  0.00    -0.003 C 
ATOM     32  C   UNL     1     -12.831  -1.373  13.649  1.00  0.00     0.004 C 
ENDBRANCH  30  31
ENDBRANCH  29  30
ENDBRANCH  28  29
ENDBRANCH  27  28
ENDBRANCH  26  27
ENDBRANCH  25  26
ENDBRANCH  24  25
ENDBRANCH  23  24
ENDBRANCH  22  23
ENDBRANCH  21  22
ENDBRANCH  20  21
ENDBRANCH  19  20
ENDBRANCH  18  19
ENDBRANCH   1  18
TORSDOF 28
ENDMDL
MODEL 2
REMARK VINA RESULT:    -4.409      2.815      7.163
REMARK INTER + INTRA:         -16.946
REMARK INTER:                 -10.881
REMARK INTRA:                  -6.065
REMARK UNBOUND:                -5.320
REMARK SMILES CCCCCCCCCCCCCCCCCCCCCCCCCCCCCC(=O)[O-]
REMARK SMILES IDX 16 1 17 2 18 3 19 4 20 5 21 6 22 7 23 8 24 9 25 10 26 11
REMARK SMILES IDX 27 12 28 13 29 14 30 15 31 16 32 17 15 18 14 19 13 20 12 21
REMARK SMILES IDX 11 22 10 23 9 24 8 25 7 26 6 27 5 28 4 29 3 30 2 31 1 32
REMARK H PARENT
REMARK Flexibility Score: inf
ROOT
ATOM      1  C   UNL     1     -11.042   0.682  19.130  1.00  0.00     0.000 C 
ENDROOT
BRANCH   1   2
ATOM      2  C   UNL     1      -9.668   0.638  18.434  1.00  0.00     0.000 C 
BRANCH   2   3
ATOM      3  C   UNL     1      -8.761   1.854  18.707  1.00  0.00     0.000 C 
BRANCH   3   4
ATOM      4  C   UNL     1      -9.111   2.577  20.019  1.00  0.00     0.000 C 
BRANCH   4   5
ATOM      5  C   UNL     1      -8.330   3.887  20.204  1.00  0.00     0.000 C 
BRANCH   5   6
ATOM      6  C   UNL     1      -7.419   4.213  19.006  1.00  0.00     0.000 C 
BRANCH   6   7
ATOM      7  C   UNL     1      -7.570   5.671  18.540  1.00  0.00     0.000 C 
BRANCH   7   8
ATOM      8  C   UNL     1      -8.689   5.836  17.497  1.00  0.00     0.000 C 
BRANCH   8   9
ATOM      9  C   UNL     1     -10.006   6.349  18.107  1.00  0.00     0.000 C 
BRANCH   9  10
ATOM     10  C   UNL     1     -11.282   5.709  17.530  1.00  0.00     0.000 C 
BRANCH  10  11
ATOM     11  C   UNL     1     -11.506   4.271  18.021  1.00  0.00     0.000 C 
BRANCH  11  12
ATOM     12  C   UNL     1     -12.410   3.496  17.050  1.00  0.00     0.000 C 
BRANCH  12  13
ATOM     13  C   UNL     1     -11.620   2.801  15.925  1.00  0.00     0.006 C 
BRANCH  13  14
ATOM     14  C   UNL     1     -12.086   1.368  15.622  1.00  0.00     0.053 C 
BRANCH  14  15
ATOM     15  C   UNL     1     -11.141   0.647  14.710  1.00  0.00     0.041 C 
ATOM     16  O   UNL     1      -9.895   0.766  14.866  1.00  0.00    -0.550 OA
ATOM     17  O   UNL     1     -11.633  -0.171  13.701  1.00  0.00    -0.550 OA
ENDBRANCH  14  15
ENDBRANCH  13  14
ENDBRANCH  12  13
ENDBRANCH  11  12
ENDBRANCH  10  11
ENDBRANCH   9  10
ENDBRANCH   8   9
ENDBRANCH   7   8
ENDBRANCH   6   7
ENDBRANCH   5   6
ENDBRANCH   4   5
ENDBRANCH   3   4
ENDBRANCH   2   3
ENDBRANCH   1   2
BRANCH   1  18
ATOM     18  C   UNL     1     -11.218  -0.425  20.178  1.00  0.00     0.000 C 
BRANCH  18  19
ATOM     19  C   UNL     1      -9.959  -1.297  20.265  1.00  0.00     0.000 C 
BRANCH  19  20
ATOM     20  C   UNL     1      -9.146  -0.976  21.529  1.00  0.00     0.000 C 
BRANCH  20  21
ATOM     21  C   UNL     1      -9.870   0.005  22.476  1.00  0.00     0.000 C 
BRANCH  21  22
ATOM     22  C   UNL     1      -9.190   0.182  23.848  1.00  0.00     0.000 C 
BRANCH  22  23
ATOM     23  C   UNL     1      -9.147   1.627  24.381  1.00  0.00     0.000 C 
BRANCH  23  24
ATOM     24  C   UNL     1     -10.070   2.626  23.652  1.00  0.00    -0.000 C 
BRANCH  24  25
ATOM     25  C   UNL     1      -9.556   4.076  23.616  1.00  0.00    -0.000 C 
BRANCH  25  26
ATOM     26  C   UNL     1     -10.659   5.108  23.893  1.00  0.00    -0.000 C 
BRANCH  26  27
ATOM     27  C   UNL     1     -10.878   6.016  22.675  1.00  0.00    -0.000 C 
BRANCH  27  28
ATOM     28  C   UNL     1     -11.491   5.272  21.473  1.00  0.00    -0.000 C 
BRANCH  28  29
ATOM     29  C   UNL     1     -13.023   5.380  21.354  1.00  0.00    -0.000 C 
BRANCH  29  30
ATOM     30  C   UNL     1     -13.677   4.082  20.856  1.00  0.00    -0.000 C 
BRANCH  30  31
ATOM     31  C   UNL     1     -12.881   2.855  21.315  1.00  0.00    -0.003 C 
ATOM     32  C   UNL     1     -13.498   2.237  22.568  1.00  0.00     0.004 C 
ENDBRANCH  30  31
ENDBRANCH  29  30
ENDBRANCH  28  29
ENDBRANCH  27  28
ENDBRANCH  26  27
ENDBRANCH  25  26
ENDBRANCH  24  25
ENDBRANCH  23  24
ENDBRANCH  22  23
ENDBRANCH  21  22
ENDBRANCH  20  21
ENDBRANCH  19  20
ENDBRANCH  18  19
ENDBRANCH   1  18
TORSDOF 28
ENDMDL
MODEL 3
REMARK VINA RESULT:    -4.380      3.031      7.078
REMARK INTER + INTRA:         -16.868
REMARK INTER:                 -10.949
REMARK INTRA:                  -5.919
REMARK UNBOUND:                -5.320
REMARK SMILES CCCCCCCCCCCCCCCCCCCCCCCCCCCCCC(=O)[O-]
REMARK SMILES IDX 16 1 17 2 18 3 19 4 20 5 21 6 22 7 23 8 24 9 25 10 26 11
REMARK SMILES IDX 27 12 28 13 29 14 30 15 31 16 32 17 15 18 14 19 13 20 12 21
REMARK SMILES IDX 11 22 10 23 9 24 8 25 7 26 6 27 5 28 4 29 3 30 2 31 1 32
REMARK H PARENT
REMARK Flexibility Score: inf
ROOT
ATOM      1  C   UNL     1     -11.113  -0.427  20.501  1.00  0.00     0.000 C 
ENDROOT
BRANCH   1   2
ATOM      2  C   UNL     1     -11.075   0.629  19.380  1.00  0.00     0.000 C 
BRANCH   2   3
ATOM      3  C   UNL     1      -9.779   0.647  18.546  1.00  0.00     0.000 C 
BRANCH   3   4
ATOM      4  C   UNL     1      -8.797   1.743  18.992  1.00  0.00     0.000 C 
BRANCH   4   5
ATOM      5  C   UNL     1      -9.385   2.668  20.069  1.00  0.00     0.000 C 
BRANCH   5   6
ATOM      6  C   UNL     1      -8.643   4.013  20.171  1.00  0.00     0.000 C 
BRANCH   6   7
ATOM      7  C   UNL     1      -8.065   4.462  18.819  1.00  0.00     0.000 C 
BRANCH   7   8
ATOM      8  C   UNL     1      -8.591   5.843  18.389  1.00  0.00     0.000 C 
BRANCH   8   9
ATOM      9  C   UNL     1      -9.509   5.777  17.155  1.00  0.00     0.000 C 
BRANCH   9  10
ATOM     10  C   UNL     1     -10.210   4.423  16.938  1.00  0.00     0.000 C 
BRANCH  10  11
ATOM     11  C   UNL     1     -11.644   4.395  17.489  1.00  0.00     0.000 C 
BRANCH  11  12
ATOM     12  C   UNL     1     -12.462   3.276  16.825  1.00  0.00     0.000 C 
BRANCH  12  13
ATOM     13  C   UNL     1     -11.619   2.403  15.877  1.00  0.00     0.006 C 
BRANCH  13  14
ATOM     14  C   UNL     1     -12.210   1.008  15.614  1.00  0.00     0.053 C 
BRANCH  14  15
ATOM     15  C   UNL     1     -11.724   0.424  14.323  1.00  0.00     0.041 C 
ATOM     16  O   UNL     1     -12.545   0.115  13.418  1.00  0.00    -0.550 OA
ATOM     17  O   UNL     1     -10.363   0.239  14.110  1.00  0.00    -0.550 OA
ENDBRANCH  14  15
ENDBRANCH  13  14
ENDBRANCH  12  13
ENDBRANCH  11  12
ENDBRANCH  10  11
ENDBRANCH   9  10
ENDBRANCH   8   9
ENDBRANCH   7   8
ENDBRANCH   6   7
ENDBRANCH   5   6
ENDBRANCH   4   5
ENDBRANCH   3   4
ENDBRANCH   2   3
ENDBRANCH   1   2
BRANCH   1  18
ATOM     18  C   UNL     1      -9.800  -1.210  20.632  1.00  0.00     0.000 C 
BRANCH  18  19
ATOM     19  C   UNL     1      -9.109  -0.894  21.964  1.00  0.00     0.000 C 
BRANCH  19  20
ATOM     20  C   UNL     1      -9.912   0.133  22.777  1.00  0.00     0.000 C 
BRANCH  20  21
ATOM     21  C   UNL     1      -9.090   0.771  23.918  1.00  0.00     0.000 C 
BRANCH  21  22
ATOM     22  C   UNL     1      -9.067   2.312  23.900  1.00  0.00     0.000 C 
BRANCH  22  23
ATOM     23  C   UNL     1      -9.964   2.998  24.948  1.00  0.00     0.000 C 
BRANCH  23  24
ATOM     24  C   UNL     1     -11.059   3.921  24.374  1.00  0.00    -0.000 C 
BRANCH  24  25
ATOM     25  C   UNL     1     -11.471   3.614  22.923  1.00  0.00    -0.000 C 
BRANCH  25  26
ATOM     26  C   UNL     1     -12.697   2.696  22.830  1.00  0.00    -0.000 C 
BRANCH  26  27
ATOM     27  C   UNL     1     -13.347   2.788  21.442  1.00  0.00    -0.000 C 
BRANCH  27  28
ATOM     28  C   UNL     1     -12.913   4.039  20.656  1.00  0.00    -0.000 C 
BRANCH  28  29
ATOM     29  C   UNL     1     -14.050   5.020  20.315  1.00  0.00    -0.000 C 
BRANCH  29  30
ATOM     30  C   UNL     1     -13.724   6.472  20.698  1.00  0.00    -0.000 C 
BRANCH  30  31
ATOM     31  C   UNL     1     -12.244   6.784  20.453  1.00  0.00    -0.003 C 
ATOM     32  C   UNL     1     -12.054   7.578  19.163  1.00  0.00     0.004 C 
ENDBRANCH  30  31
ENDBRANCH  29  30
ENDBRANCH  28  29
ENDBRANCH  27  28
ENDBRANCH  26  27
ENDBRANCH  25  26
ENDBRANCH  24  25
ENDBRANCH  23  24
ENDBRANCH  22  23
ENDBRANCH  21  22
ENDBRANCH  20  21
ENDBRANCH  19  20
ENDBRANCH  18  19
ENDBRANCH   1  18
TORSDOF 28
ENDMDL
MODEL 4
REMARK VINA RESULT:    -4.363      3.136      7.789
REMARK INTER + INTRA:         -16.824
REMARK INTER:                 -11.518
REMARK INTRA:                  -5.306
REMARK UNBOUND:                -5.320
REMARK SMILES CCCCCCCCCCCCCCCCCCCCCCCCCCCCCC(=O)[O-]
REMARK SMILES IDX 16 1 17 2 18 3 19 4 20 5 21 6 22 7 23 8 24 9 25 10 26 11
REMARK SMILES IDX 27 12 28 13 29 14 30 15 31 16 32 17 15 18 14 19 13 20 12 21
REMARK SMILES IDX 11 22 10 23 9 24 8 25 7 26 6 27 5 28 4 29 3 30 2 31 1 32
REMARK H PARENT
REMARK Flexibility Score: inf
ROOT
ATOM      1  C   UNL     1      -6.959   3.282  18.856  1.00  0.00     0.000 C 
ENDROOT
BRANCH   1   2
ATOM      2  C   UNL     1      -5.716   4.185  18.971  1.00  0.00     0.000 C 
BRANCH   2   3
ATOM      3  C   UNL     1      -5.836   5.329  19.997  1.00  0.00     0.000 C 
BRANCH   3   4
ATOM      4  C   UNL     1      -6.105   6.694  19.341  1.00  0.00     0.000 C 
BRANCH   4   5
ATOM      5  C   UNL     1      -6.293   6.597  17.819  1.00  0.00     0.000 C 
BRANCH   5   6
ATOM      6  C   UNL     1      -7.738   6.894  17.377  1.00  0.00     0.000 C 
BRANCH   6   7
ATOM      7  C   UNL     1      -8.679   7.114  18.573  1.00  0.00     0.000 C 
BRANCH   7   8
ATOM      8  C   UNL     1      -9.962   6.271  18.468  1.00  0.00     0.000 C 
BRANCH   8   9
ATOM      9  C   UNL     1     -10.875   6.711  17.308  1.00  0.00     0.000 C 
BRANCH   9  10
ATOM     10  C   UNL     1     -11.650   5.570  16.624  1.00  0.00     0.000 C 
BRANCH  10  11
ATOM     11  C   UNL     1     -11.687   4.283  17.462  1.00  0.00     0.000 C 
BRANCH  11  12
ATOM     12  C   UNL     1     -12.511   3.196  16.757  1.00  0.00     0.000 C 
BRANCH  12  13
ATOM     13  C   UNL     1     -11.669   2.340  15.791  1.00  0.00     0.006 C 
BRANCH  13  14
ATOM     14  C   UNL     1     -12.242   0.938  15.530  1.00  0.00     0.053 C 
BRANCH  14  15
ATOM     15  C   UNL     1     -11.760   0.364  14.232  1.00  0.00     0.041 C 
ATOM     16  O   UNL     1     -10.527   0.318  13.979  1.00  0.00    -0.550 OA
ATOM     17  O   UNL     1     -12.672  -0.138  13.311  1.00  0.00    -0.550 OA
ENDBRANCH  14  15
ENDBRANCH  13  14
ENDBRANCH  12  13
ENDBRANCH  11  12
ENDBRANCH  10  11
ENDBRANCH   9  10
ENDBRANCH   8   9
ENDBRANCH   7   8
ENDBRANCH   6   7
ENDBRANCH   5   6
ENDBRANCH   4   5
ENDBRANCH   3   4
ENDBRANCH   2   3
ENDBRANCH   1   2
BRANCH   1  18
ATOM     18  C   UNL     1      -8.059   3.643  19.863  1.00  0.00     0.000 C 
BRANCH  18  19
ATOM     19  C   UNL     1      -9.221   2.646  19.780  1.00  0.00     0.000 C 
BRANCH  19  20
ATOM     20  C   UNL     1      -9.181   1.853  18.464  1.00  0.00     0.000 C 
BRANCH  20  21
ATOM     21  C   UNL     1      -9.709   0.411  18.615  1.00  0.00     0.000 C 
BRANCH  21  22
ATOM     22  C   UNL     1      -8.872  -0.477  19.557  1.00  0.00     0.000 C 
BRANCH  22  23
ATOM     23  C   UNL     1      -9.636  -1.070  20.757  1.00  0.00     0.000 C 
BRANCH  23  24
ATOM     24  C   UNL     1      -9.235  -0.505  22.136  1.00  0.00    -0.000 C 
BRANCH  24  25
ATOM     25  C   UNL     1     -10.362   0.221  22.893  1.00  0.00    -0.000 C 
BRANCH  25  26
ATOM     26  C   UNL     1      -9.988   1.655  23.291  1.00  0.00    -0.000 C 
BRANCH  26  27
ATOM     27  C   UNL     1     -11.125   2.631  22.956  1.00  0.00    -0.000 C 
BRANCH  27  28
ATOM     28  C   UNL     1     -12.153   2.041  21.974  1.00  0.00    -0.000 C 
BRANCH  28  29
ATOM     29  C   UNL     1     -12.649   3.015  20.888  1.00  0.00    -0.000 C 
BRANCH  29  30
ATOM     30  C   UNL     1     -12.116   4.443  21.077  1.00  0.00    -0.000 C 
BRANCH  30  31
ATOM     31  C   UNL     1     -13.256   5.417  21.394  1.00  0.00    -0.003 C 
ATOM     32  C   UNL     1     -13.565   6.313  20.196  1.00  0.00     0.004 C 
ENDBRANCH  30  31
ENDBRANCH  29  30
ENDBRANCH  28  29
ENDBRANCH  27  28
ENDBRANCH  26  27
ENDBRANCH  25  26
ENDBRANCH  24  25
ENDBRANCH  23  24
ENDBRANCH  22  23
ENDBRANCH  21  22
ENDBRANCH  20  21
ENDBRANCH  19  20
ENDBRANCH  18  19
ENDBRANCH   1  18
TORSDOF 28
ENDMDL
MODEL 5
REMARK VINA RESULT:    -4.335      2.966      7.068
REMARK INTER + INTRA:         -16.752
REMARK INTER:                 -11.112
REMARK INTRA:                  -5.640
REMARK UNBOUND:                -5.320
REMARK SMILES CCCCCCCCCCCCCCCCCCCCCCCCCCCCCC(=O)[O-]
REMARK SMILES IDX 16 1 17 2 18 3 19 4 20 5 21 6 22 7 23 8 24 9 25 10 26 11
REMARK SMILES IDX 27 12 28 13 29 14 30 15 31 16 32 17 15 18 14 19 13 20 12 21
REMARK SMILES IDX 11 22 10 23 9 24 8 25 7 26 6 27 5 28 4 29 3 30 2 31 1 32
REMARK H PARENT
REMARK Flexibility Score: inf
ROOT
ATOM      1  C   UNL     1      -9.230  -0.458  22.853  1.00  0.00     0.000 C 
ENDROOT
BRANCH   1   2
ATOM      2  C   UNL     1     -10.412   0.254  22.168  1.00  0.00     0.000 C 
BRANCH   2   3
ATOM      3  C   UNL     1     -10.924  -0.424  20.883  1.00  0.00     0.000 C 
BRANCH   3   4
ATOM      4  C   UNL     1      -9.837  -1.243  20.166  1.00  0.00     0.000 C 
BRANCH   4   5
ATOM      5  C   UNL     1      -8.880  -0.369  19.340  1.00  0.00     0.000 C 
BRANCH   5   6
ATOM      6  C   UNL     1      -9.603   0.767  18.593  1.00  0.00     0.000 C 
BRANCH   6   7
ATOM      7  C   UNL     1      -9.077   2.155  18.995  1.00  0.00     0.000 C 
BRANCH   7   8
ATOM      8  C   UNL     1     -10.180   3.046  19.594  1.00  0.00     0.000 C 
BRANCH   8   9
ATOM      9  C   UNL     1     -11.590   2.656  19.116  1.00  0.00     0.000 C 
BRANCH   9  10
ATOM     10  C   UNL     1     -12.337   3.751  18.334  1.00  0.00     0.000 C 
BRANCH  10  11
ATOM     11  C   UNL     1     -12.383   3.482  16.822  1.00  0.00     0.000 C 
BRANCH  11  12
ATOM     12  C   UNL     1     -11.004   3.711  16.185  1.00  0.00     0.000 C 
BRANCH  12  13
ATOM     13  C   UNL     1     -10.523   2.507  15.353  1.00  0.00     0.006 C 
BRANCH  13  14
ATOM     14  C   UNL     1     -11.472   1.298  15.389  1.00  0.00     0.053 C 
BRANCH  14  15
ATOM     15  C   UNL     1     -11.248   0.370  14.234  1.00  0.00     0.041 C 
ATOM     16  O   UNL     1     -10.076   0.053  13.894  1.00  0.00    -0.550 OA
ATOM     17  O   UNL     1     -12.332  -0.161  13.545  1.00  0.00    -0.550 OA
ENDBRANCH  14  15
ENDBRANCH  13  14
ENDBRANCH  12  13
ENDBRANCH  11  12
ENDBRANCH  10  11
ENDBRANCH   9  10
ENDBRANCH   8   9
ENDBRANCH   7   8
ENDBRANCH   6   7
ENDBRANCH   5   6
ENDBRANCH   4   5
ENDBRANCH   3   4
ENDBRANCH   2   3
ENDBRANCH   1   2
BRANCH   1  18
ATOM     18  C   UNL     1      -9.361  -0.502  24.382  1.00  0.00     0.000 C 
BRANCH  18  19
ATOM     19  C   UNL     1     -10.680   0.138  24.833  1.00  0.00     0.000 C 
BRANCH  19  20
ATOM     20  C   UNL     1     -10.477   1.010  26.082  1.00  0.00     0.000 C 
BRANCH  20  21
ATOM     21  C   UNL     1      -9.555   2.221  25.826  1.00  0.00     0.000 C 
BRANCH  21  22
ATOM     22  C   UNL     1     -10.097   3.223  24.788  1.00  0.00     0.000 C 
BRANCH  22  23
ATOM     23  C   UNL     1      -9.232   3.399  23.526  1.00  0.00     0.000 C 
BRANCH  23  24
ATOM     24  C   UNL     1      -9.456   4.716  22.753  1.00  0.00    -0.000 C 
BRANCH  24  25
ATOM     25  C   UNL     1     -10.815   5.394  23.007  1.00  0.00    -0.000 C 
BRANCH  25  26
ATOM     26  C   UNL     1     -11.637   5.586  21.725  1.00  0.00    -0.000 C 
BRANCH  26  27
ATOM     27  C   UNL     1     -12.985   4.857  21.823  1.00  0.00    -0.000 C 
BRANCH  27  28
ATOM     28  C   UNL     1     -13.022   3.814  22.955  1.00  0.00    -0.000 C 
BRANCH  28  29
ATOM     29  C   UNL     1     -13.387   2.384  22.511  1.00  0.00    -0.000 C 
BRANCH  29  30
ATOM     30  C   UNL     1     -13.899   1.511  23.667  1.00  0.00    -0.000 C 
BRANCH  30  31
ATOM     31  C   UNL     1     -13.913   0.031  23.271  1.00  0.00    -0.003 C 
ATOM     32  C   UNL     1     -14.988  -0.735  24.038  1.00  0.00     0.004 C 
ENDBRANCH  30  31
ENDBRANCH  29  30
ENDBRANCH  28  29
ENDBRANCH  27  28
ENDBRANCH  26  27
ENDBRANCH  25  26
ENDBRANCH  24  25
ENDBRANCH  23  24
ENDBRANCH  22  23
ENDBRANCH  21  22
ENDBRANCH  20  21
ENDBRANCH  19  20
ENDBRANCH  18  19
ENDBRANCH   1  18
TORSDOF 28
ENDMDL
MODEL 6
REMARK VINA RESULT:    -4.269      3.120      6.660
REMARK INTER + INTRA:         -16.577
REMARK INTER:                 -10.278
REMARK INTRA:                  -6.299
REMARK UNBOUND:                -5.320
REMARK SMILES CCCCCCCCCCCCCCCCCCCCCCCCCCCCCC(=O)[O-]
REMARK SMILES IDX 16 1 17 2 18 3 19 4 20 5 21 6 22 7 23 8 24 9 25 10 26 11
REMARK SMILES IDX 27 12 28 13 29 14 30 15 31 16 32 17 15 18 14 19 13 20 12 21
REMARK SMILES IDX 11 22 10 23 9 24 8 25 7 26 6 27 5 28 4 29 3 30 2 31 1 32
REMARK H PARENT
REMARK Flexibility Score: inf
ROOT
ATOM      1  C   UNL     1      -9.076  -0.941  20.977  1.00  0.00     0.000 C 
ENDROOT
BRANCH   1   2
ATOM      2  C   UNL     1      -8.840  -0.745  22.487  1.00  0.00     0.000 C 
BRANCH   2   3
ATOM      3  C   UNL     1      -9.901   0.109  23.207  1.00  0.00     0.000 C 
BRANCH   3   4
ATOM      4  C   UNL     1      -9.517   1.596  23.287  1.00  0.00     0.000 C 
BRANCH   4   5
ATOM      5  C   UNL     1     -10.651   2.530  22.837  1.00  0.00     0.000 C 
BRANCH   5   6
ATOM      6  C   UNL     1     -12.028   1.840  22.836  1.00  0.00     0.000 C 
BRANCH   6   7
ATOM      7  C   UNL     1     -12.942   2.368  21.719  1.00  0.00     0.000 C 
BRANCH   7   8
ATOM      8  C   UNL     1     -12.240   3.417  20.838  1.00  0.00     0.000 C 
BRANCH   8   9
ATOM      9  C   UNL     1     -13.157   3.990  19.742  1.00  0.00     0.000 C 
BRANCH   9  10
ATOM     10  C   UNL     1     -12.430   4.475  18.475  1.00  0.00     0.000 C 
BRANCH  10  11
ATOM     11  C   UNL     1     -12.507   3.468  17.317  1.00  0.00     0.000 C 
BRANCH  11  12
ATOM     12  C   UNL     1     -11.456   3.789  16.243  1.00  0.00     0.000 C 
BRANCH  12  13
ATOM     13  C   UNL     1     -10.858   2.525  15.598  1.00  0.00     0.006 C 
BRANCH  13  14
ATOM     14  C   UNL     1     -11.815   1.323  15.561  1.00  0.00     0.053 C 
BRANCH  14  15
ATOM     15  C   UNL     1     -11.587   0.456  14.360  1.00  0.00     0.041 C 
ATOM     16  O   UNL     1     -10.416   0.135  14.022  1.00  0.00    -0.550 OA
ATOM     17  O   UNL     1     -12.669  -0.014  13.625  1.00  0.00    -0.550 OA
ENDBRANCH  14  15
ENDBRANCH  13  14
ENDBRANCH  12  13
ENDBRANCH  11  12
ENDBRANCH  10  11
ENDBRANCH   9  10
ENDBRANCH   8   9
ENDBRANCH   7   8
ENDBRANCH   6   7
ENDBRANCH   5   6
ENDBRANCH   4   5
ENDBRANCH   3   4
ENDBRANCH   2   3
ENDBRANCH   1   2
BRANCH   1  18
ATOM     18  C   UNL     1     -10.538  -0.717  20.565  1.00  0.00     0.000 C 
BRANCH  18  19
ATOM     19  C   UNL     1     -10.645   0.412  19.532  1.00  0.00     0.000 C 
BRANCH  19  20
ATOM     20  C   UNL     1      -9.255   0.916  19.113  1.00  0.00     0.000 C 
BRANCH  20  21
ATOM     21  C   UNL     1      -9.224   2.433  18.835  1.00  0.00     0.000 C 
BRANCH  21  22
ATOM     22  C   UNL     1      -8.645   3.278  19.987  1.00  0.00     0.000 C 
BRANCH  22  23
ATOM     23  C   UNL     1      -7.341   4.031  19.663  1.00  0.00     0.000 C 
BRANCH  23  24
ATOM     24  C   UNL     1      -7.388   4.916  18.399  1.00  0.00    -0.000 C 
BRANCH  24  25
ATOM     25  C   UNL     1      -7.914   6.344  18.626  1.00  0.00    -0.000 C 
BRANCH  25  26
ATOM     26  C   UNL     1      -9.428   6.466  18.405  1.00  0.00    -0.000 C 
BRANCH  26  27
ATOM     27  C   UNL     1     -10.108   7.125  19.615  1.00  0.00    -0.000 C 
BRANCH  27  28
ATOM     28  C   UNL     1      -9.323   6.928  20.925  1.00  0.00    -0.000 C 
BRANCH  28  29
ATOM     29  C   UNL     1     -10.028   6.054  21.980  1.00  0.00    -0.000 C 
BRANCH  29  30
ATOM     30  C   UNL     1      -9.207   5.893  23.269  1.00  0.00    -0.000 C 
BRANCH  30  31
ATOM     31  C   UNL     1      -7.768   5.469  22.953  1.00  0.00    -0.003 C 
ATOM     32  C   UNL     1      -6.937   5.351  24.228  1.00  0.00     0.004 C 
ENDBRANCH  30  31
ENDBRANCH  29  30
ENDBRANCH  28  29
ENDBRANCH  27  28
ENDBRANCH  26  27
ENDBRANCH  25  26
ENDBRANCH  24  25
ENDBRANCH  23  24
ENDBRANCH  22  23
ENDBRANCH  21  22
ENDBRANCH  20  21
ENDBRANCH  19  20
ENDBRANCH  18  19
ENDBRANCH   1  18
TORSDOF 28
ENDMDL
MODEL 7
REMARK VINA RESULT:    -4.267      2.772      7.039
REMARK INTER + INTRA:         -16.570
REMARK INTER:                 -10.493
REMARK INTRA:                  -6.078
REMARK UNBOUND:                -5.320
REMARK SMILES CCCCCCCCCCCCCCCCCCCCCCCCCCCCCC(=O)[O-]
REMARK SMILES IDX 16 1 17 2 18 3 19 4 20 5 21 6 22 7 23 8 24 9 25 10 26 11
REMARK SMILES IDX 27 12 28 13 29 14 30 15 31 16 32 17 15 18 14 19 13 20 12 21
REMARK SMILES IDX 11 22 10 23 9 24 8 25 7 26 6 27 5 28 4 29 3 30 2 31 1 32
REMARK H PARENT
REMARK Flexibility Score: inf
ROOT
ATOM      1  C   UNL     1     -10.139   5.690  20.796  1.00  0.00     0.000 C 
ENDROOT
BRANCH   1   2
ATOM      2  C   UNL     1      -9.529   4.789  21.885  1.00  0.00     0.000 C 
BRANCH   2   3
ATOM      3  C   UNL     1      -9.129   3.377  21.414  1.00  0.00     0.000 C 
BRANCH   3   4
ATOM      4  C   UNL     1      -9.899   2.925  20.161  1.00  0.00     0.000 C 
BRANCH   4   5
ATOM      5  C   UNL     1      -8.972   2.541  18.998  1.00  0.00     0.000 C 
BRANCH   5   6
ATOM      6  C   UNL     1      -7.633   3.300  19.026  1.00  0.00     0.000 C 
BRANCH   6   7
ATOM      7  C   UNL     1      -7.708   4.639  18.272  1.00  0.00     0.000 C 
BRANCH   7   8
ATOM      8  C   UNL     1      -8.821   4.648  17.209  1.00  0.00     0.000 C 
BRANCH   8   9
ATOM      9  C   UNL     1      -9.786   5.837  17.361  1.00  0.00     0.000 C 
BRANCH   9  10
ATOM     10  C   UNL     1     -11.280   5.478  17.261  1.00  0.00     0.000 C 
BRANCH  10  11
ATOM     11  C   UNL     1     -11.547   4.274  16.345  1.00  0.00     0.000 C 
BRANCH  11  12
ATOM     12  C   UNL     1     -12.408   3.223  17.062  1.00  0.00     0.000 C 
BRANCH  12  13
ATOM     13  C   UNL     1     -11.819   1.803  16.966  1.00  0.00     0.006 C 
BRANCH  13  14
ATOM     14  C   UNL     1     -11.986   1.144  15.588  1.00  0.00     0.053 C 
BRANCH  14  15
ATOM     15  C   UNL     1     -10.671   0.917  14.908  1.00  0.00     0.041 C 
ATOM     16  O   UNL     1      -9.631   1.490  15.331  1.00  0.00    -0.550 OA
ATOM     17  O   UNL     1     -10.588   0.057  13.819  1.00  0.00    -0.550 OA
ENDBRANCH  14  15
ENDBRANCH  13  14
ENDBRANCH  12  13
ENDBRANCH  11  12
ENDBRANCH  10  11
ENDBRANCH   9  10
ENDBRANCH   8   9
ENDBRANCH   7   8
ENDBRANCH   6   7
ENDBRANCH   5   6
ENDBRANCH   4   5
ENDBRANCH   3   4
ENDBRANCH   2   3
ENDBRANCH   1   2
BRANCH   1  18
ATOM     18  C   UNL     1     -10.885   6.903  21.369  1.00  0.00     0.000 C 
BRANCH  18  19
ATOM     19  C   UNL     1     -12.076   7.280  20.479  1.00  0.00     0.000 C 
BRANCH  19  20
ATOM     20  C   UNL     1     -13.391   7.262  21.273  1.00  0.00     0.000 C 
BRANCH  20  21
ATOM     21  C   UNL     1     -14.331   6.111  20.852  1.00  0.00     0.000 C 
BRANCH  21  22
ATOM     22  C   UNL     1     -13.631   4.962  20.101  1.00  0.00     0.000 C 
BRANCH  22  23
ATOM     23  C   UNL     1     -13.581   3.617  20.851  1.00  0.00     0.000 C 
BRANCH  23  24
ATOM     24  C   UNL     1     -12.962   3.674  22.263  1.00  0.00    -0.000 C 
BRANCH  24  25
ATOM     25  C   UNL     1     -13.026   2.354  23.053  1.00  0.00    -0.000 C 
BRANCH  25  26
ATOM     26  C   UNL     1     -11.668   1.941  23.639  1.00  0.00    -0.000 C 
BRANCH  26  27
ATOM     27  C   UNL     1     -11.202   0.602  23.049  1.00  0.00    -0.000 C 
BRANCH  27  28
ATOM     28  C   UNL     1      -9.684   0.383  23.182  1.00  0.00    -0.000 C 
BRANCH  28  29
ATOM     29  C   UNL     1      -9.134  -0.842  22.426  1.00  0.00    -0.000 C 
BRANCH  29  30
ATOM     30  C   UNL     1      -9.057  -0.622  20.907  1.00  0.00    -0.000 C 
BRANCH  30  31
ATOM     31  C   UNL     1     -10.037  -1.540  20.169  1.00  0.00    -0.003 C 
ATOM     32  C   UNL     1     -11.374  -0.842  19.932  1.00  0.00     0.004 C 
ENDBRANCH  30  31
ENDBRANCH  29  30
ENDBRANCH  28  29
ENDBRANCH  27  28
ENDBRANCH  26  27
ENDBRANCH  25  26
ENDBRANCH  24  25
ENDBRANCH  23  24
ENDBRANCH  22  23
ENDBRANCH  21  22
ENDBRANCH  20  21
ENDBRANCH  19  20
ENDBRANCH  18  19
ENDBRANCH   1  18
TORSDOF 28
ENDMDL
MODEL 8
REMARK VINA RESULT:    -4.266      3.141      6.897
REMARK INTER + INTRA:         -16.568
REMARK INTER:                 -10.531
REMARK INTRA:                  -6.037
REMARK UNBOUND:                -5.320
REMARK SMILES CCCCCCCCCCCCCCCCCCCCCCCCCCCCCC(=O)[O-]
REMARK SMILES IDX 16 1 17 2 18 3 19 4 20 5 21 6 22 7 23 8 24 9 25 10 26 11
REMARK SMILES IDX 27 12 28 13 29 14 30 15 31 16 32 17 15 18 14 19 13 20 12 21
REMARK SMILES IDX 11 22 10 23 9 24 8 25 7 26 6 27 5 28 4 29 3 30 2 31 1 32
REMARK H PARENT
REMARK Flexibility Score: inf
ROOT
ATOM      1  C   UNL     1      -9.612  -0.027  20.129  1.00  0.00     0.000 C 
ENDROOT
BRANCH   1   2
ATOM      2  C   UNL     1     -11.059   0.481  19.987  1.00  0.00     0.000 C 
BRANCH   2   3
ATOM      3  C   UNL     1     -11.297   1.917  20.493  1.00  0.00     0.000 C 
BRANCH   3   4
ATOM      4  C   UNL     1     -12.378   1.994  21.585  1.00  0.00     0.000 C 
BRANCH   4   5
ATOM      5  C   UNL     1     -13.211   3.282  21.510  1.00  0.00     0.000 C 
BRANCH   5   6
ATOM      6  C   UNL     1     -13.161   3.945  20.121  1.00  0.00     0.000 C 
BRANCH   6   7
ATOM      7  C   UNL     1     -13.023   5.474  20.211  1.00  0.00     0.000 C 
BRANCH   7   8
ATOM      8  C   UNL     1     -12.101   6.042  19.117  1.00  0.00     0.000 C 
BRANCH   8   9
ATOM      9  C   UNL     1     -11.083   5.010  18.597  1.00  0.00     0.000 C 
BRANCH   9  10
ATOM     10  C   UNL     1     -10.707   5.160  17.111  1.00  0.00     0.000 C 
BRANCH  10  11
ATOM     11  C   UNL     1     -10.675   3.819  16.363  1.00  0.00     0.000 C 
BRANCH  11  12
ATOM     12  C   UNL     1     -11.907   2.969  16.712  1.00  0.00     0.000 C 
BRANCH  12  13
ATOM     13  C   UNL     1     -11.684   1.466  16.463  1.00  0.00     0.006 C 
BRANCH  13  14
ATOM     14  C   UNL     1     -10.301   1.120  15.889  1.00  0.00     0.053 C 
BRANCH  14  15
ATOM     15  C   UNL     1     -10.385   0.617  14.480  1.00  0.00     0.041 C 
ATOM     16  O   UNL     1      -9.342   0.523  13.777  1.00  0.00    -0.550 OA
ATOM     17  O   UNL     1     -11.610   0.231  13.949  1.00  0.00    -0.550 OA
ENDBRANCH  14  15
ENDBRANCH  13  14
ENDBRANCH  12  13
ENDBRANCH  11  12
ENDBRANCH  10  11
ENDBRANCH   9  10
ENDBRANCH   8   9
ENDBRANCH   7   8
ENDBRANCH   6   7
ENDBRANCH   5   6
ENDBRANCH   4   5
ENDBRANCH   3   4
ENDBRANCH   2   3
ENDBRANCH   1   2
BRANCH   1  18
ATOM     18  C   UNL     1      -9.493  -1.246  21.055  1.00  0.00     0.000 C 
BRANCH  18  19
ATOM     19  C   UNL     1      -8.777  -0.871  22.358  1.00  0.00     0.000 C 
BRANCH  19  20
ATOM     20  C   UNL     1      -9.718  -0.121  23.314  1.00  0.00     0.000 C 
BRANCH  20  21
ATOM     21  C   UNL     1      -9.116   1.201  23.836  1.00  0.00     0.000 C 
BRANCH  21  22
ATOM     22  C   UNL     1     -10.115   2.098  24.593  1.00  0.00     0.000 C 
BRANCH  22  23
ATOM     23  C   UNL     1     -10.269   3.527  24.039  1.00  0.00     0.000 C 
BRANCH  23  24
ATOM     24  C   UNL     1      -9.072   4.047  23.215  1.00  0.00    -0.000 C 
BRANCH  24  25
ATOM     25  C   UNL     1      -9.439   4.649  21.847  1.00  0.00    -0.000 C 
BRANCH  25  26
ATOM     26  C   UNL     1      -9.407   6.183  21.841  1.00  0.00    -0.000 C 
BRANCH  26  27
ATOM     27  C   UNL     1      -8.430   6.707  20.778  1.00  0.00    -0.000 C 
BRANCH  27  28
ATOM     28  C   UNL     1      -6.964   6.339  21.076  1.00  0.00    -0.000 C 
BRANCH  28  29
ATOM     29  C   UNL     1      -6.141   5.901  19.849  1.00  0.00    -0.000 C 
BRANCH  29  30
ATOM     30  C   UNL     1      -6.969   5.109  18.825  1.00  0.00    -0.000 C 
BRANCH  30  31
ATOM     31  C   UNL     1      -6.763   3.601  19.003  1.00  0.00    -0.003 C 
ATOM     32  C   UNL     1      -8.045   2.830  18.696  1.00  0.00     0.004 C 
ENDBRANCH  30  31
ENDBRANCH  29  30
ENDBRANCH  28  29
ENDBRANCH  27  28
ENDBRANCH  26  27
ENDBRANCH  25  26
ENDBRANCH  24  25
ENDBRANCH  23  24
ENDBRANCH  22  23
ENDBRANCH  21  22
ENDBRANCH  20  21
ENDBRANCH  19  20
ENDBRANCH  18  19
ENDBRANCH   1  18
TORSDOF 28
ENDMDL
MODEL 9
REMARK VINA RESULT:    -4.255      2.969      7.375
REMARK INTER + INTRA:         -16.540
REMARK INTER:                 -10.660
REMARK INTRA:                  -5.880
REMARK UNBOUND:                -5.320
REMARK SMILES CCCCCCCCCCCCCCCCCCCCCCCCCCCCCC(=O)[O-]
REMARK SMILES IDX 16 1 17 2 18 3 19 4 20 5 21 6 22 7 23 8 24 9 25 10 26 11
REMARK SMILES IDX 27 12 28 13 29 14 30 15 31 16 32 17 15 18 14 19 13 20 12 21
REMARK SMILES IDX 11 22 10 23 9 24 8 25 7 26 6 27 5 28 4 29 3 30 2 31 1 32
REMARK H PARENT
REMARK Flexibility Score: inf
ROOT
ATOM      1  C   UNL     1      -8.954   2.720  19.757  1.00  0.00     0.000 C 
ENDROOT
BRANCH   1   2
ATOM      2  C   UNL     1      -7.931   3.292  18.758  1.00  0.00     0.000 C 
BRANCH   2   3
ATOM      3  C   UNL     1      -6.854   4.203  19.379  1.00  0.00     0.000 C 
BRANCH   3   4
ATOM      4  C   UNL     1      -6.626   5.493  18.572  1.00  0.00     0.000 C 
BRANCH   4   5
ATOM      5  C   UNL     1      -7.876   6.383  18.504  1.00  0.00     0.000 C 
BRANCH   5   6
ATOM      6  C   UNL     1      -8.408   6.772  19.896  1.00  0.00     0.000 C 
BRANCH   6   7
ATOM      7  C   UNL     1      -9.945   6.794  19.947  1.00  0.00     0.000 C 
BRANCH   7   8
ATOM      8  C   UNL     1     -10.578   6.190  18.680  1.00  0.00     0.000 C 
BRANCH   8   9
ATOM      9  C   UNL     1     -11.994   5.637  18.924  1.00  0.00     0.000 C 
BRANCH   9  10
ATOM     10  C   UNL     1     -12.351   4.384  18.104  1.00  0.00     0.000 C 
BRANCH  10  11
ATOM     11  C   UNL     1     -11.254   3.989  17.104  1.00  0.00     0.000 C 
BRANCH  11  12
ATOM     12  C   UNL     1     -11.765   2.917  16.129  1.00  0.00     0.000 C 
BRANCH  12  13
ATOM     13  C   UNL     1     -11.349   1.491  16.538  1.00  0.00     0.006 C 
BRANCH  13  14
ATOM     14  C   UNL     1     -10.013   1.027  15.935  1.00  0.00     0.053 C 
BRANCH  14  15
ATOM     15  C   UNL     1     -10.165   0.558  14.520  1.00  0.00     0.041 C 
ATOM     16  O   UNL     1      -9.184   0.597  13.730  1.00  0.00    -0.550 OA
ATOM     17  O   UNL     1     -11.385   0.058  14.079  1.00  0.00    -0.550 OA
ENDBRANCH  14  15
ENDBRANCH  13  14
ENDBRANCH  12  13
ENDBRANCH  11  12
ENDBRANCH  10  11
ENDBRANCH   9  10
ENDBRANCH   8   9
ENDBRANCH   7   8
ENDBRANCH   6   7
ENDBRANCH   5   6
ENDBRANCH   4   5
ENDBRANCH   3   4
ENDBRANCH   2   3
ENDBRANCH   1   2
BRANCH   1  18
ATOM     18  C   UNL     1      -8.973   3.474  21.094  1.00  0.00     0.000 C 
BRANCH  18  19
ATOM     19  C   UNL     1     -10.290   3.227  21.839  1.00  0.00     0.000 C 
BRANCH  19  20
ATOM     20  C   UNL     1     -11.345   2.602  20.913  1.00  0.00     0.000 C 
BRANCH  20  21
ATOM     21  C   UNL     1     -12.651   2.237  21.649  1.00  0.00     0.000 C 
BRANCH  21  22
ATOM     22  C   UNL     1     -12.811   2.904  23.029  1.00  0.00     0.000 C 
BRANCH  22  23
ATOM     23  C   UNL     1     -13.107   1.944  24.197  1.00  0.00     0.000 C 
BRANCH  23  24
ATOM     24  C   UNL     1     -12.609   0.496  24.001  1.00  0.00    -0.000 C 
BRANCH  24  25
ATOM     25  C   UNL     1     -12.142  -0.209  25.287  1.00  0.00    -0.000 C 
BRANCH  25  26
ATOM     26  C   UNL     1     -10.614  -0.281  25.409  1.00  0.00    -0.000 C 
BRANCH  26  27
ATOM     27  C   UNL     1      -9.937   0.577  24.330  1.00  0.00    -0.000 C 
BRANCH  27  28
ATOM     28  C   UNL     1      -9.102  -0.254  23.337  1.00  0.00    -0.000 C 
BRANCH  28  29
ATOM     29  C   UNL     1      -9.803  -0.568  22.001  1.00  0.00    -0.000 C 
BRANCH  29  30
ATOM     30  C   UNL     1      -8.815  -0.871  20.865  1.00  0.00    -0.000 C 
BRANCH  30  31
ATOM     31  C   UNL     1      -9.518  -0.838  19.503  1.00  0.00    -0.003 C 
ATOM     32  C   UNL     1     -11.029  -0.699  19.667  1.00  0.00     0.004 C 
ENDBRANCH  30  31
ENDBRANCH  29  30
ENDBRANCH  28  29
ENDBRANCH  27  28
ENDBRANCH  26  27
ENDBRANCH  25  26
ENDBRANCH  24  25
ENDBRANCH  23  24
ENDBRANCH  22  23
ENDBRANCH  21  22
ENDBRANCH  20  21
ENDBRANCH  19  20
ENDBRANCH  18  19
ENDBRANCH   1  18
TORSDOF 28
ENDMDL
