MODEL 1
REMARK VINA RESULT:    -4.853      0.000      0.000
REMARK INTER + INTRA:          -8.402
REMARK INTER:                  -7.123
REMARK INTRA:                  -1.279
REMARK UNBOUND:                -1.279
REMARK SMILES O=c1c(O[C@H]2O[C@@H](CO)[C@@H](O)[C@@H](O)[C@H]2O)c(-c2ccc(O)c(O)c2)oc2cc(O)cc(O)c12
REMARK SMILES IDX 4 1 3 2 16 3 25 4 2 5 26 6 1 7 33 8 27 9 31 10 28 11 30 12
REMARK SMILES IDX 17 13 18 14 19 15 20 16 24 17 22 18 21 19 23 21 32 23 29 25
REMARK SMILES IDX 5 27 14 28 6 29 12 30 7 31 10 32 15 33 13 35 8 37 9 38 11 40
REMARK H PARENT 21 20 23 22 32 24 29 26 15 34 13 36 9 39 11 41
REMARK Flexibility Score: inf
ROOT
ATOM      1  O   UNL     1      18.103  18.652  18.790  1.00  0.00    -0.454 OA
ENDROOT
BRANCH   1   2
ATOM      2  C   UNL     1      18.495  19.881  19.343  1.00  0.00     0.214 A 
ATOM      3  C   UNL     1      18.670  20.054  20.730  1.00  0.00     0.180 A 
ATOM      4  O   UNL     1      19.025  21.241  21.211  1.00  0.00    -0.452 OA
ATOM      5  C   UNL     1      18.690  20.981  18.497  1.00  0.00     0.239 A 
ATOM      6  C   UNL     1      19.209  22.308  20.448  1.00  0.00     0.146 A 
ATOM      7  O   UNL     1      18.559  20.836  17.254  1.00  0.00    -0.285 OA
ATOM      8  C   UNL     1      19.052  22.228  19.044  1.00  0.00     0.111 A 
ATOM      9  C   UNL     1      19.560  23.516  21.049  1.00  0.00     0.094 A 
ATOM     10  C   UNL     1      19.262  23.388  18.261  1.00  0.00     0.134 A 
ATOM     11  C   UNL     1      19.777  24.654  20.273  1.00  0.00     0.123 A 
ATOM     12  C   UNL     1      19.627  24.591  18.883  1.00  0.00     0.093 A 
BRANCH   3  13
ATOM     13  C   UNL     1      18.445  18.968  21.695  1.00  0.00     0.025 A 
ATOM     14  C   UNL     1      17.139  18.636  22.075  1.00  0.00     0.016 A 
ATOM     15  C   UNL     1      16.907  17.546  22.920  1.00  0.00     0.051 A 
ATOM     16  C   UNL     1      17.980  16.759  23.365  1.00  0.00     0.157 A 
ATOM     17  C   UNL     1      19.520  18.205  22.165  1.00  0.00     0.062 A 
ATOM     18  C   UNL     1      19.285  17.094  22.993  1.00  0.00     0.158 A 
BRANCH  16  19
ATOM     19  O   UNL     1      17.757  15.659  24.189  1.00  0.00    -0.504 OA
ATOM     20  H   UNL     1      16.835  15.437  24.554  1.00  0.00     0.293 HD
ENDBRANCH  16  19
BRANCH  18  21
ATOM     21  O   UNL     1      20.351  16.309  23.434  1.00  0.00    -0.504 OA
ATOM     22  H   UNL     1      20.325  15.835  24.328  1.00  0.00     0.293 HD
ENDBRANCH  18  21
ENDBRANCH   3  13
BRANCH  10  23
ATOM     23  O   UNL     1      19.130  23.354  16.875  1.00  0.00    -0.507 OA
ATOM     24  H   UNL     1      18.929  24.189  16.329  1.00  0.00     0.293 HD
ENDBRANCH  10  23
BRANCH  11  25
ATOM     25  O   UNL     1      20.130  25.851  20.895  1.00  0.00    -0.508 OA
ATOM     26  H   UNL     1      20.277  26.696  20.354  1.00  0.00     0.293 HD
ENDBRANCH  11  25
ENDBRANCH   1   2
BRANCH   1  27
ATOM     27  C   UNL     1      19.005  17.698  18.225  1.00  0.00     0.339 C 
ATOM     28  C   UNL     1      18.214  16.408  17.845  1.00  0.00     0.214 C 
ATOM     29  O   UNL     1      20.053  17.473  19.168  1.00  0.00    -0.332 OA
ATOM     30  C   UNL     1      18.257  15.402  19.009  1.00  0.00     0.180 C 
ATOM     31  C   UNL     1      20.684  16.219  18.963  1.00  0.00     0.179 C 
ATOM     32  C   UNL     1      19.727  15.084  19.410  1.00  0.00     0.177 C 
BRANCH  28  33
ATOM     33  O   UNL     1      16.883  16.695  17.504  1.00  0.00    -0.384 OA
ATOM     34  H   UNL     1      16.449  15.827  17.292  1.00  0.00     0.211 HD
ENDBRANCH  28  33
BRANCH  30  35
ATOM     35  O   UNL     1      17.549  15.924  20.107  1.00  0.00    -0.387 OA
ATOM     36  H   UNL     1      16.626  16.119  19.799  1.00  0.00     0.211 HD
ENDBRANCH  30  35
BRANCH  31  37
ATOM     37  C   UNL     1      22.033  16.174  19.696  1.00  0.00     0.191 C 
BRANCH  37  38
ATOM     38  O   UNL     1      22.277  17.394  20.336  1.00  0.00    -0.394 OA
ATOM     39  H   UNL     1      22.718  17.180  21.197  1.00  0.00     0.210 HD
ENDBRANCH  37  38
ENDBRANCH  31  37
BRANCH  32  40
ATOM     40  O   UNL     1      19.798  14.875  20.799  1.00  0.00    -0.387 OA
ATOM     41  H   UNL     1      20.516  15.456  21.151  1.00  0.00     0.211 HD
ENDBRANCH  32  40
ENDBRANCH   1  27
TORSDOF 12
ENDMDL
MODEL 2
REMARK VINA RESULT:    -4.597      2.542      4.895
REMARK INTER + INTRA:          -8.026
REMARK INTER:                  -7.718
REMARK INTRA:                  -0.308
REMARK UNBOUND:                -1.279
REMARK SMILES O=c1c(O[C@H]2O[C@@H](CO)[C@@H](O)[C@@H](O)[C@H]2O)c(-c2ccc(O)c(O)c2)oc2cc(O)cc(O)c12
REMARK SMILES IDX 4 1 3 2 16 3 25 4 2 5 26 6 1 7 33 8 27 9 31 10 28 11 30 12
REMARK SMILES IDX 17 13 18 14 19 15 20 16 24 17 22 18 21 19 23 21 32 23 29 25
REMARK SMILES IDX 5 27 14 28 6 29 12 30 7 31 10 32 15 33 13 35 8 37 9 38 11 40
REMARK H PARENT 21 20 23 22 32 24 29 26 15 34 13 36 9 39 11 41
REMARK Flexibility Score: inf
ROOT
ATOM      1  O   UNL     1      19.998  17.402  21.167  1.00  0.00    -0.454 OA
ENDROOT
BRANCH   1   2
ATOM      2  C   UNL     1      20.231  18.785  21.099  1.00  0.00     0.214 A 
ATOM      3  C   UNL     1      21.497  19.315  20.780  1.00  0.00     0.180 A 
ATOM      4  O   UNL     1      21.676  20.631  20.746  1.00  0.00    -0.452 OA
ATOM      5  C   UNL     1      19.184  19.670  21.387  1.00  0.00     0.239 A 
ATOM      6  C   UNL     1      20.717  21.502  21.021  1.00  0.00     0.146 A 
ATOM      7  O   UNL     1      18.042  19.212  21.653  1.00  0.00    -0.285 OA
ATOM      8  C   UNL     1      19.414  21.060  21.356  1.00  0.00     0.111 A 
ATOM      9  C   UNL     1      21.008  22.864  20.979  1.00  0.00     0.094 A 
ATOM     10  C   UNL     1      18.414  22.020  21.639  1.00  0.00     0.134 A 
ATOM     11  C   UNL     1      20.017  23.807  21.249  1.00  0.00     0.123 A 
ATOM     12  C   UNL     1      18.724  23.386  21.580  1.00  0.00     0.093 A 
BRANCH   3  13
ATOM     13  C   UNL     1      22.663  18.461  20.507  1.00  0.00     0.025 A 
ATOM     14  C   UNL     1      22.475  17.118  20.162  1.00  0.00     0.016 A 
ATOM     15  C   UNL     1      23.570  16.321  19.811  1.00  0.00     0.051 A 
ATOM     16  C   UNL     1      24.859  16.874  19.769  1.00  0.00     0.157 A 
ATOM     17  C   UNL     1      23.952  19.007  20.498  1.00  0.00     0.062 A 
ATOM     18  C   UNL     1      25.049  18.214  20.120  1.00  0.00     0.158 A 
BRANCH  16  19
ATOM     19  O   UNL     1      25.952  16.094  19.400  1.00  0.00    -0.504 OA
ATOM     20  H   UNL     1      26.908  16.414  19.523  1.00  0.00     0.293 HD
ENDBRANCH  16  19
BRANCH  18  21
ATOM     21  O   UNL     1      26.331  18.763  20.075  1.00  0.00    -0.504 OA
ATOM     22  H   UNL     1      27.117  18.243  19.709  1.00  0.00     0.293 HD
ENDBRANCH  18  21
ENDBRANCH   3  13
BRANCH  10  23
ATOM     23  O   UNL     1      17.116  21.632  21.961  1.00  0.00    -0.507 OA
ATOM     24  H   UNL     1      16.520  21.135  21.302  1.00  0.00     0.293 HD
ENDBRANCH  10  23
BRANCH  11  25
ATOM     25  O   UNL     1      20.330  25.165  21.198  1.00  0.00    -0.508 OA
ATOM     26  H   UNL     1      21.075  25.506  20.600  1.00  0.00     0.293 HD
ENDBRANCH  11  25
ENDBRANCH   1   2
BRANCH   1  27
ATOM     27  C   UNL     1      20.204  16.608  22.337  1.00  0.00     0.339 C 
ATOM     28  C   UNL     1      19.418  15.268  22.191  1.00  0.00     0.214 C 
ATOM     29  O   UNL     1      19.811  17.384  23.469  1.00  0.00    -0.332 OA
ATOM     30  C   UNL     1      18.020  15.405  22.821  1.00  0.00     0.180 C 
ATOM     31  C   UNL     1      19.480  16.564  24.578  1.00  0.00     0.179 C 
ATOM     32  C   UNL     1      18.127  15.856  24.308  1.00  0.00     0.177 C 
BRANCH  28  33
ATOM     33  O   UNL     1      19.305  14.875  20.848  1.00  0.00    -0.384 OA
ATOM     34  H   UNL     1      19.870  14.066  20.738  1.00  0.00     0.211 HD
ENDBRANCH  28  33
BRANCH  30  35
ATOM     35  O   UNL     1      17.260  16.329  22.080  1.00  0.00    -0.387 OA
ATOM     36  H   UNL     1      17.778  16.552  21.265  1.00  0.00     0.211 HD
ENDBRANCH  30  35
BRANCH  31  37
ATOM     37  C   UNL     1      19.460  17.395  25.870  1.00  0.00     0.191 C 
BRANCH  37  38
ATOM     38  O   UNL     1      20.581  17.099  26.653  1.00  0.00    -0.394 OA
ATOM     39  H   UNL     1      20.243  16.708  27.498  1.00  0.00     0.210 HD
ENDBRANCH  37  38
ENDBRANCH  31  37
BRANCH  32  40
ATOM     40  O   UNL     1      17.042  16.694  24.621  1.00  0.00    -0.387 OA
ATOM     41  H   UNL     1      16.925  16.676  25.602  1.00  0.00     0.211 HD
ENDBRANCH  32  40
ENDBRANCH   1  27
TORSDOF 12
ENDMDL
MODEL 3
REMARK VINA RESULT:    -4.490      2.363      6.235
REMARK INTER + INTRA:          -7.869
REMARK INTER:                  -6.476
REMARK INTRA:                  -1.393
REMARK UNBOUND:                -1.279
REMARK SMILES O=c1c(O[C@H]2O[C@@H](CO)[C@@H](O)[C@@H](O)[C@H]2O)c(-c2ccc(O)c(O)c2)oc2cc(O)cc(O)c12
REMARK SMILES IDX 4 1 3 2 16 3 25 4 2 5 26 6 1 7 33 8 27 9 31 10 28 11 30 12
REMARK SMILES IDX 17 13 18 14 19 15 20 16 24 17 22 18 21 19 23 21 32 23 29 25
REMARK SMILES IDX 5 27 14 28 6 29 12 30 7 31 10 32 15 33 13 35 8 37 9 38 11 40
REMARK H PARENT 21 20 23 22 32 24 29 26 15 34 13 36 9 39 11 41
REMARK Flexibility Score: inf
ROOT
ATOM      1  O   UNL     1      19.508  19.769  21.212  1.00  0.00    -0.454 OA
ENDROOT
BRANCH   1   2
ATOM      2  C   UNL     1      20.890  19.668  20.990  1.00  0.00     0.214 A 
ATOM      3  C   UNL     1      21.688  20.798  20.718  1.00  0.00     0.180 A 
ATOM      4  O   UNL     1      22.989  20.652  20.495  1.00  0.00    -0.452 OA
ATOM      5  C   UNL     1      21.495  18.405  21.005  1.00  0.00     0.239 A 
ATOM      6  C   UNL     1      23.599  19.476  20.491  1.00  0.00     0.146 A 
ATOM      7  O   UNL     1      20.800  17.389  21.268  1.00  0.00    -0.285 OA
ATOM      8  C   UNL     1      22.876  18.288  20.751  1.00  0.00     0.111 A 
ATOM      9  C   UNL     1      24.966  19.425  20.226  1.00  0.00     0.094 A 
ATOM     10  C   UNL     1      23.562  17.050  20.742  1.00  0.00     0.134 A 
ATOM     11  C   UNL     1      25.641  18.204  20.229  1.00  0.00     0.123 A 
ATOM     12  C   UNL     1      24.940  17.020  20.486  1.00  0.00     0.093 A 
BRANCH   3  13
ATOM     13  C   UNL     1      21.130  22.156  20.638  1.00  0.00     0.025 A 
ATOM     14  C   UNL     1      20.565  22.743  21.776  1.00  0.00     0.016 A 
ATOM     15  C   UNL     1      20.115  24.067  21.735  1.00  0.00     0.051 A 
ATOM     16  C   UNL     1      20.259  24.825  20.563  1.00  0.00     0.157 A 
ATOM     17  C   UNL     1      21.245  22.899  19.457  1.00  0.00     0.062 A 
ATOM     18  C   UNL     1      20.817  24.237  19.424  1.00  0.00     0.158 A 
BRANCH  16  19
ATOM     19  O   UNL     1      19.834  26.150  20.520  1.00  0.00    -0.504 OA
ATOM     20  H   UNL     1      20.466  26.911  20.288  1.00  0.00     0.293 HD
ENDBRANCH  16  19
BRANCH  18  21
ATOM     21  O   UNL     1      20.963  24.992  18.259  1.00  0.00    -0.504 OA
ATOM     22  H   UNL     1      21.874  25.274  17.921  1.00  0.00     0.293 HD
ENDBRANCH  18  21
ENDBRANCH   3  13
BRANCH  10  23
ATOM     23  O   UNL     1      22.895  15.856  21.004  1.00  0.00    -0.507 OA
ATOM     24  H   UNL     1      22.312  15.730  21.829  1.00  0.00     0.293 HD
ENDBRANCH  10  23
BRANCH  11  25
ATOM     25  O   UNL     1      27.009  18.176  19.965  1.00  0.00    -0.508 OA
ATOM     26  H   UNL     1      27.365  17.781  19.101  1.00  0.00     0.293 HD
ENDBRANCH  11  25
ENDBRANCH   1   2
BRANCH   1  27
ATOM     27  C   UNL     1      18.520  19.714  20.179  1.00  0.00     0.339 C 
ATOM     28  C   UNL     1      17.137  19.371  20.813  1.00  0.00     0.214 C 
ATOM     29  O   UNL     1      18.957  18.767  19.205  1.00  0.00    -0.332 OA
ATOM     30  C   UNL     1      16.906  17.849  20.784  1.00  0.00     0.180 C 
ATOM     31  C   UNL     1      17.872  18.255  18.447  1.00  0.00     0.179 C 
ATOM     32  C   UNL     1      17.032  17.299  19.333  1.00  0.00     0.177 C 
BRANCH  28  33
ATOM     33  O   UNL     1      17.033  19.849  22.129  1.00  0.00    -0.384 OA
ATOM     34  H   UNL     1      17.117  19.061  22.727  1.00  0.00     0.211 HD
ENDBRANCH  28  33
BRANCH  30  35
ATOM     35  O   UNL     1      17.835  17.218  21.632  1.00  0.00    -0.387 OA
ATOM     36  H   UNL     1      18.669  17.754  21.609  1.00  0.00     0.211 HD
ENDBRANCH  30  35
BRANCH  31  37
ATOM     37  C   UNL     1      18.387  17.573  17.170  1.00  0.00     0.191 C 
BRANCH  37  38
ATOM     38  O   UNL     1      19.539  16.830  17.450  1.00  0.00    -0.394 OA
ATOM     39  H   UNL     1      19.979  17.267  18.222  1.00  0.00     0.210 HD
ENDBRANCH  37  38
ENDBRANCH  31  37
BRANCH  32  40
ATOM     40  O   UNL     1      17.596  16.011  19.369  1.00  0.00    -0.387 OA
ATOM     41  H   UNL     1      17.250  15.513  18.589  1.00  0.00     0.211 HD
ENDBRANCH  32  40
ENDBRANCH   1  27
TORSDOF 12
ENDMDL
MODEL 4
REMARK VINA RESULT:    -3.932      2.370      6.490
REMARK INTER + INTRA:          -7.049
REMARK INTER:                  -6.478
REMARK INTRA:                  -0.571
REMARK UNBOUND:                -1.279
REMARK SMILES O=c1c(O[C@H]2O[C@@H](CO)[C@@H](O)[C@@H](O)[C@H]2O)c(-c2ccc(O)c(O)c2)oc2cc(O)cc(O)c12
REMARK SMILES IDX 4 1 3 2 16 3 25 4 2 5 26 6 1 7 33 8 27 9 31 10 28 11 30 12
REMARK SMILES IDX 17 13 18 14 19 15 20 16 24 17 22 18 21 19 23 21 32 23 29 25
REMARK SMILES IDX 5 27 14 28 6 29 12 30 7 31 10 32 15 33 13 35 8 37 9 38 11 40
REMARK H PARENT 21 20 23 22 32 24 29 26 15 34 13 36 9 39 11 41
REMARK Flexibility Score: inf
ROOT
ATOM      1  O   UNL     1      19.355  20.014  21.378  1.00  0.00    -0.454 OA
ENDROOT
BRANCH   1   2
ATOM      2  C   UNL     1      20.727  19.870  21.118  1.00  0.00     0.214 A 
ATOM      3  C   UNL     1      21.555  20.974  20.835  1.00  0.00     0.180 A 
ATOM      4  O   UNL     1      22.845  20.788  20.577  1.00  0.00    -0.452 OA
ATOM      5  C   UNL     1      21.290  18.587  21.106  1.00  0.00     0.239 A 
ATOM      6  C   UNL     1      23.414  19.592  20.546  1.00  0.00     0.146 A 
ATOM      7  O   UNL     1      20.568  17.592  21.378  1.00  0.00    -0.285 OA
ATOM      8  C   UNL     1      22.658  18.426  20.814  1.00  0.00     0.111 A 
ATOM      9  C   UNL     1      24.771  19.498  20.244  1.00  0.00     0.094 A 
ATOM     10  C   UNL     1      23.303  17.166  20.776  1.00  0.00     0.134 A 
ATOM     11  C   UNL     1      25.405  18.255  20.219  1.00  0.00     0.123 A 
ATOM     12  C   UNL     1      24.671  17.092  20.483  1.00  0.00     0.093 A 
BRANCH   3  13
ATOM     13  C   UNL     1      21.042  22.351  20.782  1.00  0.00     0.025 A 
ATOM     14  C   UNL     1      20.639  22.989  21.961  1.00  0.00     0.016 A 
ATOM     15  C   UNL     1      20.236  24.328  21.935  1.00  0.00     0.051 A 
ATOM     16  C   UNL     1      20.266  25.049  20.732  1.00  0.00     0.157 A 
ATOM     17  C   UNL     1      21.040  23.059  19.573  1.00  0.00     0.062 A 
ATOM     18  C   UNL     1      20.660  24.412  19.552  1.00  0.00     0.158 A 
BRANCH  16  19
ATOM     19  O   UNL     1      19.886  26.389  20.700  1.00  0.00    -0.504 OA
ATOM     20  H   UNL     1      19.552  26.874  21.528  1.00  0.00     0.293 HD
ENDBRANCH  16  19
BRANCH  18  21
ATOM     21  O   UNL     1      20.692  25.131  18.357  1.00  0.00    -0.504 OA
ATOM     22  H   UNL     1      21.373  24.931  17.636  1.00  0.00     0.293 HD
ENDBRANCH  18  21
ENDBRANCH   3  13
BRANCH  10  23
ATOM     23  O   UNL     1      22.603  15.993  21.045  1.00  0.00    -0.507 OA
ATOM     24  H   UNL     1      23.050  15.176  21.457  1.00  0.00     0.293 HD
ENDBRANCH  10  23
BRANCH  11  25
ATOM     25  O   UNL     1      26.764  18.184  19.917  1.00  0.00    -0.508 OA
ATOM     26  H   UNL     1      27.403  18.913  20.215  1.00  0.00     0.293 HD
ENDBRANCH  11  25
ENDBRANCH   1   2
BRANCH   1  27
ATOM     27  C   UNL     1      18.425  20.618  20.476  1.00  0.00     0.339 C 
ATOM     28  C   UNL     1      17.130  19.749  20.421  1.00  0.00     0.214 C 
ATOM     29  O   UNL     1      19.071  20.765  19.211  1.00  0.00    -0.332 OA
ATOM     30  C   UNL     1      17.224  18.734  19.268  1.00  0.00     0.180 C 
ATOM     31  C   UNL     1      18.135  20.851  18.149  1.00  0.00     0.179 C 
ATOM     32  C   UNL     1      17.494  19.458  17.916  1.00  0.00     0.177 C 
BRANCH  28  33
ATOM     33  O   UNL     1      16.899  19.081  21.634  1.00  0.00    -0.384 OA
ATOM     34  H   UNL     1      15.947  19.235  21.869  1.00  0.00     0.211 HD
ENDBRANCH  28  33
BRANCH  30  35
ATOM     35  O   UNL     1      18.245  17.805  19.541  1.00  0.00    -0.387 OA
ATOM     36  H   UNL     1      18.061  17.419  20.436  1.00  0.00     0.211 HD
ENDBRANCH  30  35
BRANCH  31  37
ATOM     37  C   UNL     1      18.809  21.407  16.886  1.00  0.00     0.191 C 
BRANCH  37  38
ATOM     38  O   UNL     1      18.915  22.800  16.967  1.00  0.00    -0.394 OA
ATOM     39  H   UNL     1      19.385  23.097  16.148  1.00  0.00     0.210 HD
ENDBRANCH  37  38
ENDBRANCH  31  37
BRANCH  32  40
ATOM     40  O   UNL     1      18.314  18.649  17.109  1.00  0.00    -0.387 OA
ATOM     41  H   UNL     1      19.088  18.370  17.656  1.00  0.00     0.211 HD
ENDBRANCH  32  40
ENDBRANCH   1  27
TORSDOF 12
ENDMDL
MODEL 5
REMARK VINA RESULT:    -3.744      1.856      3.411
REMARK INTER + INTRA:          -6.773
REMARK INTER:                  -6.409
REMARK INTRA:                  -0.364
REMARK UNBOUND:                -1.279
REMARK SMILES O=c1c(O[C@H]2O[C@@H](CO)[C@@H](O)[C@@H](O)[C@H]2O)c(-c2ccc(O)c(O)c2)oc2cc(O)cc(O)c12
REMARK SMILES IDX 4 1 3 2 16 3 25 4 2 5 26 6 1 7 33 8 27 9 31 10 28 11 30 12
REMARK SMILES IDX 17 13 18 14 19 15 20 16 24 17 22 18 21 19 23 21 32 23 29 25
REMARK SMILES IDX 5 27 14 28 6 29 12 30 7 31 10 32 15 33 13 35 8 37 9 38 11 40
REMARK H PARENT 21 20 23 22 32 24 29 26 15 34 13 36 9 39 11 41
REMARK Flexibility Score: inf
ROOT
ATOM      1  O   UNL     1      21.741  18.285  21.732  1.00  0.00    -0.454 OA
ENDROOT
BRANCH   1   2
ATOM      2  C   UNL     1      20.972  19.370  21.282  1.00  0.00     0.214 A 
ATOM      3  C   UNL     1      19.567  19.388  21.393  1.00  0.00     0.180 A 
ATOM      4  O   UNL     1      18.879  20.428  20.936  1.00  0.00    -0.452 OA
ATOM      5  C   UNL     1      21.613  20.458  20.675  1.00  0.00     0.239 A 
ATOM      6  C   UNL     1      19.444  21.472  20.347  1.00  0.00     0.146 A 
ATOM      7  O   UNL     1      22.869  20.466  20.588  1.00  0.00    -0.285 OA
ATOM      8  C   UNL     1      20.849  21.538  20.189  1.00  0.00     0.111 A 
ATOM      9  C   UNL     1      18.634  22.506  19.882  1.00  0.00     0.094 A 
ATOM     10  C   UNL     1      21.417  22.670  19.558  1.00  0.00     0.134 A 
ATOM     11  C   UNL     1      19.199  23.625  19.271  1.00  0.00     0.123 A 
ATOM     12  C   UNL     1      20.587  23.706  19.108  1.00  0.00     0.093 A 
BRANCH   3  13
ATOM     13  C   UNL     1      18.808  18.271  21.976  1.00  0.00     0.025 A 
ATOM     14  C   UNL     1      17.903  17.558  21.183  1.00  0.00     0.016 A 
ATOM     15  C   UNL     1      17.244  16.438  21.700  1.00  0.00     0.051 A 
ATOM     16  C   UNL     1      17.514  16.003  23.006  1.00  0.00     0.157 A 
ATOM     17  C   UNL     1      19.054  17.860  23.291  1.00  0.00     0.062 A 
ATOM     18  C   UNL     1      18.413  16.718  23.802  1.00  0.00     0.158 A 
BRANCH  16  19
ATOM     19  O   UNL     1      16.879  14.875  23.522  1.00  0.00    -0.504 OA
ATOM     20  H   UNL     1      15.927  14.630  23.268  1.00  0.00     0.293 HD
ENDBRANCH  16  19
BRANCH  18  21
ATOM     21  O   UNL     1      18.682  16.284  25.100  1.00  0.00    -0.504 OA
ATOM     22  H   UNL     1      18.003  16.384  25.843  1.00  0.00     0.293 HD
ENDBRANCH  18  21
ENDBRANCH   3  13
BRANCH  10  23
ATOM     23  O   UNL     1      22.795  22.785  19.392  1.00  0.00    -0.507 OA
ATOM     24  H   UNL     1      23.235  23.654  19.098  1.00  0.00     0.293 HD
ENDBRANCH  10  23
BRANCH  11  25
ATOM     25  O   UNL     1      18.370  24.649  18.815  1.00  0.00    -0.508 OA
ATOM     26  H   UNL     1      17.368  24.616  18.968  1.00  0.00     0.293 HD
ENDBRANCH  11  25
ENDBRANCH   1   2
BRANCH   1  27
ATOM     27  C   UNL     1      21.516  16.926  21.350  1.00  0.00     0.339 C 
ATOM     28  C   UNL     1      22.888  16.192  21.239  1.00  0.00     0.214 C 
ATOM     29  O   UNL     1      20.766  16.930  20.135  1.00  0.00    -0.332 OA
ATOM     30  C   UNL     1      23.408  16.262  19.792  1.00  0.00     0.180 C 
ATOM     31  C   UNL     1      20.933  15.722  19.411  1.00  0.00     0.179 C 
ATOM     32  C   UNL     1      22.357  15.682  18.800  1.00  0.00     0.177 C 
BRANCH  28  33
ATOM     33  O   UNL     1      23.839  16.731  22.119  1.00  0.00    -0.384 OA
ATOM     34  H   UNL     1      23.459  16.655  23.034  1.00  0.00     0.211 HD
ENDBRANCH  28  33
BRANCH  30  35
ATOM     35  O   UNL     1      23.709  17.597  19.465  1.00  0.00    -0.387 OA
ATOM     36  H   UNL     1      23.625  17.687  18.480  1.00  0.00     0.211 HD
ENDBRANCH  30  35
BRANCH  31  37
ATOM     37  C   UNL     1      19.833  15.579  18.348  1.00  0.00     0.191 C 
BRANCH  37  38
ATOM     38  O   UNL     1      19.581  16.816  17.744  1.00  0.00    -0.394 OA
ATOM     39  H   UNL     1      19.933  17.508  18.358  1.00  0.00     0.210 HD
ENDBRANCH  37  38
ENDBRANCH  31  37
BRANCH  32  40
ATOM     40  O   UNL     1      22.413  16.397  17.590  1.00  0.00    -0.387 OA
ATOM     41  H   UNL     1      22.492  17.356  17.814  1.00  0.00     0.211 HD
ENDBRANCH  32  40
ENDBRANCH   1  27
TORSDOF 12
ENDMDL
MODEL 6
REMARK VINA RESULT:    -3.646      2.640      4.234
REMARK INTER + INTRA:          -6.630
REMARK INTER:                  -5.662
REMARK INTRA:                  -0.968
REMARK UNBOUND:                -1.279
REMARK SMILES O=c1c(O[C@H]2O[C@@H](CO)[C@@H](O)[C@@H](O)[C@H]2O)c(-c2ccc(O)c(O)c2)oc2cc(O)cc(O)c12
REMARK SMILES IDX 4 1 3 2 16 3 25 4 2 5 26 6 1 7 33 8 27 9 31 10 28 11 30 12
REMARK SMILES IDX 17 13 18 14 19 15 20 16 24 17 22 18 21 19 23 21 32 23 29 25
REMARK SMILES IDX 5 27 14 28 6 29 12 30 7 31 10 32 15 33 13 35 8 37 9 38 11 40
REMARK H PARENT 21 20 23 22 32 24 29 26 15 34 13 36 9 39 11 41
REMARK Flexibility Score: inf
ROOT
ATOM      1  O   UNL     1      20.248  19.070  21.389  1.00  0.00    -0.454 OA
ENDROOT
BRANCH   1   2
ATOM      2  C   UNL     1      20.534  20.220  20.636  1.00  0.00     0.214 A 
ATOM      3  C   UNL     1      21.853  20.591  20.310  1.00  0.00     0.180 A 
ATOM      4  O   UNL     1      22.078  21.698  19.611  1.00  0.00    -0.452 OA
ATOM      5  C   UNL     1      19.481  21.045  20.221  1.00  0.00     0.239 A 
ATOM      6  C   UNL     1      21.112  22.511  19.208  1.00  0.00     0.146 A 
ATOM      7  O   UNL     1      18.295  20.716  20.486  1.00  0.00    -0.285 OA
ATOM      8  C   UNL     1      19.757  22.220  19.494  1.00  0.00     0.111 A 
ATOM      9  C   UNL     1      21.451  23.661  18.498  1.00  0.00     0.094 A 
ATOM     10  C   UNL     1      18.753  23.109  19.042  1.00  0.00     0.134 A 
ATOM     11  C   UNL     1      20.457  24.530  18.045  1.00  0.00     0.123 A 
ATOM     12  C   UNL     1      19.112  24.255  18.318  1.00  0.00     0.093 A 
BRANCH   3  13
ATOM     13  C   UNL     1      23.022  19.809  20.742  1.00  0.00     0.025 A 
ATOM     14  C   UNL     1      22.985  19.121  21.960  1.00  0.00     0.016 A 
ATOM     15  C   UNL     1      24.054  18.301  22.338  1.00  0.00     0.051 A 
ATOM     16  C   UNL     1      25.153  18.138  21.482  1.00  0.00     0.157 A 
ATOM     17  C   UNL     1      24.133  19.675  19.901  1.00  0.00     0.062 A 
ATOM     18  C   UNL     1      25.194  18.830  20.268  1.00  0.00     0.158 A 
BRANCH  16  19
ATOM     19  O   UNL     1      26.212  17.306  21.840  1.00  0.00    -0.504 OA
ATOM     20  H   UNL     1      26.739  17.445  22.697  1.00  0.00     0.293 HD
ENDBRANCH  16  19
BRANCH  18  21
ATOM     21  O   UNL     1      26.287  18.665  19.417  1.00  0.00    -0.504 OA
ATOM     22  H   UNL     1      26.178  18.296  18.481  1.00  0.00     0.293 HD
ENDBRANCH  18  21
ENDBRANCH   3  13
BRANCH  10  23
ATOM     23  O   UNL     1      17.406  22.857  19.289  1.00  0.00    -0.507 OA
ATOM     24  H   UNL     1      16.917  22.067  18.873  1.00  0.00     0.293 HD
ENDBRANCH  10  23
BRANCH  11  25
ATOM     25  O   UNL     1      20.818  25.673  17.333  1.00  0.00    -0.508 OA
ATOM     26  H   UNL     1      21.048  26.535  17.815  1.00  0.00     0.293 HD
ENDBRANCH  11  25
ENDBRANCH   1   2
BRANCH   1  27
ATOM     27  C   UNL     1      19.863  17.814  20.825  1.00  0.00     0.339 C 
ATOM     28  C   UNL     1      18.820  17.131  21.764  1.00  0.00     0.214 C 
ATOM     29  O   UNL     1      21.046  17.042  20.623  1.00  0.00    -0.332 OA
ATOM     30  C   UNL     1      19.536  16.195  22.754  1.00  0.00     0.180 C 
ATOM     31  C   UNL     1      20.765  15.653  20.573  1.00  0.00     0.179 C 
ATOM     32  C   UNL     1      20.407  15.150  21.996  1.00  0.00     0.177 C 
BRANCH  28  33
ATOM     33  O   UNL     1      18.051  18.074  22.462  1.00  0.00    -0.384 OA
ATOM     34  H   UNL     1      17.438  18.490  21.800  1.00  0.00     0.211 HD
ENDBRANCH  28  33
BRANCH  30  35
ATOM     35  O   UNL     1      20.332  16.958  23.629  1.00  0.00    -0.387 OA
ATOM     36  H   UNL     1      19.825  17.064  24.474  1.00  0.00     0.211 HD
ENDBRANCH  30  35
BRANCH  31  37
ATOM     37  C   UNL     1      21.950  14.889  19.962  1.00  0.00     0.191 C 
BRANCH  37  38
ATOM     38  O   UNL     1      23.157  15.495  20.328  1.00  0.00    -0.394 OA
ATOM     39  H   UNL     1      22.936  16.179  21.009  1.00  0.00     0.210 HD
ENDBRANCH  37  38
ENDBRANCH  31  37
BRANCH  32  40
ATOM     40  O   UNL     1      21.565  14.875  22.746  1.00  0.00    -0.387 OA
ATOM     41  H   UNL     1      21.498  13.942  23.065  1.00  0.00     0.211 HD
ENDBRANCH  32  40
ENDBRANCH   1  27
TORSDOF 12
ENDMDL
MODEL 7
REMARK VINA RESULT:    -3.576      2.462      7.005
REMARK INTER + INTRA:          -6.527
REMARK INTER:                  -6.268
REMARK INTRA:                  -0.259
REMARK UNBOUND:                -1.279
REMARK SMILES O=c1c(O[C@H]2O[C@@H](CO)[C@@H](O)[C@@H](O)[C@H]2O)c(-c2ccc(O)c(O)c2)oc2cc(O)cc(O)c12
REMARK SMILES IDX 4 1 3 2 16 3 25 4 2 5 26 6 1 7 33 8 27 9 31 10 28 11 30 12
REMARK SMILES IDX 17 13 18 14 19 15 20 16 24 17 22 18 21 19 23 21 32 23 29 25
REMARK SMILES IDX 5 27 14 28 6 29 12 30 7 31 10 32 15 33 13 35 8 37 9 38 11 40
REMARK H PARENT 21 20 23 22 32 24 29 26 15 34 13 36 9 39 11 41
REMARK Flexibility Score: inf
ROOT
ATOM      1  O   UNL     1      21.734  20.825  20.604  1.00  0.00    -0.454 OA
ENDROOT
BRANCH   1   2
ATOM      2  C   UNL     1      21.033  19.674  20.996  1.00  0.00     0.214 A 
ATOM      3  C   UNL     1      21.636  18.400  21.010  1.00  0.00     0.180 A 
ATOM      4  O   UNL     1      20.928  17.335  21.370  1.00  0.00    -0.452 OA
ATOM      5  C   UNL     1      19.683  19.783  21.353  1.00  0.00     0.239 A 
ATOM      6  C   UNL     1      19.648  17.393  21.705  1.00  0.00     0.146 A 
ATOM      7  O   UNL     1      19.136  20.917  21.366  1.00  0.00    -0.285 OA
ATOM      8  C   UNL     1      18.959  18.630  21.715  1.00  0.00     0.111 A 
ATOM      9  C   UNL     1      18.985  16.216  22.048  1.00  0.00     0.094 A 
ATOM     10  C   UNL     1      17.593  18.653  22.083  1.00  0.00     0.134 A 
ATOM     11  C   UNL     1      17.641  16.245  22.421  1.00  0.00     0.123 A 
ATOM     12  C   UNL     1      16.947  17.460  22.437  1.00  0.00     0.093 A 
BRANCH   3  13
ATOM     13  C   UNL     1      23.034  18.185  20.609  1.00  0.00     0.025 A 
ATOM     14  C   UNL     1      24.020  19.093  21.012  1.00  0.00     0.016 A 
ATOM     15  C   UNL     1      25.365  18.850  20.714  1.00  0.00     0.051 A 
ATOM     16  C   UNL     1      25.736  17.678  20.038  1.00  0.00     0.157 A 
ATOM     17  C   UNL     1      23.398  17.031  19.904  1.00  0.00     0.062 A 
ATOM     18  C   UNL     1      24.752  16.774  19.628  1.00  0.00     0.158 A 
BRANCH  16  19
ATOM     19  O   UNL     1      27.075  17.417  19.756  1.00  0.00    -0.504 OA
ATOM     20  H   UNL     1      27.819  17.665  20.400  1.00  0.00     0.293 HD
ENDBRANCH  16  19
BRANCH  18  21
ATOM     21  O   UNL     1      25.122  15.608  18.958  1.00  0.00    -0.504 OA
ATOM     22  H   UNL     1      25.384  14.769  19.460  1.00  0.00     0.293 HD
ENDBRANCH  18  21
ENDBRANCH   3  13
BRANCH  10  23
ATOM     23  O   UNL     1      16.878  19.848  22.119  1.00  0.00    -0.507 OA
ATOM     24  H   UNL     1      16.597  20.285  22.995  1.00  0.00     0.293 HD
ENDBRANCH  10  23
BRANCH  11  25
ATOM     25  O   UNL     1      16.999  15.055  22.762  1.00  0.00    -0.508 OA
ATOM     26  H   UNL     1      16.908  14.772  23.732  1.00  0.00     0.293 HD
ENDBRANCH  11  25
ENDBRANCH   1   2
BRANCH   1  27
ATOM     27  C   UNL     1      21.471  21.559  19.406  1.00  0.00     0.339 C 
ATOM     28  C   UNL     1      21.909  23.043  19.609  1.00  0.00     0.214 C 
ATOM     29  O   UNL     1      20.087  21.407  19.092  1.00  0.00    -0.332 OA
ATOM     30  C   UNL     1      20.716  23.882  20.100  1.00  0.00     0.180 C 
ATOM     31  C   UNL     1      19.614  22.465  18.274  1.00  0.00     0.179 C 
ATOM     32  C   UNL     1      19.514  23.761  19.118  1.00  0.00     0.177 C 
BRANCH  28  33
ATOM     33  O   UNL     1      22.979  23.152  20.511  1.00  0.00    -0.384 OA
ATOM     34  H   UNL     1      22.611  23.547  21.345  1.00  0.00     0.211 HD
ENDBRANCH  28  33
BRANCH  30  35
ATOM     35  O   UNL     1      20.343  23.459  21.389  1.00  0.00    -0.387 OA
ATOM     36  H   UNL     1      21.159  23.114  21.835  1.00  0.00     0.211 HD
ENDBRANCH  30  35
BRANCH  31  37
ATOM     37  C   UNL     1      18.275  22.081  17.625  1.00  0.00     0.191 C 
BRANCH  37  38
ATOM     38  O   UNL     1      17.441  21.465  18.565  1.00  0.00    -0.394 OA
ATOM     39  H   UNL     1      17.156  20.603  18.171  1.00  0.00     0.210 HD
ENDBRANCH  37  38
ENDBRANCH  31  37
BRANCH  32  40
ATOM     40  O   UNL     1      18.311  23.805  19.845  1.00  0.00    -0.387 OA
ATOM     41  H   UNL     1      18.459  24.385  20.631  1.00  0.00     0.211 HD
ENDBRANCH  32  40
ENDBRANCH   1  27
TORSDOF 12
ENDMDL
MODEL 8
REMARK VINA RESULT:    -3.563      2.784      5.080
REMARK INTER + INTRA:          -6.508
REMARK INTER:                  -5.571
REMARK INTRA:                  -0.937
REMARK UNBOUND:                -1.279
REMARK SMILES O=c1c(O[C@H]2O[C@@H](CO)[C@@H](O)[C@@H](O)[C@H]2O)c(-c2ccc(O)c(O)c2)oc2cc(O)cc(O)c12
REMARK SMILES IDX 4 1 3 2 16 3 25 4 2 5 26 6 1 7 33 8 27 9 31 10 28 11 30 12
REMARK SMILES IDX 17 13 18 14 19 15 20 16 24 17 22 18 21 19 23 21 32 23 29 25
REMARK SMILES IDX 5 27 14 28 6 29 12 30 7 31 10 32 15 33 13 35 8 37 9 38 11 40
REMARK H PARENT 21 20 23 22 32 24 29 26 15 34 13 36 9 39 11 41
REMARK Flexibility Score: inf
ROOT
ATOM      1  O   UNL     1      21.532  17.876  21.481  1.00  0.00    -0.454 OA
ENDROOT
BRANCH   1   2
ATOM      2  C   UNL     1      21.613  19.212  21.057  1.00  0.00     0.214 A 
ATOM      3  C   UNL     1      22.822  19.784  20.613  1.00  0.00     0.180 A 
ATOM      4  O   UNL     1      22.855  21.058  20.239  1.00  0.00    -0.452 OA
ATOM      5  C   UNL     1      20.466  20.016  21.105  1.00  0.00     0.239 A 
ATOM      6  C   UNL     1      21.797  21.855  20.278  1.00  0.00     0.146 A 
ATOM      7  O   UNL     1      19.374  19.513  21.479  1.00  0.00    -0.285 OA
ATOM      8  C   UNL     1      20.542  21.367  20.714  1.00  0.00     0.111 A 
ATOM      9  C   UNL     1      21.938  23.184  19.885  1.00  0.00     0.094 A 
ATOM     10  C   UNL     1      19.434  22.247  20.738  1.00  0.00     0.134 A 
ATOM     11  C   UNL     1      20.840  24.045  19.899  1.00  0.00     0.123 A 
ATOM     12  C   UNL     1      19.592  23.577  20.327  1.00  0.00     0.093 A 
BRANCH   3  13
ATOM     13  C   UNL     1      24.083  19.028  20.571  1.00  0.00     0.025 A 
ATOM     14  C   UNL     1      24.716  18.667  21.766  1.00  0.00     0.016 A 
ATOM     15  C   UNL     1      25.865  17.871  21.741  1.00  0.00     0.051 A 
ATOM     16  C   UNL     1      26.370  17.401  20.519  1.00  0.00     0.157 A 
ATOM     17  C   UNL     1      24.604  18.589  19.348  1.00  0.00     0.062 A 
ATOM     18  C   UNL     1      25.743  17.766  19.324  1.00  0.00     0.158 A 
BRANCH  16  19
ATOM     19  O   UNL     1      27.502  16.589  20.485  1.00  0.00    -0.504 OA
ATOM     20  H   UNL     1      28.410  16.919  20.798  1.00  0.00     0.293 HD
ENDBRANCH  16  19
BRANCH  18  21
ATOM     21  O   UNL     1      26.245  17.297  18.110  1.00  0.00    -0.504 OA
ATOM     22  H   UNL     1      26.265  17.881  17.284  1.00  0.00     0.293 HD
ENDBRANCH  18  21
ENDBRANCH   3  13
BRANCH  10  23
ATOM     23  O   UNL     1      18.177  21.809  21.148  1.00  0.00    -0.507 OA
ATOM     24  H   UNL     1      18.057  21.131  21.898  1.00  0.00     0.293 HD
ENDBRANCH  10  23
BRANCH  11  25
ATOM     25  O   UNL     1      21.003  25.370  19.498  1.00  0.00    -0.508 OA
ATOM     26  H   UNL     1      21.668  25.618  18.774  1.00  0.00     0.293 HD
ENDBRANCH  11  25
ENDBRANCH   1   2
BRANCH   1  27
ATOM     27  C   UNL     1      20.659  16.901  20.906  1.00  0.00     0.339 C 
ATOM     28  C   UNL     1      21.124  15.477  21.344  1.00  0.00     0.214 C 
ATOM     29  O   UNL     1      20.656  17.094  19.491  1.00  0.00    -0.332 OA
ATOM     30  C   UNL     1      22.083  14.890  20.293  1.00  0.00     0.180 C 
ATOM     31  C   UNL     1      20.272  15.916  18.801  1.00  0.00     0.179 C 
ATOM     32  C   UNL     1      21.418  14.875  18.885  1.00  0.00     0.177 C 
BRANCH  28  33
ATOM     33  O   UNL     1      21.743  15.496  22.603  1.00  0.00    -0.384 OA
ATOM     34  H   UNL     1      22.278  14.662  22.672  1.00  0.00     0.211 HD
ENDBRANCH  28  33
BRANCH  30  35
ATOM     35  O   UNL     1      23.272  15.643  20.267  1.00  0.00    -0.387 OA
ATOM     36  H   UNL     1      23.977  15.097  20.702  1.00  0.00     0.211 HD
ENDBRANCH  30  35
BRANCH  31  37
ATOM     37  C   UNL     1      19.884  16.248  17.352  1.00  0.00     0.191 C 
BRANCH  37  38
ATOM     38  O   UNL     1      18.701  16.995  17.327  1.00  0.00    -0.394 OA
ATOM     39  H   UNL     1      18.493  17.165  16.374  1.00  0.00     0.210 HD
ENDBRANCH  37  38
ENDBRANCH  31  37
BRANCH  32  40
ATOM     40  O   UNL     1      22.396  15.114  17.903  1.00  0.00    -0.387 OA
ATOM     41  H   UNL     1      22.128  15.926  17.407  1.00  0.00     0.211 HD
ENDBRANCH  32  40
ENDBRANCH   1  27
TORSDOF 12
ENDMDL
MODEL 9
REMARK VINA RESULT:    -3.374      2.661      5.330
REMARK INTER + INTRA:          -6.231
REMARK INTER:                  -5.699
REMARK INTRA:                  -0.533
REMARK UNBOUND:                -1.279
REMARK SMILES O=c1c(O[C@H]2O[C@@H](CO)[C@@H](O)[C@@H](O)[C@H]2O)c(-c2ccc(O)c(O)c2)oc2cc(O)cc(O)c12
REMARK SMILES IDX 4 1 3 2 16 3 25 4 2 5 26 6 1 7 33 8 27 9 31 10 28 11 30 12
REMARK SMILES IDX 17 13 18 14 19 15 20 16 24 17 22 18 21 19 23 21 32 23 29 25
REMARK SMILES IDX 5 27 14 28 6 29 12 30 7 31 10 32 15 33 13 35 8 37 9 38 11 40
REMARK H PARENT 21 20 23 22 32 24 29 26 15 34 13 36 9 39 11 41
REMARK Flexibility Score: inf
ROOT
ATOM      1  O   UNL     1      19.546  15.380  19.810  1.00  0.00    -0.454 OA
ENDROOT
BRANCH   1   2
ATOM      2  C   UNL     1      20.808  15.862  20.188  1.00  0.00     0.214 A 
ATOM      3  C   UNL     1      21.097  16.240  21.515  1.00  0.00     0.180 A 
ATOM      4  O   UNL     1      22.301  16.709  21.824  1.00  0.00    -0.452 OA
ATOM      5  C   UNL     1      21.807  16.004  19.216  1.00  0.00     0.239 A 
ATOM      6  C   UNL     1      23.269  16.868  20.934  1.00  0.00     0.146 A 
ATOM      7  O   UNL     1      21.571  15.651  18.031  1.00  0.00    -0.285 OA
ATOM      8  C   UNL     1      23.067  16.519  19.577  1.00  0.00     0.111 A 
ATOM      9  C   UNL     1      24.493  17.389  21.353  1.00  0.00     0.094 A 
ATOM     10  C   UNL     1      24.127  16.699  18.657  1.00  0.00     0.134 A 
ATOM     11  C   UNL     1      25.538  17.554  20.444  1.00  0.00     0.123 A 
ATOM     12  C   UNL     1      25.354  17.212  19.099  1.00  0.00     0.093 A 
BRANCH   3  13
ATOM     13  C   UNL     1      20.097  16.166  22.591  1.00  0.00     0.025 A 
ATOM     14  C   UNL     1      19.365  14.989  22.780  1.00  0.00     0.016 A 
ATOM     15  C   UNL     1      18.478  14.876  23.855  1.00  0.00     0.051 A 
ATOM     16  C   UNL     1      18.344  15.930  24.771  1.00  0.00     0.157 A 
ATOM     17  C   UNL     1      19.941  17.233  23.484  1.00  0.00     0.062 A 
ATOM     18  C   UNL     1      19.070  17.110  24.580  1.00  0.00     0.158 A 
BRANCH  16  19
ATOM     19  O   UNL     1      17.480  15.818  25.858  1.00  0.00    -0.504 OA
ATOM     20  H   UNL     1      17.155  16.631  26.373  1.00  0.00     0.293 HD
ENDBRANCH  16  19
BRANCH  18  21
ATOM     21  O   UNL     1      18.937  18.156  25.493  1.00  0.00    -0.504 OA
ATOM     22  H   UNL     1      19.502  18.993  25.424  1.00  0.00     0.293 HD
ENDBRANCH  18  21
ENDBRANCH   3  13
BRANCH  10  23
ATOM     23  O   UNL     1      23.978  16.358  17.314  1.00  0.00    -0.507 OA
ATOM     24  H   UNL     1      24.542  16.783  16.581  1.00  0.00     0.293 HD
ENDBRANCH  10  23
BRANCH  11  25
ATOM     25  O   UNL     1      26.754  18.073  20.885  1.00  0.00    -0.508 OA
ATOM     26  H   UNL     1      26.785  18.878  21.501  1.00  0.00     0.293 HD
ENDBRANCH  11  25
ENDBRANCH   1   2
BRANCH   1  27
ATOM     27  C   UNL     1      18.340  16.145  19.873  1.00  0.00     0.339 C 
ATOM     28  C   UNL     1      17.621  16.081  18.489  1.00  0.00     0.214 C 
ATOM     29  O   UNL     1      18.681  17.470  20.281  1.00  0.00    -0.332 OA
ATOM     30  C   UNL     1      18.050  17.274  17.616  1.00  0.00     0.180 C 
ATOM     31  C   UNL     1      17.699  18.412  19.884  1.00  0.00     0.179 C 
ATOM     32  C   UNL     1      17.778  18.620  18.349  1.00  0.00     0.177 C 
BRANCH  28  33
ATOM     33  O   UNL     1      17.884  14.875  17.821  1.00  0.00    -0.384 OA
ATOM     34  H   UNL     1      18.004  14.180  18.521  1.00  0.00     0.211 HD
ENDBRANCH  28  33
BRANCH  30  35
ATOM     35  O   UNL     1      19.415  17.154  17.296  1.00  0.00    -0.387 OA
ATOM     36  H   UNL     1      19.917  17.740  17.919  1.00  0.00     0.211 HD
ENDBRANCH  30  35
BRANCH  31  37
ATOM     37  C   UNL     1      17.869  19.724  20.664  1.00  0.00     0.191 C 
BRANCH  37  38
ATOM     38  O   UNL     1      19.226  19.973  20.901  1.00  0.00    -0.394 OA
ATOM     39  H   UNL     1      19.473  19.456  21.709  1.00  0.00     0.210 HD
ENDBRANCH  37  38
ENDBRANCH  31  37
BRANCH  32  40
ATOM     40  O   UNL     1      18.782  19.546  18.012  1.00  0.00    -0.387 OA
ATOM     41  H   UNL     1      18.497  20.430  18.351  1.00  0.00     0.211 HD
ENDBRANCH  32  40
ENDBRANCH   1  27
TORSDOF 12
ENDMDL
