MODEL 1
REMARK VINA RESULT:    -7.591      0.000      0.000
REMARK INTER + INTRA:          -9.035
REMARK INTER:                  -9.144
REMARK INTRA:                   0.110
REMARK UNBOUND:                 0.110
REMARK SMILES O=c1c(O)c(-c2ccc(O)c(O)c2)oc2cc(O)cc(O)c12
REMARK SMILES IDX 5 1 3 2 2 3 1 4 22 5 20 6 19 7 17 8 16 9 15 10 14 11 6 12
REMARK SMILES IDX 7 13 8 14 9 15 13 16 11 17 10 18 12 20 4 22 21 24 18 26
REMARK H PARENT 10 19 12 21 4 23 21 25 18 27
REMARK Flexibility Score: inf
ROOT
ATOM      1  C   UNL     1     -25.686  12.295 -25.625  1.00  0.00     0.180 A 
ATOM      2  C   UNL     1     -26.938  11.887 -25.127  1.00  0.00     0.208 A 
ATOM      3  C   UNL     1     -27.793  11.149 -25.961  1.00  0.00     0.238 A 
ATOM      4  O   UNL     1     -28.921  10.788 -25.528  1.00  0.00    -0.285 OA
ATOM      5  C   UNL     1     -27.376  10.815 -27.265  1.00  0.00     0.111 A 
ATOM      6  C   UNL     1     -28.175  10.072 -28.167  1.00  0.00     0.134 A 
ATOM      7  C   UNL     1     -27.685   9.772 -29.446  1.00  0.00     0.093 A 
ATOM      8  C   UNL     1     -26.415  10.199 -29.841  1.00  0.00     0.123 A 
ATOM      9  C   UNL     1     -25.621  10.934 -28.955  1.00  0.00     0.094 A 
ATOM     10  C   UNL     1     -26.093  11.244 -27.676  1.00  0.00     0.146 A 
ATOM     11  O   UNL     1     -25.320  11.950 -26.856  1.00  0.00    -0.452 OA
ENDROOT
BRANCH   1  12
ATOM     12  C   UNL     1     -24.738  13.092 -24.814  1.00  0.00     0.025 A 
ATOM     13  C   UNL     1     -24.103  14.205 -25.388  1.00  0.00     0.016 A 
ATOM     14  C   UNL     1     -23.221  14.984 -24.635  1.00  0.00     0.051 A 
ATOM     15  C   UNL     1     -22.972  14.671 -23.293  1.00  0.00     0.157 A 
ATOM     16  C   UNL     1     -24.501  12.794 -23.460  1.00  0.00     0.062 A 
ATOM     17  C   UNL     1     -23.617  13.576 -22.703  1.00  0.00     0.158 A 
BRANCH  15  18
ATOM     18  O   UNL     1     -22.092  15.443 -22.539  1.00  0.00    -0.504 OA
ATOM     19  H   UNL     1     -21.879  15.216 -21.575  1.00  0.00     0.293 HD
ENDBRANCH  15  18
BRANCH  17  20
ATOM     20  O   UNL     1     -23.379  13.275 -21.363  1.00  0.00    -0.504 OA
ATOM     21  H   UNL     1     -22.557  13.619 -20.880  1.00  0.00     0.293 HD
ENDBRANCH  17  20
ENDBRANCH   1  12
BRANCH   2  22
ATOM     22  O   UNL     1     -27.307  12.189 -23.813  1.00  0.00    -0.502 OA
ATOM     23  H   UNL     1     -27.812  13.034 -23.572  1.00  0.00     0.293 HD
ENDBRANCH   2  22
BRANCH   6  24
ATOM     24  O   UNL     1     -29.448   9.630 -27.802  1.00  0.00    -0.507 OA
ATOM     25  H   UNL     1     -29.683   8.644 -27.774  1.00  0.00     0.293 HD
ENDBRANCH   6  24
BRANCH   8  26
ATOM     26  O   UNL     1     -25.951   9.886 -31.117  1.00  0.00    -0.508 OA
ATOM     27  H   UNL     1     -25.565  10.595 -31.729  1.00  0.00     0.293 HD
ENDBRANCH   8  26
TORSDOF 6
ENDMDL
MODEL 2
REMARK VINA RESULT:    -7.570      1.694      6.869
REMARK INTER + INTRA:          -9.010
REMARK INTER:                  -8.854
REMARK INTRA:                  -0.156
REMARK UNBOUND:                 0.110
REMARK SMILES O=c1c(O)c(-c2ccc(O)c(O)c2)oc2cc(O)cc(O)c12
REMARK SMILES IDX 5 1 3 2 2 3 1 4 22 5 20 6 19 7 17 8 16 9 15 10 14 11 6 12
REMARK SMILES IDX 7 13 8 14 9 15 13 16 11 17 10 18 12 20 4 22 21 24 18 26
REMARK H PARENT 10 19 12 21 4 23 21 25 18 27
REMARK Flexibility Score: inf
ROOT
ATOM      1  C   UNL     1     -25.109  12.738 -26.440  1.00  0.00     0.180 A 
ATOM      2  C   UNL     1     -25.661  12.568 -25.155  1.00  0.00     0.208 A 
ATOM      3  C   UNL     1     -24.995  13.124 -24.052  1.00  0.00     0.238 A 
ATOM      4  O   UNL     1     -25.476  12.969 -22.896  1.00  0.00    -0.285 OA
ATOM      5  C   UNL     1     -23.806  13.855 -24.250  1.00  0.00     0.111 A 
ATOM      6  C   UNL     1     -23.078  14.449 -23.192  1.00  0.00     0.134 A 
ATOM      7  C   UNL     1     -21.906  15.168 -23.473  1.00  0.00     0.093 A 
ATOM      8  C   UNL     1     -21.451  15.305 -24.786  1.00  0.00     0.123 A 
ATOM      9  C   UNL     1     -22.167  14.719 -25.836  1.00  0.00     0.094 A 
ATOM     10  C   UNL     1     -23.336  13.997 -25.576  1.00  0.00     0.146 A 
ATOM     11  O   UNL     1     -23.993  13.446 -26.591  1.00  0.00    -0.452 OA
ENDROOT
BRANCH   1  12
ATOM     12  C   UNL     1     -25.741  12.166 -27.650  1.00  0.00     0.025 A 
ATOM     13  C   UNL     1     -26.994  12.644 -28.066  1.00  0.00     0.016 A 
ATOM     14  C   UNL     1     -27.600  12.134 -29.217  1.00  0.00     0.051 A 
ATOM     15  C   UNL     1     -26.956  11.151 -29.977  1.00  0.00     0.157 A 
ATOM     16  C   UNL     1     -25.088  11.193 -28.428  1.00  0.00     0.062 A 
ATOM     17  C   UNL     1     -25.695  10.683 -29.584  1.00  0.00     0.158 A 
BRANCH  15  18
ATOM     18  O   UNL     1     -27.557  10.638 -31.125  1.00  0.00    -0.504 OA
ATOM     19  H   UNL     1     -27.058  10.020 -31.754  1.00  0.00     0.293 HD
ENDBRANCH  15  18
BRANCH  17  20
ATOM     20  O   UNL     1     -25.049   9.714 -30.351  1.00  0.00    -0.504 OA
ATOM     21  H   UNL     1     -24.082   9.821 -30.637  1.00  0.00     0.293 HD
ENDBRANCH  17  20
ENDBRANCH   1  12
BRANCH   2  22
ATOM     22  O   UNL     1     -26.868  11.882 -24.992  1.00  0.00    -0.502 OA
ATOM     23  H   UNL     1     -27.090  11.044 -25.517  1.00  0.00     0.293 HD
ENDBRANCH   2  22
BRANCH   6  24
ATOM     24  O   UNL     1     -23.506  14.332 -21.869  1.00  0.00    -0.507 OA
ATOM     25  H   UNL     1     -24.332  14.811 -21.532  1.00  0.00     0.293 HD
ENDBRANCH   6  24
BRANCH   8  26
ATOM     26  O   UNL     1     -20.286  16.026 -25.038  1.00  0.00    -0.508 OA
ATOM     27  H   UNL     1     -19.516  15.624 -25.558  1.00  0.00     0.293 HD
ENDBRANCH   8  26
TORSDOF 6
ENDMDL
MODEL 3
REMARK VINA RESULT:    -7.548      1.692      3.569
REMARK INTER + INTRA:          -8.983
REMARK INTER:                  -9.448
REMARK INTRA:                   0.465
REMARK UNBOUND:                 0.110
REMARK SMILES O=c1c(O)c(-c2ccc(O)c(O)c2)oc2cc(O)cc(O)c12
REMARK SMILES IDX 5 1 3 2 2 3 1 4 22 5 20 6 19 7 17 8 16 9 15 10 14 11 6 12
REMARK SMILES IDX 7 13 8 14 9 15 13 16 11 17 10 18 12 20 4 22 21 24 18 26
REMARK H PARENT 10 19 12 21 4 23 21 25 18 27
REMARK Flexibility Score: inf
ROOT
ATOM      1  C   UNL     1     -24.062  13.196 -26.529  1.00  0.00     0.180 A 
ATOM      2  C   UNL     1     -23.481  13.125 -27.810  1.00  0.00     0.208 A 
ATOM      3  C   UNL     1     -24.124  12.373 -28.806  1.00  0.00     0.238 A 
ATOM      4  O   UNL     1     -23.608  12.295 -29.954  1.00  0.00    -0.285 OA
ATOM      5  C   UNL     1     -25.341  11.725 -28.514  1.00  0.00     0.111 A 
ATOM      6  C   UNL     1     -26.054  10.952 -29.461  1.00  0.00     0.134 A 
ATOM      7  C   UNL     1     -27.264  10.344 -29.094  1.00  0.00     0.093 A 
ATOM      8  C   UNL     1     -27.775  10.495 -27.803  1.00  0.00     0.123 A 
ATOM      9  C   UNL     1     -27.074  11.258 -26.862  1.00  0.00     0.094 A 
ATOM     10  C   UNL     1     -25.866  11.869 -27.208  1.00  0.00     0.146 A 
ATOM     11  O   UNL     1     -25.218  12.583 -26.293  1.00  0.00    -0.452 OA
ENDROOT
BRANCH   1  12
ATOM     12  C   UNL     1     -23.434  13.952 -25.422  1.00  0.00     0.025 A 
ATOM     13  C   UNL     1     -23.993  13.883 -24.135  1.00  0.00     0.016 A 
ATOM     14  C   UNL     1     -23.405  14.571 -23.070  1.00  0.00     0.051 A 
ATOM     15  C   UNL     1     -22.243  15.326 -23.273  1.00  0.00     0.157 A 
ATOM     16  C   UNL     1     -22.255  14.694 -25.617  1.00  0.00     0.062 A 
ATOM     17  C   UNL     1     -21.665  15.384 -24.548  1.00  0.00     0.158 A 
BRANCH  15  18
ATOM     18  O   UNL     1     -21.655  16.016 -22.215  1.00  0.00    -0.504 OA
ATOM     19  H   UNL     1     -21.180  16.899 -22.357  1.00  0.00     0.293 HD
ENDBRANCH  15  18
BRANCH  17  20
ATOM     20  O   UNL     1     -20.500  16.124 -24.744  1.00  0.00    -0.504 OA
ATOM     21  H   UNL     1     -20.261  16.906 -24.145  1.00  0.00     0.293 HD
ENDBRANCH  17  20
ENDBRANCH   1  12
BRANCH   2  22
ATOM     22  O   UNL     1     -22.300  13.818 -28.088  1.00  0.00    -0.502 OA
ATOM     23  H   UNL     1     -21.384  13.427 -27.897  1.00  0.00     0.293 HD
ENDBRANCH   2  22
BRANCH   6  24
ATOM     24  O   UNL     1     -25.571  10.783 -30.760  1.00  0.00    -0.507 OA
ATOM     25  H   UNL     1     -25.446   9.863 -31.167  1.00  0.00     0.293 HD
ENDBRANCH   6  24
BRANCH   8  26
ATOM     26  O   UNL     1     -28.980   9.883 -27.465  1.00  0.00    -0.508 OA
ATOM     27  H   UNL     1     -29.790  10.424 -27.191  1.00  0.00     0.293 HD
ENDBRANCH   8  26
TORSDOF 6
ENDMDL
MODEL 4
REMARK VINA RESULT:    -7.502      1.435      6.770
REMARK INTER + INTRA:          -8.928
REMARK INTER:                  -9.133
REMARK INTRA:                   0.206
REMARK UNBOUND:                 0.110
REMARK SMILES O=c1c(O)c(-c2ccc(O)c(O)c2)oc2cc(O)cc(O)c12
REMARK SMILES IDX 5 1 3 2 2 3 1 4 22 5 20 6 19 7 17 8 16 9 15 10 14 11 6 12
REMARK SMILES IDX 7 13 8 14 9 15 13 16 11 17 10 18 12 20 4 22 21 24 18 26
REMARK H PARENT 10 19 12 21 4 23 21 25 18 27
REMARK Flexibility Score: inf
ROOT
ATOM      1  C   UNL     1     -27.223  11.498 -26.117  1.00  0.00     0.180 A 
ATOM      2  C   UNL     1     -28.057  11.533 -24.982  1.00  0.00     0.208 A 
ATOM      3  C   UNL     1     -27.567  12.105 -23.798  1.00  0.00     0.238 A 
ATOM      4  O   UNL     1     -28.301  12.132 -22.773  1.00  0.00    -0.285 OA
ATOM      5  C   UNL     1     -26.267  12.650 -23.772  1.00  0.00     0.111 A 
ATOM      6  C   UNL     1     -25.701  13.248 -22.621  1.00  0.00     0.134 A 
ATOM      7  C   UNL     1     -24.402  13.775 -22.679  1.00  0.00     0.093 A 
ATOM      8  C   UNL     1     -23.661  13.718 -23.862  1.00  0.00     0.123 A 
ATOM      9  C   UNL     1     -24.216  13.127 -25.002  1.00  0.00     0.094 A 
ATOM     10  C   UNL     1     -25.507  12.594 -24.964  1.00  0.00     0.146 A 
ATOM     11  O   UNL     1     -26.007  12.034 -26.060  1.00  0.00    -0.452 OA
ENDROOT
BRANCH   1  12
ATOM     12  C   UNL     1     -27.660  10.893 -27.396  1.00  0.00     0.025 A 
ATOM     13  C   UNL     1     -27.158  11.400 -28.605  1.00  0.00     0.016 A 
ATOM     14  C   UNL     1     -27.540  10.831 -29.824  1.00  0.00     0.051 A 
ATOM     15  C   UNL     1     -28.417   9.740 -29.849  1.00  0.00     0.157 A 
ATOM     16  C   UNL     1     -28.524   9.784 -27.425  1.00  0.00     0.062 A 
ATOM     17  C   UNL     1     -28.906   9.213 -28.647  1.00  0.00     0.158 A 
BRANCH  15  18
ATOM     18  O   UNL     1     -28.802   9.172 -31.061  1.00  0.00    -0.504 OA
ATOM     19  H   UNL     1     -29.667   8.653 -31.153  1.00  0.00     0.293 HD
ENDBRANCH  15  18
BRANCH  17  20
ATOM     20  O   UNL     1     -29.768   8.117 -28.675  1.00  0.00    -0.504 OA
ATOM     21  H   UNL     1     -30.650   8.148 -29.174  1.00  0.00     0.293 HD
ENDBRANCH  17  20
ENDBRANCH   1  12
BRANCH   2  22
ATOM     22  O   UNL     1     -29.359  11.030 -25.048  1.00  0.00    -0.502 OA
ATOM     23  H   UNL     1     -30.138  11.585 -25.383  1.00  0.00     0.293 HD
ENDBRANCH   2  22
BRANCH   6  24
ATOM     24  O   UNL     1     -26.416  13.322 -21.424  1.00  0.00    -0.507 OA
ATOM     25  H   UNL     1     -26.808  12.498 -20.986  1.00  0.00     0.293 HD
ENDBRANCH   6  24
BRANCH   8  26
ATOM     26  O   UNL     1     -22.374  14.251 -23.893  1.00  0.00    -0.508 OA
ATOM     27  H   UNL     1     -22.091  14.909 -24.608  1.00  0.00     0.293 HD
ENDBRANCH   8  26
TORSDOF 6
ENDMDL
MODEL 5
REMARK VINA RESULT:    -7.327      1.672      7.224
REMARK INTER + INTRA:          -8.716
REMARK INTER:                  -9.180
REMARK INTRA:                   0.464
REMARK UNBOUND:                 0.110
REMARK SMILES O=c1c(O)c(-c2ccc(O)c(O)c2)oc2cc(O)cc(O)c12
REMARK SMILES IDX 5 1 3 2 2 3 1 4 22 5 20 6 19 7 17 8 16 9 15 10 14 11 6 12
REMARK SMILES IDX 7 13 8 14 9 15 13 16 11 17 10 18 12 20 4 22 21 24 18 26
REMARK H PARENT 10 19 12 21 4 23 21 25 18 27
REMARK Flexibility Score: inf
ROOT
ATOM      1  C   UNL     1     -26.059  11.894 -27.263  1.00  0.00     0.180 A 
ATOM      2  C   UNL     1     -24.876  12.560 -27.638  1.00  0.00     0.208 A 
ATOM      3  C   UNL     1     -24.146  13.251 -26.658  1.00  0.00     0.238 A 
ATOM      4  O   UNL     1     -23.091  13.860 -26.985  1.00  0.00    -0.285 OA
ATOM      5  C   UNL     1     -24.596  13.247 -25.322  1.00  0.00     0.111 A 
ATOM      6  C   UNL     1     -23.917  13.914 -24.275  1.00  0.00     0.134 A 
ATOM      7  C   UNL     1     -24.424  13.855 -22.968  1.00  0.00     0.093 A 
ATOM      8  C   UNL     1     -25.594  13.144 -22.689  1.00  0.00     0.123 A 
ATOM      9  C   UNL     1     -26.269  12.483 -23.720  1.00  0.00     0.094 A 
ATOM     10  C   UNL     1     -25.780  12.532 -25.029  1.00  0.00     0.146 A 
ATOM     11  O   UNL     1     -26.445  11.899 -25.990  1.00  0.00    -0.452 OA
ENDROOT
BRANCH   1  12
ATOM     12  C   UNL     1     -26.894  11.160 -28.242  1.00  0.00     0.025 A 
ATOM     13  C   UNL     1     -26.706  11.386 -29.615  1.00  0.00     0.016 A 
ATOM     14  C   UNL     1     -27.467  10.690 -30.557  1.00  0.00     0.051 A 
ATOM     15  C   UNL     1     -28.415   9.747 -30.141  1.00  0.00     0.157 A 
ATOM     16  C   UNL     1     -27.832  10.198 -27.829  1.00  0.00     0.062 A 
ATOM     17  C   UNL     1     -28.595   9.498 -28.774  1.00  0.00     0.158 A 
BRANCH  15  18
ATOM     18  O   UNL     1     -29.178   9.052 -31.077  1.00  0.00    -0.504 OA
ATOM     19  H   UNL     1     -29.785   9.533 -31.729  1.00  0.00     0.293 HD
ENDBRANCH  15  18
BRANCH  17  20
ATOM     20  O   UNL     1     -29.529   8.548 -28.363  1.00  0.00    -0.504 OA
ATOM     21  H   UNL     1     -30.282   8.784 -27.726  1.00  0.00     0.293 HD
ENDBRANCH  17  20
ENDBRANCH   1  12
BRANCH   2  22
ATOM     22  O   UNL     1     -24.426  12.507 -28.960  1.00  0.00    -0.502 OA
ATOM     23  H   UNL     1     -24.659  13.220 -29.641  1.00  0.00     0.293 HD
ENDBRANCH   2  22
BRANCH   6  24
ATOM     24  O   UNL     1     -22.745  14.632 -24.521  1.00  0.00    -0.507 OA
ATOM     25  H   UNL     1     -21.916  14.510 -23.952  1.00  0.00     0.293 HD
ENDBRANCH   6  24
BRANCH   8  26
ATOM     26  O   UNL     1     -26.076  13.100 -21.382  1.00  0.00    -0.508 OA
ATOM     27  H   UNL     1     -25.924  12.294 -20.789  1.00  0.00     0.293 HD
ENDBRANCH   8  26
TORSDOF 6
ENDMDL
MODEL 6
REMARK VINA RESULT:    -7.270      1.237      2.963
REMARK INTER + INTRA:          -8.649
REMARK INTER:                  -9.122
REMARK INTRA:                   0.474
REMARK UNBOUND:                 0.110
REMARK SMILES O=c1c(O)c(-c2ccc(O)c(O)c2)oc2cc(O)cc(O)c12
REMARK SMILES IDX 5 1 3 2 2 3 1 4 22 5 20 6 19 7 17 8 16 9 15 10 14 11 6 12
REMARK SMILES IDX 7 13 8 14 9 15 13 16 11 17 10 18 12 20 4 22 21 24 18 26
REMARK H PARENT 10 19 12 21 4 23 21 25 18 27
REMARK Flexibility Score: inf
ROOT
ATOM      1  C   UNL     1     -24.766  12.553 -26.646  1.00  0.00     0.180 A 
ATOM      2  C   UNL     1     -24.239  12.679 -27.946  1.00  0.00     0.208 A 
ATOM      3  C   UNL     1     -24.894  12.034 -29.007  1.00  0.00     0.238 A 
ATOM      4  O   UNL     1     -24.425  12.131 -30.174  1.00  0.00    -0.285 OA
ATOM      5  C   UNL     1     -26.069  11.298 -28.758  1.00  0.00     0.111 A 
ATOM      6  C   UNL     1     -26.790  10.623 -29.772  1.00  0.00     0.134 A 
ATOM      7  C   UNL     1     -27.957   9.917 -29.443  1.00  0.00     0.093 A 
ATOM      8  C   UNL     1     -28.417   9.874 -28.125  1.00  0.00     0.123 A 
ATOM      9  C   UNL     1     -27.708  10.538 -27.119  1.00  0.00     0.094 A 
ATOM     10  C   UNL     1     -26.541  11.245 -27.426  1.00  0.00     0.146 A 
ATOM     11  O   UNL     1     -25.885  11.862 -26.449  1.00  0.00    -0.452 OA
ENDROOT
BRANCH   1  12
ATOM     12  C   UNL     1     -24.122  13.187 -25.472  1.00  0.00     0.025 A 
ATOM     13  C   UNL     1     -23.181  14.209 -25.669  1.00  0.00     0.016 A 
ATOM     14  C   UNL     1     -22.577  14.836 -24.575  1.00  0.00     0.051 A 
ATOM     15  C   UNL     1     -22.917  14.459 -23.270  1.00  0.00     0.157 A 
ATOM     16  C   UNL     1     -24.476  12.826 -24.159  1.00  0.00     0.062 A 
ATOM     17  C   UNL     1     -23.871  13.455 -23.062  1.00  0.00     0.158 A 
BRANCH  15  18
ATOM     18  O   UNL     1     -22.315  15.080 -22.177  1.00  0.00    -0.504 OA
ATOM     19  H   UNL     1     -22.335  14.663 -21.254  1.00  0.00     0.293 HD
ENDBRANCH  15  18
BRANCH  17  20
ATOM     20  O   UNL     1     -24.218  13.093 -21.761  1.00  0.00    -0.504 OA
ATOM     21  H   UNL     1     -23.519  12.999 -21.032  1.00  0.00     0.293 HD
ENDBRANCH  17  20
ENDBRANCH   1  12
BRANCH   2  22
ATOM     22  O   UNL     1     -23.100  13.456 -28.174  1.00  0.00    -0.502 OA
ATOM     23  H   UNL     1     -23.079  14.453 -27.993  1.00  0.00     0.293 HD
ENDBRANCH   2  22
BRANCH   6  24
ATOM     24  O   UNL     1     -26.358  10.648 -31.099  1.00  0.00    -0.507 OA
ATOM     25  H   UNL     1     -26.470   9.849 -31.712  1.00  0.00     0.293 HD
ENDBRANCH   6  24
BRANCH   8  26
ATOM     26  O   UNL     1     -29.580   9.167 -27.826  1.00  0.00    -0.508 OA
ATOM     27  H   UNL     1     -29.772   8.836 -26.889  1.00  0.00     0.293 HD
ENDBRANCH   8  26
TORSDOF 6
ENDMDL
MODEL 7
REMARK VINA RESULT:    -7.208      1.921      7.367
REMARK INTER + INTRA:          -8.574
REMARK INTER:                  -9.020
REMARK INTRA:                   0.446
REMARK UNBOUND:                 0.110
REMARK SMILES O=c1c(O)c(-c2ccc(O)c(O)c2)oc2cc(O)cc(O)c12
REMARK SMILES IDX 5 1 3 2 2 3 1 4 22 5 20 6 19 7 17 8 16 9 15 10 14 11 6 12
REMARK SMILES IDX 7 13 8 14 9 15 13 16 11 17 10 18 12 20 4 22 21 24 18 26
REMARK H PARENT 10 19 12 21 4 23 21 25 18 27
REMARK Flexibility Score: inf
ROOT
ATOM      1  C   UNL     1     -25.548  11.695 -27.688  1.00  0.00     0.180 A 
ATOM      2  C   UNL     1     -24.511  11.919 -28.614  1.00  0.00     0.208 A 
ATOM      3  C   UNL     1     -23.457  12.775 -28.259  1.00  0.00     0.238 A 
ATOM      4  O   UNL     1     -22.529  12.992 -29.085  1.00  0.00    -0.285 OA
ATOM      5  C   UNL     1     -23.445  13.373 -26.982  1.00  0.00     0.111 A 
ATOM      6  C   UNL     1     -22.418  14.244 -26.545  1.00  0.00     0.134 A 
ATOM      7  C   UNL     1     -22.474  14.792 -25.256  1.00  0.00     0.093 A 
ATOM      8  C   UNL     1     -23.532  14.488 -24.396  1.00  0.00     0.123 A 
ATOM      9  C   UNL     1     -24.550  13.628 -24.823  1.00  0.00     0.094 A 
ATOM     10  C   UNL     1     -24.513  13.073 -26.105  1.00  0.00     0.146 A 
ATOM     11  O   UNL     1     -25.496  12.264 -26.487  1.00  0.00    -0.452 OA
ENDROOT
BRANCH   1  12
ATOM     12  C   UNL     1     -26.703  10.821 -27.996  1.00  0.00     0.025 A 
ATOM     13  C   UNL     1     -27.651  10.552 -26.996  1.00  0.00     0.016 A 
ATOM     14  C   UNL     1     -28.761   9.748 -27.270  1.00  0.00     0.051 A 
ATOM     15  C   UNL     1     -28.946   9.214 -28.551  1.00  0.00     0.157 A 
ATOM     16  C   UNL     1     -26.904  10.299 -29.287  1.00  0.00     0.062 A 
ATOM     17  C   UNL     1     -28.018   9.494 -29.562  1.00  0.00     0.158 A 
BRANCH  15  18
ATOM     18  O   UNL     1     -30.049   8.409 -28.829  1.00  0.00    -0.504 OA
ATOM     19  H   UNL     1     -30.847   8.763 -29.343  1.00  0.00     0.293 HD
ENDBRANCH  15  18
BRANCH  17  20
ATOM     20  O   UNL     1     -28.213   8.972 -30.841  1.00  0.00    -0.504 OA
ATOM     21  H   UNL     1     -27.750   8.123 -31.144  1.00  0.00     0.293 HD
ENDBRANCH  17  20
ENDBRANCH   1  12
BRANCH   2  22
ATOM     22  O   UNL     1     -24.522  11.275 -29.855  1.00  0.00    -0.502 OA
ATOM     23  H   UNL     1     -24.574  11.784 -30.730  1.00  0.00     0.293 HD
ENDBRANCH   2  22
BRANCH   6  24
ATOM     24  O   UNL     1     -21.347  14.567 -27.379  1.00  0.00    -0.507 OA
ATOM     25  H   UNL     1     -21.489  14.921 -28.318  1.00  0.00     0.293 HD
ENDBRANCH   6  24
BRANCH   8  26
ATOM     26  O   UNL     1     -23.563  15.045 -23.119  1.00  0.00    -0.508 OA
ATOM     27  H   UNL     1     -24.412  15.060 -22.568  1.00  0.00     0.293 HD
ENDBRANCH   8  26
TORSDOF 6
ENDMDL
MODEL 8
REMARK VINA RESULT:    -6.879      1.817      3.549
REMARK INTER + INTRA:          -8.177
REMARK INTER:                  -8.579
REMARK INTRA:                   0.402
REMARK UNBOUND:                 0.110
REMARK SMILES O=c1c(O)c(-c2ccc(O)c(O)c2)oc2cc(O)cc(O)c12
REMARK SMILES IDX 5 1 3 2 2 3 1 4 22 5 20 6 19 7 17 8 16 9 15 10 14 11 6 12
REMARK SMILES IDX 7 13 8 14 9 15 13 16 11 17 10 18 12 20 4 22 21 24 18 26
REMARK H PARENT 10 19 12 21 4 23 21 25 18 27
REMARK Flexibility Score: inf
ROOT
ATOM      1  C   UNL     1     -26.933  11.527 -26.270  1.00  0.00     0.180 A 
ATOM      2  C   UNL     1     -25.998  11.907 -27.252  1.00  0.00     0.208 A 
ATOM      3  C   UNL     1     -26.086  11.333 -28.530  1.00  0.00     0.238 A 
ATOM      4  O   UNL     1     -25.247  11.659 -29.415  1.00  0.00    -0.285 OA
ATOM      5  C   UNL     1     -27.114  10.410 -28.811  1.00  0.00     0.111 A 
ATOM      6  C   UNL     1     -27.274   9.790 -30.074  1.00  0.00     0.134 A 
ATOM      7  C   UNL     1     -28.328   8.888 -30.276  1.00  0.00     0.093 A 
ATOM      8  C   UNL     1     -29.224   8.594 -29.245  1.00  0.00     0.123 A 
ATOM      9  C   UNL     1     -29.070   9.203 -27.996  1.00  0.00     0.094 A 
ATOM     10  C   UNL     1     -28.024  10.104 -27.773  1.00  0.00     0.146 A 
ATOM     11  O   UNL     1     -27.898  10.664 -26.574  1.00  0.00    -0.452 OA
ENDROOT
BRANCH   1  12
ATOM     12  C   UNL     1     -26.894  12.072 -24.894  1.00  0.00     0.025 A 
ATOM     13  C   UNL     1     -27.991  11.871 -24.041  1.00  0.00     0.016 A 
ATOM     14  C   UNL     1     -27.967  12.359 -22.731  1.00  0.00     0.051 A 
ATOM     15  C   UNL     1     -26.842  13.040 -22.252  1.00  0.00     0.157 A 
ATOM     16  C   UNL     1     -25.757  12.739 -24.402  1.00  0.00     0.062 A 
ATOM     17  C   UNL     1     -25.733  13.227 -23.087  1.00  0.00     0.158 A 
BRANCH  15  18
ATOM     18  O   UNL     1     -26.815  13.530 -20.947  1.00  0.00    -0.504 OA
ATOM     19  H   UNL     1     -27.309  14.375 -20.688  1.00  0.00     0.293 HD
ENDBRANCH  15  18
BRANCH  17  20
ATOM     20  O   UNL     1     -24.609  13.893 -22.603  1.00  0.00    -0.504 OA
ATOM     21  H   UNL     1     -23.819  14.108 -23.202  1.00  0.00     0.293 HD
ENDBRANCH  17  20
ENDBRANCH   1  12
BRANCH   2  22
ATOM     22  O   UNL     1     -25.019  12.861 -26.962  1.00  0.00    -0.502 OA
ATOM     23  H   UNL     1     -24.191  12.642 -26.421  1.00  0.00     0.293 HD
ENDBRANCH   2  22
BRANCH   6  24
ATOM     24  O   UNL     1     -26.397  10.063 -31.125  1.00  0.00    -0.507 OA
ATOM     25  H   UNL     1     -25.716  10.812 -31.070  1.00  0.00     0.293 HD
ENDBRANCH   6  24
BRANCH   8  26
ATOM     26  O   UNL     1     -30.264   7.696 -29.474  1.00  0.00    -0.508 OA
ATOM     27  H   UNL     1     -31.125   7.985 -29.921  1.00  0.00     0.293 HD
ENDBRANCH   8  26
TORSDOF 6
ENDMDL
MODEL 9
REMARK VINA RESULT:    -6.825      2.099      3.702
REMARK INTER + INTRA:          -8.112
REMARK INTER:                  -8.614
REMARK INTRA:                   0.502
REMARK UNBOUND:                 0.110
REMARK SMILES O=c1c(O)c(-c2ccc(O)c(O)c2)oc2cc(O)cc(O)c12
REMARK SMILES IDX 5 1 3 2 2 3 1 4 22 5 20 6 19 7 17 8 16 9 15 10 14 11 6 12
REMARK SMILES IDX 7 13 8 14 9 15 13 16 11 17 10 18 12 20 4 22 21 24 18 26
REMARK H PARENT 10 19 12 21 4 23 21 25 18 27
REMARK Flexibility Score: inf
ROOT
ATOM      1  C   UNL     1     -25.765  12.293 -26.293  1.00  0.00     0.180 A 
ATOM      2  C   UNL     1     -24.676  12.901 -26.946  1.00  0.00     0.208 A 
ATOM      3  C   UNL     1     -24.467  12.635 -28.308  1.00  0.00     0.238 A 
ATOM      4  O   UNL     1     -23.488  13.166 -28.900  1.00  0.00    -0.285 OA
ATOM      5  C   UNL     1     -25.356  11.786 -28.997  1.00  0.00     0.111 A 
ATOM      6  C   UNL     1     -25.218  11.470 -30.370  1.00  0.00     0.134 A 
ATOM      7  C   UNL     1     -26.151  10.623 -30.986  1.00  0.00     0.093 A 
ATOM      8  C   UNL     1     -27.217  10.088 -30.259  1.00  0.00     0.123 A 
ATOM      9  C   UNL     1     -27.359  10.397 -28.902  1.00  0.00     0.094 A 
ATOM     10  C   UNL     1     -26.438  11.237 -28.270  1.00  0.00     0.146 A 
ATOM     11  O   UNL     1     -26.593  11.509 -26.978  1.00  0.00    -0.452 OA
ENDROOT
BRANCH   1  12
ATOM     12  C   UNL     1     -26.041  12.509 -24.854  1.00  0.00     0.025 A 
ATOM     13  C   UNL     1     -25.073  13.134 -24.052  1.00  0.00     0.016 A 
ATOM     14  C   UNL     1     -25.320  13.368 -22.697  1.00  0.00     0.051 A 
ATOM     15  C   UNL     1     -26.544  12.993 -22.128  1.00  0.00     0.157 A 
ATOM     16  C   UNL     1     -27.276  12.153 -24.283  1.00  0.00     0.062 A 
ATOM     17  C   UNL     1     -27.525  12.389 -22.924  1.00  0.00     0.158 A 
BRANCH  15  18
ATOM     18  O   UNL     1     -26.793  13.222 -20.776  1.00  0.00    -0.504 OA
ATOM     19  H   UNL     1     -26.063  13.535 -20.148  1.00  0.00     0.293 HD
ENDBRANCH  15  18
BRANCH  17  20
ATOM     20  O   UNL     1     -28.748  12.030 -22.357  1.00  0.00    -0.504 OA
ATOM     21  H   UNL     1     -29.273  11.230 -22.691  1.00  0.00     0.293 HD
ENDBRANCH  17  20
ENDBRANCH   1  12
BRANCH   2  22
ATOM     22  O   UNL     1     -23.838  13.778 -26.251  1.00  0.00    -0.502 OA
ATOM     23  H   UNL     1     -23.264  13.476 -25.472  1.00  0.00     0.293 HD
ENDBRANCH   2  22
BRANCH   6  24
ATOM     24  O   UNL     1     -24.165  11.989 -31.124  1.00  0.00    -0.507 OA
ATOM     25  H   UNL     1     -24.235  12.885 -31.594  1.00  0.00     0.293 HD
ENDBRANCH   6  24
BRANCH   8  26
ATOM     26  O   UNL     1     -28.132   9.251 -30.896  1.00  0.00    -0.508 OA
ATOM     27  H   UNL     1     -27.916   8.806 -31.779  1.00  0.00     0.293 HD
ENDBRANCH   8  26
TORSDOF 6
ENDMDL
