MODEL 1
REMARK VINA RESULT:     3.589      0.000      0.000
REMARK INTER + INTRA:           4.124
REMARK INTER:                   4.219
REMARK INTRA:                  -0.095
REMARK UNBOUND:                -0.095
REMARK SMILES O=c1c(O)c(-c2ccc(O)cc2)oc2cc(O)cc(O)c12
REMARK SMILES IDX 5 1 3 2 2 3 1 4 21 5 19 6 18 7 16 8 15 9 14 10 13 11 6 12
REMARK SMILES IDX 7 13 8 14 9 15 12 16 11 17 10 18 4 20 20 22 17 24
REMARK H PARENT 10 19 4 21 20 23 17 25
REMARK Flexibility Score: inf
ROOT
ATOM      1  C   UNL     1    -117.073 -99.321  36.662  1.00  0.00     0.180 A 
ATOM      2  C   UNL     1    -115.769 -99.743  36.350  1.00  0.00     0.208 A 
ATOM      3  C   UNL     1    -115.375 -99.798  35.004  1.00  0.00     0.238 A 
ATOM      4  O   UNL     1    -114.189-100.125  34.735  1.00  0.00    -0.285 OA
ATOM      5  C   UNL     1    -116.293 -99.446  33.986  1.00  0.00     0.111 A 
ATOM      6  C   UNL     1    -116.015 -99.504  32.587  1.00  0.00     0.134 A 
ATOM      7  C   UNL     1    -116.954 -99.008  31.675  1.00  0.00     0.093 A 
ATOM      8  C   UNL     1    -118.189 -98.518  32.108  1.00  0.00     0.123 A 
ATOM      9  C   UNL     1    -118.494 -98.514  33.466  1.00  0.00     0.094 A 
ATOM     10  C   UNL     1    -117.563 -98.968  34.403  1.00  0.00     0.146 A 
ATOM     11  O   UNL     1    -117.890 -98.936  35.690  1.00  0.00    -0.452 OA
ENDROOT
BRANCH   1  12
ATOM     12  C   UNL     1    -117.570 -99.261  38.057  1.00  0.00     0.021 A 
ATOM     13  C   UNL     1    -118.625-100.100  38.451  1.00  0.00     0.016 A 
ATOM     14  C   UNL     1    -119.094-100.076  39.768  1.00  0.00     0.047 A 
ATOM     15  C   UNL     1    -118.506 -99.227  40.710  1.00  0.00     0.115 A 
ATOM     16  C   UNL     1    -116.968 -98.423  39.014  1.00  0.00     0.016 A 
ATOM     17  C   UNL     1    -117.438 -98.402  40.330  1.00  0.00     0.047 A 
BRANCH  15  18
ATOM     18  O   UNL     1    -118.984 -99.212  42.018  1.00  0.00    -0.508 OA
ATOM     19  H   UNL     1    -119.727 -98.585  42.304  1.00  0.00     0.293 HD
ENDBRANCH  15  18
ENDBRANCH   1  12
BRANCH   2  20
ATOM     20  O   UNL     1    -114.871-100.065  37.372  1.00  0.00    -0.502 OA
ATOM     21  H   UNL     1    -114.025-100.597  37.205  1.00  0.00     0.293 HD
ENDBRANCH   2  20
BRANCH   6  22
ATOM     22  O   UNL     1    -114.851-100.059  32.046  1.00  0.00    -0.507 OA
ATOM     23  H   UNL     1    -114.303 -99.641  31.310  1.00  0.00     0.293 HD
ENDBRANCH   6  22
BRANCH   8  24
ATOM     24  O   UNL     1    -119.123 -98.041  31.192  1.00  0.00    -0.508 OA
ATOM     25  H   UNL     1    -119.244 -98.473  30.282  1.00  0.00     0.293 HD
ENDBRANCH   8  24
TORSDOF 5
ENDMDL
MODEL 2
REMARK VINA RESULT:     5.847      1.960      2.979
REMARK INTER + INTRA:           6.777
REMARK INTER:                   7.043
REMARK INTRA:                  -0.266
REMARK UNBOUND:                -0.095
REMARK SMILES O=c1c(O)c(-c2ccc(O)cc2)oc2cc(O)cc(O)c12
REMARK SMILES IDX 5 1 3 2 2 3 1 4 21 5 19 6 18 7 16 8 15 9 14 10 13 11 6 12
REMARK SMILES IDX 7 13 8 14 9 15 12 16 11 17 10 18 4 20 20 22 17 24
REMARK H PARENT 10 19 4 21 20 23 17 25
REMARK Flexibility Score: inf
ROOT
ATOM      1  C   UNL     1    -117.089 -98.775  37.441  1.00  0.00     0.180 A 
ATOM      2  C   UNL     1    -118.149 -99.378  36.742  1.00  0.00     0.208 A 
ATOM      3  C   UNL     1    -118.203 -99.249  35.346  1.00  0.00     0.238 A 
ATOM      4  O   UNL     1    -119.125 -99.836  34.720  1.00  0.00    -0.285 OA
ATOM      5  C   UNL     1    -117.208 -98.507  34.667  1.00  0.00     0.111 A 
ATOM      6  C   UNL     1    -117.186 -98.277  33.258  1.00  0.00     0.134 A 
ATOM      7  C   UNL     1    -116.083 -97.638  32.679  1.00  0.00     0.093 A 
ATOM      8  C   UNL     1    -115.031 -97.163  33.466  1.00  0.00     0.123 A 
ATOM      9  C   UNL     1    -115.071 -97.329  34.848  1.00  0.00     0.094 A 
ATOM     10  C   UNL     1    -116.141 -97.994  35.451  1.00  0.00     0.146 A 
ATOM     11  O   UNL     1    -116.135 -98.140  36.771  1.00  0.00    -0.452 OA
ENDROOT
BRANCH   1  12
ATOM     12  C   UNL     1    -116.977 -98.846  38.917  1.00  0.00     0.021 A 
ATOM     13  C   UNL     1    -117.469 -97.788  39.699  1.00  0.00     0.016 A 
ATOM     14  C   UNL     1    -117.394 -97.844  41.094  1.00  0.00     0.047 A 
ATOM     15  C   UNL     1    -116.841 -98.963  41.725  1.00  0.00     0.115 A 
ATOM     16  C   UNL     1    -116.439 -99.977  39.558  1.00  0.00     0.016 A 
ATOM     17  C   UNL     1    -116.366-100.031  40.953  1.00  0.00     0.047 A 
BRANCH  15  18
ATOM     18  O   UNL     1    -116.772 -99.005  43.115  1.00  0.00    -0.508 OA
ATOM     19  H   UNL     1    -117.358 -98.413  43.693  1.00  0.00     0.293 HD
ENDBRANCH  15  18
ENDBRANCH   1  12
BRANCH   2  20
ATOM     20  O   UNL     1    -119.109-100.125  37.429  1.00  0.00    -0.502 OA
ATOM     21  H   UNL     1    -118.870-100.757  38.184  1.00  0.00     0.293 HD
ENDBRANCH   2  20
BRANCH   6  22
ATOM     22  O   UNL     1    -118.228 -98.628  32.394  1.00  0.00    -0.507 OA
ATOM     23  H   UNL     1    -118.168 -99.337  31.679  1.00  0.00     0.293 HD
ENDBRANCH   6  22
BRANCH   8  24
ATOM     24  O   UNL     1    -113.944 -96.516  32.883  1.00  0.00    -0.508 OA
ATOM     25  H   UNL     1    -113.300 -95.959  33.434  1.00  0.00     0.293 HD
ENDBRANCH   8  24
TORSDOF 5
ENDMDL
