MODEL 1
REMARK VINA RESULT:    -4.733      0.000      0.000
REMARK INTER + INTRA:         -10.256
REMARK INTER:                  -8.191
REMARK INTRA:                  -2.065
REMARK UNBOUND:                -2.065
REMARK SMILES OC[C@@H]1O[C@@H](O[C@@H]2[C@@H](O)[C@@H](O)[C@H](O[C@H]3[C@H](O)[C@@H](O)[C@H](O)O[C@H]3CO)O[C@H]2CO)[C@@H](O)[C@@H](O)[C@@H]1O
REMARK SMILES IDX 7 1 26 2 25 3 12 4 10 5 8 6 6 7 5 8 3 9 33 10 4 11 31 12
REMARK SMILES IDX 29 13 2 14 1 15 34 17 32 19 30 21 27 23 28 24 9 26 11 28
REMARK SMILES IDX 13 30 14 31 22 32 15 33 21 34 17 35 19 36 23 37 24 38 16 40
REMARK SMILES IDX 18 42 20 44
REMARK H PARENT 1 16 34 18 32 20 30 22 28 25 9 27 11 29 24 39 16 41 18 43
REMARK H PARENT 20 45
REMARK Flexibility Score: inf
ROOT
ATOM      1  C   UNL     1       7.756   6.938  -0.832  1.00  0.00     0.184 C 
ATOM      2  C   UNL     1       9.200   6.924  -1.397  1.00  0.00     0.178 C 
ATOM      3  O   UNL     1       9.218   6.337  -2.690  1.00  0.00    -0.341 OA
ATOM      4  C   UNL     1       8.850   4.968  -2.659  1.00  0.00     0.282 C 
ATOM      5  C   UNL     1       7.404   4.802  -2.154  1.00  0.00     0.202 C 
ATOM      6  C   UNL     1       7.241   5.482  -0.780  1.00  0.00     0.180 C 
ENDROOT
BRANCH   1   7
ATOM      7  O   UNL     1       7.762   7.492   0.479  1.00  0.00    -0.341 OA
BRANCH   7   8
ATOM      8  C   UNL     1       8.563   6.732   1.381  1.00  0.00     0.282 C 
ATOM      9  C   UNL     1       6.744   6.164   2.766  1.00  0.00     0.178 C 
ATOM     10  C   UNL     1       7.276   6.981   3.968  1.00  0.00     0.177 C 
ATOM     11  O   UNL     1       7.810   5.677   1.964  1.00  0.00    -0.341 OA
ATOM     12  C   UNL     1       8.146   8.149   3.464  1.00  0.00     0.179 C 
ATOM     13  C   UNL     1       9.194   7.646   2.455  1.00  0.00     0.202 C 
BRANCH   9  14
ATOM     14  C   UNL     1       5.890   4.973   3.217  1.00  0.00     0.191 C 
BRANCH  14  15
ATOM     15  O   UNL     1       5.875   4.886   4.615  1.00  0.00    -0.394 OA
ATOM     16  H   UNL     1       5.848   5.820   4.949  1.00  0.00     0.210 HD
ENDBRANCH  14  15
ENDBRANCH   9  14
BRANCH  10  17
ATOM     17  O   UNL     1       7.986   6.180   4.885  1.00  0.00    -0.387 OA
ATOM     18  H   UNL     1       7.837   5.229   4.649  1.00  0.00     0.211 HD
ENDBRANCH  10  17
BRANCH  12  19
ATOM     19  O   UNL     1       7.338   9.125   2.854  1.00  0.00    -0.387 OA
ATOM     20  H   UNL     1       6.852   8.676   2.113  1.00  0.00     0.211 HD
ENDBRANCH  12  19
BRANCH  13  21
ATOM     21  O   UNL     1       9.836   8.731   1.835  1.00  0.00    -0.385 OA
ATOM     22  H   UNL     1       9.123   9.328   1.490  1.00  0.00     0.211 HD
ENDBRANCH  13  21
ENDBRANCH   7   8
ENDBRANCH   1   7
BRANCH   2  23
ATOM     23  C   UNL     1       9.784   8.344  -1.517  1.00  0.00     0.191 C 
BRANCH  23  24
ATOM     24  O   UNL     1      10.945   8.477  -0.744  1.00  0.00    -0.394 OA
ATOM     25  H   UNL     1      11.694   8.117  -1.290  1.00  0.00     0.210 HD
ENDBRANCH  23  24
ENDBRANCH   2  23
BRANCH   6  26
ATOM     26  O   UNL     1       5.893   5.451  -0.390  1.00  0.00    -0.387 OA
ATOM     27  H   UNL     1       5.468   4.704  -0.887  1.00  0.00     0.211 HD
ENDBRANCH   6  26
BRANCH   5  28
ATOM     28  O   UNL     1       6.525   5.373  -3.090  1.00  0.00    -0.385 OA
ATOM     29  H   UNL     1       6.770   5.008  -3.980  1.00  0.00     0.211 HD
ENDBRANCH   5  28
BRANCH   4  30
ATOM     30  O   UNL     1       9.752   4.235  -1.840  1.00  0.00    -0.341 OA
BRANCH  30  31
ATOM     31  C   UNL     1       9.677   2.837  -2.068  1.00  0.00     0.184 C 
ATOM     32  C   UNL     1       9.937   2.096  -0.738  1.00  0.00     0.178 C 
ATOM     33  C   UNL     1      10.752   2.412  -3.096  1.00  0.00     0.180 C 
ATOM     34  O   UNL     1      11.227   2.407  -0.235  1.00  0.00    -0.342 OA
ATOM     35  C   UNL     1      12.162   2.575  -2.503  1.00  0.00     0.201 C 
ATOM     36  C   UNL     1      12.252   1.934  -1.099  1.00  0.00     0.279 C 
BRANCH  32  37
ATOM     37  C   UNL     1       8.888   2.476   0.314  1.00  0.00     0.191 C 
BRANCH  37  38
ATOM     38  O   UNL     1       9.447   3.375   1.231  1.00  0.00    -0.394 OA
ATOM     39  H   UNL     1       8.683   3.831   1.671  1.00  0.00     0.210 HD
ENDBRANCH  37  38
ENDBRANCH  32  37
BRANCH  33  40
ATOM     40  O   UNL     1      10.559   1.073  -3.480  1.00  0.00    -0.387 OA
ATOM     41  H   UNL     1       9.744   1.052  -4.048  1.00  0.00     0.211 HD
ENDBRANCH  33  40
BRANCH  35  42
ATOM     42  O   UNL     1      12.477   3.943  -2.424  1.00  0.00    -0.385 OA
ATOM     43  H   UNL     1      12.210   4.353  -3.289  1.00  0.00     0.211 HD
ENDBRANCH  35  42
BRANCH  36  44
ATOM     44  O   UNL     1      12.230   0.531  -1.195  1.00  0.00    -0.366 OA
ATOM     45  H   UNL     1      12.171   0.190  -0.263  1.00  0.00     0.213 HD
ENDBRANCH  36  44
ENDBRANCH  30  31
ENDBRANCH   4  30
TORSDOF 18
ENDMDL
MODEL 2
REMARK VINA RESULT:    -4.301      1.931      4.616
REMARK INTER + INTRA:          -9.509
REMARK INTER:                  -8.303
REMARK INTRA:                  -1.206
REMARK UNBOUND:                -2.065
REMARK SMILES OC[C@@H]1O[C@@H](O[C@@H]2[C@@H](O)[C@@H](O)[C@H](O[C@H]3[C@H](O)[C@@H](O)[C@H](O)O[C@H]3CO)O[C@H]2CO)[C@@H](O)[C@@H](O)[C@@H]1O
REMARK SMILES IDX 7 1 26 2 25 3 12 4 10 5 8 6 6 7 5 8 3 9 33 10 4 11 31 12
REMARK SMILES IDX 29 13 2 14 1 15 34 17 32 19 30 21 27 23 28 24 9 26 11 28
REMARK SMILES IDX 13 30 14 31 22 32 15 33 21 34 17 35 19 36 23 37 24 38 16 40
REMARK SMILES IDX 18 42 20 44
REMARK H PARENT 1 16 34 18 32 20 30 22 28 25 9 27 11 29 24 39 16 41 18 43
REMARK H PARENT 20 45
REMARK Flexibility Score: inf
ROOT
ATOM      1  C   UNL     1       8.235   3.849   0.125  1.00  0.00     0.184 C 
ATOM      2  C   UNL     1       7.787   4.468  -1.224  1.00  0.00     0.178 C 
ATOM      3  O   UNL     1       8.184   3.637  -2.305  1.00  0.00    -0.341 OA
ATOM      4  C   UNL     1       9.595   3.551  -2.421  1.00  0.00     0.282 C 
ATOM      5  C   UNL     1      10.207   2.907  -1.163  1.00  0.00     0.202 C 
ATOM      6  C   UNL     1       9.772   3.683   0.096  1.00  0.00     0.180 C 
ENDROOT
BRANCH   1   7
ATOM      7  O   UNL     1       7.865   4.712   1.194  1.00  0.00    -0.341 OA
BRANCH   7   8
ATOM      8  C   UNL     1       8.296   6.053   0.975  1.00  0.00     0.282 C 
ATOM      9  C   UNL     1       9.727   6.065   2.846  1.00  0.00     0.178 C 
ATOM     10  C   UNL     1       8.888   7.122   3.606  1.00  0.00     0.177 C 
ATOM     11  O   UNL     1       9.625   6.242   1.441  1.00  0.00    -0.341 OA
ATOM     12  C   UNL     1       7.415   7.041   3.160  1.00  0.00     0.179 C 
ATOM     13  C   UNL     1       7.314   7.055   1.623  1.00  0.00     0.202 C 
BRANCH   9  14
ATOM     14  C   UNL     1      11.208   6.122   3.239  1.00  0.00     0.191 C 
BRANCH  14  15
ATOM     15  O   UNL     1      11.340   6.212   4.631  1.00  0.00    -0.394 OA
ATOM     16  H   UNL     1      12.246   6.578   4.799  1.00  0.00     0.210 HD
ENDBRANCH  14  15
ENDBRANCH   9  14
BRANCH  10  17
ATOM     17  O   UNL     1       9.396   8.426   3.440  1.00  0.00    -0.387 OA
ATOM     18  H   UNL     1       8.696   8.981   3.010  1.00  0.00     0.211 HD
ENDBRANCH  10  17
BRANCH  12  19
ATOM     19  O   UNL     1       6.823   5.866   3.657  1.00  0.00    -0.387 OA
ATOM     20  H   UNL     1       6.635   6.021   4.619  1.00  0.00     0.211 HD
ENDBRANCH  12  19
BRANCH  13  21
ATOM     21  O   UNL     1       6.002   6.762   1.216  1.00  0.00    -0.385 OA
ATOM     22  H   UNL     1       5.603   7.612   0.896  1.00  0.00     0.211 HD
ENDBRANCH  13  21
ENDBRANCH   7   8
ENDBRANCH   1   7
BRANCH   2  23
ATOM     23  C   UNL     1       6.258   4.638  -1.298  1.00  0.00     0.191 C 
BRANCH  23  24
ATOM     24  O   UNL     1       5.915   5.951  -1.646  1.00  0.00    -0.394 OA
ATOM     25  H   UNL     1       6.328   6.129  -2.532  1.00  0.00     0.210 HD
ENDBRANCH  23  24
ENDBRANCH   2  23
BRANCH   6  26
ATOM     26  O   UNL     1      10.215   3.012   1.247  1.00  0.00    -0.387 OA
ATOM     27  H   UNL     1      10.316   2.056   0.999  1.00  0.00     0.211 HD
ENDBRANCH   6  26
BRANCH   5  28
ATOM     28  O   UNL     1       9.787   1.568  -1.083  1.00  0.00    -0.385 OA
ATOM     29  H   UNL     1       9.211   1.397  -1.874  1.00  0.00     0.211 HD
ENDBRANCH   5  28
BRANCH   4  30
ATOM     30  O   UNL     1      10.150   4.842  -2.642  1.00  0.00    -0.341 OA
BRANCH  30  31
ATOM     31  C   UNL     1       9.315   5.660  -3.446  1.00  0.00     0.184 C 
ATOM     32  C   UNL     1      10.117   6.140  -4.676  1.00  0.00     0.178 C 
ATOM     33  C   UNL     1       8.849   6.893  -2.638  1.00  0.00     0.180 C 
ATOM     34  O   UNL     1      11.246   6.900  -4.272  1.00  0.00    -0.342 OA
ATOM     35  C   UNL     1      10.038   7.825  -2.341  1.00  0.00     0.201 C 
ATOM     36  C   UNL     1      10.860   8.102  -3.620  1.00  0.00     0.279 C 
BRANCH  32  37
ATOM     37  C   UNL     1      10.592   4.951  -5.518  1.00  0.00     0.191 C 
BRANCH  37  38
ATOM     38  O   UNL     1       9.518   4.083  -5.753  1.00  0.00    -0.394 OA
ATOM     39  H   UNL     1       9.137   3.869  -4.862  1.00  0.00     0.210 HD
ENDBRANCH  37  38
ENDBRANCH  32  37
BRANCH  33  40
ATOM     40  O   UNL     1       7.867   7.603  -3.352  1.00  0.00    -0.387 OA
ATOM     41  H   UNL     1       7.499   8.285  -2.732  1.00  0.00     0.211 HD
ENDBRANCH  33  40
BRANCH  35  42
ATOM     42  O   UNL     1      10.859   7.233  -1.365  1.00  0.00    -0.385 OA
ATOM     43  H   UNL     1      11.641   7.833  -1.241  1.00  0.00     0.211 HD
ENDBRANCH  35  42
BRANCH  36  44
ATOM     44  O   UNL     1      10.149   8.947  -4.490  1.00  0.00    -0.366 OA
ATOM     45  H   UNL     1      10.706   9.764  -4.602  1.00  0.00     0.213 HD
ENDBRANCH  36  44
ENDBRANCH  30  31
ENDBRANCH   4  30
TORSDOF 18
ENDMDL
MODEL 3
REMARK VINA RESULT:    -4.212      1.476      7.101
REMARK INTER + INTRA:          -9.355
REMARK INTER:                  -8.105
REMARK INTRA:                  -1.250
REMARK UNBOUND:                -2.065
REMARK SMILES OC[C@@H]1O[C@@H](O[C@@H]2[C@@H](O)[C@@H](O)[C@H](O[C@H]3[C@H](O)[C@@H](O)[C@H](O)O[C@H]3CO)O[C@H]2CO)[C@@H](O)[C@@H](O)[C@@H]1O
REMARK SMILES IDX 7 1 26 2 25 3 12 4 10 5 8 6 6 7 5 8 3 9 33 10 4 11 31 12
REMARK SMILES IDX 29 13 2 14 1 15 34 17 32 19 30 21 27 23 28 24 9 26 11 28
REMARK SMILES IDX 13 30 14 31 22 32 15 33 21 34 17 35 19 36 23 37 24 38 16 40
REMARK SMILES IDX 18 42 20 44
REMARK H PARENT 1 16 34 18 32 20 30 22 28 25 9 27 11 29 24 39 16 41 18 43
REMARK H PARENT 20 45
REMARK Flexibility Score: inf
ROOT
ATOM      1  C   UNL     1       8.318   5.571  -2.051  1.00  0.00     0.184 C 
ATOM      2  C   UNL     1       7.263   5.563  -0.915  1.00  0.00     0.178 C 
ATOM      3  O   UNL     1       6.666   6.845  -0.786  1.00  0.00    -0.341 OA
ATOM      4  C   UNL     1       7.601   7.829  -0.377  1.00  0.00     0.282 C 
ATOM      5  C   UNL     1       8.711   7.999  -1.431  1.00  0.00     0.202 C 
ATOM      6  C   UNL     1       9.382   6.641  -1.718  1.00  0.00     0.180 C 
ENDROOT
BRANCH   1   7
ATOM      7  O   UNL     1       8.934   4.292  -2.141  1.00  0.00    -0.341 OA
BRANCH   7   8
ATOM      8  C   UNL     1      10.336   4.352  -1.888  1.00  0.00     0.282 C 
ATOM      9  C   UNL     1      10.837   2.579  -3.356  1.00  0.00     0.178 C 
ATOM     10  C   UNL     1      11.306   1.639  -2.219  1.00  0.00     0.177 C 
ATOM     11  O   UNL     1      11.077   3.940  -3.029  1.00  0.00    -0.341 OA
ATOM     12  C   UNL     1      10.593   2.009  -0.904  1.00  0.00     0.179 C 
ATOM     13  C   UNL     1      10.703   3.522  -0.637  1.00  0.00     0.202 C 
BRANCH   9  14
ATOM     14  C   UNL     1      11.538   2.266  -4.683  1.00  0.00     0.191 C 
BRANCH  14  15
ATOM     15  O   UNL     1      11.951   0.927  -4.711  1.00  0.00    -0.394 OA
ATOM     16  H   UNL     1      11.133   0.383  -4.573  1.00  0.00     0.210 HD
ENDBRANCH  14  15
ENDBRANCH   9  14
BRANCH  10  17
ATOM     17  O   UNL     1      12.706   1.656  -2.057  1.00  0.00    -0.387 OA
ATOM     18  H   UNL     1      12.996   2.597  -1.948  1.00  0.00     0.211 HD
ENDBRANCH  10  17
BRANCH  12  19
ATOM     19  O   UNL     1       9.237   1.642  -0.970  1.00  0.00    -0.387 OA
ATOM     20  H   UNL     1       8.737   2.438  -1.291  1.00  0.00     0.211 HD
ENDBRANCH  12  19
BRANCH  13  21
ATOM     21  O   UNL     1       9.873   3.891   0.435  1.00  0.00    -0.385 OA
ATOM     22  H   UNL     1       9.479   3.054   0.795  1.00  0.00     0.211 HD
ENDBRANCH  13  21
ENDBRANCH   7   8
ENDBRANCH   1   7
BRANCH   2  23
ATOM     23  C   UNL     1       6.139   4.545  -1.182  1.00  0.00     0.191 C 
BRANCH  23  24
ATOM     24  O   UNL     1       6.296   3.941  -2.437  1.00  0.00    -0.394 OA
ATOM     25  H   UNL     1       7.119   3.388  -2.386  1.00  0.00     0.210 HD
ENDBRANCH  23  24
ENDBRANCH   2  23
BRANCH   6  26
ATOM     26  O   UNL     1      10.294   6.774  -2.778  1.00  0.00    -0.387 OA
ATOM     27  H   UNL     1      11.114   7.186  -2.399  1.00  0.00     0.211 HD
ENDBRANCH   6  26
BRANCH   5  28
ATOM     28  O   UNL     1       8.149   8.526  -2.607  1.00  0.00    -0.385 OA
ATOM     29  H   UNL     1       7.260   8.894  -2.365  1.00  0.00     0.211 HD
ENDBRANCH   5  28
BRANCH   4  30
ATOM     30  O   UNL     1       8.158   7.485   0.885  1.00  0.00    -0.341 OA
BRANCH  30  31
ATOM     31  C   UNL     1       7.782   8.391   1.909  1.00  0.00     0.184 C 
ATOM     32  C   UNL     1       8.717   8.195   3.122  1.00  0.00     0.178 C 
ATOM     33  C   UNL     1       6.325   8.113   2.350  1.00  0.00     0.180 C 
ATOM     34  O   UNL     1       8.615   6.871   3.625  1.00  0.00    -0.342 OA
ATOM     35  C   UNL     1       6.226   6.751   3.059  1.00  0.00     0.201 C 
ATOM     36  C   UNL     1       7.318   6.608   4.143  1.00  0.00     0.279 C 
BRANCH  32  37
ATOM     37  C   UNL     1      10.176   8.471   2.739  1.00  0.00     0.191 C 
BRANCH  37  38
ATOM     38  O   UNL     1      10.860   8.996   3.843  1.00  0.00    -0.394 OA
ATOM     39  H   UNL     1      11.397   9.756   3.498  1.00  0.00     0.210 HD
ENDBRANCH  37  38
ENDBRANCH  32  37
BRANCH  33  40
ATOM     40  O   UNL     1       5.875   9.125   3.215  1.00  0.00    -0.387 OA
ATOM     41  H   UNL     1       6.683   9.581   3.568  1.00  0.00     0.211 HD
ENDBRANCH  33  40
BRANCH  35  42
ATOM     42  O   UNL     1       6.358   5.722   2.110  1.00  0.00    -0.385 OA
ATOM     43  H   UNL     1       7.094   5.986   1.497  1.00  0.00     0.211 HD
ENDBRANCH  35  42
BRANCH  36  44
ATOM     44  O   UNL     1       7.033   7.435   5.244  1.00  0.00    -0.366 OA
ATOM     45  H   UNL     1       6.685   8.288   4.869  1.00  0.00     0.213 HD
ENDBRANCH  36  44
ENDBRANCH  30  31
ENDBRANCH   4  30
TORSDOF 18
ENDMDL
MODEL 4
REMARK VINA RESULT:    -4.090      2.113      5.227
REMARK INTER + INTRA:          -9.144
REMARK INTER:                  -8.077
REMARK INTRA:                  -1.068
REMARK UNBOUND:                -2.065
REMARK SMILES OC[C@@H]1O[C@@H](O[C@@H]2[C@@H](O)[C@@H](O)[C@H](O[C@H]3[C@H](O)[C@@H](O)[C@H](O)O[C@H]3CO)O[C@H]2CO)[C@@H](O)[C@@H](O)[C@@H]1O
REMARK SMILES IDX 7 1 26 2 25 3 12 4 10 5 8 6 6 7 5 8 3 9 33 10 4 11 31 12
REMARK SMILES IDX 29 13 2 14 1 15 34 17 32 19 30 21 27 23 28 24 9 26 11 28
REMARK SMILES IDX 13 30 14 31 22 32 15 33 21 34 17 35 19 36 23 37 24 38 16 40
REMARK SMILES IDX 18 42 20 44
REMARK H PARENT 1 16 34 18 32 20 30 22 28 25 9 27 11 29 24 39 16 41 18 43
REMARK H PARENT 20 45
REMARK Flexibility Score: inf
ROOT
ATOM      1  C   UNL     1       8.160   6.425  -0.140  1.00  0.00     0.184 C 
ATOM      2  C   UNL     1       7.957   4.933  -0.509  1.00  0.00     0.178 C 
ATOM      3  O   UNL     1       8.265   4.104   0.603  1.00  0.00    -0.341 OA
ATOM      4  C   UNL     1       9.633   4.183   0.964  1.00  0.00     0.282 C 
ATOM      5  C   UNL     1       9.998   5.613   1.407  1.00  0.00     0.202 C 
ATOM      6  C   UNL     1       9.628   6.621   0.301  1.00  0.00     0.180 C 
ENDROOT
BRANCH   1   7
ATOM      7  O   UNL     1       7.886   7.240  -1.274  1.00  0.00    -0.341 OA
BRANCH   7   8
ATOM      8  C   UNL     1       8.411   6.681  -2.476  1.00  0.00     0.282 C 
ATOM      9  C   UNL     1       9.659   8.606  -3.011  1.00  0.00     0.178 C 
ATOM     10  C   UNL     1       8.814   8.925  -4.269  1.00  0.00     0.177 C 
ATOM     11  O   UNL     1       9.700   7.209  -2.761  1.00  0.00    -0.341 OA
ATOM     12  C   UNL     1       7.387   8.368  -4.097  1.00  0.00     0.179 C 
ATOM     13  C   UNL     1       7.432   6.894  -3.652  1.00  0.00     0.202 C 
BRANCH   9  14
ATOM     14  C   UNL     1      11.097   9.120  -3.144  1.00  0.00     0.191 C 
BRANCH  14  15
ATOM     15  O   UNL     1      11.818   8.323  -4.043  1.00  0.00    -0.394 OA
ATOM     16  H   UNL     1      11.740   8.765  -4.927  1.00  0.00     0.210 HD
ENDBRANCH  14  15
ENDBRANCH   9  14
BRANCH  10  17
ATOM     17  O   UNL     1       9.409   8.436  -5.449  1.00  0.00    -0.387 OA
ATOM     18  H   UNL     1       8.787   7.786  -5.866  1.00  0.00     0.211 HD
ENDBRANCH  10  17
BRANCH  12  19
ATOM     19  O   UNL     1       6.685   9.124  -3.142  1.00  0.00    -0.387 OA
ATOM     20  H   UNL     1       6.301   8.482  -2.489  1.00  0.00     0.211 HD
ENDBRANCH  12  19
BRANCH  13  21
ATOM     21  O   UNL     1       6.150   6.455  -3.285  1.00  0.00    -0.385 OA
ATOM     22  H   UNL     1       5.925   5.692  -3.880  1.00  0.00     0.211 HD
ENDBRANCH  13  21
ENDBRANCH   7   8
ENDBRANCH   1   7
BRANCH   2  23
ATOM     23  C   UNL     1       6.505   4.637  -0.929  1.00  0.00     0.191 C 
BRANCH  23  24
ATOM     24  O   UNL     1       6.469   3.820  -2.067  1.00  0.00    -0.394 OA
ATOM     25  H   UNL     1       6.229   2.907  -1.757  1.00  0.00     0.210 HD
ENDBRANCH  23  24
ENDBRANCH   2  23
BRANCH   6  26
ATOM     26  O   UNL     1       9.831   7.932   0.764  1.00  0.00    -0.387 OA
ATOM     27  H   UNL     1       9.596   7.934   1.728  1.00  0.00     0.211 HD
ENDBRANCH   6  26
BRANCH   5  28
ATOM     28  O   UNL     1       9.311   5.914   2.595  1.00  0.00    -0.385 OA
ATOM     29  H   UNL     1       9.487   6.869   2.799  1.00  0.00     0.211 HD
ENDBRANCH   5  28
BRANCH   4  30
ATOM     30  O   UNL     1      10.454   3.771  -0.121  1.00  0.00    -0.341 OA
BRANCH  30  31
ATOM     31  C   UNL     1      10.029   2.541  -0.686  1.00  0.00     0.184 C 
ATOM     32  C   UNL     1      11.230   1.571  -0.738  1.00  0.00     0.178 C 
ATOM     33  C   UNL     1       9.508   2.772  -2.123  1.00  0.00     0.180 C 
ATOM     34  O   UNL     1      12.271   2.106  -1.542  1.00  0.00    -0.342 OA
ATOM     35  C   UNL     1      10.661   3.184  -3.056  1.00  0.00     0.201 C 
ATOM     36  C   UNL     1      11.869   2.232  -2.900  1.00  0.00     0.279 C 
BRANCH  32  37
ATOM     37  C   UNL     1      11.776   1.300   0.668  1.00  0.00     0.191 C 
BRANCH  37  38
ATOM     38  O   UNL     1      12.391   0.041   0.698  1.00  0.00    -0.394 OA
ATOM     39  H   UNL     1      13.361   0.212   0.823  1.00  0.00     0.210 HD
ENDBRANCH  37  38
ENDBRANCH  32  37
BRANCH  33  40
ATOM     40  O   UNL     1       8.902   1.604  -2.617  1.00  0.00    -0.387 OA
ATOM     41  H   UNL     1       9.552   1.184  -3.238  1.00  0.00     0.211 HD
ENDBRANCH  33  40
BRANCH  35  42
ATOM     42  O   UNL     1      11.051   4.502  -2.760  1.00  0.00    -0.385 OA
ATOM     43  H   UNL     1      11.266   4.530  -1.790  1.00  0.00     0.211 HD
ENDBRANCH  35  42
BRANCH  36  44
ATOM     44  O   UNL     1      11.585   0.976  -3.465  1.00  0.00    -0.366 OA
ATOM     45  H   UNL     1      12.461   0.575  -3.708  1.00  0.00     0.213 HD
ENDBRANCH  36  44
ENDBRANCH  30  31
ENDBRANCH   4  30
TORSDOF 18
ENDMDL
MODEL 5
REMARK VINA RESULT:    -3.902      1.557      7.090
REMARK INTER + INTRA:          -8.818
REMARK INTER:                  -8.464
REMARK INTRA:                  -0.354
REMARK UNBOUND:                -2.065
REMARK SMILES OC[C@@H]1O[C@@H](O[C@@H]2[C@@H](O)[C@@H](O)[C@H](O[C@H]3[C@H](O)[C@@H](O)[C@H](O)O[C@H]3CO)O[C@H]2CO)[C@@H](O)[C@@H](O)[C@@H]1O
REMARK SMILES IDX 7 1 26 2 25 3 12 4 10 5 8 6 6 7 5 8 3 9 33 10 4 11 31 12
REMARK SMILES IDX 29 13 2 14 1 15 34 17 32 19 30 21 27 23 28 24 9 26 11 28
REMARK SMILES IDX 13 30 14 31 22 32 15 33 21 34 17 35 19 36 23 37 24 38 16 40
REMARK SMILES IDX 18 42 20 44
REMARK H PARENT 1 16 34 18 32 20 30 22 28 25 9 27 11 29 24 39 16 41 18 43
REMARK H PARENT 20 45
REMARK Flexibility Score: inf
ROOT
ATOM      1  C   UNL     1       9.103   5.833  -1.835  1.00  0.00     0.184 C 
ATOM      2  C   UNL     1       7.567   5.995  -1.697  1.00  0.00     0.178 C 
ATOM      3  O   UNL     1       7.217   7.371  -1.657  1.00  0.00    -0.341 OA
ATOM      4  C   UNL     1       7.733   8.018  -0.506  1.00  0.00     0.282 C 
ATOM      5  C   UNL     1       9.273   7.987  -0.506  1.00  0.00     0.202 C 
ATOM      6  C   UNL     1       9.774   6.535  -0.632  1.00  0.00     0.180 C 
ENDROOT
BRANCH   1   7
ATOM      7  O   UNL     1       9.441   4.451  -1.834  1.00  0.00    -0.341 OA
BRANCH   7   8
ATOM      8  C   UNL     1      10.830   4.237  -2.074  1.00  0.00     0.282 C 
ATOM      9  C   UNL     1      10.508   3.644  -4.332  1.00  0.00     0.178 C 
ATOM     10  C   UNL     1      10.961   2.179  -4.114  1.00  0.00     0.177 C 
ATOM     11  O   UNL     1      11.161   4.523  -3.427  1.00  0.00    -0.341 OA
ATOM     12  C   UNL     1      10.683   1.755  -2.659  1.00  0.00     0.179 C 
ATOM     13  C   UNL     1      11.239   2.801  -1.676  1.00  0.00     0.202 C 
BRANCH   9  14
ATOM     14  C   UNL     1      10.786   4.122  -5.761  1.00  0.00     0.191 C 
BRANCH  14  15
ATOM     15  O   UNL     1      10.848   5.522  -5.804  1.00  0.00    -0.394 OA
ATOM     16  H   UNL     1      10.989   5.819  -4.869  1.00  0.00     0.210 HD
ENDBRANCH  14  15
ENDBRANCH   9  14
BRANCH  10  17
ATOM     17  O   UNL     1      12.316   1.985  -4.448  1.00  0.00    -0.387 OA
ATOM     18  H   UNL     1      12.784   2.855  -4.370  1.00  0.00     0.211 HD
ENDBRANCH  10  17
BRANCH  12  19
ATOM     19  O   UNL     1       9.300   1.609  -2.454  1.00  0.00    -0.387 OA
ATOM     20  H   UNL     1       8.899   2.514  -2.524  1.00  0.00     0.211 HD
ENDBRANCH  12  19
BRANCH  13  21
ATOM     21  O   UNL     1      10.797   2.529  -0.370  1.00  0.00    -0.385 OA
ATOM     22  H   UNL     1      11.596   2.569   0.218  1.00  0.00     0.211 HD
ENDBRANCH  13  21
ENDBRANCH   7   8
ENDBRANCH   1   7
BRANCH   2  23
ATOM     23  C   UNL     1       6.814   5.352  -2.877  1.00  0.00     0.191 C 
BRANCH  23  24
ATOM     24  O   UNL     1       7.085   3.979  -2.958  1.00  0.00    -0.394 OA
ATOM     25  H   UNL     1       6.569   3.543  -2.230  1.00  0.00     0.210 HD
ENDBRANCH  23  24
ENDBRANCH   2  23
BRANCH   6  26
ATOM     26  O   UNL     1      11.171   6.524  -0.774  1.00  0.00    -0.387 OA
ATOM     27  H   UNL     1      11.396   5.726  -1.322  1.00  0.00     0.211 HD
ENDBRANCH   6  26
BRANCH   5  28
ATOM     28  O   UNL     1       9.745   8.764  -1.579  1.00  0.00    -0.385 OA
ATOM     29  H   UNL     1      10.731   8.826  -1.480  1.00  0.00     0.211 HD
ENDBRANCH   5  28
BRANCH   4  30
ATOM     30  O   UNL     1       7.221   7.408   0.672  1.00  0.00    -0.341 OA
BRANCH  30  31
ATOM     31  C   UNL     1       8.244   7.062   1.592  1.00  0.00     0.184 C 
ATOM     32  C   UNL     1       7.855   5.749   2.305  1.00  0.00     0.178 C 
ATOM     33  C   UNL     1       8.402   8.179   2.649  1.00  0.00     0.180 C 
ATOM     34  O   UNL     1       6.637   5.907   3.017  1.00  0.00    -0.342 OA
ATOM     35  C   UNL     1       7.157   8.250   3.551  1.00  0.00     0.201 C 
ATOM     36  C   UNL     1       6.769   6.848   4.074  1.00  0.00     0.279 C 
BRANCH  32  37
ATOM     37  C   UNL     1       7.698   4.604   1.297  1.00  0.00     0.191 C 
BRANCH  37  38
ATOM     38  O   UNL     1       8.856   3.817   1.297  1.00  0.00    -0.394 OA
ATOM     39  H   UNL     1       9.583   4.397   0.949  1.00  0.00     0.210 HD
ENDBRANCH  37  38
ENDBRANCH  32  37
BRANCH  33  40
ATOM     40  O   UNL     1       9.540   7.945   3.442  1.00  0.00    -0.387 OA
ATOM     41  H   UNL     1       9.851   8.830   3.766  1.00  0.00     0.211 HD
ENDBRANCH  33  40
BRANCH  35  42
ATOM     42  O   UNL     1       6.087   8.800   2.823  1.00  0.00    -0.385 OA
ATOM     43  H   UNL     1       6.068   8.340   1.943  1.00  0.00     0.211 HD
ENDBRANCH  35  42
BRANCH  36  44
ATOM     44  O   UNL     1       7.695   6.407   5.036  1.00  0.00    -0.366 OA
ATOM     45  H   UNL     1       7.951   5.483   4.773  1.00  0.00     0.213 HD
ENDBRANCH  36  44
ENDBRANCH  30  31
ENDBRANCH   4  30
TORSDOF 18
ENDMDL
MODEL 6
REMARK VINA RESULT:    -3.488      1.469      2.632
REMARK INTER + INTRA:          -8.102
REMARK INTER:                  -7.454
REMARK INTRA:                  -0.648
REMARK UNBOUND:                -2.065
REMARK SMILES OC[C@@H]1O[C@@H](O[C@@H]2[C@@H](O)[C@@H](O)[C@H](O[C@H]3[C@H](O)[C@@H](O)[C@H](O)O[C@H]3CO)O[C@H]2CO)[C@@H](O)[C@@H](O)[C@@H]1O
REMARK SMILES IDX 7 1 26 2 25 3 12 4 10 5 8 6 6 7 5 8 3 9 33 10 4 11 31 12
REMARK SMILES IDX 29 13 2 14 1 15 34 17 32 19 30 21 27 23 28 24 9 26 11 28
REMARK SMILES IDX 13 30 14 31 22 32 15 33 21 34 17 35 19 36 23 37 24 38 16 40
REMARK SMILES IDX 18 42 20 44
REMARK H PARENT 1 16 34 18 32 20 30 22 28 25 9 27 11 29 24 39 16 41 18 43
REMARK H PARENT 20 45
REMARK Flexibility Score: inf
ROOT
ATOM      1  C   UNL     1       7.989   7.122  -1.594  1.00  0.00     0.184 C 
ATOM      2  C   UNL     1       9.270   6.835  -2.418  1.00  0.00     0.178 C 
ATOM      3  O   UNL     1       8.931   6.477  -3.750  1.00  0.00    -0.341 OA
ATOM      4  C   UNL     1       8.208   5.259  -3.806  1.00  0.00     0.282 C 
ATOM      5  C   UNL     1       6.866   5.385  -3.062  1.00  0.00     0.202 C 
ATOM      6  C   UNL     1       7.105   5.854  -1.613  1.00  0.00     0.180 C 
ENDROOT
BRANCH   1   7
ATOM      7  O   UNL     1       8.344   7.440  -0.253  1.00  0.00    -0.341 OA
BRANCH   7   8
ATOM      8  C   UNL     1       8.331   6.292   0.593  1.00  0.00     0.282 C 
ATOM      9  C   UNL     1       7.208   7.400   2.343  1.00  0.00     0.178 C 
ATOM     10  C   UNL     1       8.420   7.320   3.304  1.00  0.00     0.177 C 
ATOM     11  O   UNL     1       7.193   6.301   1.444  1.00  0.00    -0.341 OA
ATOM     12  C   UNL     1       9.729   7.270   2.493  1.00  0.00     0.179 C 
ATOM     13  C   UNL     1       9.646   6.191   1.398  1.00  0.00     0.202 C 
BRANCH   9  14
ATOM     14  C   UNL     1       5.877   7.427   3.102  1.00  0.00     0.191 C 
BRANCH  14  15
ATOM     15  O   UNL     1       6.072   7.888   4.412  1.00  0.00    -0.394 OA
ATOM     16  H   UNL     1       5.239   8.363   4.664  1.00  0.00     0.210 HD
ENDBRANCH  14  15
ENDBRANCH   9  14
BRANCH  10  17
ATOM     17  O   UNL     1       8.329   6.224   4.186  1.00  0.00    -0.387 OA
ATOM     18  H   UNL     1       8.071   5.423   3.663  1.00  0.00     0.211 HD
ENDBRANCH  10  17
BRANCH  12  19
ATOM     19  O   UNL     1       9.979   8.521   1.901  1.00  0.00    -0.387 OA
ATOM     20  H   UNL     1      10.874   8.465   1.474  1.00  0.00     0.211 HD
ENDBRANCH  12  19
BRANCH  13  21
ATOM     21  O   UNL     1      10.743   6.295   0.526  1.00  0.00    -0.385 OA
ATOM     22  H   UNL     1      10.809   7.248   0.258  1.00  0.00     0.211 HD
ENDBRANCH  13  21
ENDBRANCH   7   8
ENDBRANCH   1   7
BRANCH   2  23
ATOM     23  C   UNL     1      10.199   8.062  -2.482  1.00  0.00     0.191 C 
BRANCH  23  24
ATOM     24  O   UNL     1      10.750   8.341  -1.225  1.00  0.00    -0.394 OA
ATOM     25  H   UNL     1      10.019   8.230  -0.561  1.00  0.00     0.210 HD
ENDBRANCH  23  24
ENDBRANCH   2  23
BRANCH   6  26
ATOM     26  O   UNL     1       5.875   6.104  -0.983  1.00  0.00    -0.387 OA
ATOM     27  H   UNL     1       5.331   6.638  -1.619  1.00  0.00     0.211 HD
ENDBRANCH   6  26
BRANCH   5  28
ATOM     28  O   UNL     1       6.048   6.302  -3.745  1.00  0.00    -0.385 OA
ATOM     29  H   UNL     1       5.418   5.772  -4.300  1.00  0.00     0.211 HD
ENDBRANCH   5  28
BRANCH   4  30
ATOM     30  O   UNL     1       8.985   4.200  -3.260  1.00  0.00    -0.341 OA
BRANCH  30  31
ATOM     31  C   UNL     1      10.368   4.512  -3.211  1.00  0.00     0.184 C 
ATOM     32  C   UNL     1      11.142   3.500  -4.084  1.00  0.00     0.178 C 
ATOM     33  C   UNL     1      10.880   4.412  -1.755  1.00  0.00     0.180 C 
ATOM     34  O   UNL     1      10.956   2.178  -3.603  1.00  0.00    -0.342 OA
ATOM     35  C   UNL     1      10.852   2.951  -1.272  1.00  0.00     0.201 C 
ATOM     36  C   UNL     1      11.513   2.012  -2.306  1.00  0.00     0.279 C 
BRANCH  32  37
ATOM     37  C   UNL     1      10.678   3.569  -5.544  1.00  0.00     0.191 C 
BRANCH  37  38
ATOM     38  O   UNL     1      10.765   2.297  -6.124  1.00  0.00    -0.394 OA
ATOM     39  H   UNL     1      11.378   1.772  -5.547  1.00  0.00     0.210 HD
ENDBRANCH  37  38
ENDBRANCH  32  37
BRANCH  33  40
ATOM     40  O   UNL     1      12.191   4.910  -1.663  1.00  0.00    -0.387 OA
ATOM     41  H   UNL     1      12.563   4.912  -2.583  1.00  0.00     0.211 HD
ENDBRANCH  33  40
BRANCH  35  42
ATOM     42  O   UNL     1       9.520   2.559  -1.053  1.00  0.00    -0.385 OA
ATOM     43  H   UNL     1       9.192   3.072  -0.268  1.00  0.00     0.211 HD
ENDBRANCH  35  42
BRANCH  36  44
ATOM     44  O   UNL     1      12.907   2.197  -2.323  1.00  0.00    -0.366 OA
ATOM     45  H   UNL     1      13.129   2.560  -3.221  1.00  0.00     0.213 HD
ENDBRANCH  36  44
ENDBRANCH  30  31
ENDBRANCH   4  30
TORSDOF 18
ENDMDL
MODEL 7
REMARK VINA RESULT:    -3.472      1.760      3.182
REMARK INTER + INTRA:          -8.074
REMARK INTER:                  -6.966
REMARK INTRA:                  -1.108
REMARK UNBOUND:                -2.065
REMARK SMILES OC[C@@H]1O[C@@H](O[C@@H]2[C@@H](O)[C@@H](O)[C@H](O[C@H]3[C@H](O)[C@@H](O)[C@H](O)O[C@H]3CO)O[C@H]2CO)[C@@H](O)[C@@H](O)[C@@H]1O
REMARK SMILES IDX 7 1 26 2 25 3 12 4 10 5 8 6 6 7 5 8 3 9 33 10 4 11 31 12
REMARK SMILES IDX 29 13 2 14 1 15 34 17 32 19 30 21 27 23 28 24 9 26 11 28
REMARK SMILES IDX 13 30 14 31 22 32 15 33 21 34 17 35 19 36 23 37 24 38 16 40
REMARK SMILES IDX 18 42 20 44
REMARK H PARENT 1 16 34 18 32 20 30 22 28 25 9 27 11 29 24 39 16 41 18 43
REMARK H PARENT 20 45
REMARK Flexibility Score: inf
ROOT
ATOM      1  C   UNL     1       8.226   6.536  -1.309  1.00  0.00     0.184 C 
ATOM      2  C   UNL     1       9.650   6.227  -1.837  1.00  0.00     0.178 C 
ATOM      3  O   UNL     1       9.692   6.362  -3.251  1.00  0.00    -0.341 OA
ATOM      4  C   UNL     1       8.872   5.406  -3.901  1.00  0.00     0.282 C 
ATOM      5  C   UNL     1       7.394   5.602  -3.516  1.00  0.00     0.202 C 
ATOM      6  C   UNL     1       7.236   5.559  -1.983  1.00  0.00     0.180 C 
ENDROOT
BRANCH   1   7
ATOM      7  O   UNL     1       8.190   6.358   0.102  1.00  0.00    -0.341 OA
BRANCH   7   8
ATOM      8  C   UNL     1       8.266   7.598   0.802  1.00  0.00     0.282 C 
ATOM      9  C   UNL     1       9.164   6.624   2.750  1.00  0.00     0.178 C 
ATOM     10  C   UNL     1       7.910   6.937   3.604  1.00  0.00     0.177 C 
ATOM     11  O   UNL     1       9.344   7.594   1.729  1.00  0.00    -0.341 OA
ATOM     12  C   UNL     1       6.664   7.003   2.700  1.00  0.00     0.179 C 
ATOM     13  C   UNL     1       6.921   7.922   1.491  1.00  0.00     0.202 C 
BRANCH   9  14
ATOM     14  C   UNL     1      10.437   6.571   3.603  1.00  0.00     0.191 C 
BRANCH  14  15
ATOM     15  O   UNL     1      10.824   7.864   3.980  1.00  0.00    -0.394 OA
ATOM     16  H   UNL     1      10.989   7.828   4.957  1.00  0.00     0.210 HD
ENDBRANCH  14  15
ENDBRANCH   9  14
BRANCH  10  17
ATOM     17  O   UNL     1       8.056   8.123   4.351  1.00  0.00    -0.387 OA
ATOM     18  H   UNL     1       7.737   8.881   3.799  1.00  0.00     0.211 HD
ENDBRANCH  10  17
BRANCH  12  19
ATOM     19  O   UNL     1       6.326   5.716   2.246  1.00  0.00    -0.387 OA
ATOM     20  H   UNL     1       5.714   5.322   2.921  1.00  0.00     0.211 HD
ENDBRANCH  12  19
BRANCH  13  21
ATOM     21  O   UNL     1       5.875   7.810   0.560  1.00  0.00    -0.385 OA
ATOM     22  H   UNL     1       5.618   8.733   0.303  1.00  0.00     0.211 HD
ENDBRANCH  13  21
ENDBRANCH   7   8
ENDBRANCH   1   7
BRANCH   2  23
ATOM     23  C   UNL     1      10.703   7.181  -1.242  1.00  0.00     0.191 C 
BRANCH  23  24
ATOM     24  O   UNL     1      11.290   6.628  -0.096  1.00  0.00    -0.394 OA
ATOM     25  H   UNL     1      12.138   6.199  -0.387  1.00  0.00     0.210 HD
ENDBRANCH  23  24
ENDBRANCH   2  23
BRANCH   6  26
ATOM     26  O   UNL     1       5.914   5.878  -1.630  1.00  0.00    -0.387 OA
ATOM     27  H   UNL     1       5.324   5.371  -2.247  1.00  0.00     0.211 HD
ENDBRANCH   6  26
BRANCH   5  28
ATOM     28  O   UNL     1       6.949   6.837  -4.019  1.00  0.00    -0.385 OA
ATOM     29  H   UNL     1       6.108   7.060  -3.542  1.00  0.00     0.211 HD
ENDBRANCH   5  28
BRANCH   4  30
ATOM     30  O   UNL     1       9.302   4.089  -3.581  1.00  0.00    -0.341 OA
BRANCH  30  31
ATOM     31  C   UNL     1      10.714   3.961  -3.596  1.00  0.00     0.184 C 
ATOM     32  C   UNL     1      11.144   3.293  -4.921  1.00  0.00     0.178 C 
ATOM     33  C   UNL     1      11.176   3.075  -2.415  1.00  0.00     0.180 C 
ATOM     34  O   UNL     1      10.569   2.002  -5.041  1.00  0.00    -0.342 OA
ATOM     35  C   UNL     1      10.710   1.622  -2.616  1.00  0.00     0.201 C 
ATOM     36  C   UNL     1      11.052   1.120  -4.037  1.00  0.00     0.279 C 
BRANCH  32  37
ATOM     37  C   UNL     1      10.718   4.142  -6.124  1.00  0.00     0.191 C 
BRANCH  37  38
ATOM     38  O   UNL     1      11.137   5.466  -5.936  1.00  0.00    -0.394 OA
ATOM     39  H   UNL     1      12.005   5.550  -6.409  1.00  0.00     0.210 HD
ENDBRANCH  37  38
ENDBRANCH  32  37
BRANCH  33  40
ATOM     40  O   UNL     1      12.577   3.104  -2.301  1.00  0.00    -0.387 OA
ATOM     41  H   UNL     1      12.787   3.612  -1.474  1.00  0.00     0.211 HD
ENDBRANCH  33  40
BRANCH  35  42
ATOM     42  O   UNL     1       9.322   1.546  -2.405  1.00  0.00    -0.385 OA
ATOM     43  H   UNL     1       8.886   1.979  -3.185  1.00  0.00     0.211 HD
ENDBRANCH  35  42
BRANCH  36  44
ATOM     44  O   UNL     1      12.437   0.911  -4.167  1.00  0.00    -0.366 OA
ATOM     45  H   UNL     1      12.546   0.015  -4.584  1.00  0.00     0.213 HD
ENDBRANCH  36  44
ENDBRANCH  30  31
ENDBRANCH   4  30
TORSDOF 18
ENDMDL
MODEL 8
REMARK VINA RESULT:    -2.939      2.159      4.176
REMARK INTER + INTRA:          -7.151
REMARK INTER:                  -5.167
REMARK INTRA:                  -1.984
REMARK UNBOUND:                -2.065
REMARK SMILES OC[C@@H]1O[C@@H](O[C@@H]2[C@@H](O)[C@@H](O)[C@H](O[C@H]3[C@H](O)[C@@H](O)[C@H](O)O[C@H]3CO)O[C@H]2CO)[C@@H](O)[C@@H](O)[C@@H]1O
REMARK SMILES IDX 7 1 26 2 25 3 12 4 10 5 8 6 6 7 5 8 3 9 33 10 4 11 31 12
REMARK SMILES IDX 29 13 2 14 1 15 34 17 32 19 30 21 27 23 28 24 9 26 11 28
REMARK SMILES IDX 13 30 14 31 22 32 15 33 21 34 17 35 19 36 23 37 24 38 16 40
REMARK SMILES IDX 18 42 20 44
REMARK H PARENT 1 16 34 18 32 20 30 22 28 25 9 27 11 29 24 39 16 41 18 43
REMARK H PARENT 20 45
REMARK Flexibility Score: inf
ROOT
ATOM      1  C   UNL     1       8.216   4.316   0.631  1.00  0.00     0.184 C 
ATOM      2  C   UNL     1       7.343   4.785  -0.562  1.00  0.00     0.178 C 
ATOM      3  O   UNL     1       7.271   3.769  -1.551  1.00  0.00    -0.341 OA
ATOM      4  C   UNL     1       8.535   3.504  -2.136  1.00  0.00     0.282 C 
ATOM      5  C   UNL     1       9.525   2.978  -1.081  1.00  0.00     0.202 C 
ATOM      6  C   UNL     1       9.624   3.970   0.095  1.00  0.00     0.180 C 
ENDROOT
BRANCH   1   7
ATOM      7  O   UNL     1       8.311   5.359   1.594  1.00  0.00    -0.341 OA
BRANCH   7   8
ATOM      8  C   UNL     1       9.210   6.387   1.185  1.00  0.00     0.282 C 
ATOM      9  C   UNL     1      10.418   6.352   3.208  1.00  0.00     0.178 C 
ATOM     10  C   UNL     1       9.966   7.775   3.617  1.00  0.00     0.177 C 
ATOM     11  O   UNL     1      10.483   6.221   1.795  1.00  0.00    -0.341 OA
ATOM     12  C   UNL     1       8.597   8.093   2.984  1.00  0.00     0.179 C 
ATOM     13  C   UNL     1       8.614   7.783   1.476  1.00  0.00     0.202 C 
BRANCH   9  14
ATOM     14  C   UNL     1      11.789   5.996   3.794  1.00  0.00     0.191 C 
BRANCH  14  15
ATOM     15  O   UNL     1      11.884   6.447   5.118  1.00  0.00    -0.394 OA
ATOM     16  H   UNL     1      10.957   6.649   5.407  1.00  0.00     0.210 HD
ENDBRANCH  14  15
ENDBRANCH   9  14
BRANCH  10  17
ATOM     17  O   UNL     1      10.920   8.756   3.279  1.00  0.00    -0.387 OA
ATOM     18  H   UNL     1      11.821   8.346   3.333  1.00  0.00     0.211 HD
ENDBRANCH  10  17
BRANCH  12  19
ATOM     19  O   UNL     1       7.589   7.336   3.607  1.00  0.00    -0.387 OA
ATOM     20  H   UNL     1       7.507   7.673   4.537  1.00  0.00     0.211 HD
ENDBRANCH  12  19
BRANCH  13  21
ATOM     21  O   UNL     1       7.316   7.862   0.946  1.00  0.00    -0.385 OA
ATOM     22  H   UNL     1       6.768   8.369   1.600  1.00  0.00     0.211 HD
ENDBRANCH  13  21
ENDBRANCH   7   8
ENDBRANCH   1   7
BRANCH   2  23
ATOM     23  C   UNL     1       5.904   5.120  -0.124  1.00  0.00     0.191 C 
BRANCH  23  24
ATOM     24  O   UNL     1       5.875   5.572   1.202  1.00  0.00    -0.394 OA
ATOM     25  H   UNL     1       6.813   5.557   1.529  1.00  0.00     0.210 HD
ENDBRANCH  23  24
ENDBRANCH   2  23
BRANCH   6  26
ATOM     26  O   UNL     1      10.417   3.422   1.117  1.00  0.00    -0.387 OA
ATOM     27  H   UNL     1      11.363   3.584   0.862  1.00  0.00     0.211 HD
ENDBRANCH   6  26
BRANCH   5  28
ATOM     28  O   UNL     1       9.087   1.722  -0.627  1.00  0.00    -0.385 OA
ATOM     29  H   UNL     1       9.015   1.779   0.362  1.00  0.00     0.211 HD
ENDBRANCH   5  28
BRANCH   4  30
ATOM     30  O   UNL     1       9.044   4.677  -2.759  1.00  0.00    -0.341 OA
BRANCH  30  31
ATOM     31  C   UNL     1      10.351   4.490  -3.279  1.00  0.00     0.184 C 
ATOM     32  C   UNL     1      11.047   5.864  -3.390  1.00  0.00     0.178 C 
ATOM     33  C   UNL     1      10.273   3.852  -4.685  1.00  0.00     0.180 C 
ATOM     34  O   UNL     1      10.328   6.721  -4.264  1.00  0.00    -0.342 OA
ATOM     35  C   UNL     1       9.654   4.837  -5.692  1.00  0.00     0.201 C 
ATOM     36  C   UNL     1      10.326   6.226  -5.596  1.00  0.00     0.279 C 
BRANCH  32  37
ATOM     37  C   UNL     1      11.159   6.534  -2.016  1.00  0.00     0.191 C 
BRANCH  37  38
ATOM     38  O   UNL     1      10.273   7.617  -1.948  1.00  0.00    -0.394 OA
ATOM     39  H   UNL     1       9.546   7.340  -1.332  1.00  0.00     0.210 HD
ENDBRANCH  37  38
ENDBRANCH  32  37
BRANCH  33  40
ATOM     40  O   UNL     1      11.555   3.480  -5.124  1.00  0.00    -0.387 OA
ATOM     41  H   UNL     1      12.134   3.437  -4.319  1.00  0.00     0.211 HD
ENDBRANCH  33  40
BRANCH  35  42
ATOM     42  O   UNL     1       8.276   4.955  -5.440  1.00  0.00    -0.385 OA
ATOM     43  H   UNL     1       8.081   5.925  -5.343  1.00  0.00     0.211 HD
ENDBRANCH  35  42
BRANCH  36  44
ATOM     44  O   UNL     1      11.628   6.182  -6.125  1.00  0.00    -0.366 OA
ATOM     45  H   UNL     1      11.743   5.272  -6.507  1.00  0.00     0.213 HD
ENDBRANCH  36  44
ENDBRANCH  30  31
ENDBRANCH   4  30
TORSDOF 18
ENDMDL
