MODEL 1
REMARK VINA RESULT:    -5.157      0.000      0.000
REMARK INTER + INTRA:          -7.355
REMARK INTER:                  -6.966
REMARK INTRA:                  -0.390
REMARK UNBOUND:                -0.390
REMARK SMILES CCCCCCC=CC(=O)[O-]
REMARK SMILES IDX 5 1 6 2 7 3 8 4 9 5 10 6 11 7 4 8 3 9 2 10 1 11
REMARK H PARENT
REMARK Flexibility Score: inf
ROOT
ATOM      1  C   UNL     1       2.642  44.609   0.788  1.00  0.00     0.004 C 
ENDROOT
BRANCH   1   2
ATOM      2  C   UNL     1       1.113  44.503   0.750  1.00  0.00     0.027 C 
BRANCH   2   3
ATOM      3  C   UNL     1       0.582  44.764  -0.631  1.00  0.00    -0.025 C 
ATOM      4  C   UNL     1       1.304  44.487  -1.721  1.00  0.00     0.020 C 
BRANCH   4   5
ATOM      5  C   UNL     1       0.792  44.726  -3.079  1.00  0.00     0.064 C 
ATOM      6  O   UNL     1       0.918  43.833  -3.956  1.00  0.00    -0.545 OA
ATOM      7  O   UNL     1       0.170  45.925  -3.408  1.00  0.00    -0.545 OA
ENDBRANCH   4   5
ENDBRANCH   2   3
ENDBRANCH   1   2
BRANCH   1   8
ATOM      8  C   UNL     1       3.148  44.746   2.228  1.00  0.00     0.000 C 
BRANCH   8   9
ATOM      9  C   UNL     1       3.071  46.205   2.701  1.00  0.00    -0.000 C 
BRANCH   9  10
ATOM     10  C   UNL     1       2.287  46.359   4.015  1.00  0.00    -0.003 C 
ATOM     11  C   UNL     1       0.781  46.490   3.794  1.00  0.00     0.004 C 
ENDBRANCH   9  10
ENDBRANCH   8   9
ENDBRANCH   1   8
TORSDOF 6
ENDMDL
MODEL 2
REMARK VINA RESULT:    -5.152      4.776      5.895
REMARK INTER + INTRA:          -7.348
REMARK INTER:                  -7.050
REMARK INTRA:                  -0.299
REMARK UNBOUND:                -0.390
REMARK SMILES CCCCCCC=CC(=O)[O-]
REMARK SMILES IDX 5 1 6 2 7 3 8 4 9 5 10 6 11 7 4 8 3 9 2 10 1 11
REMARK H PARENT
REMARK Flexibility Score: inf
ROOT
ATOM      1  C   UNL     1      -0.155  44.769   1.772  1.00  0.00     0.004 C 
ENDROOT
BRANCH   1   2
ATOM      2  C   UNL     1      -1.346  43.857   1.458  1.00  0.00     0.027 C 
BRANCH   2   3
ATOM      3  C   UNL     1      -2.221  43.667   2.663  1.00  0.00    -0.025 C 
ATOM      4  C   UNL     1      -2.432  44.658   3.536  1.00  0.00     0.020 C 
BRANCH   4   5
ATOM      5  C   UNL     1      -3.297  44.490   4.714  1.00  0.00     0.064 C 
ATOM      6  O   UNL     1      -4.493  44.878   4.666  1.00  0.00    -0.545 OA
ATOM      7  O   UNL     1      -2.813  43.909   5.880  1.00  0.00    -0.545 OA
ENDBRANCH   4   5
ENDBRANCH   2   3
ENDBRANCH   1   2
BRANCH   1   8
ATOM      8  C   UNL     1       0.941  44.630   0.709  1.00  0.00     0.000 C 
BRANCH   8   9
ATOM      9  C   UNL     1       2.336  44.760   1.338  1.00  0.00    -0.000 C 
BRANCH   9  10
ATOM     10  C   UNL     1       2.312  45.512   2.679  1.00  0.00    -0.003 C 
ATOM     11  C   UNL     1       3.576  45.286   3.507  1.00  0.00     0.004 C 
ENDBRANCH   9  10
ENDBRANCH   8   9
ENDBRANCH   1   8
TORSDOF 6
ENDMDL
MODEL 3
REMARK VINA RESULT:    -5.095      1.317      1.851
REMARK INTER + INTRA:          -7.272
REMARK INTER:                  -6.986
REMARK INTRA:                  -0.285
REMARK UNBOUND:                -0.390
REMARK SMILES CCCCCCC=CC(=O)[O-]
REMARK SMILES IDX 5 1 6 2 7 3 8 4 9 5 10 6 11 7 4 8 3 9 2 10 1 11
REMARK H PARENT
REMARK Flexibility Score: inf
ROOT
ATOM      1  C   UNL     1       2.134  44.502   0.592  1.00  0.00     0.004 C 
ENDROOT
BRANCH   1   2
ATOM      2  C   UNL     1       0.640  44.432   0.931  1.00  0.00     0.027 C 
BRANCH   2   3
ATOM      3  C   UNL     1      -0.206  44.784  -0.259  1.00  0.00    -0.025 C 
ATOM      4  C   UNL     1       0.304  44.814  -1.495  1.00  0.00     0.020 C 
BRANCH   4   5
ATOM      5  C   UNL     1      -0.515  45.144  -2.670  1.00  0.00     0.064 C 
ATOM      6  O   UNL     1      -1.315  46.113  -2.618  1.00  0.00    -0.545 OA
ATOM      7  O   UNL     1      -0.419  44.400  -3.841  1.00  0.00    -0.545 OA
ENDBRANCH   4   5
ENDBRANCH   2   3
ENDBRANCH   1   2
BRANCH   1   8
ATOM      8  C   UNL     1       2.985  44.565   1.865  1.00  0.00     0.000 C 
BRANCH   8   9
ATOM      9  C   UNL     1       2.923  45.963   2.499  1.00  0.00    -0.000 C 
BRANCH   9  10
ATOM     10  C   UNL     1       3.878  46.113   3.694  1.00  0.00    -0.003 C 
ATOM     11  C   UNL     1       4.255  44.772   4.321  1.00  0.00     0.004 C 
ENDBRANCH   9  10
ENDBRANCH   8   9
ENDBRANCH   1   8
TORSDOF 6
ENDMDL
MODEL 4
REMARK VINA RESULT:    -5.087      5.165      6.448
REMARK INTER + INTRA:          -7.262
REMARK INTER:                  -6.932
REMARK INTRA:                  -0.330
REMARK UNBOUND:                -0.390
REMARK SMILES CCCCCCC=CC(=O)[O-]
REMARK SMILES IDX 5 1 6 2 7 3 8 4 9 5 10 6 11 7 4 8 3 9 2 10 1 11
REMARK H PARENT
REMARK Flexibility Score: inf
ROOT
ATOM      1  C   UNL     1      -1.546  44.990   1.530  1.00  0.00     0.004 C 
ENDROOT
BRANCH   1   2
ATOM      2  C   UNL     1      -1.840  43.523   1.862  1.00  0.00     0.027 C 
BRANCH   2   3
ATOM      3  C   UNL     1      -2.343  43.372   3.269  1.00  0.00    -0.025 C 
ATOM      4  C   UNL     1      -2.757  44.426   3.980  1.00  0.00     0.020 C 
BRANCH   4   5
ATOM      5  C   UNL     1      -3.264  44.292   5.354  1.00  0.00     0.064 C 
ATOM      6  O   UNL     1      -3.158  43.189   5.950  1.00  0.00    -0.545 OA
ATOM      7  O   UNL     1      -3.860  45.366   6.005  1.00  0.00    -0.545 OA
ENDBRANCH   4   5
ENDBRANCH   2   3
ENDBRANCH   1   2
BRANCH   1   8
ATOM      8  C   UNL     1      -0.049  45.293   1.652  1.00  0.00     0.000 C 
BRANCH   8   9
ATOM      9  C   UNL     1       0.776  44.353   0.761  1.00  0.00    -0.000 C 
BRANCH   9  10
ATOM     10  C   UNL     1       2.273  44.703   0.759  1.00  0.00    -0.003 C 
ATOM     11  C   UNL     1       2.799  45.061   2.148  1.00  0.00     0.004 C 
ENDBRANCH   9  10
ENDBRANCH   8   9
ENDBRANCH   1   8
TORSDOF 6
ENDMDL
MODEL 5
REMARK VINA RESULT:    -5.040      4.460      5.969
REMARK INTER + INTRA:          -7.198
REMARK INTER:                  -6.805
REMARK INTRA:                  -0.393
REMARK UNBOUND:                -0.390
REMARK SMILES CCCCCCC=CC(=O)[O-]
REMARK SMILES IDX 5 1 6 2 7 3 8 4 9 5 10 6 11 7 4 8 3 9 2 10 1 11
REMARK H PARENT
REMARK Flexibility Score: inf
ROOT
ATOM      1  C   UNL     1       3.322  44.084  -1.474  1.00  0.00     0.004 C 
ENDROOT
BRANCH   1   2
ATOM      2  C   UNL     1       4.050  43.177  -2.472  1.00  0.00     0.027 C 
BRANCH   2   3
ATOM      3  C   UNL     1       5.331  43.803  -2.944  1.00  0.00    -0.025 C 
ATOM      4  C   UNL     1       5.398  44.475  -4.098  1.00  0.00     0.020 C 
BRANCH   4   5
ATOM      5  C   UNL     1       6.641  45.104  -4.565  1.00  0.00     0.064 C 
ATOM      6  O   UNL     1       7.575  44.384  -5.005  1.00  0.00    -0.545 OA
ATOM      7  O   UNL     1       6.803  46.485  -4.528  1.00  0.00    -0.545 OA
ENDBRANCH   4   5
ENDBRANCH   2   3
ENDBRANCH   1   2
BRANCH   1   8
ATOM      8  C   UNL     1       1.948  44.501  -2.011  1.00  0.00     0.000 C 
BRANCH   8   9
ATOM      9  C   UNL     1       1.743  43.999  -3.447  1.00  0.00    -0.000 C 
BRANCH   9  10
ATOM     10  C   UNL     1       0.427  44.498  -4.065  1.00  0.00    -0.003 C 
ATOM     11  C   UNL     1      -0.479  45.191  -3.049  1.00  0.00     0.004 C 
ENDBRANCH   9  10
ENDBRANCH   8   9
ENDBRANCH   1   8
TORSDOF 6
ENDMDL
MODEL 6
REMARK VINA RESULT:    -5.024      2.467      3.005
REMARK INTER + INTRA:          -7.176
REMARK INTER:                  -6.879
REMARK INTRA:                  -0.297
REMARK UNBOUND:                -0.390
REMARK SMILES CCCCCCC=CC(=O)[O-]
REMARK SMILES IDX 5 1 6 2 7 3 8 4 9 5 10 6 11 7 4 8 3 9 2 10 1 11
REMARK H PARENT
REMARK Flexibility Score: inf
ROOT
ATOM      1  C   UNL     1       1.538  44.729   1.271  1.00  0.00     0.004 C 
ENDROOT
BRANCH   1   2
ATOM      2  C   UNL     1       1.497  44.554  -0.251  1.00  0.00     0.027 C 
BRANCH   2   3
ATOM      3  C   UNL     1       2.880  44.451  -0.826  1.00  0.00    -0.025 C 
ATOM      4  C   UNL     1       3.091  43.995  -2.065  1.00  0.00     0.020 C 
BRANCH   4   5
ATOM      5  C   UNL     1       4.438  43.901  -2.645  1.00  0.00     0.064 C 
ATOM      6  O   UNL     1       4.854  44.817  -3.401  1.00  0.00    -0.545 OA
ATOM      7  O   UNL     1       5.262  42.815  -2.370  1.00  0.00    -0.545 OA
ENDBRANCH   4   5
ENDBRANCH   2   3
ENDBRANCH   1   2
BRANCH   1   8
ATOM      8  C   UNL     1       2.983  44.764   1.783  1.00  0.00     0.000 C 
BRANCH   8   9
ATOM      9  C   UNL     1       3.206  45.960   2.719  1.00  0.00    -0.000 C 
BRANCH   9  10
ATOM     10  C   UNL     1       3.340  45.541   4.192  1.00  0.00    -0.003 C 
ATOM     11  C   UNL     1       4.547  44.640   4.443  1.00  0.00     0.004 C 
ENDBRANCH   9  10
ENDBRANCH   8   9
ENDBRANCH   1   8
TORSDOF 6
ENDMDL
MODEL 7
REMARK VINA RESULT:    -4.966      5.126      7.037
REMARK INTER + INTRA:          -7.097
REMARK INTER:                  -6.843
REMARK INTRA:                  -0.254
REMARK UNBOUND:                -0.390
REMARK SMILES CCCCCCC=CC(=O)[O-]
REMARK SMILES IDX 5 1 6 2 7 3 8 4 9 5 10 6 11 7 4 8 3 9 2 10 1 11
REMARK H PARENT
REMARK Flexibility Score: inf
ROOT
ATOM      1  C   UNL     1      -0.745  44.700   1.599  1.00  0.00     0.004 C 
ENDROOT
BRANCH   1   2
ATOM      2  C   UNL     1      -1.879  43.675   1.706  1.00  0.00     0.027 C 
BRANCH   2   3
ATOM      3  C   UNL     1      -2.340  43.518   3.127  1.00  0.00    -0.025 C 
ATOM      4  C   UNL     1      -2.797  44.558   3.832  1.00  0.00     0.020 C 
BRANCH   4   5
ATOM      5  C   UNL     1      -3.264  44.417   5.219  1.00  0.00     0.064 C 
ATOM      6  O   UNL     1      -3.845  45.382   5.780  1.00  0.00    -0.545 OA
ATOM      7  O   UNL     1      -3.073  43.232   5.922  1.00  0.00    -0.545 OA
ENDBRANCH   4   5
ENDBRANCH   2   3
ENDBRANCH   1   2
BRANCH   1   8
ATOM      8  C   UNL     1      -0.159  44.727   0.183  1.00  0.00     0.000 C 
BRANCH   8   9
ATOM      9  C   UNL     1      -1.105  45.446  -0.790  1.00  0.00    -0.000 C 
BRANCH   9  10
ATOM     10  C   UNL     1      -0.884  45.021  -2.251  1.00  0.00    -0.003 C 
ATOM     11  C   UNL     1       0.590  44.801  -2.588  1.00  0.00     0.004 C 
ENDBRANCH   9  10
ENDBRANCH   8   9
ENDBRANCH   1   8
TORSDOF 6
ENDMDL
MODEL 8
REMARK VINA RESULT:    -4.930      4.011      4.856
REMARK INTER + INTRA:          -7.049
REMARK INTER:                  -6.711
REMARK INTRA:                  -0.338
REMARK UNBOUND:                -0.390
REMARK SMILES CCCCCCC=CC(=O)[O-]
REMARK SMILES IDX 5 1 6 2 7 3 8 4 9 5 10 6 11 7 4 8 3 9 2 10 1 11
REMARK H PARENT
REMARK Flexibility Score: inf
ROOT
ATOM      1  C   UNL     1       2.893  43.972  -2.830  1.00  0.00     0.004 C 
ENDROOT
BRANCH   1   2
ATOM      2  C   UNL     1       4.151  43.288  -2.284  1.00  0.00     0.027 C 
BRANCH   2   3
ATOM      3  C   UNL     1       5.384  43.760  -3.000  1.00  0.00    -0.025 C 
ATOM      4  C   UNL     1       5.309  44.578  -4.055  1.00  0.00     0.020 C 
BRANCH   4   5
ATOM      5  C   UNL     1       6.507  45.058  -4.758  1.00  0.00     0.064 C 
ATOM      6  O   UNL     1       7.475  44.275  -4.943  1.00  0.00    -0.545 OA
ATOM      7  O   UNL     1       6.588  46.366  -5.223  1.00  0.00    -0.545 OA
ENDBRANCH   4   5
ENDBRANCH   2   3
ENDBRANCH   1   2
BRANCH   1   8
ATOM      8  C   UNL     1       1.991  44.457  -1.690  1.00  0.00     0.000 C 
BRANCH   8   9
ATOM      9  C   UNL     1       2.758  44.495  -0.360  1.00  0.00    -0.000 C 
BRANCH   9  10
ATOM     10  C   UNL     1       1.824  44.508   0.861  1.00  0.00    -0.003 C 
ATOM     11  C   UNL     1       2.468  45.141   2.093  1.00  0.00     0.004 C 
ENDBRANCH   9  10
ENDBRANCH   8   9
ENDBRANCH   1   8
TORSDOF 6
ENDMDL
MODEL 9
REMARK VINA RESULT:    -4.883      2.052      3.207
REMARK INTER + INTRA:          -6.986
REMARK INTER:                  -6.558
REMARK INTRA:                  -0.428
REMARK UNBOUND:                -0.390
REMARK SMILES CCCCCCC=CC(=O)[O-]
REMARK SMILES IDX 5 1 6 2 7 3 8 4 9 5 10 6 11 7 4 8 3 9 2 10 1 11
REMARK H PARENT
REMARK Flexibility Score: inf
ROOT
ATOM      1  C   UNL     1       0.426  44.509   0.901  1.00  0.00     0.004 C 
ENDROOT
BRANCH   1   2
ATOM      2  C   UNL     1       1.946  44.607   0.735  1.00  0.00     0.027 C 
BRANCH   2   3
ATOM      3  C   UNL     1       2.341  44.563  -0.713  1.00  0.00    -0.025 C 
ATOM      4  C   UNL     1       1.429  44.434  -1.683  1.00  0.00     0.020 C 
BRANCH   4   5
ATOM      5  C   UNL     1       1.800  44.404  -3.105  1.00  0.00     0.064 C 
ATOM      6  O   UNL     1       2.904  44.883  -3.470  1.00  0.00    -0.545 OA
ATOM      7  O   UNL     1       0.947  43.852  -4.055  1.00  0.00    -0.545 OA
ENDBRANCH   4   5
ENDBRANCH   2   3
ENDBRANCH   1   2
BRANCH   1   8
ATOM      8  C   UNL     1      -0.052  45.340   2.097  1.00  0.00     0.000 C 
BRANCH   8   9
ATOM      9  C   UNL     1      -1.385  46.035   1.786  1.00  0.00    -0.000 C 
BRANCH   9  10
ATOM     10  C   UNL     1      -1.920  45.688   0.387  1.00  0.00    -0.003 C 
ATOM     11  C   UNL     1      -3.247  44.932   0.432  1.00  0.00     0.004 C 
ENDBRANCH   9  10
ENDBRANCH   8   9
ENDBRANCH   1   8
TORSDOF 6
ENDMDL
