MODEL 1
REMARK VINA RESULT:    -2.804      0.000      0.000
REMARK INTER + INTRA:          -3.049
REMARK INTER:                  -3.049
REMARK INTRA:                   0.000
REMARK UNBOUND:                 0.000
REMARK SMILES Cc1cc(O)c2c(c1)C(=O)c1cc(O)cc(O)c1C2=O
REMARK SMILES IDX 1 1 2 2 8 3 7 4 6 5 4 6 3 7 19 8 20 9 18 10 11 11 9 12 10 13
REMARK SMILES IDX 12 14 13 15 15 16 16 17 5 18 17 20 14 22
REMARK H PARENT 5 19 17 21 14 23
REMARK Flexibility Score: inf
ROOT
ATOM      1  C   UNL     1      89.122  25.251  61.430  1.00  0.00     0.044 C 
ATOM      2  C   UNL     1      88.994  26.209  62.578  1.00  0.00    -0.047 A 
ATOM      3  C   UNL     1      89.004  27.589  62.349  1.00  0.00     0.016 A 
ATOM      4  C   UNL     1      88.858  28.493  63.414  1.00  0.00     0.038 A 
ATOM      5  C   UNL     1      88.699  28.009  64.731  1.00  0.00     0.076 A 
ATOM      6  C   UNL     1      88.605  26.610  64.947  1.00  0.00     0.127 A 
ATOM      7  C   UNL     1      88.775  25.728  63.874  1.00  0.00     0.050 A 
ATOM      8  C   UNL     1      88.696  28.991  65.845  1.00  0.00     0.201 C 
ATOM      9  O   UNL     1      89.125  28.652  66.981  1.00  0.00    -0.288 OA
ATOM     10  C   UNL     1      88.367  30.415  65.574  1.00  0.00     0.076 A 
ATOM     11  C   UNL     1      88.525  30.896  64.254  1.00  0.00     0.041 A 
ATOM     12  C   UNL     1      88.861  29.954  63.160  1.00  0.00     0.194 C 
ATOM     13  O   UNL     1      89.125  30.394  62.007  1.00  0.00    -0.289 OA
ATOM     14  C   UNL     1      88.357  32.265  63.984  1.00  0.00     0.059 A 
ATOM     15  C   UNL     1      88.021  33.152  65.010  1.00  0.00     0.120 A 
ATOM     16  C   UNL     1      87.826  32.676  66.304  1.00  0.00     0.093 A 
ATOM     17  C   UNL     1      87.967  31.315  66.595  1.00  0.00     0.131 A 
ENDROOT
BRANCH   6  18
ATOM     18  O   UNL     1      88.312  26.056  66.195  1.00  0.00    -0.507 OA
ATOM     19  H   UNL     1      87.533  26.351  66.767  1.00  0.00     0.293 HD
ENDBRANCH   6  18
BRANCH  17  20
ATOM     20  O   UNL     1      87.666  30.899  67.895  1.00  0.00    -0.507 OA
ATOM     21  H   UNL     1      87.854  31.455  68.717  1.00  0.00     0.293 HD
ENDBRANCH  17  20
BRANCH  15  22
ATOM     22  O   UNL     1      87.866  34.513  64.748  1.00  0.00    -0.508 OA
ATOM     23  H   UNL     1      87.656  34.853  63.817  1.00  0.00     0.293 HD
ENDBRANCH  15  22
TORSDOF 3
ENDMDL
MODEL 2
REMARK VINA RESULT:    -1.350      2.774      3.385
REMARK INTER + INTRA:          -1.468
REMARK INTER:                  -1.468
REMARK INTRA:                   0.000
REMARK UNBOUND:                 0.000
REMARK SMILES Cc1cc(O)c2c(c1)C(=O)c1cc(O)cc(O)c1C2=O
REMARK SMILES IDX 1 1 2 2 8 3 7 4 6 5 4 6 3 7 19 8 20 9 18 10 11 11 9 12 10 13
REMARK SMILES IDX 12 14 13 15 15 16 16 17 5 18 17 20 14 22
REMARK H PARENT 5 19 17 21 14 23
REMARK Flexibility Score: inf
ROOT
ATOM      1  C   UNL     1      88.908  25.977  64.723  1.00  0.00     0.044 C 
ATOM      2  C   UNL     1      87.913  27.099  64.760  1.00  0.00    -0.047 A 
ATOM      3  C   UNL     1      88.348  28.428  64.728  1.00  0.00     0.016 A 
ATOM      4  C   UNL     1      87.422  29.485  64.735  1.00  0.00     0.038 A 
ATOM      5  C   UNL     1      86.038  29.208  64.774  1.00  0.00     0.076 A 
ATOM      6  C   UNL     1      85.601  27.859  64.722  1.00  0.00     0.127 A 
ATOM      7  C   UNL     1      86.541  26.823  64.737  1.00  0.00     0.050 A 
ATOM      8  C   UNL     1      85.097  30.347  64.930  1.00  0.00     0.201 C 
ATOM      9  O   UNL     1      83.998  30.175  65.523  1.00  0.00    -0.288 OA
ATOM     10  C   UNL     1      85.530  31.718  64.557  1.00  0.00     0.076 A 
ATOM     11  C   UNL     1      86.916  31.992  64.515  1.00  0.00     0.041 A 
ATOM     12  C   UNL     1      87.892  30.891  64.692  1.00  0.00     0.194 C 
ATOM     13  O   UNL     1      89.125  31.147  64.781  1.00  0.00    -0.289 OA
ATOM     14  C   UNL     1      87.363  33.307  64.301  1.00  0.00     0.059 A 
ATOM     15  C   UNL     1      86.446  34.345  64.115  1.00  0.00     0.120 A 
ATOM     16  C   UNL     1      85.080  34.072  64.115  1.00  0.00     0.093 A 
ATOM     17  C   UNL     1      84.610  32.769  64.306  1.00  0.00     0.131 A 
ENDROOT
BRANCH   6  18
ATOM     18  O   UNL     1      84.254  27.504  64.619  1.00  0.00    -0.507 OA
ATOM     19  H   UNL     1      83.935  26.636  64.210  1.00  0.00     0.293 HD
ENDBRANCH   6  18
BRANCH  17  20
ATOM     20  O   UNL     1      83.232  32.558  64.201  1.00  0.00    -0.507 OA
ATOM     21  H   UNL     1      82.814  31.907  63.552  1.00  0.00     0.293 HD
ENDBRANCH  17  20
BRANCH  15  22
ATOM     22  O   UNL     1      86.885  35.653  63.914  1.00  0.00    -0.508 OA
ATOM     23  H   UNL     1      87.392  36.158  64.632  1.00  0.00     0.293 HD
ENDBRANCH  15  22
TORSDOF 3
ENDMDL
MODEL 3
REMARK VINA RESULT:    -0.777      2.687      6.118
REMARK INTER + INTRA:          -0.845
REMARK INTER:                  -0.845
REMARK INTRA:                   0.000
REMARK UNBOUND:                 0.000
REMARK SMILES Cc1cc(O)c2c(c1)C(=O)c1cc(O)cc(O)c1C2=O
REMARK SMILES IDX 1 1 2 2 8 3 7 4 6 5 4 6 3 7 19 8 20 9 18 10 11 11 9 12 10 13
REMARK SMILES IDX 12 14 13 15 15 16 16 17 5 18 17 20 14 22
REMARK H PARENT 5 19 17 21 14 23
REMARK Flexibility Score: inf
ROOT
ATOM      1  C   UNL     1      87.627  35.138  65.116  1.00  0.00     0.044 C 
ATOM      2  C   UNL     1      86.984  33.785  65.045  1.00  0.00    -0.047 A 
ATOM      3  C   UNL     1      87.733  32.668  64.657  1.00  0.00     0.016 A 
ATOM      4  C   UNL     1      87.146  31.392  64.614  1.00  0.00     0.038 A 
ATOM      5  C   UNL     1      85.788  31.230  64.966  1.00  0.00     0.076 A 
ATOM      6  C   UNL     1      85.058  32.350  65.440  1.00  0.00     0.127 A 
ATOM      7  C   UNL     1      85.656  33.614  65.453  1.00  0.00     0.050 A 
ATOM      8  C   UNL     1      85.165  29.896  64.768  1.00  0.00     0.201 C 
ATOM      9  O   UNL     1      83.935  29.812  64.506  1.00  0.00    -0.288 OA
ATOM     10  C   UNL     1      86.023  28.685  64.691  1.00  0.00     0.076 A 
ATOM     11  C   UNL     1      87.382  28.851  64.341  1.00  0.00     0.041 A 
ATOM     12  C   UNL     1      87.949  30.213  64.209  1.00  0.00     0.194 C 
ATOM     13  O   UNL     1      89.125  30.369  63.777  1.00  0.00    -0.289 OA
ATOM     14  C   UNL     1      88.191  27.722  64.124  1.00  0.00     0.059 A 
ATOM     15  C   UNL     1      87.664  26.436  64.267  1.00  0.00     0.120 A 
ATOM     16  C   UNL     1      86.336  26.268  64.651  1.00  0.00     0.093 A 
ATOM     17  C   UNL     1      85.515  27.375  64.892  1.00  0.00     0.131 A 
ENDROOT
BRANCH   6  18
ATOM     18  O   UNL     1      83.756  32.249  65.936  1.00  0.00    -0.507 OA
ATOM     19  H   UNL     1      83.323  31.372  66.192  1.00  0.00     0.293 HD
ENDBRANCH   6  18
BRANCH  17  20
ATOM     20  O   UNL     1      84.222  27.129  65.362  1.00  0.00    -0.507 OA
ATOM     21  H   UNL     1      83.495  26.708  64.801  1.00  0.00     0.293 HD
ENDBRANCH  17  20
BRANCH  15  22
ATOM     22  O   UNL     1      88.460  25.314  64.041  1.00  0.00    -0.508 OA
ATOM     23  H   UNL     1      88.146  24.551  63.452  1.00  0.00     0.293 HD
ENDBRANCH  15  22
TORSDOF 3
ENDMDL
MODEL 4
REMARK VINA RESULT:    -0.366     16.262     17.811
REMARK INTER + INTRA:          -0.398
REMARK INTER:                  -0.398
REMARK INTRA:                   0.000
REMARK UNBOUND:                 0.000
REMARK SMILES Cc1cc(O)c2c(c1)C(=O)c1cc(O)cc(O)c1C2=O
REMARK SMILES IDX 1 1 2 2 8 3 7 4 6 5 4 6 3 7 19 8 20 9 18 10 11 11 9 12 10 13
REMARK SMILES IDX 12 14 13 15 15 16 16 17 5 18 17 20 14 22
REMARK H PARENT 5 19 17 21 14 23
REMARK Flexibility Score: inf
ROOT
ATOM      1  C   UNL     1      72.789  36.125  52.659  1.00  0.00     0.044 C 
ATOM      2  C   UNL     1      73.962  35.189  52.651  1.00  0.00    -0.047 A 
ATOM      3  C   UNL     1      75.144  35.548  51.994  1.00  0.00     0.016 A 
ATOM      4  C   UNL     1      76.257  34.690  52.004  1.00  0.00     0.038 A 
ATOM      5  C   UNL     1      76.186  33.453  52.682  1.00  0.00     0.076 A 
ATOM      6  C   UNL     1      75.015  33.133  53.416  1.00  0.00     0.127 A 
ATOM      7  C   UNL     1      73.912  33.992  53.374  1.00  0.00     0.050 A 
ATOM      8  C   UNL     1      77.326  32.511  52.547  1.00  0.00     0.201 C 
ATOM      9  O   UNL     1      77.123  31.268  52.607  1.00  0.00    -0.288 OA
ATOM     10  C   UNL     1      78.665  33.023  52.154  1.00  0.00     0.076 A 
ATOM     11  C   UNL     1      78.733  34.262  51.478  1.00  0.00     0.041 A 
ATOM     12  C   UNL     1      77.509  35.081  51.312  1.00  0.00     0.194 C 
ATOM     13  O   UNL     1      77.538  36.125  50.603  1.00  0.00    -0.289 OA
ATOM     14  C   UNL     1      79.962  34.715  50.970  1.00  0.00     0.059 A 
ATOM     15  C   UNL     1      81.122  33.955  51.142  1.00  0.00     0.120 A 
ATOM     16  C   UNL     1      81.067  32.752  51.843  1.00  0.00     0.093 A 
ATOM     17  C   UNL     1      79.859  32.289  52.375  1.00  0.00     0.131 A 
ENDROOT
BRANCH   6  18
ATOM     18  O   UNL     1      74.915  31.997  54.224  1.00  0.00    -0.507 OA
ATOM     19  H   UNL     1      75.672  31.656  54.801  1.00  0.00     0.293 HD
ENDBRANCH   6  18
BRANCH  17  20
ATOM     20  O   UNL     1      79.898  31.123  53.144  1.00  0.00    -0.507 OA
ATOM     21  H   UNL     1      79.183  30.410  53.114  1.00  0.00     0.293 HD
ENDBRANCH  17  20
BRANCH  15  22
ATOM     22  O   UNL     1      82.342  34.394  50.629  1.00  0.00    -0.508 OA
ATOM     23  H   UNL     1      82.557  35.381  50.544  1.00  0.00     0.293 HD
ENDBRANCH  15  22
TORSDOF 3
ENDMDL
