MODEL 1
REMARK VINA RESULT:    -4.438      0.000      0.000
REMARK INTER + INTRA:         -10.016
REMARK INTER:                  -8.330
REMARK INTRA:                  -1.686
REMARK UNBOUND:                -1.686
REMARK SMILES O=C([O-])CCCCCCCCCCCCCCC(=O)[O-]
REMARK SMILES IDX 10 1 9 2 8 3 7 4 6 5 5 6 4 7 2 8 1 9 3 10 11 11 12 12 13 13
REMARK SMILES IDX 14 14 15 15 16 16 17 17 18 18 19 19 20 20
REMARK H PARENT
REMARK Flexibility Score: inf
ROOT
ATOM      1  C   UNL     1      49.915   5.012  24.024  1.00  0.00     0.000 C 
ENDROOT
BRANCH   1   2
ATOM      2  C   UNL     1      48.922   4.479  22.978  1.00  0.00     0.000 C 
BRANCH   2   3
ATOM      3  C   UNL     1      49.492   4.522  21.550  1.00  0.00     0.000 C 
BRANCH   3   4
ATOM      4  C   UNL     1      49.671   3.120  20.943  1.00  0.00     0.000 C 
BRANCH   4   5
ATOM      5  C   UNL     1      50.325   2.124  21.916  1.00  0.00     0.000 C 
BRANCH   5   6
ATOM      6  C   UNL     1      51.868   2.171  21.910  1.00  0.00     0.006 C 
BRANCH   6   7
ATOM      7  C   UNL     1      52.467   1.635  20.602  1.00  0.00     0.053 C 
BRANCH   7   8
ATOM      8  C   UNL     1      53.200   2.720  19.877  1.00  0.00     0.041 C 
ATOM      9  O   UNL     1      52.606   3.422  19.016  1.00  0.00    -0.550 OA
ATOM     10  O   UNL     1      54.551   2.931  20.124  1.00  0.00    -0.550 OA
ENDBRANCH   7   8
ENDBRANCH   6   7
ENDBRANCH   5   6
ENDBRANCH   4   5
ENDBRANCH   3   4
ENDBRANCH   2   3
ENDBRANCH   1   2
BRANCH   1  11
ATOM     11  C   UNL     1      50.073   6.540  23.967  1.00  0.00     0.000 C 
BRANCH  11  12
ATOM     12  C   UNL     1      49.028   7.282  24.815  1.00  0.00     0.000 C 
BRANCH  12  13
ATOM     13  C   UNL     1      47.796   7.646  23.973  1.00  0.00     0.000 C 
BRANCH  13  14
ATOM     14  C   UNL     1      48.137   8.577  22.800  1.00  0.00     0.000 C 
BRANCH  14  15
ATOM     15  C   UNL     1      47.348   8.237  21.524  1.00  0.00     0.000 C 
BRANCH  15  16
ATOM     16  C   UNL     1      48.266   7.924  20.332  1.00  0.00     0.006 C 
BRANCH  16  17
ATOM     17  C   UNL     1      49.753   7.976  20.708  1.00  0.00     0.053 C 
BRANCH  17  18
ATOM     18  C   UNL     1      50.594   8.257  19.503  1.00  0.00     0.041 C 
ATOM     19  O   UNL     1      50.497   9.362  18.905  1.00  0.00    -0.550 OA
ATOM     20  O   UNL     1      51.510   7.311  19.059  1.00  0.00    -0.550 OA
ENDBRANCH  17  18
ENDBRANCH  16  17
ENDBRANCH  15  16
ENDBRANCH  14  15
ENDBRANCH  13  14
ENDBRANCH  12  13
ENDBRANCH  11  12
ENDBRANCH   1  11
TORSDOF 15
ENDMDL
MODEL 2
REMARK VINA RESULT:    -4.303      3.666      6.613
REMARK INTER + INTRA:          -9.762
REMARK INTER:                  -7.039
REMARK INTRA:                  -2.723
REMARK UNBOUND:                -1.686
REMARK SMILES O=C([O-])CCCCCCCCCCCCCCC(=O)[O-]
REMARK SMILES IDX 10 1 9 2 8 3 7 4 6 5 5 6 4 7 2 8 1 9 3 10 11 11 12 12 13 13
REMARK SMILES IDX 14 14 15 15 16 16 17 17 18 18 19 19 20 20
REMARK H PARENT
REMARK Flexibility Score: inf
ROOT
ATOM      1  C   UNL     1      46.868   4.069  21.351  1.00  0.00     0.000 C 
ENDROOT
BRANCH   1   2
ATOM      2  C   UNL     1      46.786   3.468  22.765  1.00  0.00     0.000 C 
BRANCH   2   3
ATOM      3  C   UNL     1      48.146   3.459  23.480  1.00  0.00     0.000 C 
BRANCH   3   4
ATOM      4  C   UNL     1      49.316   3.766  22.531  1.00  0.00     0.000 C 
BRANCH   4   5
ATOM      5  C   UNL     1      50.508   2.812  22.719  1.00  0.00     0.000 C 
BRANCH   5   6
ATOM      6  C   UNL     1      50.907   2.053  21.436  1.00  0.00     0.006 C 
BRANCH   6   7
ATOM      7  C   UNL     1      50.471   2.787  20.160  1.00  0.00     0.053 C 
BRANCH   7   8
ATOM      8  C   UNL     1      51.651   3.059  19.281  1.00  0.00     0.041 C 
ATOM      9  O   UNL     1      51.776   4.176  18.713  1.00  0.00    -0.550 OA
ATOM     10  O   UNL     1      52.595   2.063  19.057  1.00  0.00    -0.550 OA
ENDBRANCH   7   8
ENDBRANCH   6   7
ENDBRANCH   5   6
ENDBRANCH   4   5
ENDBRANCH   3   4
ENDBRANCH   2   3
ENDBRANCH   1   2
BRANCH   1  11
ATOM     11  C   UNL     1      46.321   3.120  20.271  1.00  0.00     0.000 C 
BRANCH  11  12
ATOM     12  C   UNL     1      46.093   1.692  20.790  1.00  0.00     0.000 C 
BRANCH  12  13
ATOM     13  C   UNL     1      47.169   0.735  20.255  1.00  0.00     0.000 C 
BRANCH  13  14
ATOM     14  C   UNL     1      47.921   0.005  21.378  1.00  0.00     0.000 C 
BRANCH  14  15
ATOM     15  C   UNL     1      47.000  -0.398  22.543  1.00  0.00     0.000 C 
BRANCH  15  16
ATOM     16  C   UNL     1      47.620  -0.089  23.915  1.00  0.00     0.006 C 
BRANCH  16  17
ATOM     17  C   UNL     1      49.090  -0.522  24.005  1.00  0.00     0.053 C 
BRANCH  17  18
ATOM     18  C   UNL     1      49.656  -0.194  25.351  1.00  0.00     0.041 C 
ATOM     19  O   UNL     1      50.088  -1.112  26.098  1.00  0.00    -0.550 OA
ATOM     20  O   UNL     1      49.738   1.129  25.766  1.00  0.00    -0.550 OA
ENDBRANCH  17  18
ENDBRANCH  16  17
ENDBRANCH  15  16
ENDBRANCH  14  15
ENDBRANCH  13  14
ENDBRANCH  12  13
ENDBRANCH  11  12
ENDBRANCH   1  11
TORSDOF 15
ENDMDL
MODEL 3
REMARK VINA RESULT:    -4.266      3.390      5.626
REMARK INTER + INTRA:          -9.692
REMARK INTER:                  -7.971
REMARK INTRA:                  -1.721
REMARK UNBOUND:                -1.686
REMARK SMILES O=C([O-])CCCCCCCCCCCCCCC(=O)[O-]
REMARK SMILES IDX 10 1 9 2 8 3 7 4 6 5 5 6 4 7 2 8 1 9 3 10 11 11 12 12 13 13
REMARK SMILES IDX 14 14 15 15 16 16 17 17 18 18 19 19 20 20
REMARK H PARENT
REMARK Flexibility Score: inf
ROOT
ATOM      1  C   UNL     1      49.235   5.053  26.481  1.00  0.00     0.000 C 
ENDROOT
BRANCH   1   2
ATOM      2  C   UNL     1      50.265   6.012  25.861  1.00  0.00     0.000 C 
BRANCH   2   3
ATOM      3  C   UNL     1      49.963   6.327  24.387  1.00  0.00     0.000 C 
BRANCH   3   4
ATOM      4  C   UNL     1      49.951   7.837  24.094  1.00  0.00     0.000 C 
BRANCH   4   5
ATOM      5  C   UNL     1      49.167   8.194  22.819  1.00  0.00     0.000 C 
BRANCH   5   6
ATOM      6  C   UNL     1      49.592   7.379  21.579  1.00  0.00     0.006 C 
BRANCH   6   7
ATOM      7  C   UNL     1      49.147   8.035  20.264  1.00  0.00     0.053 C 
BRANCH   7   8
ATOM      8  C   UNL     1      50.336   8.439  19.450  1.00  0.00     0.041 C 
ATOM      9  O   UNL     1      50.343   9.540  18.838  1.00  0.00    -0.550 OA
ATOM     10  O   UNL     1      51.423   7.581  19.334  1.00  0.00    -0.550 OA
ENDBRANCH   7   8
ENDBRANCH   6   7
ENDBRANCH   5   6
ENDBRANCH   4   5
ENDBRANCH   3   4
ENDBRANCH   2   3
ENDBRANCH   1   2
BRANCH   1  11
ATOM     11  C   UNL     1      48.581   5.625  27.750  1.00  0.00     0.000 C 
BRANCH  11  12
ATOM     12  C   UNL     1      48.457   7.156  27.720  1.00  0.00     0.000 C 
BRANCH  12  13
ATOM     13  C   UNL     1      46.995   7.592  27.906  1.00  0.00     0.000 C 
BRANCH  13  14
ATOM     14  C   UNL     1      46.087   7.114  26.763  1.00  0.00     0.000 C 
BRANCH  14  15
ATOM     15  C   UNL     1      46.451   7.750  25.411  1.00  0.00     0.000 C 
BRANCH  15  16
ATOM     16  C   UNL     1      45.884   9.171  25.258  1.00  0.00     0.006 C 
BRANCH  16  17
ATOM     17  C   UNL     1      46.974  10.207  24.950  1.00  0.00     0.053 C 
BRANCH  17  18
ATOM     18  C   UNL     1      46.371  11.459  24.396  1.00  0.00     0.041 C 
ATOM     19  O   UNL     1      46.951  12.087  23.471  1.00  0.00    -0.550 OA
ATOM     20  O   UNL     1      45.150  11.914  24.878  1.00  0.00    -0.550 OA
ENDBRANCH  17  18
ENDBRANCH  16  17
ENDBRANCH  15  16
ENDBRANCH  14  15
ENDBRANCH  13  14
ENDBRANCH  12  13
ENDBRANCH  11  12
ENDBRANCH   1  11
TORSDOF 15
ENDMDL
MODEL 4
REMARK VINA RESULT:    -4.242      1.328      2.191
REMARK INTER + INTRA:          -9.648
REMARK INTER:                  -8.009
REMARK INTRA:                  -1.638
REMARK UNBOUND:                -1.686
REMARK SMILES O=C([O-])CCCCCCCCCCCCCCC(=O)[O-]
REMARK SMILES IDX 10 1 9 2 8 3 7 4 6 5 5 6 4 7 2 8 1 9 3 10 11 11 12 12 13 13
REMARK SMILES IDX 14 14 15 15 16 16 17 17 18 18 19 19 20 20
REMARK H PARENT
REMARK Flexibility Score: inf
ROOT
ATOM      1  C   UNL     1      49.131   7.924  23.607  1.00  0.00     0.000 C 
ENDROOT
BRANCH   1   2
ATOM      2  C   UNL     1      48.119   6.821  23.252  1.00  0.00     0.000 C 
BRANCH   2   3
ATOM      3  C   UNL     1      48.746   5.418  23.276  1.00  0.00     0.000 C 
BRANCH   3   4
ATOM      4  C   UNL     1      49.031   4.873  21.866  1.00  0.00     0.000 C 
BRANCH   4   5
ATOM      5  C   UNL     1      48.775   3.360  21.745  1.00  0.00     0.000 C 
BRANCH   5   6
ATOM      6  C   UNL     1      49.522   2.695  20.570  1.00  0.00     0.006 C 
BRANCH   6   7
ATOM      7  C   UNL     1      51.041   2.651  20.790  1.00  0.00     0.053 C 
BRANCH   7   8
ATOM      8  C   UNL     1      51.764   2.819  19.490  1.00  0.00     0.041 C 
ATOM      9  O   UNL     1      51.554   3.834  18.774  1.00  0.00    -0.550 OA
ATOM     10  O   UNL     1      52.642   1.836  19.051  1.00  0.00    -0.550 OA
ENDBRANCH   7   8
ENDBRANCH   6   7
ENDBRANCH   5   6
ENDBRANCH   4   5
ENDBRANCH   3   4
ENDBRANCH   2   3
ENDBRANCH   1   2
BRANCH   1  11
ATOM     11  C   UNL     1      48.464   9.292  23.825  1.00  0.00     0.000 C 
BRANCH  11  12
ATOM     12  C   UNL     1      47.000   9.325  23.359  1.00  0.00     0.000 C 
BRANCH  12  13
ATOM     13  C   UNL     1      46.786  10.410  22.293  1.00  0.00     0.000 C 
BRANCH  13  14
ATOM     14  C   UNL     1      46.534   9.823  20.896  1.00  0.00     0.000 C 
BRANCH  14  15
ATOM     15  C   UNL     1      47.812   9.749  20.044  1.00  0.00     0.000 C 
BRANCH  15  16
ATOM     16  C   UNL     1      48.236   8.302  19.745  1.00  0.00     0.006 C 
BRANCH  16  17
ATOM     17  C   UNL     1      49.706   8.037  20.099  1.00  0.00     0.053 C 
BRANCH  17  18
ATOM     18  C   UNL     1      50.547   7.990  18.863  1.00  0.00     0.041 C 
ATOM     19  O   UNL     1      50.211   8.646  17.841  1.00  0.00    -0.550 OA
ATOM     20  O   UNL     1      51.722   7.248  18.850  1.00  0.00    -0.550 OA
ENDBRANCH  17  18
ENDBRANCH  16  17
ENDBRANCH  15  16
ENDBRANCH  14  15
ENDBRANCH  13  14
ENDBRANCH  12  13
ENDBRANCH  11  12
ENDBRANCH   1  11
TORSDOF 15
ENDMDL
MODEL 5
REMARK VINA RESULT:    -4.226      4.591      6.443
REMARK INTER + INTRA:          -9.618
REMARK INTER:                  -7.882
REMARK INTRA:                  -1.736
REMARK UNBOUND:                -1.686
REMARK SMILES O=C([O-])CCCCCCCCCCCCCCC(=O)[O-]
REMARK SMILES IDX 10 1 9 2 8 3 7 4 6 5 5 6 4 7 2 8 1 9 3 10 11 11 12 12 13 13
REMARK SMILES IDX 14 14 15 15 16 16 17 17 18 18 19 19 20 20
REMARK H PARENT
REMARK Flexibility Score: inf
ROOT
ATOM      1  C   UNL     1      48.199  -0.743  22.826  1.00  0.00     0.000 C 
ENDROOT
BRANCH   1   2
ATOM      2  C   UNL     1      49.588  -0.171  22.497  1.00  0.00     0.000 C 
BRANCH   2   3
ATOM      3  C   UNL     1      49.913   1.092  23.310  1.00  0.00     0.000 C 
BRANCH   3   4
ATOM      4  C   UNL     1      51.056   1.916  22.692  1.00  0.00     0.000 C 
BRANCH   4   5
ATOM      5  C   UNL     1      50.558   2.986  21.705  1.00  0.00     0.000 C 
BRANCH   5   6
ATOM      6  C   UNL     1      50.544   2.518  20.235  1.00  0.00     0.006 C 
BRANCH   6   7
ATOM      7  C   UNL     1      51.658   3.168  19.401  1.00  0.00     0.053 C 
BRANCH   7   8
ATOM      8  C   UNL     1      52.950   2.438  19.593  1.00  0.00     0.041 C 
ATOM      9  O   UNL     1      54.001   3.073  19.876  1.00  0.00    -0.550 OA
ATOM     10  O   UNL     1      53.003   1.060  19.421  1.00  0.00    -0.550 OA
ENDBRANCH   7   8
ENDBRANCH   6   7
ENDBRANCH   5   6
ENDBRANCH   4   5
ENDBRANCH   3   4
ENDBRANCH   2   3
ENDBRANCH   1   2
BRANCH   1  11
ATOM     11  C   UNL     1      47.081  -0.111  21.980  1.00  0.00     0.000 C 
BRANCH  11  12
ATOM     12  C   UNL     1      47.583   0.421  20.629  1.00  0.00     0.000 C 
BRANCH  12  13
ATOM     13  C   UNL     1      46.648   1.514  20.087  1.00  0.00     0.000 C 
BRANCH  13  14
ATOM     14  C   UNL     1      46.951   2.897  20.683  1.00  0.00     0.000 C 
BRANCH  14  15
ATOM     15  C   UNL     1      45.694   3.773  20.818  1.00  0.00     0.000 C 
BRANCH  15  16
ATOM     16  C   UNL     1      44.404   2.941  20.894  1.00  0.00     0.006 C 
BRANCH  16  17
ATOM     17  C   UNL     1      44.052   2.537  22.333  1.00  0.00     0.053 C 
BRANCH  17  18
ATOM     18  C   UNL     1      43.320   1.232  22.351  1.00  0.00     0.041 C 
ATOM     19  O   UNL     1      43.133   0.594  21.281  1.00  0.00    -0.550 OA
ATOM     20  O   UNL     1      42.875   0.703  23.557  1.00  0.00    -0.550 OA
ENDBRANCH  17  18
ENDBRANCH  16  17
ENDBRANCH  15  16
ENDBRANCH  14  15
ENDBRANCH  13  14
ENDBRANCH  12  13
ENDBRANCH  11  12
ENDBRANCH   1  11
TORSDOF 15
ENDMDL
MODEL 6
REMARK VINA RESULT:    -4.211      4.298      6.108
REMARK INTER + INTRA:          -9.589
REMARK INTER:                  -7.669
REMARK INTRA:                  -1.920
REMARK UNBOUND:                -1.686
REMARK SMILES O=C([O-])CCCCCCCCCCCCCCC(=O)[O-]
REMARK SMILES IDX 10 1 9 2 8 3 7 4 6 5 5 6 4 7 2 8 1 9 3 10 11 11 12 12 13 13
REMARK SMILES IDX 14 14 15 15 16 16 17 17 18 18 19 19 20 20
REMARK H PARENT
REMARK Flexibility Score: inf
ROOT
ATOM      1  C   UNL     1      43.310   2.223  20.950  1.00  0.00     0.000 C 
ENDROOT
BRANCH   1   2
ATOM      2  C   UNL     1      43.356   0.876  21.692  1.00  0.00     0.000 C 
BRANCH   2   3
ATOM      3  C   UNL     1      44.303   0.903  22.902  1.00  0.00     0.000 C 
BRANCH   3   4
ATOM      4  C   UNL     1      45.331  -0.241  22.875  1.00  0.00     0.000 C 
BRANCH   4   5
ATOM      5  C   UNL     1      46.781   0.253  23.020  1.00  0.00     0.000 C 
BRANCH   5   6
ATOM      6  C   UNL     1      47.786  -0.495  22.117  1.00  0.00     0.006 C 
BRANCH   6   7
ATOM      7  C   UNL     1      49.225  -0.413  22.646  1.00  0.00     0.053 C 
BRANCH   7   8
ATOM      8  C   UNL     1      49.977  -1.664  22.315  1.00  0.00     0.041 C 
ATOM      9  O   UNL     1      49.360  -2.746  22.129  1.00  0.00    -0.550 OA
ATOM     10  O   UNL     1      51.365  -1.644  22.251  1.00  0.00    -0.550 OA
ENDBRANCH   7   8
ENDBRANCH   6   7
ENDBRANCH   5   6
ENDBRANCH   4   5
ENDBRANCH   3   4
ENDBRANCH   2   3
ENDBRANCH   1   2
BRANCH   1  11
ATOM     11  C   UNL     1      44.497   3.134  21.301  1.00  0.00     0.000 C 
BRANCH  11  12
ATOM     12  C   UNL     1      45.455   3.350  20.119  1.00  0.00     0.000 C 
BRANCH  12  13
ATOM     13  C   UNL     1      46.876   2.883  20.471  1.00  0.00     0.000 C 
BRANCH  13  14
ATOM     14  C   UNL     1      47.554   3.789  21.510  1.00  0.00     0.000 C 
BRANCH  14  15
ATOM     15  C   UNL     1      49.059   3.502  21.654  1.00  0.00     0.000 C 
BRANCH  15  16
ATOM     16  C   UNL     1      49.597   2.608  20.526  1.00  0.00     0.006 C 
BRANCH  16  17
ATOM     17  C   UNL     1      50.874   3.174  19.889  1.00  0.00     0.053 C 
BRANCH  17  18
ATOM     18  C   UNL     1      52.065   2.355  20.275  1.00  0.00     0.041 C 
ATOM     19  O   UNL     1      51.971   1.488  21.185  1.00  0.00    -0.550 OA
ATOM     20  O   UNL     1      53.271   2.525  19.606  1.00  0.00    -0.550 OA
ENDBRANCH  17  18
ENDBRANCH  16  17
ENDBRANCH  15  16
ENDBRANCH  14  15
ENDBRANCH  13  14
ENDBRANCH  12  13
ENDBRANCH  11  12
ENDBRANCH   1  11
TORSDOF 15
ENDMDL
MODEL 7
REMARK VINA RESULT:    -4.195      3.525      5.627
REMARK INTER + INTRA:          -9.560
REMARK INTER:                  -7.221
REMARK INTRA:                  -2.339
REMARK UNBOUND:                -1.686
REMARK SMILES O=C([O-])CCCCCCCCCCCCCCC(=O)[O-]
REMARK SMILES IDX 10 1 9 2 8 3 7 4 6 5 5 6 4 7 2 8 1 9 3 10 11 11 12 12 13 13
REMARK SMILES IDX 14 14 15 15 16 16 17 17 18 18 19 19 20 20
REMARK H PARENT
REMARK Flexibility Score: inf
ROOT
ATOM      1  C   UNL     1      46.192   3.711  22.394  1.00  0.00     0.000 C 
ENDROOT
BRANCH   1   2
ATOM      2  C   UNL     1      46.826   3.680  20.993  1.00  0.00     0.000 C 
BRANCH   2   3
ATOM      3  C   UNL     1      46.620   2.332  20.283  1.00  0.00     0.000 C 
BRANCH   3   4
ATOM      4  C   UNL     1      47.754   1.334  20.568  1.00  0.00     0.000 C 
BRANCH   4   5
ATOM      5  C   UNL     1      47.293   0.123  21.398  1.00  0.00     0.000 C 
BRANCH   5   6
ATOM      6  C   UNL     1      47.987   0.010  22.772  1.00  0.00     0.006 C 
BRANCH   6   7
ATOM      7  C   UNL     1      49.306  -0.775  22.702  1.00  0.00     0.053 C 
BRANCH   7   8
ATOM      8  C   UNL     1      49.048  -2.244  22.811  1.00  0.00     0.041 C 
ATOM      9  O   UNL     1      49.321  -3.010  21.849  1.00  0.00    -0.550 OA
ATOM     10  O   UNL     1      48.469  -2.765  23.962  1.00  0.00    -0.550 OA
ENDBRANCH   7   8
ENDBRANCH   6   7
ENDBRANCH   5   6
ENDBRANCH   4   5
ENDBRANCH   3   4
ENDBRANCH   2   3
ENDBRANCH   1   2
BRANCH   1  11
ATOM     11  C   UNL     1      47.238   3.819  23.516  1.00  0.00     0.000 C 
BRANCH  11  12
ATOM     12  C   UNL     1      48.651   4.112  22.990  1.00  0.00     0.000 C 
BRANCH  12  13
ATOM     13  C   UNL     1      49.640   3.022  23.431  1.00  0.00     0.000 C 
BRANCH  13  14
ATOM     14  C   UNL     1      50.766   2.800  22.411  1.00  0.00     0.000 C 
BRANCH  14  15
ATOM     15  C   UNL     1      50.588   3.643  21.137  1.00  0.00     0.000 C 
BRANCH  15  16
ATOM     16  C   UNL     1      50.804   2.823  19.855  1.00  0.00     0.006 C 
BRANCH  16  17
ATOM     17  C   UNL     1      52.101   3.202  19.127  1.00  0.00     0.053 C 
BRANCH  17  18
ATOM     18  C   UNL     1      53.245   2.373  19.620  1.00  0.00     0.041 C 
ATOM     19  O   UNL     1      53.169   1.116  19.607  1.00  0.00    -0.550 OA
ATOM     20  O   UNL     1      54.410   2.990  20.061  1.00  0.00    -0.550 OA
ENDBRANCH  17  18
ENDBRANCH  16  17
ENDBRANCH  15  16
ENDBRANCH  14  15
ENDBRANCH  13  14
ENDBRANCH  12  13
ENDBRANCH  11  12
ENDBRANCH   1  11
TORSDOF 15
ENDMDL
MODEL 8
REMARK VINA RESULT:    -4.174      4.969      6.490
REMARK INTER + INTRA:          -9.520
REMARK INTER:                  -7.487
REMARK INTRA:                  -2.032
REMARK UNBOUND:                -1.686
REMARK SMILES O=C([O-])CCCCCCCCCCCCCCC(=O)[O-]
REMARK SMILES IDX 10 1 9 2 8 3 7 4 6 5 5 6 4 7 2 8 1 9 3 10 11 11 12 12 13 13
REMARK SMILES IDX 14 14 15 15 16 16 17 17 18 18 19 19 20 20
REMARK H PARENT
REMARK Flexibility Score: inf
ROOT
ATOM      1  C   UNL     1      43.053   1.254  21.313  1.00  0.00     0.000 C 
ENDROOT
BRANCH   1   2
ATOM      2  C   UNL     1      43.004  -0.034  22.153  1.00  0.00     0.000 C 
BRANCH   2   3
ATOM      3  C   UNL     1      44.033  -0.032  23.294  1.00  0.00     0.000 C 
BRANCH   3   4
ATOM      4  C   UNL     1      45.444  -0.421  22.820  1.00  0.00     0.000 C 
BRANCH   4   5
ATOM      5  C   UNL     1      46.559   0.213  23.671  1.00  0.00     0.000 C 
BRANCH   5   6
ATOM      6  C   UNL     1      47.677  -0.775  24.065  1.00  0.00     0.006 C 
BRANCH   6   7
ATOM      7  C   UNL     1      47.892  -1.871  23.012  1.00  0.00     0.053 C 
BRANCH   7   8
ATOM      8  C   UNL     1      49.303  -1.852  22.515  1.00  0.00     0.041 C 
ATOM      9  O   UNL     1      49.808  -2.884  21.996  1.00  0.00    -0.550 OA
ATOM     10  O   UNL     1      50.076  -0.707  22.660  1.00  0.00    -0.550 OA
ENDBRANCH   7   8
ENDBRANCH   6   7
ENDBRANCH   5   6
ENDBRANCH   4   5
ENDBRANCH   3   4
ENDBRANCH   2   3
ENDBRANCH   1   2
BRANCH   1  11
ATOM     11  C   UNL     1      43.416   2.493  22.148  1.00  0.00     0.000 C 
BRANCH  11  12
ATOM     12  C   UNL     1      43.721   3.727  21.286  1.00  0.00     0.000 C 
BRANCH  12  13
ATOM     13  C   UNL     1      44.764   3.400  20.207  1.00  0.00     0.000 C 
BRANCH  13  14
ATOM     14  C   UNL     1      46.122   2.996  20.801  1.00  0.00     0.000 C 
BRANCH  14  15
ATOM     15  C   UNL     1      46.754   1.797  20.074  1.00  0.00     0.000 C 
BRANCH  15  16
ATOM     16  C   UNL     1      48.141   1.438  20.631  1.00  0.00     0.006 C 
BRANCH  16  17
ATOM     17  C   UNL     1      48.690   2.515  21.577  1.00  0.00     0.053 C 
BRANCH  17  18
ATOM     18  C   UNL     1      49.707   3.362  20.880  1.00  0.00     0.041 C 
ATOM     19  O   UNL     1      50.531   2.838  20.083  1.00  0.00    -0.550 OA
ATOM     20  O   UNL     1      49.724   4.736  21.084  1.00  0.00    -0.550 OA
ENDBRANCH  17  18
ENDBRANCH  16  17
ENDBRANCH  15  16
ENDBRANCH  14  15
ENDBRANCH  13  14
ENDBRANCH  12  13
ENDBRANCH  11  12
ENDBRANCH   1  11
TORSDOF 15
ENDMDL
MODEL 9
REMARK VINA RESULT:    -4.133      1.661      5.568
REMARK INTER + INTRA:          -9.444
REMARK INTER:                  -7.483
REMARK INTRA:                  -1.961
REMARK UNBOUND:                -1.686
REMARK SMILES O=C([O-])CCCCCCCCCCCCCCC(=O)[O-]
REMARK SMILES IDX 10 1 9 2 8 3 7 4 6 5 5 6 4 7 2 8 1 9 3 10 11 11 12 12 13 13
REMARK SMILES IDX 14 14 15 15 16 16 17 17 18 18 19 19 20 20
REMARK H PARENT
REMARK Flexibility Score: inf
ROOT
ATOM      1  C   UNL     1      48.897   4.050  25.682  1.00  0.00     0.000 C 
ENDROOT
BRANCH   1   2
ATOM      2  C   UNL     1      49.015   5.581  25.596  1.00  0.00     0.000 C 
BRANCH   2   3
ATOM      3  C   UNL     1      50.389   6.038  25.080  1.00  0.00     0.000 C 
BRANCH   3   4
ATOM      4  C   UNL     1      50.368   7.477  24.537  1.00  0.00     0.000 C 
BRANCH   4   5
ATOM      5  C   UNL     1      49.211   7.730  23.554  1.00  0.00     0.000 C 
BRANCH   5   6
ATOM      6  C   UNL     1      49.526   7.314  22.102  1.00  0.00     0.006 C 
BRANCH   6   7
ATOM      7  C   UNL     1      48.259   7.149  21.250  1.00  0.00     0.053 C 
BRANCH   7   8
ATOM      8  C   UNL     1      48.188   8.217  20.204  1.00  0.00     0.041 C 
ATOM      9  O   UNL     1      49.235   8.807  19.827  1.00  0.00    -0.550 OA
ATOM     10  O   UNL     1      46.959   8.590  19.673  1.00  0.00    -0.550 OA
ENDBRANCH   7   8
ENDBRANCH   6   7
ENDBRANCH   5   6
ENDBRANCH   4   5
ENDBRANCH   3   4
ENDBRANCH   2   3
ENDBRANCH   1   2
BRANCH   1  11
ATOM     11  C   UNL     1      47.662   3.508  24.945  1.00  0.00     0.000 C 
BRANCH  11  12
ATOM     12  C   UNL     1      47.366   4.261  23.639  1.00  0.00     0.000 C 
BRANCH  12  13
ATOM     13  C   UNL     1      47.853   3.462  22.421  1.00  0.00     0.000 C 
BRANCH  13  14
ATOM     14  C   UNL     1      49.325   3.741  22.082  1.00  0.00     0.000 C 
BRANCH  14  15
ATOM     15  C   UNL     1      50.234   2.529  22.347  1.00  0.00     0.000 C 
BRANCH  15  16
ATOM     16  C   UNL     1      51.230   2.281  21.203  1.00  0.00     0.006 C 
BRANCH  16  17
ATOM     17  C   UNL     1      50.809   2.974  19.899  1.00  0.00     0.053 C 
BRANCH  17  18
ATOM     18  C   UNL     1      52.004   3.511  19.177  1.00  0.00     0.041 C 
ATOM     19  O   UNL     1      51.876   4.455  18.353  1.00  0.00    -0.550 OA
ATOM     20  O   UNL     1      53.266   2.992  19.440  1.00  0.00    -0.550 OA
ENDBRANCH  17  18
ENDBRANCH  16  17
ENDBRANCH  15  16
ENDBRANCH  14  15
ENDBRANCH  13  14
ENDBRANCH  12  13
ENDBRANCH  11  12
ENDBRANCH   1  11
TORSDOF 15
ENDMDL
