MODEL 1
REMARK VINA RESULT:    -3.501      0.000      0.000
REMARK INTER + INTRA:          -8.980
REMARK INTER:                  -8.004
REMARK INTRA:                  -0.976
REMARK UNBOUND:                -0.976
REMARK SMILES CCCCCCCCCCCCCCCCCCCCCCCC(=O)[O-]
REMARK SMILES IDX 13 1 14 2 15 3 16 4 17 5 18 6 19 7 20 8 21 9 22 10 23 11
REMARK SMILES IDX 24 12 25 13 26 14 12 15 11 16 10 17 9 18 8 19 7 20 6 21 5 22
REMARK SMILES IDX 4 23 3 24 2 25 1 26
REMARK H PARENT
REMARK Flexibility Score: inf
ROOT
ATOM      1  C   UNL     1      17.103  23.094   5.663  1.00  0.00     0.000 C 
ENDROOT
BRANCH   1   2
ATOM      2  C   UNL     1      18.125  23.038   4.512  1.00  0.00     0.000 C 
BRANCH   2   3
ATOM      3  C   UNL     1      18.893  24.350   4.252  1.00  0.00     0.000 C 
BRANCH   3   4
ATOM      4  C   UNL     1      20.341  24.119   3.789  1.00  0.00     0.000 C 
BRANCH   4   5
ATOM      5  C   UNL     1      20.507  24.240   2.263  1.00  0.00     0.000 C 
BRANCH   5   6
ATOM      6  C   UNL     1      19.247  24.693   1.498  1.00  0.00     0.000 C 
BRANCH   6   7
ATOM      7  C   UNL     1      18.922  26.193   1.606  1.00  0.00     0.000 C 
BRANCH   7   8
ATOM      8  C   UNL     1      18.460  26.801   0.272  1.00  0.00     0.000 C 
BRANCH   8   9
ATOM      9  C   UNL     1      18.902  25.929  -0.912  1.00  0.00     0.000 C 
BRANCH   9  10
ATOM     10  C   UNL     1      17.723  25.277  -1.654  1.00  0.00     0.006 C 
BRANCH  10  11
ATOM     11  C   UNL     1      16.340  25.698  -1.124  1.00  0.00     0.053 C 
BRANCH  11  12
ATOM     12  C   UNL     1      15.213  25.131  -1.934  1.00  0.00     0.041 C 
ATOM     13  O   UNL     1      14.365  24.368  -1.398  1.00  0.00    -0.550 OA
ATOM     14  O   UNL     1      15.120  25.413  -3.290  1.00  0.00    -0.550 OA
ENDBRANCH  11  12
ENDBRANCH  10  11
ENDBRANCH   9  10
ENDBRANCH   8   9
ENDBRANCH   7   8
ENDBRANCH   6   7
ENDBRANCH   5   6
ENDBRANCH   4   5
ENDBRANCH   3   4
ENDBRANCH   2   3
ENDBRANCH   1   2
BRANCH   1  15
ATOM     15  C   UNL     1      16.195  21.856   5.717  1.00  0.00     0.000 C 
BRANCH  15  16
ATOM     16  C   UNL     1      16.005  21.312   7.145  1.00  0.00     0.000 C 
BRANCH  16  17
ATOM     17  C   UNL     1      17.299  21.184   7.971  1.00  0.00     0.000 C 
BRANCH  17  18
ATOM     18  C   UNL     1      17.286  21.889   9.341  1.00  0.00    -0.000 C 
BRANCH  18  19
ATOM     19  C   UNL     1      16.339  21.245  10.376  1.00  0.00    -0.000 C 
BRANCH  19  20
ATOM     20  C   UNL     1      15.577  22.287  11.218  1.00  0.00    -0.000 C 
BRANCH  20  21
ATOM     21  C   UNL     1      16.356  22.701  12.481  1.00  0.00    -0.000 C 
BRANCH  21  22
ATOM     22  C   UNL     1      16.490  24.225  12.651  1.00  0.00    -0.000 C 
BRANCH  22  23
ATOM     23  C   UNL     1      17.360  24.864  11.552  1.00  0.00    -0.000 C 
BRANCH  23  24
ATOM     24  C   UNL     1      18.599  24.020  11.216  1.00  0.00    -0.000 C 
BRANCH  24  25
ATOM     25  C   UNL     1      19.632  24.798  10.388  1.00  0.00    -0.003 C 
ATOM     26  C   UNL     1      21.054  24.377  10.747  1.00  0.00     0.004 C 
ENDBRANCH  24  25
ENDBRANCH  23  24
ENDBRANCH  22  23
ENDBRANCH  21  22
ENDBRANCH  20  21
ENDBRANCH  19  20
ENDBRANCH  18  19
ENDBRANCH  17  18
ENDBRANCH  16  17
ENDBRANCH  15  16
ENDBRANCH   1  15
TORSDOF 22
ENDMDL
MODEL 2
REMARK VINA RESULT:    -3.332      4.687     11.183
REMARK INTER + INTRA:          -8.592
REMARK INTER:                  -7.103
REMARK INTRA:                  -1.490
REMARK UNBOUND:                -0.976
REMARK SMILES CCCCCCCCCCCCCCCCCCCCCCCC(=O)[O-]
REMARK SMILES IDX 13 1 14 2 15 3 16 4 17 5 18 6 19 7 20 8 21 9 22 10 23 11
REMARK SMILES IDX 24 12 25 13 26 14 12 15 11 16 10 17 9 18 8 19 7 20 6 21 5 22
REMARK SMILES IDX 4 23 3 24 2 25 1 26
REMARK H PARENT
REMARK Flexibility Score: inf
ROOT
ATOM      1  C   UNL     1      15.869  22.097   5.286  1.00  0.00     0.000 C 
ENDROOT
BRANCH   1   2
ATOM      2  C   UNL     1      15.583  21.182   6.491  1.00  0.00     0.000 C 
BRANCH   2   3
ATOM      3  C   UNL     1      16.789  20.915   7.414  1.00  0.00     0.000 C 
BRANCH   3   4
ATOM      4  C   UNL     1      16.533  21.324   8.875  1.00  0.00     0.000 C 
BRANCH   4   5
ATOM      5  C   UNL     1      17.799  21.843   9.581  1.00  0.00     0.000 C 
BRANCH   5   6
ATOM      6  C   UNL     1      18.498  23.030   8.889  1.00  0.00     0.000 C 
BRANCH   6   7
ATOM      7  C   UNL     1      19.365  23.905   9.812  1.00  0.00     0.000 C 
BRANCH   7   8
ATOM      8  C   UNL     1      18.822  23.977  11.247  1.00  0.00     0.000 C 
BRANCH   8   9
ATOM      9  C   UNL     1      17.442  24.648  11.281  1.00  0.00     0.000 C 
BRANCH   9  10
ATOM     10  C   UNL     1      16.394  23.833  12.060  1.00  0.00     0.006 C 
BRANCH  10  11
ATOM     11  C   UNL     1      16.852  23.410  13.468  1.00  0.00     0.053 C 
BRANCH  11  12
ATOM     12  C   UNL     1      16.562  24.449  14.508  1.00  0.00     0.041 C 
ATOM     13  O   UNL     1      15.941  25.501  14.201  1.00  0.00    -0.550 OA
ATOM     14  O   UNL     1      17.012  24.273  15.810  1.00  0.00    -0.550 OA
ENDBRANCH  11  12
ENDBRANCH  10  11
ENDBRANCH   9  10
ENDBRANCH   8   9
ENDBRANCH   7   8
ENDBRANCH   6   7
ENDBRANCH   5   6
ENDBRANCH   4   5
ENDBRANCH   3   4
ENDBRANCH   2   3
ENDBRANCH   1   2
BRANCH   1  15
ATOM     15  C   UNL     1      17.061  23.038   5.519  1.00  0.00     0.000 C 
BRANCH  15  16
ATOM     16  C   UNL     1      18.003  23.127   4.305  1.00  0.00     0.000 C 
BRANCH  16  17
ATOM     17  C   UNL     1      19.033  24.272   4.361  1.00  0.00     0.000 C 
BRANCH  17  18
ATOM     18  C   UNL     1      20.037  24.321   3.193  1.00  0.00    -0.000 C 
BRANCH  18  19
ATOM     19  C   UNL     1      19.413  24.708   1.836  1.00  0.00    -0.000 C 
BRANCH  19  20
ATOM     20  C   UNL     1      18.974  26.183   1.779  1.00  0.00    -0.000 C 
BRANCH  20  21
ATOM     21  C   UNL     1      18.625  26.634   0.348  1.00  0.00    -0.000 C 
BRANCH  21  22
ATOM     22  C   UNL     1      18.945  25.580  -0.728  1.00  0.00    -0.000 C 
BRANCH  22  23
ATOM     23  C   UNL     1      17.725  25.247  -1.605  1.00  0.00    -0.000 C 
BRANCH  23  24
ATOM     24  C   UNL     1      16.400  25.691  -0.965  1.00  0.00    -0.000 C 
BRANCH  24  25
ATOM     25  C   UNL     1      15.177  25.068  -1.655  1.00  0.00    -0.003 C 
ATOM     26  C   UNL     1      15.132  25.444  -3.133  1.00  0.00     0.004 C 
ENDBRANCH  24  25
ENDBRANCH  23  24
ENDBRANCH  22  23
ENDBRANCH  21  22
ENDBRANCH  20  21
ENDBRANCH  19  20
ENDBRANCH  18  19
ENDBRANCH  17  18
ENDBRANCH  16  17
ENDBRANCH  15  16
ENDBRANCH   1  15
TORSDOF 22
ENDMDL
MODEL 3
REMARK VINA RESULT:    -3.184      4.546      9.219
REMARK INTER + INTRA:          -8.255
REMARK INTER:                  -6.987
REMARK INTRA:                  -1.268
REMARK UNBOUND:                -0.976
REMARK SMILES CCCCCCCCCCCCCCCCCCCCCCCC(=O)[O-]
REMARK SMILES IDX 13 1 14 2 15 3 16 4 17 5 18 6 19 7 20 8 21 9 22 10 23 11
REMARK SMILES IDX 24 12 25 13 26 14 12 15 11 16 10 17 9 18 8 19 7 20 6 21 5 22
REMARK SMILES IDX 4 23 3 24 2 25 1 26
REMARK H PARENT
REMARK Flexibility Score: inf
ROOT
ATOM      1  C   UNL     1      15.941  21.747   5.953  1.00  0.00     0.000 C 
ENDROOT
BRANCH   1   2
ATOM      2  C   UNL     1      14.407  21.788   5.815  1.00  0.00     0.000 C 
BRANCH   2   3
ATOM      3  C   UNL     1      13.884  22.302   4.459  1.00  0.00     0.000 C 
BRANCH   3   4
ATOM      4  C   UNL     1      12.946  23.513   4.594  1.00  0.00     0.000 C 
BRANCH   4   5
ATOM      5  C   UNL     1      11.784  23.485   3.584  1.00  0.00     0.000 C 
BRANCH   5   6
ATOM      6  C   UNL     1      11.707  22.221   2.706  1.00  0.00     0.000 C 
BRANCH   6   7
ATOM      7  C   UNL     1      11.010  22.411   1.347  1.00  0.00     0.000 C 
BRANCH   7   8
ATOM      8  C   UNL     1       9.851  21.426   1.128  1.00  0.00     0.000 C 
BRANCH   8   9
ATOM      9  C   UNL     1       9.048  21.791  -0.128  1.00  0.00     0.000 C 
BRANCH   9  10
ATOM     10  C   UNL     1       9.090  20.699  -1.210  1.00  0.00     0.006 C 
BRANCH  10  11
ATOM     11  C   UNL     1       9.036  19.265  -0.653  1.00  0.00     0.053 C 
BRANCH  11  12
ATOM     12  C   UNL     1      10.262  18.467  -0.985  1.00  0.00     0.041 C 
ATOM     13  O   UNL     1      10.407  17.972  -2.134  1.00  0.00    -0.550 OA
ATOM     14  O   UNL     1      11.226  18.238  -0.012  1.00  0.00    -0.550 OA
ENDBRANCH  11  12
ENDBRANCH  10  11
ENDBRANCH   9  10
ENDBRANCH   8   9
ENDBRANCH   7   8
ENDBRANCH   6   7
ENDBRANCH   5   6
ENDBRANCH   4   5
ENDBRANCH   3   4
ENDBRANCH   2   3
ENDBRANCH   1   2
BRANCH   1  15
ATOM     15  C   UNL     1      16.656  22.670   4.954  1.00  0.00     0.000 C 
BRANCH  15  16
ATOM     16  C   UNL     1      17.701  23.583   5.621  1.00  0.00     0.000 C 
BRANCH  16  17
ATOM     17  C   UNL     1      18.518  24.458   4.650  1.00  0.00     0.000 C 
BRANCH  17  18
ATOM     18  C   UNL     1      19.698  23.754   3.953  1.00  0.00    -0.000 C 
BRANCH  18  19
ATOM     19  C   UNL     1      20.138  24.417   2.630  1.00  0.00    -0.000 C 
BRANCH  19  20
ATOM     20  C   UNL     1      19.184  25.536   2.175  1.00  0.00    -0.000 C 
BRANCH  20  21
ATOM     21  C   UNL     1      19.200  25.734   0.648  1.00  0.00    -0.000 C 
BRANCH  21  22
ATOM     22  C   UNL     1      18.396  26.960   0.175  1.00  0.00    -0.000 C 
BRANCH  22  23
ATOM     23  C   UNL     1      17.027  26.572  -0.411  1.00  0.00    -0.000 C 
BRANCH  23  24
ATOM     24  C   UNL     1      17.136  25.496  -1.502  1.00  0.00    -0.000 C 
BRANCH  24  25
ATOM     25  C   UNL     1      15.882  25.427  -2.386  1.00  0.00    -0.003 C 
ATOM     26  C   UNL     1      14.728  24.753  -1.650  1.00  0.00     0.004 C 
ENDBRANCH  24  25
ENDBRANCH  23  24
ENDBRANCH  22  23
ENDBRANCH  21  22
ENDBRANCH  20  21
ENDBRANCH  19  20
ENDBRANCH  18  19
ENDBRANCH  17  18
ENDBRANCH  16  17
ENDBRANCH  15  16
ENDBRANCH   1  15
TORSDOF 22
ENDMDL
MODEL 4
REMARK VINA RESULT:    -3.117      4.034      7.781
REMARK INTER + INTRA:          -8.103
REMARK INTER:                  -6.840
REMARK INTRA:                  -1.263
REMARK UNBOUND:                -0.976
REMARK SMILES CCCCCCCCCCCCCCCCCCCCCCCC(=O)[O-]
REMARK SMILES IDX 13 1 14 2 15 3 16 4 17 5 18 6 19 7 20 8 21 9 22 10 23 11
REMARK SMILES IDX 24 12 25 13 26 14 12 15 11 16 10 17 9 18 8 19 7 20 6 21 5 22
REMARK SMILES IDX 4 23 3 24 2 25 1 26
REMARK H PARENT
REMARK Flexibility Score: inf
ROOT
ATOM      1  C   UNL     1      16.702  22.751   4.917  1.00  0.00     0.000 C 
ENDROOT
BRANCH   1   2
ATOM      2  C   UNL     1      17.861  23.563   5.524  1.00  0.00     0.000 C 
BRANCH   2   3
ATOM      3  C   UNL     1      18.592  24.499   4.541  1.00  0.00     0.000 C 
BRANCH   3   4
ATOM      4  C   UNL     1      19.943  23.937   4.066  1.00  0.00     0.000 C 
BRANCH   4   5
ATOM      5  C   UNL     1      20.267  24.314   2.609  1.00  0.00     0.000 C 
BRANCH   5   6
ATOM      6  C   UNL     1      19.050  24.400   1.666  1.00  0.00     0.000 C 
BRANCH   6   7
ATOM      7  C   UNL     1      19.257  25.267   0.411  1.00  0.00     0.000 C 
BRANCH   7   8
ATOM      8  C   UNL     1      18.774  26.713   0.599  1.00  0.00     0.000 C 
BRANCH   8   9
ATOM      9  C   UNL     1      17.608  27.032  -0.347  1.00  0.00     0.000 C 
BRANCH   9  10
ATOM     10  C   UNL     1      17.435  25.988  -1.464  1.00  0.00     0.006 C 
BRANCH  10  11
ATOM     11  C   UNL     1      16.399  24.895  -1.142  1.00  0.00     0.053 C 
BRANCH  11  12
ATOM     12  C   UNL     1      15.166  24.997  -1.989  1.00  0.00     0.041 C 
ATOM     13  O   UNL     1      14.046  24.655  -1.526  1.00  0.00    -0.550 OA
ATOM     14  O   UNL     1      15.261  25.435  -3.304  1.00  0.00    -0.550 OA
ENDBRANCH  11  12
ENDBRANCH  10  11
ENDBRANCH   9  10
ENDBRANCH   8   9
ENDBRANCH   7   8
ENDBRANCH   6   7
ENDBRANCH   5   6
ENDBRANCH   4   5
ENDBRANCH   3   4
ENDBRANCH   2   3
ENDBRANCH   1   2
BRANCH   1  15
ATOM     15  C   UNL     1      16.037  21.808   5.932  1.00  0.00     0.000 C 
BRANCH  15  16
ATOM     16  C   UNL     1      14.505  21.754   5.788  1.00  0.00     0.000 C 
BRANCH  16  17
ATOM     17  C   UNL     1      13.952  22.348   4.478  1.00  0.00     0.000 C 
BRANCH  17  18
ATOM     18  C   UNL     1      12.988  23.538   4.642  1.00  0.00    -0.000 C 
BRANCH  18  19
ATOM     19  C   UNL     1      11.772  23.505   3.691  1.00  0.00    -0.000 C 
BRANCH  19  20
ATOM     20  C   UNL     1      11.640  22.169   2.936  1.00  0.00    -0.000 C 
BRANCH  20  21
ATOM     21  C   UNL     1      11.208  22.366   1.471  1.00  0.00    -0.000 C 
BRANCH  21  22
ATOM     22  C   UNL     1       9.734  22.004   1.208  1.00  0.00    -0.000 C 
BRANCH  22  23
ATOM     23  C   UNL     1       9.471  21.647  -0.266  1.00  0.00    -0.000 C 
BRANCH  23  24
ATOM     24  C   UNL     1       8.788  20.281  -0.429  1.00  0.00    -0.000 C 
BRANCH  24  25
ATOM     25  C   UNL     1       9.557  19.350  -1.379  1.00  0.00    -0.003 C 
ATOM     26  C   UNL     1      10.364  18.316  -0.599  1.00  0.00     0.004 C 
ENDBRANCH  24  25
ENDBRANCH  23  24
ENDBRANCH  22  23
ENDBRANCH  21  22
ENDBRANCH  20  21
ENDBRANCH  19  20
ENDBRANCH  18  19
ENDBRANCH  17  18
ENDBRANCH  16  17
ENDBRANCH  15  16
ENDBRANCH   1  15
TORSDOF 22
ENDMDL
MODEL 5
REMARK VINA RESULT:    -2.994      3.666     10.715
REMARK INTER + INTRA:          -7.821
REMARK INTER:                  -6.468
REMARK INTRA:                  -1.353
REMARK UNBOUND:                -0.976
REMARK SMILES CCCCCCCCCCCCCCCCCCCCCCCC(=O)[O-]
REMARK SMILES IDX 13 1 14 2 15 3 16 4 17 5 18 6 19 7 20 8 21 9 22 10 23 11
REMARK SMILES IDX 24 12 25 13 26 14 12 15 11 16 10 17 9 18 8 19 7 20 6 21 5 22
REMARK SMILES IDX 4 23 3 24 2 25 1 26
REMARK H PARENT
REMARK Flexibility Score: inf
ROOT
ATOM      1  C   UNL     1      16.880  22.170   5.032  1.00  0.00     0.000 C 
ENDROOT
BRANCH   1   2
ATOM      2  C   UNL     1      15.635  21.900   5.897  1.00  0.00     0.000 C 
BRANCH   2   3
ATOM      3  C   UNL     1      15.808  20.811   6.975  1.00  0.00     0.000 C 
BRANCH   3   4
ATOM      4  C   UNL     1      16.756  21.233   8.111  1.00  0.00     0.000 C 
BRANCH   4   5
ATOM      5  C   UNL     1      16.281  20.753   9.495  1.00  0.00     0.000 C 
BRANCH   5   6
ATOM      6  C   UNL     1      16.757  21.607  10.687  1.00  0.00     0.000 C 
BRANCH   6   7
ATOM      7  C   UNL     1      15.634  22.230  11.535  1.00  0.00     0.000 C 
BRANCH   7   8
ATOM      8  C   UNL     1      16.166  23.115  12.673  1.00  0.00     0.000 C 
BRANCH   8   9
ATOM      9  C   UNL     1      17.502  23.764  12.286  1.00  0.00     0.000 C 
BRANCH   9  10
ATOM     10  C   UNL     1      17.335  24.990  11.372  1.00  0.00     0.006 C 
BRANCH  10  11
ATOM     11  C   UNL     1      18.626  25.411  10.648  1.00  0.00     0.053 C 
BRANCH  11  12
ATOM     12  C   UNL     1      19.521  24.249  10.336  1.00  0.00     0.041 C 
ATOM     13  O   UNL     1      20.634  24.129  10.915  1.00  0.00    -0.550 OA
ATOM     14  O   UNL     1      19.142  23.318   9.377  1.00  0.00    -0.550 OA
ENDBRANCH  11  12
ENDBRANCH  10  11
ENDBRANCH   9  10
ENDBRANCH   8   9
ENDBRANCH   7   8
ENDBRANCH   6   7
ENDBRANCH   5   6
ENDBRANCH   4   5
ENDBRANCH   3   4
ENDBRANCH   2   3
ENDBRANCH   1   2
BRANCH   1  15
ATOM     15  C   UNL     1      17.537  23.525   5.336  1.00  0.00     0.000 C 
BRANCH  15  16
ATOM     16  C   UNL     1      18.751  23.820   4.436  1.00  0.00     0.000 C 
BRANCH  16  17
ATOM     17  C   UNL     1      18.999  25.313   4.143  1.00  0.00     0.000 C 
BRANCH  17  18
ATOM     18  C   UNL     1      19.453  25.642   2.709  1.00  0.00    -0.000 C 
BRANCH  18  19
ATOM     19  C   UNL     1      19.669  24.405   1.812  1.00  0.00    -0.000 C 
BRANCH  19  20
ATOM     20  C   UNL     1      18.536  24.203   0.789  1.00  0.00    -0.000 C 
BRANCH  20  21
ATOM     21  C   UNL     1      19.042  24.264  -0.665  1.00  0.00    -0.000 C 
BRANCH  21  22
ATOM     22  C   UNL     1      18.780  25.616  -1.353  1.00  0.00    -0.000 C 
BRANCH  22  23
ATOM     23  C   UNL     1      17.866  26.532  -0.519  1.00  0.00    -0.000 C 
BRANCH  23  24
ATOM     24  C   UNL     1      16.400  26.476  -0.975  1.00  0.00    -0.000 C 
BRANCH  24  25
ATOM     25  C   UNL     1      16.139  25.336  -1.972  1.00  0.00    -0.003 C 
ATOM     26  C   UNL     1      14.891  24.547  -1.588  1.00  0.00     0.004 C 
ENDBRANCH  24  25
ENDBRANCH  23  24
ENDBRANCH  22  23
ENDBRANCH  21  22
ENDBRANCH  20  21
ENDBRANCH  19  20
ENDBRANCH  18  19
ENDBRANCH  17  18
ENDBRANCH  16  17
ENDBRANCH  15  16
ENDBRANCH   1  15
TORSDOF 22
ENDMDL
MODEL 6
REMARK VINA RESULT:    -2.963      4.486      6.978
REMARK INTER + INTRA:          -7.750
REMARK INTER:                  -6.119
REMARK INTRA:                  -1.631
REMARK UNBOUND:                -0.976
REMARK SMILES CCCCCCCCCCCCCCCCCCCCCCCC(=O)[O-]
REMARK SMILES IDX 13 1 14 2 15 3 16 4 17 5 18 6 19 7 20 8 21 9 22 10 23 11
REMARK SMILES IDX 24 12 25 13 26 14 12 15 11 16 10 17 9 18 8 19 7 20 6 21 5 22
REMARK SMILES IDX 4 23 3 24 2 25 1 26
REMARK H PARENT
REMARK Flexibility Score: inf
ROOT
ATOM      1  C   UNL     1      19.629  24.813   1.713  1.00  0.00     0.000 C 
ENDROOT
BRANCH   1   2
ATOM      2  C   UNL     1      19.968  23.814   0.592  1.00  0.00     0.000 C 
BRANCH   2   3
ATOM      3  C   UNL     1      18.911  23.696  -0.524  1.00  0.00     0.000 C 
BRANCH   3   4
ATOM      4  C   UNL     1      17.477  23.940  -0.024  1.00  0.00     0.000 C 
BRANCH   4   5
ATOM      5  C   UNL     1      16.568  24.566  -1.098  1.00  0.00     0.000 C 
BRANCH   5   6
ATOM      6  C   UNL     1      16.944  26.000  -1.522  1.00  0.00     0.000 C 
BRANCH   6   7
ATOM      7  C   UNL     1      17.378  26.929  -0.373  1.00  0.00     0.000 C 
BRANCH   7   8
ATOM      8  C   UNL     1      18.877  27.264  -0.411  1.00  0.00     0.000 C 
BRANCH   8   9
ATOM      9  C   UNL     1      19.245  28.265   0.693  1.00  0.00     0.000 C 
BRANCH   9  10
ATOM     10  C   UNL     1      19.676  29.636   0.144  1.00  0.00     0.006 C 
BRANCH  10  11
ATOM     11  C   UNL     1      20.103  30.639   1.232  1.00  0.00     0.053 C 
BRANCH  11  12
ATOM     12  C   UNL     1      21.180  31.573   0.769  1.00  0.00     0.041 C 
ATOM     13  O   UNL     1      22.382  31.196   0.741  1.00  0.00    -0.550 OA
ATOM     14  O   UNL     1      20.861  32.875   0.404  1.00  0.00    -0.550 OA
ENDBRANCH  11  12
ENDBRANCH  10  11
ENDBRANCH   9  10
ENDBRANCH   8   9
ENDBRANCH   7   8
ENDBRANCH   6   7
ENDBRANCH   5   6
ENDBRANCH   4   5
ENDBRANCH   3   4
ENDBRANCH   2   3
ENDBRANCH   1   2
BRANCH   1  15
ATOM     15  C   UNL     1      20.387  24.527   3.019  1.00  0.00     0.000 C 
BRANCH  15  16
ATOM     16  C   UNL     1      19.586  23.650   3.999  1.00  0.00     0.000 C 
BRANCH  16  17
ATOM     17  C   UNL     1      18.576  24.411   4.879  1.00  0.00     0.000 C 
BRANCH  17  18
ATOM     18  C   UNL     1      17.678  23.533   5.771  1.00  0.00    -0.000 C 
BRANCH  18  19
ATOM     19  C   UNL     1      16.882  22.455   5.004  1.00  0.00    -0.000 C 
BRANCH  19  20
ATOM     20  C   UNL     1      16.170  21.460   5.940  1.00  0.00    -0.000 C 
BRANCH  20  21
ATOM     21  C   UNL     1      14.662  21.749   6.063  1.00  0.00    -0.000 C 
BRANCH  21  22
ATOM     22  C   UNL     1      14.005  22.176   4.738  1.00  0.00    -0.000 C 
BRANCH  22  23
ATOM     23  C   UNL     1      13.024  23.348   4.920  1.00  0.00    -0.000 C 
BRANCH  23  24
ATOM     24  C   UNL     1      12.249  23.674   3.634  1.00  0.00    -0.000 C 
BRANCH  24  25
ATOM     25  C   UNL     1      12.048  22.440   2.742  1.00  0.00    -0.003 C 
ATOM     26  C   UNL     1      10.596  22.322   2.287  1.00  0.00     0.004 C 
ENDBRANCH  24  25
ENDBRANCH  23  24
ENDBRANCH  22  23
ENDBRANCH  21  22
ENDBRANCH  20  21
ENDBRANCH  19  20
ENDBRANCH  18  19
ENDBRANCH  17  18
ENDBRANCH  16  17
ENDBRANCH  15  16
ENDBRANCH   1  15
TORSDOF 22
ENDMDL
MODEL 7
REMARK VINA RESULT:    -2.467      9.871     13.771
REMARK INTER + INTRA:          -6.616
REMARK INTER:                  -5.412
REMARK INTRA:                  -1.204
REMARK UNBOUND:                -0.976
REMARK SMILES CCCCCCCCCCCCCCCCCCCCCCCC(=O)[O-]
REMARK SMILES IDX 13 1 14 2 15 3 16 4 17 5 18 6 19 7 20 8 21 9 22 10 23 11
REMARK SMILES IDX 24 12 25 13 26 14 12 15 11 16 10 17 9 18 8 19 7 20 6 21 5 22
REMARK SMILES IDX 4 23 3 24 2 25 1 26
REMARK H PARENT
REMARK Flexibility Score: inf
ROOT
ATOM      1  C   UNL     1      19.429  33.982  11.887  1.00  0.00     0.000 C 
ENDROOT
BRANCH   1   2
ATOM      2  C   UNL     1      20.803  34.673  11.820  1.00  0.00     0.000 C 
BRANCH   2   3
ATOM      3  C   UNL     1      21.547  34.788  13.165  1.00  0.00     0.000 C 
BRANCH   3   4
ATOM      4  C   UNL     1      20.777  34.152  14.335  1.00  0.00     0.000 C 
BRANCH   4   5
ATOM      5  C   UNL     1      21.420  32.845  14.833  1.00  0.00     0.000 C 
BRANCH   5   6
ATOM      6  C   UNL     1      22.961  32.850  14.889  1.00  0.00     0.000 C 
BRANCH   6   7
ATOM      7  C   UNL     1      23.579  33.947  15.774  1.00  0.00     0.000 C 
BRANCH   7   8
ATOM      8  C   UNL     1      24.996  34.344  15.329  1.00  0.00     0.000 C 
BRANCH   8   9
ATOM      9  C   UNL     1      24.950  35.465  14.282  1.00  0.00     0.000 C 
BRANCH   9  10
ATOM     10  C   UNL     1      26.331  35.791  13.686  1.00  0.00     0.006 C 
BRANCH  10  11
ATOM     11  C   UNL     1      27.125  34.552  13.234  1.00  0.00     0.053 C 
BRANCH  11  12
ATOM     12  C   UNL     1      26.780  34.120  11.840  1.00  0.00     0.041 C 
ATOM     13  O   UNL     1      26.330  32.964  11.625  1.00  0.00    -0.550 OA
ATOM     14  O   UNL     1      26.993  34.983  10.773  1.00  0.00    -0.550 OA
ENDBRANCH  11  12
ENDBRANCH  10  11
ENDBRANCH   9  10
ENDBRANCH   8   9
ENDBRANCH   7   8
ENDBRANCH   6   7
ENDBRANCH   5   6
ENDBRANCH   4   5
ENDBRANCH   3   4
ENDBRANCH   2   3
ENDBRANCH   1   2
BRANCH   1  15
ATOM     15  C   UNL     1      18.701  33.964  10.533  1.00  0.00     0.000 C 
BRANCH  15  16
ATOM     16  C   UNL     1      17.352  33.224  10.586  1.00  0.00     0.000 C 
BRANCH  16  17
ATOM     17  C   UNL     1      17.389  31.764  10.094  1.00  0.00     0.000 C 
BRANCH  17  18
ATOM     18  C   UNL     1      16.399  30.805  10.783  1.00  0.00    -0.000 C 
BRANCH  18  19
ATOM     19  C   UNL     1      16.614  29.316  10.436  1.00  0.00    -0.000 C 
BRANCH  19  20
ATOM     20  C   UNL     1      15.576  28.392  11.101  1.00  0.00    -0.000 C 
BRANCH  20  21
ATOM     21  C   UNL     1      16.233  27.322  11.993  1.00  0.00    -0.000 C 
BRANCH  21  22
ATOM     22  C   UNL     1      16.985  26.236  11.203  1.00  0.00    -0.000 C 
BRANCH  22  23
ATOM     23  C   UNL     1      16.803  24.834  11.813  1.00  0.00    -0.000 C 
BRANCH  23  24
ATOM     24  C   UNL     1      17.980  23.897  11.499  1.00  0.00    -0.000 C 
BRANCH  24  25
ATOM     25  C   UNL     1      18.862  24.425  10.357  1.00  0.00    -0.003 C 
ATOM     26  C   UNL     1      20.339  24.377  10.736  1.00  0.00     0.004 C 
ENDBRANCH  24  25
ENDBRANCH  23  24
ENDBRANCH  22  23
ENDBRANCH  21  22
ENDBRANCH  20  21
ENDBRANCH  19  20
ENDBRANCH  18  19
ENDBRANCH  17  18
ENDBRANCH  16  17
ENDBRANCH  15  16
ENDBRANCH   1  15
TORSDOF 22
ENDMDL
MODEL 8
REMARK VINA RESULT:    -2.336      9.673     13.579
REMARK INTER + INTRA:          -6.316
REMARK INTER:                  -4.681
REMARK INTRA:                  -1.635
REMARK UNBOUND:                -0.976
REMARK SMILES CCCCCCCCCCCCCCCCCCCCCCCC(=O)[O-]
REMARK SMILES IDX 13 1 14 2 15 3 16 4 17 5 18 6 19 7 20 8 21 9 22 10 23 11
REMARK SMILES IDX 24 12 25 13 26 14 12 15 11 16 10 17 9 18 8 19 7 20 6 21 5 22
REMARK SMILES IDX 4 23 3 24 2 25 1 26
REMARK H PARENT
REMARK Flexibility Score: inf
ROOT
ATOM      1  C   UNL     1      19.948  34.371  12.656  1.00  0.00     0.000 C 
ENDROOT
BRANCH   1   2
ATOM      2  C   UNL     1      19.609  34.176  11.167  1.00  0.00     0.000 C 
BRANCH   2   3
ATOM      3  C   UNL     1      18.131  33.857  10.866  1.00  0.00     0.000 C 
BRANCH   3   4
ATOM      4  C   UNL     1      17.943  32.547  10.083  1.00  0.00     0.000 C 
BRANCH   4   5
ATOM      5  C   UNL     1      16.732  31.729  10.567  1.00  0.00     0.000 C 
BRANCH   5   6
ATOM      6  C   UNL     1      16.881  30.199  10.447  1.00  0.00     0.000 C 
BRANCH   6   7
ATOM      7  C   UNL     1      15.832  29.378  11.218  1.00  0.00     0.000 C 
BRANCH   7   8
ATOM      8  C   UNL     1      15.613  27.979  10.621  1.00  0.00     0.000 C 
BRANCH   8   9
ATOM      9  C   UNL     1      16.822  27.072  10.887  1.00  0.00     0.000 C 
BRANCH   9  10
ATOM     10  C   UNL     1      16.504  25.906  11.839  1.00  0.00     0.006 C 
BRANCH  10  11
ATOM     11  C   UNL     1      17.399  24.671  11.637  1.00  0.00     0.053 C 
BRANCH  11  12
ATOM     12  C   UNL     1      16.796  23.419  12.201  1.00  0.00     0.041 C 
ATOM     13  O   UNL     1      16.722  23.255  13.448  1.00  0.00    -0.550 OA
ATOM     14  O   UNL     1      16.351  22.417  11.349  1.00  0.00    -0.550 OA
ENDBRANCH  11  12
ENDBRANCH  10  11
ENDBRANCH   9  10
ENDBRANCH   8   9
ENDBRANCH   7   8
ENDBRANCH   6   7
ENDBRANCH   5   6
ENDBRANCH   4   5
ENDBRANCH   3   4
ENDBRANCH   2   3
ENDBRANCH   1   2
BRANCH   1  15
ATOM     15  C   UNL     1      21.418  34.755  12.889  1.00  0.00     0.000 C 
BRANCH  15  16
ATOM     16  C   UNL     1      21.755  34.963  14.377  1.00  0.00     0.000 C 
BRANCH  16  17
ATOM     17  C   UNL     1      22.025  33.671  15.172  1.00  0.00     0.000 C 
BRANCH  17  18
ATOM     18  C   UNL     1      22.702  32.534  14.384  1.00  0.00    -0.000 C 
BRANCH  18  19
ATOM     19  C   UNL     1      24.236  32.666  14.273  1.00  0.00    -0.000 C 
BRANCH  19  20
ATOM     20  C   UNL     1      24.696  33.131  12.879  1.00  0.00    -0.000 C 
BRANCH  20  21
ATOM     21  C   UNL     1      26.148  33.648  12.885  1.00  0.00    -0.000 C 
BRANCH  21  22
ATOM     22  C   UNL     1      26.362  34.895  12.006  1.00  0.00    -0.000 C 
BRANCH  22  23
ATOM     23  C   UNL     1      25.418  36.050  12.386  1.00  0.00    -0.000 C 
BRANCH  23  24
ATOM     24  C   UNL     1      26.075  37.059  13.341  1.00  0.00    -0.000 C 
BRANCH  24  25
ATOM     25  C   UNL     1      26.334  36.466  14.734  1.00  0.00    -0.003 C 
ATOM     26  C   UNL     1      25.024  36.212  15.475  1.00  0.00     0.004 C 
ENDBRANCH  24  25
ENDBRANCH  23  24
ENDBRANCH  22  23
ENDBRANCH  21  22
ENDBRANCH  20  21
ENDBRANCH  19  20
ENDBRANCH  18  19
ENDBRANCH  17  18
ENDBRANCH  16  17
ENDBRANCH  15  16
ENDBRANCH   1  15
TORSDOF 22
ENDMDL
MODEL 9
REMARK VINA RESULT:    -2.277     10.111     13.555
REMARK INTER + INTRA:          -6.182
REMARK INTER:                  -4.934
REMARK INTRA:                  -1.248
REMARK UNBOUND:                -0.976
REMARK SMILES CCCCCCCCCCCCCCCCCCCCCCCC(=O)[O-]
REMARK SMILES IDX 13 1 14 2 15 3 16 4 17 5 18 6 19 7 20 8 21 9 22 10 23 11
REMARK SMILES IDX 24 12 25 13 26 14 12 15 11 16 10 17 9 18 8 19 7 20 6 21 5 22
REMARK SMILES IDX 4 23 3 24 2 25 1 26
REMARK H PARENT
REMARK Flexibility Score: inf
ROOT
ATOM      1  C   UNL     1      19.539  34.040  11.095  1.00  0.00     0.000 C 
ENDROOT
BRANCH   1   2
ATOM      2  C   UNL     1      19.931  34.162  12.580  1.00  0.00     0.000 C 
BRANCH   2   3
ATOM      3  C   UNL     1      21.328  34.760  12.843  1.00  0.00     0.000 C 
BRANCH   3   4
ATOM      4  C   UNL     1      21.982  34.222  14.126  1.00  0.00     0.000 C 
BRANCH   4   5
ATOM      5  C   UNL     1      22.677  32.864  13.918  1.00  0.00     0.000 C 
BRANCH   5   6
ATOM      6  C   UNL     1      24.157  32.942  13.491  1.00  0.00     0.000 C 
BRANCH   6   7
ATOM      7  C   UNL     1      24.434  32.575  12.022  1.00  0.00     0.000 C 
BRANCH   7   8
ATOM      8  C   UNL     1      25.929  32.614  11.669  1.00  0.00     0.000 C 
BRANCH   8   9
ATOM      9  C   UNL     1      26.658  33.693  12.482  1.00  0.00     0.000 C 
BRANCH   9  10
ATOM     10  C   UNL     1      26.782  35.031  11.733  1.00  0.00     0.006 C 
BRANCH  10  11
ATOM     11  C   UNL     1      25.638  36.019  12.026  1.00  0.00     0.053 C 
BRANCH  11  12
ATOM     12  C   UNL     1      25.733  36.628  13.393  1.00  0.00     0.041 C 
ATOM     13  O   UNL     1      24.988  36.221  14.323  1.00  0.00    -0.550 OA
ATOM     14  O   UNL     1      26.619  37.671  13.629  1.00  0.00    -0.550 OA
ENDBRANCH  11  12
ENDBRANCH  10  11
ENDBRANCH   9  10
ENDBRANCH   8   9
ENDBRANCH   7   8
ENDBRANCH   6   7
ENDBRANCH   5   6
ENDBRANCH   4   5
ENDBRANCH   3   4
ENDBRANCH   2   3
ENDBRANCH   1   2
BRANCH   1  15
ATOM     15  C   UNL     1      18.039  33.776  10.892  1.00  0.00     0.000 C 
BRANCH  15  16
ATOM     16  C   UNL     1      17.756  32.466  10.135  1.00  0.00     0.000 C 
BRANCH  16  17
ATOM     17  C   UNL     1      16.693  31.556  10.779  1.00  0.00     0.000 C 
BRANCH  17  18
ATOM     18  C   UNL     1      16.745  30.073  10.363  1.00  0.00    -0.000 C 
BRANCH  18  19
ATOM     19  C   UNL     1      15.813  29.153  11.179  1.00  0.00    -0.000 C 
BRANCH  19  20
ATOM     20  C   UNL     1      15.697  27.738  10.581  1.00  0.00    -0.000 C 
BRANCH  20  21
ATOM     21  C   UNL     1      16.890  26.841  10.963  1.00  0.00    -0.000 C 
BRANCH  21  22
ATOM     22  C   UNL     1      16.563  25.817  12.066  1.00  0.00    -0.000 C 
BRANCH  22  23
ATOM     23  C   UNL     1      16.784  24.366  11.601  1.00  0.00    -0.000 C 
BRANCH  23  24
ATOM     24  C   UNL     1      18.252  23.928  11.714  1.00  0.00    -0.000 C 
BRANCH  24  25
ATOM     25  C   UNL     1      19.025  24.122  10.400  1.00  0.00    -0.003 C 
ATOM     26  C   UNL     1      20.519  24.283  10.661  1.00  0.00     0.004 C 
ENDBRANCH  24  25
ENDBRANCH  23  24
ENDBRANCH  22  23
ENDBRANCH  21  22
ENDBRANCH  20  21
ENDBRANCH  19  20
ENDBRANCH  18  19
ENDBRANCH  17  18
ENDBRANCH  16  17
ENDBRANCH  15  16
ENDBRANCH   1  15
TORSDOF 22
ENDMDL
