MODEL 1
REMARK VINA RESULT:    -3.592      0.000      0.000
REMARK INTER + INTRA:          -5.950
REMARK INTER:                  -5.481
REMARK INTRA:                  -0.469
REMARK UNBOUND:                -0.469
REMARK SMILES CC1=CCC[C@@H](C)C(=O)C[C@@H](C(C)C)C(=O)C1
REMARK SMILES IDX 8 1 9 2 6 3 7 4 5 5 4 6 3 7 2 8 1 9 10 11 11 12 15 13 16 14
REMARK SMILES IDX 17 15 12 17 13 18 14 19
REMARK H PARENT
REMARK Flexibility Score: 70.00
ROOT
ATOM      1  C   UNL     1      45.256  58.710  30.440  1.00  0.00     0.136 C 
ATOM      2  O   UNL     1      46.404  59.129  30.446  1.00  0.00    -0.299 OA
ENDROOT
BRANCH   1   3
ATOM      3  C   UNL     1      44.140  59.575  30.997  1.00  0.00     0.053 C 
ATOM      4  C   UNL     1      44.130  60.948  30.311  1.00  0.00     0.016 C 
BRANCH   3   5
ATOM      5  C   UNL     1      44.293  59.725  32.526  1.00  0.00     0.015 C 
BRANCH   5   6
ATOM      6  C   UNL     1      43.460  58.683  33.300  1.00  0.00     0.028 C 
BRANCH   6   7
ATOM      7  C   UNL     1      44.328  57.540  33.763  1.00  0.00    -0.028 C 
ATOM      8  C   UNL     1      44.173  56.250  33.382  1.00  0.00    -0.070 CG0
ATOM      9  C   UNL     1      45.178  55.240  33.877  1.00  0.00     0.039 C 
ATOM     10  G   UNL     1      43.025  55.781  32.503  1.00  0.00     0.000 G0
ENDBRANCH   6   7
ENDBRANCH   5   6
ENDBRANCH   3   5
ENDBRANCH   1   3
BRANCH   1  11
ATOM     11  C   UNL     1      44.971  57.330  29.886  1.00  0.00     0.087 C 
BRANCH  11  12
ATOM     12  C   UNL     1      43.520  56.806  30.118  1.00  0.00     0.066 C 
BRANCH  12  13
ATOM     13  C   UNL     1      43.435  55.595  31.043  1.00  0.00     0.140 C 
ATOM     14  O   UNL     1      43.632  54.470  30.606  1.00  0.00    -0.299 OA
BRANCH  13  15
ATOM     15  C   UNL     1      43.028  55.759  32.489  1.00  0.00     0.106 CG0
ATOM     16  G   UNL     1      44.172  56.249  33.362  1.00  0.00     0.000 G0
ENDBRANCH  13  15
ENDBRANCH  12  13
BRANCH  12  17
ATOM     17  C   UNL     1      42.699  56.644  28.799  1.00  0.00    -0.006 C 
ATOM     18  C   UNL     1      43.585  56.158  27.639  1.00  0.00     0.008 C 
ATOM     19  C   UNL     1      41.911  57.893  28.376  1.00  0.00     0.008 C 
ENDBRANCH  12  17
ENDBRANCH  11  12
ENDBRANCH   1  11
TORSDOF 1
ENDMDL
MODEL 2
REMARK VINA RESULT:    -3.549      2.654      4.748
REMARK INTER + INTRA:          -5.885
REMARK INTER:                  -5.621
REMARK INTRA:                  -0.265
REMARK UNBOUND:                -0.469
REMARK SMILES CC1=CCC[C@@H](C)C(=O)C[C@@H](C(C)C)C(=O)C1
REMARK SMILES IDX 8 1 9 2 6 3 7 4 5 5 4 6 3 7 2 8 1 9 10 11 11 12 15 13 16 14
REMARK SMILES IDX 17 15 12 17 13 18 14 19
REMARK H PARENT
REMARK Flexibility Score: 70.00
ROOT
ATOM      1  C   UNL     1      46.751  57.140  30.467  1.00  0.00     0.136 C 
ATOM      2  O   UNL     1      47.792  57.381  31.059  1.00  0.00    -0.299 OA
ENDROOT
BRANCH   1   3
ATOM      3  C   UNL     1      46.804  56.512  29.085  1.00  0.00     0.053 C 
ATOM      4  C   UNL     1      47.895  55.434  29.025  1.00  0.00     0.016 C 
BRANCH   3   5
ATOM      5  C   UNL     1      47.045  57.598  28.014  1.00  0.00     0.015 C 
BRANCH   5   6
ATOM      6  C   UNL     1      45.739  58.025  27.312  1.00  0.00     0.028 C 
BRANCH   6   7
ATOM      7  C   UNL     1      45.240  59.338  27.861  1.00  0.00    -0.028 C 
ATOM      8  C   UNL     1      44.064  59.507  28.510  1.00  0.00    -0.070 CG0
ATOM      9  C   UNL     1      43.751  60.873  29.066  1.00  0.00     0.039 C 
ATOM     10  G   UNL     1      43.046  58.389  28.678  1.00  0.00     0.000 G0
ENDBRANCH   6   7
ENDBRANCH   5   6
ENDBRANCH   3   5
ENDBRANCH   1   3
BRANCH   1  11
ATOM     11  C   UNL     1      45.428  57.481  31.118  1.00  0.00     0.087 C 
BRANCH  11  12
ATOM     12  C   UNL     1      44.175  56.809  30.474  1.00  0.00     0.066 C 
BRANCH  12  13
ATOM     13  C   UNL     1      43.078  57.792  30.074  1.00  0.00     0.140 C 
ATOM     14  O   UNL     1      42.177  58.061  30.854  1.00  0.00    -0.299 OA
BRANCH  13  15
ATOM     15  C   UNL     1      43.044  58.381  28.682  1.00  0.00     0.106 CG0
ATOM     16  G   UNL     1      44.033  59.524  28.512  1.00  0.00     0.000 G0
ENDBRANCH  13  15
ENDBRANCH  12  13
BRANCH  12  17
ATOM     17  C   UNL     1      43.649  55.577  31.277  1.00  0.00    -0.006 C 
ATOM     18  C   UNL     1      44.773  54.909  32.087  1.00  0.00     0.008 C 
ATOM     19  C   UNL     1      42.911  54.528  30.431  1.00  0.00     0.008 C 
ENDBRANCH  12  17
ENDBRANCH  11  12
ENDBRANCH   1  11
TORSDOF 1
ENDMDL
MODEL 3
REMARK VINA RESULT:    -3.531     18.617     20.138
REMARK INTER + INTRA:          -5.857
REMARK INTER:                  -5.613
REMARK INTRA:                  -0.244
REMARK UNBOUND:                -0.469
REMARK SMILES CC1=CCC[C@@H](C)C(=O)C[C@@H](C(C)C)C(=O)C1
REMARK SMILES IDX 8 1 9 2 6 3 7 4 5 5 4 6 3 7 2 8 1 9 10 11 11 12 15 13 16 14
REMARK SMILES IDX 17 15 12 17 13 18 14 19
REMARK H PARENT
REMARK Flexibility Score: 70.00
ROOT
ATOM      1  C   UNL     1      59.759  67.383  32.746  1.00  0.00     0.136 C 
ATOM      2  O   UNL     1      58.876  66.553  32.907  1.00  0.00    -0.299 OA
ENDROOT
BRANCH   1   3
ATOM      3  C   UNL     1      60.148  67.799  31.338  1.00  0.00     0.053 C 
ATOM      4  C   UNL     1      61.351  68.751  31.372  1.00  0.00     0.016 C 
BRANCH   3   5
ATOM      5  C   UNL     1      58.946  68.455  30.624  1.00  0.00     0.015 C 
BRANCH   5   6
ATOM      6  C   UNL     1      58.958  69.992  30.755  1.00  0.00     0.028 C 
BRANCH   6   7
ATOM      7  C   UNL     1      57.888  70.456  31.711  1.00  0.00    -0.028 C 
ATOM      8  C   UNL     1      58.117  70.899  32.970  1.00  0.00    -0.070 CG0
ATOM      9  C   UNL     1      56.941  71.403  33.768  1.00  0.00     0.039 C 
ATOM     10  G   UNL     1      59.496  70.886  33.611  1.00  0.00     0.000 G0
ENDBRANCH   6   7
ENDBRANCH   5   6
ENDBRANCH   3   5
ENDBRANCH   1   3
BRANCH   1  11
ATOM     11  C   UNL     1      60.455  67.972  33.954  1.00  0.00     0.087 C 
BRANCH  11  12
ATOM     12  C   UNL     1      59.515  68.650  34.999  1.00  0.00     0.066 C 
BRANCH  12  13
ATOM     13  C   UNL     1      59.529  70.176  34.952  1.00  0.00     0.140 C 
ATOM     14  O   UNL     1      59.488  70.825  35.987  1.00  0.00    -0.299 OA
BRANCH  13  15
ATOM     15  C   UNL     1      59.510  70.904  33.628  1.00  0.00     0.106 CG0
ATOM     16  G   UNL     1      58.134  70.892  32.980  1.00  0.00     0.000 G0
ENDBRANCH  13  15
ENDBRANCH  12  13
BRANCH  12  17
ATOM     17  C   UNL     1      59.666  68.068  36.441  1.00  0.00    -0.006 C 
ATOM     18  C   UNL     1      61.144  67.945  36.848  1.00  0.00     0.008 C 
ATOM     19  C   UNL     1      58.940  66.733  36.672  1.00  0.00     0.008 C 
ENDBRANCH  12  17
ENDBRANCH  11  12
ENDBRANCH   1  11
TORSDOF 1
ENDMDL
MODEL 4
REMARK VINA RESULT:    -3.487      1.998      2.994
REMARK INTER + INTRA:          -5.790
REMARK INTER:                  -5.495
REMARK INTRA:                  -0.295
REMARK UNBOUND:                -0.469
REMARK SMILES CC1=CCC[C@@H](C)C(=O)C[C@@H](C(C)C)C(=O)C1
REMARK SMILES IDX 8 1 9 2 6 3 7 4 5 5 4 6 3 7 2 8 1 9 10 11 11 12 15 13 16 14
REMARK SMILES IDX 17 15 12 17 13 18 14 19
REMARK H PARENT
REMARK Flexibility Score: 70.00
ROOT
ATOM      1  C   UNL     1      46.573  57.807  28.728  1.00  0.00     0.136 C 
ATOM      2  O   UNL     1      47.014  58.651  27.962  1.00  0.00    -0.299 OA
ENDROOT
BRANCH   1   3
ATOM      3  C   UNL     1      47.505  57.137  29.721  1.00  0.00     0.053 C 
ATOM      4  C   UNL     1      47.262  55.622  29.750  1.00  0.00     0.016 C 
BRANCH   3   5
ATOM      5  C   UNL     1      47.321  57.751  31.126  1.00  0.00     0.015 C 
BRANCH   5   6
ATOM      6  C   UNL     1      46.881  56.702  32.168  1.00  0.00     0.028 C 
BRANCH   6   7
ATOM      7  C   UNL     1      45.763  57.236  33.027  1.00  0.00    -0.028 C 
ATOM      8  C   UNL     1      44.444  57.107  32.747  1.00  0.00    -0.070 CG0
ATOM      9  C   UNL     1      43.452  57.631  33.755  1.00  0.00     0.039 C 
ATOM     10  G   UNL     1      43.932  56.482  31.459  1.00  0.00     0.000 G0
ENDBRANCH   6   7
ENDBRANCH   5   6
ENDBRANCH   3   5
ENDBRANCH   1   3
BRANCH   1  11
ATOM     11  C   UNL     1      45.105  57.439  28.665  1.00  0.00     0.087 C 
BRANCH  11  12
ATOM     12  C   UNL     1      44.164  58.298  29.565  1.00  0.00     0.066 C 
BRANCH  12  13
ATOM     13  C   UNL     1      43.297  57.480  30.518  1.00  0.00     0.140 C 
ATOM     14  O   UNL     1      42.091  57.674  30.575  1.00  0.00    -0.299 OA
BRANCH  13  15
ATOM     15  C   UNL     1      43.924  56.480  31.461  1.00  0.00     0.106 CG0
ATOM     16  G   UNL     1      44.421  57.126  32.745  1.00  0.00     0.000 G0
ENDBRANCH  13  15
ENDBRANCH  12  13
BRANCH  12  17
ATOM     17  C   UNL     1      43.370  59.386  28.773  1.00  0.00    -0.006 C 
ATOM     18  C   UNL     1      43.185  58.988  27.300  1.00  0.00     0.008 C 
ATOM     19  C   UNL     1      43.953  60.804  28.871  1.00  0.00     0.008 C 
ENDBRANCH  12  17
ENDBRANCH  11  12
ENDBRANCH   1  11
TORSDOF 1
ENDMDL
MODEL 5
REMARK VINA RESULT:    -3.472     17.332     18.882
REMARK INTER + INTRA:          -5.767
REMARK INTER:                  -5.584
REMARK INTRA:                  -0.183
REMARK UNBOUND:                -0.469
REMARK SMILES CC1=CCC[C@@H](C)C(=O)C[C@@H](C(C)C)C(=O)C1
REMARK SMILES IDX 8 1 9 2 6 3 7 4 5 5 4 6 3 7 2 8 1 9 10 11 11 12 15 13 16 14
REMARK SMILES IDX 17 15 12 17 13 18 14 19
REMARK H PARENT
REMARK Flexibility Score: 70.00
ROOT
ATOM      1  C   UNL     1      57.933  70.495  31.787  1.00  0.00     0.136 C 
ATOM      2  O   UNL     1      58.026  71.669  32.113  1.00  0.00    -0.299 OA
ENDROOT
BRANCH   1   3
ATOM      3  C   UNL     1      58.780  69.967  30.643  1.00  0.00     0.053 C 
ATOM      4  C   UNL     1      58.170  68.679  30.071  1.00  0.00     0.016 C 
BRANCH   3   5
ATOM      5  C   UNL     1      60.229  69.725  31.118  1.00  0.00     0.015 C 
BRANCH   5   6
ATOM      6  C   UNL     1      60.515  68.233  31.385  1.00  0.00     0.028 C 
BRANCH   6   7
ATOM      7  C   UNL     1      60.836  68.000  32.839  1.00  0.00    -0.028 C 
ATOM      8  C   UNL     1      60.064  67.290  33.696  1.00  0.00    -0.070 CG0
ATOM      9  C   UNL     1      60.572  67.085  35.102  1.00  0.00     0.039 C 
ATOM     10  G   UNL     1      58.711  66.718  33.307  1.00  0.00     0.000 G0
ENDBRANCH   6   7
ENDBRANCH   5   6
ENDBRANCH   3   5
ENDBRANCH   1   3
BRANCH   1  11
ATOM     11  C   UNL     1      56.966  69.592  32.523  1.00  0.00     0.087 C 
BRANCH  11  12
ATOM     12  C   UNL     1      57.502  68.991  33.860  1.00  0.00     0.066 C 
BRANCH  12  13
ATOM     13  C   UNL     1      57.530  67.465  33.889  1.00  0.00     0.140 C 
ATOM     14  O   UNL     1      56.636  66.843  34.444  1.00  0.00    -0.299 OA
BRANCH  13  15
ATOM     15  C   UNL     1      58.700  66.706  33.308  1.00  0.00     0.106 CG0
ATOM     16  G   UNL     1      60.038  67.310  33.707  1.00  0.00     0.000 G0
ENDBRANCH  13  15
ENDBRANCH  12  13
BRANCH  12  17
ATOM     17  C   UNL     1      56.859  69.630  35.131  1.00  0.00    -0.006 C 
ATOM     18  C   UNL     1      55.477  70.230  34.824  1.00  0.00     0.008 C 
ATOM     19  C   UNL     1      57.740  70.668  35.844  1.00  0.00     0.008 C 
ENDBRANCH  12  17
ENDBRANCH  11  12
ENDBRANCH   1  11
TORSDOF 1
ENDMDL
MODEL 6
REMARK VINA RESULT:    -3.457     17.672     19.701
REMARK INTER + INTRA:          -5.744
REMARK INTER:                  -5.423
REMARK INTRA:                  -0.321
REMARK UNBOUND:                -0.469
REMARK SMILES CC1=CCC[C@@H](C)C(=O)C[C@@H](C(C)C)C(=O)C1
REMARK SMILES IDX 8 1 9 2 6 3 7 4 5 5 4 6 3 7 2 8 1 9 10 11 11 12 15 13 16 14
REMARK SMILES IDX 17 15 12 17 13 18 14 19
REMARK H PARENT
REMARK Flexibility Score: 70.00
ROOT
ATOM      1  C   UNL     1      56.737  68.800  32.631  1.00  0.00     0.136 C 
ATOM      2  O   UNL     1      55.593  68.401  32.474  1.00  0.00    -0.299 OA
ENDROOT
BRANCH   1   3
ATOM      3  C   UNL     1      57.416  69.581  31.519  1.00  0.00     0.053 C 
ATOM      4  C   UNL     1      56.441  70.589  30.896  1.00  0.00     0.016 C 
BRANCH   3   5
ATOM      5  C   UNL     1      57.968  68.615  30.448  1.00  0.00     0.015 C 
BRANCH   5   6
ATOM      6  C   UNL     1      59.315  67.990  30.865  1.00  0.00     0.028 C 
BRANCH   6   7
ATOM      7  C   UNL     1      60.323  69.062  31.196  1.00  0.00    -0.028 C 
ATOM      8  C   UNL     1      60.970  69.174  32.380  1.00  0.00    -0.070 CG0
ATOM      9  C   UNL     1      62.009  70.259  32.519  1.00  0.00     0.039 C 
ATOM     10  G   UNL     1      60.677  68.273  33.569  1.00  0.00     0.000 G0
ENDBRANCH   6   7
ENDBRANCH   5   6
ENDBRANCH   3   5
ENDBRANCH   1   3
BRANCH   1  11
ATOM     11  C   UNL     1      57.458  68.500  33.927  1.00  0.00     0.087 C 
BRANCH  11  12
ATOM     12  C   UNL     1      58.518  69.561  34.361  1.00  0.00     0.066 C 
BRANCH  12  13
ATOM     13  C   UNL     1      59.894  68.977  34.668  1.00  0.00     0.140 C 
ATOM     14  O   UNL     1      60.394  69.127  35.773  1.00  0.00    -0.299 OA
BRANCH  13  15
ATOM     15  C   UNL     1      60.691  68.280  33.590  1.00  0.00     0.106 CG0
ATOM     16  G   UNL     1      60.952  69.177  32.390  1.00  0.00     0.000 G0
ENDBRANCH  13  15
ENDBRANCH  12  13
BRANCH  12  17
ATOM     17  C   UNL     1      57.998  70.548  35.455  1.00  0.00    -0.006 C 
ATOM     18  C   UNL     1      57.043  69.849  36.436  1.00  0.00     0.008 C 
ATOM     19  C   UNL     1      57.350  71.829  34.907  1.00  0.00     0.008 C 
ENDBRANCH  12  17
ENDBRANCH  11  12
ENDBRANCH   1  11
TORSDOF 1
ENDMDL
MODEL 7
REMARK VINA RESULT:    -3.412     17.699     19.961
REMARK INTER + INTRA:          -5.675
REMARK INTER:                  -5.508
REMARK INTRA:                  -0.168
REMARK UNBOUND:                -0.469
REMARK SMILES CC1=CCC[C@@H](C)C(=O)C[C@@H](C(C)C)C(=O)C1
REMARK SMILES IDX 8 1 9 2 6 3 7 4 5 5 4 6 3 7 2 8 1 9 10 11 11 12 15 13 16 14
REMARK SMILES IDX 17 15 12 17 13 18 14 19
REMARK H PARENT
REMARK Flexibility Score: 70.00
ROOT
ATOM      1  C   UNL     1      60.211  69.595  31.475  1.00  0.00     0.136 C 
ATOM      2  O   UNL     1      61.088  69.631  30.625  1.00  0.00    -0.299 OA
ENDROOT
BRANCH   1   3
ATOM      3  C   UNL     1      59.198  68.463  31.456  1.00  0.00     0.053 C 
ATOM      4  C   UNL     1      59.910  67.105  31.386  1.00  0.00     0.016 C 
BRANCH   3   5
ATOM      5  C   UNL     1      58.224  68.637  30.270  1.00  0.00     0.015 C 
BRANCH   5   6
ATOM      6  C   UNL     1      57.136  69.691  30.558  1.00  0.00     0.028 C 
BRANCH   6   7
ATOM      7  C   UNL     1      56.327  69.310  31.772  1.00  0.00    -0.028 C 
ATOM      8  C   UNL     1      56.327  69.986  32.944  1.00  0.00    -0.070 CG0
ATOM      9  C   UNL     1      55.397  69.515  34.034  1.00  0.00     0.039 C 
ATOM     10  G   UNL     1      57.235  71.176  33.210  1.00  0.00     0.000 G0
ENDBRANCH   6   7
ENDBRANCH   5   6
ENDBRANCH   3   5
ENDBRANCH   1   3
BRANCH   1  11
ATOM     11  C   UNL     1      60.144  70.685  32.523  1.00  0.00     0.087 C 
BRANCH  11  12
ATOM     12  C   UNL     1      59.598  70.238  33.915  1.00  0.00     0.066 C 
BRANCH  12  13
ATOM     13  C   UNL     1      58.255  70.862  34.287  1.00  0.00     0.140 C 
ATOM     14  O   UNL     1      57.968  71.052  35.459  1.00  0.00    -0.299 OA
BRANCH  13  15
ATOM     15  C   UNL     1      57.233  71.178  33.220  1.00  0.00     0.106 CG0
ATOM     16  G   UNL     1      56.315  70.001  32.930  1.00  0.00     0.000 G0
ENDBRANCH  13  15
ENDBRANCH  12  13
BRANCH  12  17
ATOM     17  C   UNL     1      60.662  70.317  35.055  1.00  0.00    -0.006 C 
ATOM     18  C   UNL     1      61.215  71.743  35.213  1.00  0.00     0.008 C 
ATOM     19  C   UNL     1      61.818  69.313  34.924  1.00  0.00     0.008 C 
ENDBRANCH  12  17
ENDBRANCH  11  12
ENDBRANCH   1  11
TORSDOF 1
ENDMDL
MODEL 8
REMARK VINA RESULT:    -3.347      1.957      5.180
REMARK INTER + INTRA:          -5.576
REMARK INTER:                  -5.331
REMARK INTRA:                  -0.246
REMARK UNBOUND:                -0.469
REMARK SMILES CC1=CCC[C@@H](C)C(=O)C[C@@H](C(C)C)C(=O)C1
REMARK SMILES IDX 8 1 9 2 6 3 7 4 5 5 4 6 3 7 2 8 1 9 10 11 11 12 15 13 16 14
REMARK SMILES IDX 17 15 12 17 13 18 14 19
REMARK H PARENT
REMARK Flexibility Score: 70.00
ROOT
ATOM      1  C   UNL     1      43.673  54.617  30.177  1.00  0.00     0.136 C 
ATOM      2  O   UNL     1      43.047  53.805  30.842  1.00  0.00    -0.299 OA
ENDROOT
BRANCH   1   3
ATOM      3  C   UNL     1      43.408  54.725  28.685  1.00  0.00     0.053 C 
ATOM      4  C   UNL     1      44.717  54.589  27.895  1.00  0.00     0.016 C 
BRANCH   3   5
ATOM      5  C   UNL     1      42.706  56.062  28.363  1.00  0.00     0.015 C 
BRANCH   5   6
ATOM      6  C   UNL     1      43.613  57.017  27.560  1.00  0.00     0.028 C 
BRANCH   6   7
ATOM      7  C   UNL     1      43.428  58.443  28.017  1.00  0.00    -0.028 C 
ATOM      8  C   UNL     1      44.157  59.043  28.987  1.00  0.00    -0.070 CG0
ATOM      9  C   UNL     1      43.896  60.502  29.268  1.00  0.00     0.039 C 
ATOM     10  G   UNL     1      45.200  58.305  29.812  1.00  0.00     0.000 G0
ENDBRANCH   6   7
ENDBRANCH   5   6
ENDBRANCH   3   5
ENDBRANCH   1   3
BRANCH   1  11
ATOM     11  C   UNL     1      44.707  55.493  30.851  1.00  0.00     0.087 C 
BRANCH  11  12
ATOM     12  C   UNL     1      44.137  56.726  31.619  1.00  0.00     0.066 C 
BRANCH  12  13
ATOM     13  C   UNL     1      44.787  58.053  31.237  1.00  0.00     0.140 C 
ATOM     14  O   UNL     1      44.906  58.943  32.066  1.00  0.00    -0.299 OA
BRANCH  13  15
ATOM     15  C   UNL     1      45.216  58.316  29.812  1.00  0.00     0.106 CG0
ATOM     16  G   UNL     1      44.146  59.037  29.008  1.00  0.00     0.000 G0
ENDBRANCH  13  15
ENDBRANCH  12  13
BRANCH  12  17
ATOM     17  C   UNL     1      44.030  56.502  33.162  1.00  0.00    -0.006 C 
ATOM     18  C   UNL     1      45.035  55.445  33.649  1.00  0.00     0.008 C 
ATOM     19  C   UNL     1      42.618  56.164  33.665  1.00  0.00     0.008 C 
ENDBRANCH  12  17
ENDBRANCH  11  12
ENDBRANCH   1  11
TORSDOF 1
ENDMDL
MODEL 9
REMARK VINA RESULT:    -3.305     18.185     19.887
REMARK INTER + INTRA:          -5.512
REMARK INTER:                  -5.320
REMARK INTRA:                  -0.193
REMARK UNBOUND:                -0.469
REMARK SMILES CC1=CCC[C@@H](C)C(=O)C[C@@H](C(C)C)C(=O)C1
REMARK SMILES IDX 8 1 9 2 6 3 7 4 5 5 4 6 3 7 2 8 1 9 10 11 11 12 15 13 16 14
REMARK SMILES IDX 17 15 12 17 13 18 14 19
REMARK H PARENT
REMARK Flexibility Score: 70.00
ROOT
ATOM      1  C   UNL     1      61.343  70.127  34.579  1.00  0.00     0.136 C 
ATOM      2  O   UNL     1      61.828  71.235  34.405  1.00  0.00    -0.299 OA
ENDROOT
BRANCH   1   3
ATOM      3  C   UNL     1      60.589  69.834  35.864  1.00  0.00     0.053 C 
ATOM      4  C   UNL     1      61.059  70.767  36.988  1.00  0.00     0.016 C 
BRANCH   3   5
ATOM      5  C   UNL     1      60.772  68.354  36.265  1.00  0.00     0.015 C 
BRANCH   5   6
ATOM      6  C   UNL     1      59.449  67.565  36.201  1.00  0.00     0.028 C 
BRANCH   6   7
ATOM      7  C   UNL     1      59.685  66.159  35.707  1.00  0.00    -0.028 C 
ATOM      8  C   UNL     1      59.479  65.743  34.436  1.00  0.00    -0.070 CG0
ATOM      9  C   UNL     1      59.841  64.321  34.089  1.00  0.00     0.039 C 
ATOM     10  G   UNL     1      58.881  66.637  33.361  1.00  0.00     0.000 G0
ENDBRANCH   6   7
ENDBRANCH   5   6
ENDBRANCH   3   5
ENDBRANCH   1   3
BRANCH   1  11
ATOM     11  C   UNL     1      61.511  69.065  33.513  1.00  0.00     0.087 C 
BRANCH  11  12
ATOM     12  C   UNL     1      60.238  68.768  32.662  1.00  0.00     0.066 C 
BRANCH  12  13
ATOM     13  C   UNL     1      59.928  67.282  32.502  1.00  0.00     0.140 C 
ATOM     14  O   UNL     1      60.482  66.627  31.630  1.00  0.00    -0.299 OA
BRANCH  13  15
ATOM     15  C   UNL     1      58.876  66.619  33.360  1.00  0.00     0.106 CG0
ATOM     16  G   UNL     1      59.481  65.729  34.435  1.00  0.00     0.000 G0
ENDBRANCH  13  15
ENDBRANCH  12  13
BRANCH  12  17
ATOM     17  C   UNL     1      60.187  69.566  31.320  1.00  0.00    -0.006 C 
ATOM     18  C   UNL     1      61.584  70.056  30.902  1.00  0.00     0.008 C 
ATOM     19  C   UNL     1      59.189  70.734  31.305  1.00  0.00     0.008 C 
ENDBRANCH  12  17
ENDBRANCH  11  12
ENDBRANCH   1  11
TORSDOF 1
ENDMDL
