MODEL 1
REMARK VINA RESULT:    -4.899      0.000      0.000
REMARK INTER + INTRA:          -4.737
REMARK INTER:                  -5.328
REMARK INTRA:                   0.592
REMARK UNBOUND:                 0.592
REMARK SMILES C=C1C[C@]2(O)O[C@]3(C[C@@H]2C(C)C)[C@H](C)CC[C@H]13
REMARK SMILES IDX 14 1 13 2 15 3 16 4 17 5 7 6 8 7 9 8 4 9 6 10 3 11 2 12 1 13
REMARK SMILES IDX 10 14 11 15 12 16 5 17
REMARK H PARENT 5 18
REMARK Flexibility Score: inf
ROOT
ATOM      1  C   UNL     1      13.628  19.840  -4.125  1.00  0.00     0.011 C 
ATOM      2  C   UNL     1      13.140  20.085  -2.690  1.00  0.00     0.019 C 
ATOM      3  C   UNL     1      11.619  19.920  -2.551  1.00  0.00     0.007 C 
ATOM      4  C   UNL     1      11.133  21.026  -1.610  1.00  0.00     0.011 C 
ATOM      5  C   UNL     1      12.388  21.711  -1.068  1.00  0.00     0.047 C 
ATOM      6  C   UNL     1      13.445  21.493  -2.161  1.00  0.00     0.081 C 
ATOM      7  C   UNL     1      14.869  21.675  -1.625  1.00  0.00     0.046 C 
ATOM      8  C   UNL     1      15.212  23.111  -2.019  1.00  0.00     0.054 C 
ATOM      9  C   UNL     1      13.876  23.619  -2.635  1.00  0.00     0.173 C 
ATOM     10  O   UNL     1      13.263  22.468  -3.164  1.00  0.00    -0.342 OA
ATOM     11  C   UNL     1      12.862  24.245  -1.625  1.00  0.00     0.096 C 
ATOM     12  C   UNL     1      12.180  23.188  -0.775  1.00  0.00    -0.066 C 
ATOM     13  C   UNL     1      11.380  23.564   0.232  1.00  0.00     0.008 C 
ENDROOT
BRANCH   8  14
ATOM     14  C   UNL     1      15.863  23.934  -0.859  1.00  0.00    -0.009 C 
ATOM     15  C   UNL     1      15.795  23.193   0.488  1.00  0.00     0.008 C 
ATOM     16  C   UNL     1      15.155  25.294  -0.692  1.00  0.00     0.008 C 
ENDBRANCH   8  14
BRANCH   9  17
ATOM     17  O   UNL     1      14.130  24.499  -3.703  1.00  0.00    -0.365 OA
ATOM     18  H   UNL     1      13.653  24.165  -4.504  1.00  0.00     0.214 HD
ENDBRANCH   9  17
TORSDOF 2
ENDMDL
MODEL 2
REMARK VINA RESULT:    -3.328      1.355      4.476
REMARK INTER + INTRA:          -3.028
REMARK INTER:                  -2.750
REMARK INTRA:                  -0.278
REMARK UNBOUND:                 0.592
REMARK SMILES C=C1C[C@]2(O)O[C@]3(C[C@@H]2C(C)C)[C@H](C)CC[C@H]13
REMARK SMILES IDX 14 1 13 2 15 3 16 4 17 5 7 6 8 7 9 8 4 9 6 10 3 11 2 12 1 13
REMARK SMILES IDX 10 14 11 15 12 16 5 17
REMARK H PARENT 5 18
REMARK Flexibility Score: inf
ROOT
ATOM      1  C   UNL     1      12.554  25.352  -2.727  1.00  0.00     0.011 C 
ATOM      2  C   UNL     1      13.209  24.854  -1.432  1.00  0.00     0.019 C 
ATOM      3  C   UNL     1      14.495  25.621  -1.092  1.00  0.00     0.007 C 
ATOM      4  C   UNL     1      15.502  24.596  -0.560  1.00  0.00     0.011 C 
ATOM      5  C   UNL     1      14.739  23.277  -0.424  1.00  0.00     0.047 C 
ATOM      6  C   UNL     1      13.617  23.375  -1.469  1.00  0.00     0.081 C 
ATOM      7  C   UNL     1      12.476  22.394  -1.177  1.00  0.00     0.046 C 
ATOM      8  C   UNL     1      12.792  21.207  -2.086  1.00  0.00     0.054 C 
ATOM      9  C   UNL     1      14.161  21.613  -2.706  1.00  0.00     0.173 C 
ATOM     10  O   UNL     1      14.143  23.019  -2.728  1.00  0.00    -0.342 OA
ATOM     11  C   UNL     1      15.423  21.193  -1.888  1.00  0.00     0.096 C 
ATOM     12  C   UNL     1      15.616  22.056  -0.654  1.00  0.00    -0.066 C 
ATOM     13  C   UNL     1      16.575  21.745   0.228  1.00  0.00     0.008 C 
ENDROOT
BRANCH   8  14
ATOM     14  C   UNL     1      12.677  19.824  -1.364  1.00  0.00    -0.009 C 
ATOM     15  C   UNL     1      11.327  19.137  -1.638  1.00  0.00     0.008 C 
ATOM     16  C   UNL     1      12.826  19.992   0.161  1.00  0.00     0.008 C 
ENDBRANCH   8  14
BRANCH   9  17
ATOM     17  O   UNL     1      14.252  21.163  -4.036  1.00  0.00    -0.365 OA
ATOM     18  H   UNL     1      13.349  20.891  -4.337  1.00  0.00     0.214 HD
ENDBRANCH   9  17
TORSDOF 2
ENDMDL
MODEL 3
REMARK VINA RESULT:    -3.260      1.883      4.374
REMARK INTER + INTRA:          -2.954
REMARK INTER:                  -2.646
REMARK INTRA:                  -0.308
REMARK UNBOUND:                 0.592
REMARK SMILES C=C1C[C@]2(O)O[C@]3(C[C@@H]2C(C)C)[C@H](C)CC[C@H]13
REMARK SMILES IDX 14 1 13 2 15 3 16 4 17 5 7 6 8 7 9 8 4 9 6 10 3 11 2 12 1 13
REMARK SMILES IDX 10 14 11 15 12 16 5 17
REMARK H PARENT 5 18
REMARK Flexibility Score: inf
ROOT
ATOM      1  C   UNL     1      16.988  21.188   0.695  1.00  0.00     0.011 C 
ATOM      2  C   UNL     1      16.485  22.391  -0.114  1.00  0.00     0.019 C 
ATOM      3  C   UNL     1      16.380  23.667   0.736  1.00  0.00     0.007 C 
ATOM      4  C   UNL     1      15.099  24.387   0.307  1.00  0.00     0.011 C 
ATOM      5  C   UNL     1      14.565  23.626  -0.907  1.00  0.00     0.047 C 
ATOM      6  C   UNL     1      15.090  22.194  -0.722  1.00  0.00     0.081 C 
ATOM      7  C   UNL     1      15.076  21.405  -2.036  1.00  0.00     0.046 C 
ATOM      8  C   UNL     1      13.777  20.604  -1.951  1.00  0.00     0.054 C 
ATOM      9  C   UNL     1      13.141  21.134  -0.633  1.00  0.00     0.173 C 
ATOM     10  O   UNL     1      14.234  21.512   0.168  1.00  0.00    -0.342 OA
ATOM     11  C   UNL     1      12.234  22.396  -0.781  1.00  0.00     0.096 C 
ATOM     12  C   UNL     1      13.048  23.658  -1.009  1.00  0.00    -0.066 C 
ATOM     13  C   UNL     1      12.420  24.808  -1.289  1.00  0.00     0.008 C 
ENDROOT
BRANCH   8  14
ATOM     14  C   UNL     1      12.931  20.654  -3.265  1.00  0.00    -0.009 C 
ATOM     15  C   UNL     1      13.112  19.388  -4.121  1.00  0.00     0.008 C 
ATOM     16  C   UNL     1      13.327  21.872  -4.123  1.00  0.00     0.008 C 
ENDBRANCH   8  14
BRANCH   9  17
ATOM     17  O   UNL     1      12.458  20.100   0.034  1.00  0.00    -0.365 OA
ATOM     18  H   UNL     1      11.724  19.783  -0.550  1.00  0.00     0.214 HD
ENDBRANCH   9  17
TORSDOF 2
ENDMDL
MODEL 4
REMARK VINA RESULT:    -2.716      1.590      1.905
REMARK INTER + INTRA:          -2.362
REMARK INTER:                  -2.973
REMARK INTRA:                   0.611
REMARK UNBOUND:                 0.592
REMARK SMILES C=C1C[C@]2(O)O[C@]3(C[C@@H]2C(C)C)[C@H](C)CC[C@H]13
REMARK SMILES IDX 14 1 13 2 15 3 16 4 17 5 7 6 8 7 9 8 4 9 6 10 3 11 2 12 1 13
REMARK SMILES IDX 10 14 11 15 12 16 5 17
REMARK H PARENT 5 18
REMARK Flexibility Score: inf
ROOT
ATOM      1  C   UNL     1      11.747  20.315  -4.125  1.00  0.00     0.011 C 
ATOM      2  C   UNL     1      12.588  19.815  -2.942  1.00  0.00     0.019 C 
ATOM      3  C   UNL     1      11.800  18.875  -2.017  1.00  0.00     0.007 C 
ATOM      4  C   UNL     1      12.196  19.225  -0.580  1.00  0.00     0.011 C 
ATOM      5  C   UNL     1      13.340  20.235  -0.684  1.00  0.00     0.047 C 
ATOM      6  C   UNL     1      13.111  20.935  -2.032  1.00  0.00     0.081 C 
ATOM      7  C   UNL     1      14.381  21.626  -2.541  1.00  0.00     0.046 C 
ATOM      8  C   UNL     1      14.187  23.079  -2.110  1.00  0.00     0.054 C 
ATOM      9  C   UNL     1      12.865  23.013  -1.290  1.00  0.00     0.173 C 
ATOM     10  O   UNL     1      12.144  21.946  -1.856  1.00  0.00    -0.342 OA
ATOM     11  C   UNL     1      13.029  22.690   0.229  1.00  0.00     0.096 C 
ATOM     12  C   UNL     1      13.364  21.228   0.467  1.00  0.00    -0.066 C 
ATOM     13  C   UNL     1      13.668  20.812   1.704  1.00  0.00     0.008 C 
ENDROOT
BRANCH   8  14
ATOM     14  C   UNL     1      15.455  23.702  -1.439  1.00  0.00    -0.009 C 
ATOM     15  C   UNL     1      16.062  22.774  -0.371  1.00  0.00     0.008 C 
ATOM     16  C   UNL     1      15.110  25.045  -0.765  1.00  0.00     0.008 C 
ENDBRANCH   8  14
BRANCH   9  17
ATOM     17  O   UNL     1      12.112  24.187  -1.476  1.00  0.00    -0.365 OA
ATOM     18  H   UNL     1      12.737  24.941  -1.617  1.00  0.00     0.214 HD
ENDBRANCH   9  17
TORSDOF 2
ENDMDL
