MODEL 1
REMARK VINA RESULT:    -3.695      0.000      0.000
REMARK INTER + INTRA:          -8.615
REMARK INTER:                  -7.151
REMARK INTRA:                  -1.464
REMARK UNBOUND:                -1.464
REMARK SMILES CCCCCCCCCCCCCCCCCC(=O)[O-]
REMARK SMILES IDX 10 1 11 2 12 3 13 4 14 5 15 6 16 7 17 8 18 9 19 10 20 11
REMARK SMILES IDX 9 12 8 13 7 14 6 15 5 16 4 17 3 18 2 19 1 20
REMARK H PARENT
REMARK Flexibility Score: inf
ROOT
ATOM      1  C   UNL     1     -97.277 -58.775 -67.337  1.00  0.00     0.000 C 
ENDROOT
BRANCH   1   2
ATOM      2  C   UNL     1     -97.399 -59.782 -68.495  1.00  0.00     0.000 C 
BRANCH   2   3
ATOM      3  C   UNL     1     -96.076 -59.970 -69.257  1.00  0.00     0.000 C 
BRANCH   3   4
ATOM      4  C   UNL     1     -96.283 -60.486 -70.691  1.00  0.00     0.000 C 
BRANCH   4   5
ATOM      5  C   UNL     1     -96.860 -61.919 -70.718  1.00  0.00     0.000 C 
BRANCH   5   6
ATOM      6  C   UNL     1     -95.825 -63.009 -70.378  1.00  0.00     0.000 C 
BRANCH   6   7
ATOM      7  C   UNL     1     -94.774 -63.267 -71.473  1.00  0.00     0.006 C 
BRANCH   7   8
ATOM      8  C   UNL     1     -93.333 -63.392 -70.949  1.00  0.00     0.053 C 
BRANCH   8   9
ATOM      9  C   UNL     1     -93.017 -62.339 -69.933  1.00  0.00     0.041 C 
ATOM     10  O   UNL     1     -92.885 -61.138 -70.285  1.00  0.00    -0.550 OA
ATOM     11  O   UNL     1     -92.901 -62.679 -68.591  1.00  0.00    -0.550 OA
ENDBRANCH   8   9
ENDBRANCH   7   8
ENDBRANCH   6   7
ENDBRANCH   5   6
ENDBRANCH   4   5
ENDBRANCH   3   4
ENDBRANCH   2   3
ENDBRANCH   1   2
BRANCH   1  12
ATOM     12  C   UNL     1     -98.494 -58.806 -66.397  1.00  0.00     0.000 C 
BRANCH  12  13
ATOM     13  C   UNL     1     -99.811 -59.082 -67.142  1.00  0.00    -0.000 C 
BRANCH  13  14
ATOM     14  C   UNL     1    -100.553 -60.311 -66.590  1.00  0.00    -0.000 C 
BRANCH  14  15
ATOM     15  C   UNL     1     -99.945 -61.637 -67.080  1.00  0.00    -0.000 C 
BRANCH  15  16
ATOM     16  C   UNL     1     -99.587 -62.586 -65.925  1.00  0.00    -0.000 C 
BRANCH  16  17
ATOM     17  C   UNL     1     -99.803 -61.950 -64.543  1.00  0.00    -0.000 C 
BRANCH  17  18
ATOM     18  C   UNL     1     -98.670 -62.335 -63.580  1.00  0.00    -0.000 C 
BRANCH  18  19
ATOM     19  C   UNL     1     -98.304 -63.825 -63.664  1.00  0.00    -0.003 C 
ATOM     20  C   UNL     1     -96.911 -64.124 -63.107  1.00  0.00     0.004 C 
ENDBRANCH  18  19
ENDBRANCH  17  18
ENDBRANCH  16  17
ENDBRANCH  15  16
ENDBRANCH  14  15
ENDBRANCH  13  14
ENDBRANCH  12  13
ENDBRANCH   1  12
TORSDOF 16
ENDMDL
MODEL 2
REMARK VINA RESULT:    -3.642     13.992     15.527
REMARK INTER + INTRA:          -8.512
REMARK INTER:                  -6.151
REMARK INTRA:                  -2.361
REMARK UNBOUND:                -1.464
REMARK SMILES CCCCCCCCCCCCCCCCCC(=O)[O-]
REMARK SMILES IDX 10 1 11 2 12 3 13 4 14 5 15 6 16 7 17 8 18 9 19 10 20 11
REMARK SMILES IDX 9 12 8 13 7 14 6 15 5 16 4 17 3 18 2 19 1 20
REMARK H PARENT
REMARK Flexibility Score: inf
ROOT
ATOM      1  C   UNL     1     -98.525 -46.864 -69.622  1.00  0.00     0.000 C 
ENDROOT
BRANCH   1   2
ATOM      2  C   UNL     1     -97.643 -46.106 -68.614  1.00  0.00     0.000 C 
BRANCH   2   3
ATOM      3  C   UNL     1     -96.313 -45.637 -69.228  1.00  0.00     0.000 C 
BRANCH   3   4
ATOM      4  C   UNL     1     -95.089 -46.079 -68.408  1.00  0.00     0.000 C 
BRANCH   4   5
ATOM      5  C   UNL     1     -93.928 -46.562 -69.304  1.00  0.00     0.000 C 
BRANCH   5   6
ATOM      6  C   UNL     1     -94.359 -47.577 -70.381  1.00  0.00     0.000 C 
BRANCH   6   7
ATOM      7  C   UNL     1     -94.085 -47.137 -71.831  1.00  0.00     0.006 C 
BRANCH   7   8
ATOM      8  C   UNL     1     -94.883 -47.917 -72.890  1.00  0.00     0.053 C 
BRANCH   8   9
ATOM      9  C   UNL     1     -94.348 -49.302 -73.082  1.00  0.00     0.041 C 
ATOM     10  O   UNL     1     -95.083 -50.301 -72.865  1.00  0.00    -0.550 OA
ATOM     11  O   UNL     1     -93.048 -49.489 -73.535  1.00  0.00    -0.550 OA
ENDBRANCH   8   9
ENDBRANCH   7   8
ENDBRANCH   6   7
ENDBRANCH   5   6
ENDBRANCH   4   5
ENDBRANCH   3   4
ENDBRANCH   2   3
ENDBRANCH   1   2
BRANCH   1  12
ATOM     12  C   UNL     1     -97.982 -46.785 -71.059  1.00  0.00     0.000 C 
BRANCH  12  13
ATOM     13  C   UNL     1     -98.497 -47.928 -71.951  1.00  0.00    -0.000 C 
BRANCH  13  14
ATOM     14  C   UNL     1     -98.579 -47.527 -73.433  1.00  0.00    -0.000 C 
BRANCH  14  15
ATOM     15  C   UNL     1    -100.015 -47.190 -73.874  1.00  0.00    -0.000 C 
BRANCH  15  16
ATOM     16  C   UNL     1    -101.078 -47.847 -72.978  1.00  0.00    -0.000 C 
BRANCH  16  17
ATOM     17  C   UNL     1    -102.181 -46.870 -72.547  1.00  0.00    -0.000 C 
BRANCH  17  18
ATOM     18  C   UNL     1    -102.105 -46.590 -71.038  1.00  0.00    -0.000 C 
BRANCH  18  19
ATOM     19  C   UNL     1    -101.514 -45.208 -70.722  1.00  0.00    -0.003 C 
ATOM     20  C   UNL     1    -101.398 -44.317 -71.959  1.00  0.00     0.004 C 
ENDBRANCH  18  19
ENDBRANCH  17  18
ENDBRANCH  16  17
ENDBRANCH  15  16
ENDBRANCH  14  15
ENDBRANCH  13  14
ENDBRANCH  12  13
ENDBRANCH   1  12
TORSDOF 16
ENDMDL
MODEL 3
REMARK VINA RESULT:    -3.618     15.085     16.734
REMARK INTER + INTRA:          -8.466
REMARK INTER:                  -6.133
REMARK INTRA:                  -2.332
REMARK UNBOUND:                -1.464
REMARK SMILES CCCCCCCCCCCCCCCCCC(=O)[O-]
REMARK SMILES IDX 10 1 11 2 12 3 13 4 14 5 15 6 16 7 17 8 18 9 19 10 20 11
REMARK SMILES IDX 9 12 8 13 7 14 6 15 5 16 4 17 3 18 2 19 1 20
REMARK H PARENT
REMARK Flexibility Score: inf
ROOT
ATOM      1  C   UNL     1     -98.551 -46.876 -70.162  1.00  0.00     0.000 C 
ENDROOT
BRANCH   1   2
ATOM      2  C   UNL     1     -98.449 -46.085 -71.478  1.00  0.00     0.000 C 
BRANCH   2   3
ATOM      3  C   UNL     1     -98.640 -46.975 -72.718  1.00  0.00     0.000 C 
BRANCH   3   4
ATOM      4  C   UNL     1     -99.782 -47.992 -72.551  1.00  0.00     0.000 C 
BRANCH   4   5
ATOM      5  C   UNL     1    -101.084 -47.527 -73.240  1.00  0.00     0.000 C 
BRANCH   5   6
ATOM      6  C   UNL     1    -102.315 -47.544 -72.313  1.00  0.00     0.000 C 
BRANCH   6   7
ATOM      7  C   UNL     1    -102.122 -46.818 -70.969  1.00  0.00     0.006 C 
BRANCH   7   8
ATOM      8  C   UNL     1    -103.334 -45.982 -70.522  1.00  0.00     0.053 C 
BRANCH   8   9
ATOM      9  C   UNL     1    -104.391 -46.831 -69.884  1.00  0.00     0.041 C 
ATOM     10  O   UNL     1    -105.609 -46.572 -70.070  1.00  0.00    -0.550 OA
ATOM     11  O   UNL     1    -104.030 -47.927 -69.111  1.00  0.00    -0.550 OA
ENDBRANCH   8   9
ENDBRANCH   7   8
ENDBRANCH   6   7
ENDBRANCH   5   6
ENDBRANCH   4   5
ENDBRANCH   3   4
ENDBRANCH   2   3
ENDBRANCH   1   2
BRANCH   1  12
ATOM     12  C   UNL     1     -97.816 -46.187 -69.000  1.00  0.00     0.000 C 
BRANCH  12  13
ATOM     13  C   UNL     1     -97.117 -44.885 -69.431  1.00  0.00    -0.000 C 
BRANCH  13  14
ATOM     14  C   UNL     1     -95.628 -44.862 -69.045  1.00  0.00    -0.000 C 
BRANCH  14  15
ATOM     15  C   UNL     1     -95.234 -46.043 -68.140  1.00  0.00    -0.000 C 
BRANCH  15  16
ATOM     16  C   UNL     1     -93.945 -46.739 -68.606  1.00  0.00    -0.000 C 
BRANCH  16  17
ATOM     17  C   UNL     1     -93.723 -46.631 -70.122  1.00  0.00    -0.000 C 
BRANCH  17  18
ATOM     18  C   UNL     1     -94.311 -47.849 -70.850  1.00  0.00    -0.000 C 
BRANCH  18  19
ATOM     19  C   UNL     1     -95.038 -47.468 -72.149  1.00  0.00    -0.003 C 
ATOM     20  C   UNL     1     -94.858 -45.994 -72.517  1.00  0.00     0.004 C 
ENDBRANCH  18  19
ENDBRANCH  17  18
ENDBRANCH  16  17
ENDBRANCH  15  16
ENDBRANCH  14  15
ENDBRANCH  13  14
ENDBRANCH  12  13
ENDBRANCH   1  12
TORSDOF 16
ENDMDL
MODEL 4
REMARK VINA RESULT:    -3.584     14.941     16.513
REMARK INTER + INTRA:          -8.400
REMARK INTER:                  -6.137
REMARK INTRA:                  -2.262
REMARK UNBOUND:                -1.464
REMARK SMILES CCCCCCCCCCCCCCCCCC(=O)[O-]
REMARK SMILES IDX 10 1 11 2 12 3 13 4 14 5 15 6 16 7 17 8 18 9 19 10 20 11
REMARK SMILES IDX 9 12 8 13 7 14 6 15 5 16 4 17 3 18 2 19 1 20
REMARK H PARENT
REMARK Flexibility Score: inf
ROOT
ATOM      1  C   UNL     1     -96.337 -47.668 -72.586  1.00  0.00     0.000 C 
ENDROOT
BRANCH   1   2
ATOM      2  C   UNL     1     -96.960 -46.321 -72.993  1.00  0.00     0.000 C 
BRANCH   2   3
ATOM      3  C   UNL     1     -98.494 -46.384 -73.085  1.00  0.00     0.000 C 
BRANCH   3   4
ATOM      4  C   UNL     1     -99.048 -47.797 -72.834  1.00  0.00     0.000 C 
BRANCH   4   5
ATOM      5  C   UNL     1    -100.592 -47.831 -72.849  1.00  0.00     0.000 C 
BRANCH   5   6
ATOM      6  C   UNL     1    -101.244 -46.494 -72.445  1.00  0.00     0.000 C 
BRANCH   6   7
ATOM      7  C   UNL     1    -101.644 -46.391 -70.961  1.00  0.00     0.006 C 
BRANCH   7   8
ATOM      8  C   UNL     1    -103.159 -46.280 -70.721  1.00  0.00     0.053 C 
BRANCH   8   9
ATOM      9  C   UNL     1    -103.777 -47.614 -70.436  1.00  0.00     0.041 C 
ATOM     10  O   UNL     1    -103.931 -48.452 -71.363  1.00  0.00    -0.550 OA
ATOM     11  O   UNL     1    -104.153 -47.944 -69.140  1.00  0.00    -0.550 OA
ENDBRANCH   8   9
ENDBRANCH   7   8
ENDBRANCH   6   7
ENDBRANCH   5   6
ENDBRANCH   4   5
ENDBRANCH   3   4
ENDBRANCH   2   3
ENDBRANCH   1   2
BRANCH   1  12
ATOM     12  C   UNL     1     -94.814 -47.578 -72.387  1.00  0.00     0.000 C 
BRANCH  12  13
ATOM     13  C   UNL     1     -94.381 -47.952 -70.958  1.00  0.00    -0.000 C 
BRANCH  13  14
ATOM     14  C   UNL     1     -93.711 -46.781 -70.221  1.00  0.00    -0.000 C 
BRANCH  14  15
ATOM     15  C   UNL     1     -93.987 -46.802 -68.706  1.00  0.00    -0.000 C 
BRANCH  15  16
ATOM     16  C   UNL     1     -95.096 -45.819 -68.295  1.00  0.00    -0.000 C 
BRANCH  16  17
ATOM     17  C   UNL     1     -95.488 -44.856 -69.426  1.00  0.00    -0.000 C 
BRANCH  17  18
ATOM     18  C   UNL     1     -97.008 -44.867 -69.652  1.00  0.00    -0.000 C 
BRANCH  18  19
ATOM     19  C   UNL     1     -97.742 -45.810 -68.686  1.00  0.00    -0.003 C 
ATOM     20  C   UNL     1     -98.384 -47.003 -69.397  1.00  0.00     0.004 C 
ENDBRANCH  18  19
ENDBRANCH  17  18
ENDBRANCH  16  17
ENDBRANCH  15  16
ENDBRANCH  14  15
ENDBRANCH  13  14
ENDBRANCH  12  13
ENDBRANCH   1  12
TORSDOF 16
ENDMDL
MODEL 5
REMARK VINA RESULT:    -3.508     14.516     15.678
REMARK INTER + INTRA:          -8.254
REMARK INTER:                  -6.399
REMARK INTRA:                  -1.855
REMARK UNBOUND:                -1.464
REMARK SMILES CCCCCCCCCCCCCCCCCC(=O)[O-]
REMARK SMILES IDX 10 1 11 2 12 3 13 4 14 5 15 6 16 7 17 8 18 9 19 10 20 11
REMARK SMILES IDX 9 12 8 13 7 14 6 15 5 16 4 17 3 18 2 19 1 20
REMARK H PARENT
REMARK Flexibility Score: inf
ROOT
ATOM      1  C   UNL     1     -98.492 -48.026 -71.868  1.00  0.00     0.000 C 
ENDROOT
BRANCH   1   2
ATOM      2  C   UNL     1     -98.022 -46.811 -71.048  1.00  0.00     0.000 C 
BRANCH   2   3
ATOM      3  C   UNL     1     -98.466 -46.882 -69.577  1.00  0.00     0.000 C 
BRANCH   3   4
ATOM      4  C   UNL     1     -97.602 -46.009 -68.651  1.00  0.00     0.000 C 
BRANCH   4   5
ATOM      5  C   UNL     1     -96.234 -45.666 -69.280  1.00  0.00     0.000 C 
BRANCH   5   6
ATOM      6  C   UNL     1     -95.034 -46.011 -68.377  1.00  0.00     0.000 C 
BRANCH   6   7
ATOM      7  C   UNL     1     -93.931 -46.844 -69.057  1.00  0.00     0.006 C 
BRANCH   7   8
ATOM      8  C   UNL     1     -94.358 -47.494 -70.384  1.00  0.00     0.053 C 
BRANCH   8   9
ATOM      9  C   UNL     1     -93.513 -47.027 -71.530  1.00  0.00     0.041 C 
ATOM     10  O   UNL     1     -93.070 -45.849 -71.551  1.00  0.00    -0.550 OA
ATOM     11  O   UNL     1     -93.187 -47.903 -72.557  1.00  0.00    -0.550 OA
ENDBRANCH   8   9
ENDBRANCH   7   8
ENDBRANCH   6   7
ENDBRANCH   5   6
ENDBRANCH   4   5
ENDBRANCH   3   4
ENDBRANCH   2   3
ENDBRANCH   1   2
BRANCH   1  12
ATOM     12  C   UNL     1     -99.162 -47.621 -73.192  1.00  0.00     0.000 C 
BRANCH  12  13
ATOM     13  C   UNL     1    -100.696 -47.732 -73.139  1.00  0.00    -0.000 C 
BRANCH  13  14
ATOM     14  C   UNL     1    -101.392 -46.385 -73.394  1.00  0.00    -0.000 C 
BRANCH  14  15
ATOM     15  C   UNL     1    -101.496 -45.524 -72.123  1.00  0.00    -0.000 C 
BRANCH  15  16
ATOM     16  C   UNL     1    -101.908 -46.342 -70.888  1.00  0.00    -0.000 C 
BRANCH  16  17
ATOM     17  C   UNL     1    -103.430 -46.517 -70.770  1.00  0.00    -0.000 C 
BRANCH  17  18
ATOM     18  C   UNL     1    -103.775 -47.761 -69.937  1.00  0.00    -0.000 C 
BRANCH  18  19
ATOM     19  C   UNL     1    -104.550 -48.816 -70.742  1.00  0.00    -0.003 C 
ATOM     20  C   UNL     1    -104.181 -48.815 -72.226  1.00  0.00     0.004 C 
ENDBRANCH  18  19
ENDBRANCH  17  18
ENDBRANCH  16  17
ENDBRANCH  15  16
ENDBRANCH  14  15
ENDBRANCH  13  14
ENDBRANCH  12  13
ENDBRANCH   1  12
TORSDOF 16
ENDMDL
MODEL 6
REMARK VINA RESULT:    -3.394     14.880     16.225
REMARK INTER + INTRA:          -8.033
REMARK INTER:                  -5.874
REMARK INTRA:                  -2.160
REMARK UNBOUND:                -1.464
REMARK SMILES CCCCCCCCCCCCCCCCCC(=O)[O-]
REMARK SMILES IDX 10 1 11 2 12 3 13 4 14 5 15 6 16 7 17 8 18 9 19 10 20 11
REMARK SMILES IDX 9 12 8 13 7 14 6 15 5 16 4 17 3 18 2 19 1 20
REMARK H PARENT
REMARK Flexibility Score: inf
ROOT
ATOM      1  C   UNL     1     -98.343 -46.829 -69.978  1.00  0.00     0.000 C 
ENDROOT
BRANCH   1   2
ATOM      2  C   UNL     1     -97.674 -46.031 -68.844  1.00  0.00     0.000 C 
BRANCH   2   3
ATOM      3  C   UNL     1     -96.998 -44.744 -69.346  1.00  0.00     0.000 C 
BRANCH   3   4
ATOM      4  C   UNL     1     -95.497 -44.690 -69.012  1.00  0.00     0.000 C 
BRANCH   4   5
ATOM      5  C   UNL     1     -95.016 -45.961 -68.277  1.00  0.00     0.000 C 
BRANCH   5   6
ATOM      6  C   UNL     1     -93.866 -46.694 -68.995  1.00  0.00     0.000 C 
BRANCH   6   7
ATOM      7  C   UNL     1     -94.285 -47.481 -70.251  1.00  0.00     0.006 C 
BRANCH   7   8
ATOM      8  C   UNL     1     -93.439 -47.176 -71.499  1.00  0.00     0.053 C 
BRANCH   8   9
ATOM      9  C   UNL     1     -93.915 -45.944 -72.207  1.00  0.00     0.041 C 
ATOM     10  O   UNL     1     -93.466 -44.814 -71.883  1.00  0.00    -0.550 OA
ATOM     11  O   UNL     1     -94.828 -46.049 -73.248  1.00  0.00    -0.550 OA
ENDBRANCH   8   9
ENDBRANCH   7   8
ENDBRANCH   6   7
ENDBRANCH   5   6
ENDBRANCH   4   5
ENDBRANCH   3   4
ENDBRANCH   2   3
ENDBRANCH   1   2
BRANCH   1  12
ATOM     12  C   UNL     1     -97.732 -46.522 -71.356  1.00  0.00     0.000 C 
BRANCH  12  13
ATOM     13  C   UNL     1     -98.070 -47.595 -72.406  1.00  0.00    -0.000 C 
BRANCH  13  14
ATOM     14  C   UNL     1     -99.481 -48.177 -72.219  1.00  0.00    -0.000 C 
BRANCH  14  15
ATOM     15  C   UNL     1    -100.486 -47.631 -73.249  1.00  0.00    -0.000 C 
BRANCH  15  16
ATOM     16  C   UNL     1    -101.850 -47.296 -72.624  1.00  0.00    -0.000 C 
BRANCH  16  17
ATOM     17  C   UNL     1    -101.733 -46.780 -71.182  1.00  0.00    -0.000 C 
BRANCH  17  18
ATOM     18  C   UNL     1    -101.546 -45.255 -71.160  1.00  0.00    -0.000 C 
BRANCH  18  19
ATOM     19  C   UNL     1    -102.418 -44.568 -70.098  1.00  0.00    -0.003 C 
ATOM     20  C   UNL     1    -103.671 -45.373 -69.750  1.00  0.00     0.004 C 
ENDBRANCH  18  19
ENDBRANCH  17  18
ENDBRANCH  16  17
ENDBRANCH  15  16
ENDBRANCH  14  15
ENDBRANCH  13  14
ENDBRANCH  12  13
ENDBRANCH   1  12
TORSDOF 16
ENDMDL
MODEL 7
REMARK VINA RESULT:    -3.392     14.947     16.570
REMARK INTER + INTRA:          -8.028
REMARK INTER:                  -5.693
REMARK INTRA:                  -2.335
REMARK UNBOUND:                -1.464
REMARK SMILES CCCCCCCCCCCCCCCCCC(=O)[O-]
REMARK SMILES IDX 10 1 11 2 12 3 13 4 14 5 15 6 16 7 17 8 18 9 19 10 20 11
REMARK SMILES IDX 9 12 8 13 7 14 6 15 5 16 4 17 3 18 2 19 1 20
REMARK H PARENT
REMARK Flexibility Score: inf
ROOT
ATOM      1  C   UNL     1     -94.395 -48.205 -71.804  1.00  0.00     0.000 C 
ENDROOT
BRANCH   1   2
ATOM      2  C   UNL     1     -93.569 -46.907 -71.808  1.00  0.00     0.000 C 
BRANCH   2   3
ATOM      3  C   UNL     1     -93.137 -46.477 -70.396  1.00  0.00     0.000 C 
BRANCH   3   4
ATOM      4  C   UNL     1     -93.876 -47.246 -69.287  1.00  0.00     0.000 C 
BRANCH   4   5
ATOM      5  C   UNL     1     -94.595 -46.301 -68.300  1.00  0.00     0.000 C 
BRANCH   5   6
ATOM      6  C   UNL     1     -95.010 -44.955 -68.924  1.00  0.00     0.000 C 
BRANCH   6   7
ATOM      7  C   UNL     1     -96.401 -44.950 -69.585  1.00  0.00     0.006 C 
BRANCH   7   8
ATOM      8  C   UNL     1     -97.296 -46.134 -69.182  1.00  0.00     0.053 C 
BRANCH   8   9
ATOM      9  C   UNL     1     -98.231 -45.773 -68.069  1.00  0.00     0.041 C 
ATOM     10  O   UNL     1     -98.249 -46.456 -67.011  1.00  0.00    -0.550 OA
ATOM     11  O   UNL     1     -99.058 -44.663 -68.186  1.00  0.00    -0.550 OA
ENDBRANCH   8   9
ENDBRANCH   7   8
ENDBRANCH   6   7
ENDBRANCH   5   6
ENDBRANCH   4   5
ENDBRANCH   3   4
ENDBRANCH   2   3
ENDBRANCH   1   2
BRANCH   1  12
ATOM     12  C   UNL     1     -95.731 -48.058 -72.553  1.00  0.00     0.000 C 
BRANCH  12  13
ATOM     13  C   UNL     1     -96.067 -46.592 -72.880  1.00  0.00    -0.000 C 
BRANCH  13  14
ATOM     14  C   UNL     1     -97.581 -46.323 -72.885  1.00  0.00    -0.000 C 
BRANCH  14  15
ATOM     15  C   UNL     1     -98.410 -47.613 -72.755  1.00  0.00    -0.000 C 
BRANCH  15  16
ATOM     16  C   UNL     1     -99.905 -47.335 -72.528  1.00  0.00    -0.000 C 
BRANCH  16  17
ATOM     17  C   UNL     1    -100.203 -46.785 -71.124  1.00  0.00    -0.000 C 
BRANCH  17  18
ATOM     18  C   UNL     1    -100.829 -45.385 -71.206  1.00  0.00    -0.000 C 
BRANCH  18  19
ATOM     19  C   UNL     1    -102.222 -45.322 -70.561  1.00  0.00    -0.003 C 
ATOM     20  C   UNL     1    -102.413 -44.082 -69.686  1.00  0.00     0.004 C 
ENDBRANCH  18  19
ENDBRANCH  17  18
ENDBRANCH  16  17
ENDBRANCH  15  16
ENDBRANCH  14  15
ENDBRANCH  13  14
ENDBRANCH  12  13
ENDBRANCH   1  12
TORSDOF 16
ENDMDL
MODEL 8
REMARK VINA RESULT:    -3.386     16.999     19.989
REMARK INTER + INTRA:          -8.017
REMARK INTER:                  -5.231
REMARK INTRA:                  -2.787
REMARK UNBOUND:                -1.464
REMARK SMILES CCCCCCCCCCCCCCCCCC(=O)[O-]
REMARK SMILES IDX 10 1 11 2 12 3 13 4 14 5 15 6 16 7 17 8 18 9 19 10 20 11
REMARK SMILES IDX 9 12 8 13 7 14 6 15 5 16 4 17 3 18 2 19 1 20
REMARK H PARENT
REMARK Flexibility Score: inf
ROOT
ATOM      1  C   UNL     1    -109.324 -49.895 -58.370  1.00  0.00     0.000 C 
ENDROOT
BRANCH   1   2
ATOM      2  C   UNL     1    -110.597 -49.504 -59.141  1.00  0.00     0.000 C 
BRANCH   2   3
ATOM      3  C   UNL     1    -110.437 -48.183 -59.913  1.00  0.00     0.000 C 
BRANCH   3   4
ATOM      4  C   UNL     1    -108.975 -47.711 -59.989  1.00  0.00     0.000 C 
BRANCH   4   5
ATOM      5  C   UNL     1    -108.590 -47.227 -61.404  1.00  0.00     0.000 C 
BRANCH   5   6
ATOM      6  C   UNL     1    -108.671 -48.330 -62.478  1.00  0.00     0.000 C 
BRANCH   6   7
ATOM      7  C   UNL     1    -107.706 -49.511 -62.266  1.00  0.00     0.006 C 
BRANCH   7   8
ATOM      8  C   UNL     1    -108.294 -50.882 -62.641  1.00  0.00     0.053 C 
BRANCH   8   9
ATOM      9  C   UNL     1    -107.900 -51.297 -64.026  1.00  0.00     0.041 C 
ATOM     10  O   UNL     1    -106.791 -50.939 -64.502  1.00  0.00    -0.550 OA
ATOM     11  O   UNL     1    -108.742 -52.108 -64.776  1.00  0.00    -0.550 OA
ENDBRANCH   8   9
ENDBRANCH   7   8
ENDBRANCH   6   7
ENDBRANCH   5   6
ENDBRANCH   4   5
ENDBRANCH   3   4
ENDBRANCH   2   3
ENDBRANCH   1   2
BRANCH   1  12
ATOM     12  C   UNL     1    -109.578 -50.072 -56.863  1.00  0.00     0.000 C 
BRANCH  12  13
ATOM     13  C   UNL     1    -108.430 -49.519 -56.000  1.00  0.00    -0.000 C 
BRANCH  13  14
ATOM     14  C   UNL     1    -107.339 -48.836 -56.841  1.00  0.00    -0.000 C 
BRANCH  14  15
ATOM     15  C   UNL     1    -107.363 -47.303 -56.705  1.00  0.00    -0.000 C 
BRANCH  15  16
ATOM     16  C   UNL     1    -107.899 -46.840 -55.340  1.00  0.00    -0.000 C 
BRANCH  16  17
ATOM     17  C   UNL     1    -109.119 -45.913 -55.462  1.00  0.00    -0.000 C 
BRANCH  17  18
ATOM     18  C   UNL     1    -109.681 -45.935 -56.892  1.00  0.00    -0.000 C 
BRANCH  18  19
ATOM     19  C   UNL     1    -111.208 -46.104 -56.923  1.00  0.00    -0.003 C 
ATOM     20  C   UNL     1    -111.688 -47.295 -56.092  1.00  0.00     0.004 C 
ENDBRANCH  18  19
ENDBRANCH  17  18
ENDBRANCH  16  17
ENDBRANCH  15  16
ENDBRANCH  14  15
ENDBRANCH  13  14
ENDBRANCH  12  13
ENDBRANCH   1  12
TORSDOF 16
ENDMDL
MODEL 9
REMARK VINA RESULT:    -3.349     16.042     19.116
REMARK INTER + INTRA:          -7.946
REMARK INTER:                  -5.080
REMARK INTRA:                  -2.866
REMARK UNBOUND:                -1.464
REMARK SMILES CCCCCCCCCCCCCCCCCC(=O)[O-]
REMARK SMILES IDX 10 1 11 2 12 3 13 4 14 5 15 6 16 7 17 8 18 9 19 10 20 11
REMARK SMILES IDX 9 12 8 13 7 14 6 15 5 16 4 17 3 18 2 19 1 20
REMARK H PARENT
REMARK Flexibility Score: inf
ROOT
ATOM      1  C   UNL     1    -109.025 -46.852 -57.203  1.00  0.00     0.000 C 
ENDROOT
BRANCH   1   2
ATOM      2  C   UNL     1    -109.333 -46.132 -58.528  1.00  0.00     0.000 C 
BRANCH   2   3
ATOM      3  C   UNL     1    -110.206 -46.979 -59.471  1.00  0.00     0.000 C 
BRANCH   3   4
ATOM      4  C   UNL     1    -109.624 -47.079 -60.891  1.00  0.00     0.000 C 
BRANCH   4   5
ATOM      5  C   UNL     1    -108.191 -47.655 -60.896  1.00  0.00     0.000 C 
BRANCH   5   6
ATOM      6  C   UNL     1    -108.026 -48.898 -61.792  1.00  0.00     0.000 C 
BRANCH   6   7
ATOM      7  C   UNL     1    -108.555 -48.734 -63.229  1.00  0.00     0.006 C 
BRANCH   7   8
ATOM      8  C   UNL     1    -108.551 -50.031 -64.056  1.00  0.00     0.053 C 
BRANCH   8   9
ATOM      9  C   UNL     1    -107.182 -50.362 -64.566  1.00  0.00     0.041 C 
ATOM     10  O   UNL     1    -106.534 -51.318 -64.065  1.00  0.00    -0.550 OA
ATOM     11  O   UNL     1    -106.636 -49.636 -65.617  1.00  0.00    -0.550 OA
ENDBRANCH   8   9
ENDBRANCH   7   8
ENDBRANCH   6   7
ENDBRANCH   5   6
ENDBRANCH   4   5
ENDBRANCH   3   4
ENDBRANCH   2   3
ENDBRANCH   1   2
BRANCH   1  12
ATOM     12  C   UNL     1    -107.619 -47.477 -57.183  1.00  0.00     0.000 C 
BRANCH  12  13
ATOM     13  C   UNL     1    -107.643 -48.977 -56.839  1.00  0.00    -0.000 C 
BRANCH  13  14
ATOM     14  C   UNL     1    -109.025 -49.448 -56.355  1.00  0.00    -0.000 C 
BRANCH  14  15
ATOM     15  C   UNL     1    -109.579 -50.613 -57.195  1.00  0.00    -0.000 C 
BRANCH  15  16
ATOM     16  C   UNL     1    -109.385 -50.397 -58.705  1.00  0.00    -0.000 C 
BRANCH  16  17
ATOM     17  C   UNL     1    -109.417 -51.709 -59.503  1.00  0.00    -0.000 C 
BRANCH  17  18
ATOM     18  C   UNL     1    -110.557 -51.695 -60.533  1.00  0.00    -0.000 C 
BRANCH  18  19
ATOM     19  C   UNL     1    -111.340 -50.374 -60.530  1.00  0.00    -0.003 C 
ATOM     20  C   UNL     1    -111.812 -49.962 -61.925  1.00  0.00     0.004 C 
ENDBRANCH  18  19
ENDBRANCH  17  18
ENDBRANCH  16  17
ENDBRANCH  15  16
ENDBRANCH  14  15
ENDBRANCH  13  14
ENDBRANCH  12  13
ENDBRANCH   1  12
TORSDOF 16
ENDMDL
