MODEL 1
REMARK VINA RESULT:    -4.989      0.000      0.000
REMARK INTER + INTRA:          -6.783
REMARK INTER:                  -7.031
REMARK INTRA:                   0.248
REMARK UNBOUND:                 0.248
REMARK SMILES CC1=CCC(=C(C)C)C(=O)CC(C)=CCC1
REMARK SMILES IDX 12 1 14 2 13 3 15 4 16 5 2 6 1 7 3 8 11 10 9 11 10 12 5 13
REMARK SMILES IDX 6 14 7 15 8 16 4 17
REMARK H PARENT
REMARK Flexibility Score: 60.00
ROOT
ATOM      1  C   UNL     1      41.744 -11.329  12.117  1.00  0.00    -0.070 C 
ATOM      2  C   UNL     1      41.395 -10.702  10.973  1.00  0.00    -0.027 C 
ATOM      3  C   UNL     1      41.006 -12.593  12.483  1.00  0.00     0.039 C 
ENDROOT
BRANCH   2   4
ATOM      4  C   UNL     1      41.947  -9.379  10.486  1.00  0.00     0.032 C 
BRANCH   4   5
ATOM      5  C   UNL     1      41.149  -8.139  10.942  1.00  0.00     0.034 C 
BRANCH   5   6
ATOM      6  C   UNL     1      42.008  -7.098  11.637  1.00  0.00    -0.077 C 
ATOM      7  C   UNL     1      42.831  -6.178  10.773  1.00  0.00     0.039 C 
ATOM      8  C   UNL     1      42.136  -6.989  12.982  1.00  0.00    -0.023 CG0
ATOM      9  G   UNL     1      41.398  -7.786  14.039  1.00  0.00     0.000 G0
ENDBRANCH   5   6
ENDBRANCH   4   5
ENDBRANCH   2   4
BRANCH   1  10
ATOM     10  C   UNL     1      42.769 -10.779  13.087  1.00  0.00     0.111 C 
BRANCH  10  11
ATOM     11  C   UNL     1      42.120 -10.224  14.328  1.00  0.00     0.163 C 
ATOM     12  O   UNL     1      41.383 -10.990  15.006  1.00  0.00    -0.294 OA
BRANCH  11  13
ATOM     13  C   UNL     1      42.270  -8.797  14.739  1.00  0.00    -0.002 C 
ATOM     14  C   UNL     1      43.108  -8.449  15.762  1.00  0.00    -0.069 C 
ATOM     15  C   UNL     1      43.164  -7.039  16.307  1.00  0.00     0.039 C 
ATOM     16  C   UNL     1      44.025  -9.466  16.405  1.00  0.00     0.039 C 
BRANCH  13  17
ATOM     17  C   UNL     1      41.386  -7.775  14.041  1.00  0.00     0.066 CG0
ATOM     18  G   UNL     1      42.134  -7.004  12.972  1.00  0.00     0.000 G0
ENDBRANCH  13  17
ENDBRANCH  11  13
ENDBRANCH  10  11
ENDBRANCH   1  10
TORSDOF 0
ENDMDL
MODEL 2
REMARK VINA RESULT:    -4.654     20.571     21.812
REMARK INTER + INTRA:          -6.311
REMARK INTER:                  -6.508
REMARK INTRA:                   0.196
REMARK UNBOUND:                 0.248
REMARK SMILES CC1=CCC(=C(C)C)C(=O)CC(C)=CCC1
REMARK SMILES IDX 12 1 14 2 13 3 15 4 16 5 2 6 1 7 3 8 11 10 9 11 10 12 5 13
REMARK SMILES IDX 6 14 7 15 8 16 4 17
REMARK H PARENT
REMARK Flexibility Score: 60.00
ROOT
ATOM      1  C   UNL     1      59.477 -24.666   9.061  1.00  0.00    -0.070 C 
ATOM      2  C   UNL     1      59.600 -23.505   8.382  1.00  0.00    -0.027 C 
ATOM      3  C   UNL     1      59.344 -25.939   8.263  1.00  0.00     0.039 C 
ENDROOT
BRANCH   2   4
ATOM      4  C   UNL     1      59.647 -22.122   8.997  1.00  0.00     0.032 C 
BRANCH   4   5
ATOM      5  C   UNL     1      58.284 -21.585   9.486  1.00  0.00     0.034 C 
BRANCH   5   6
ATOM      6  C   UNL     1      58.348 -20.970  10.872  1.00  0.00    -0.077 C 
ATOM      7  C   UNL     1      59.235 -19.766  11.065  1.00  0.00     0.039 C 
ATOM      8  C   UNL     1      57.714 -21.472  11.960  1.00  0.00    -0.023 CG0
ATOM      9  G   UNL     1      56.763 -22.651  12.001  1.00  0.00     0.000 G0
ENDBRANCH   5   6
ENDBRANCH   4   5
ENDBRANCH   2   4
BRANCH   1  10
ATOM     10  C   UNL     1      59.375 -24.740  10.570  1.00  0.00     0.111 C 
BRANCH  10  11
ATOM     11  C   UNL     1      57.942 -24.728  11.033  1.00  0.00     0.163 C 
ATOM     12  O   UNL     1      57.085 -25.328  10.329  1.00  0.00    -0.294 OA
BRANCH  11  13
ATOM     13  C   UNL     1      57.499 -23.984  12.250  1.00  0.00    -0.002 C 
ATOM     14  C   UNL     1      57.681 -24.515  13.497  1.00  0.00    -0.069 C 
ATOM     15  C   UNL     1      57.105 -23.864  14.736  1.00  0.00     0.039 C 
ATOM     16  C   UNL     1      58.470 -25.789  13.701  1.00  0.00     0.039 C 
BRANCH  13  17
ATOM     17  C   UNL     1      56.762 -22.672  12.034  1.00  0.00     0.066 CG0
ATOM     18  G   UNL     1      57.706 -21.489  11.950  1.00  0.00     0.000 G0
ENDBRANCH  13  17
ENDBRANCH  11  13
ENDBRANCH  10  11
ENDBRANCH   1  10
TORSDOF 0
ENDMDL
MODEL 3
REMARK VINA RESULT:    -4.624      1.885      3.810
REMARK INTER + INTRA:          -6.269
REMARK INTER:                  -6.467
REMARK INTRA:                   0.198
REMARK UNBOUND:                 0.248
REMARK SMILES CC1=CCC(=C(C)C)C(=O)CC(C)=CCC1
REMARK SMILES IDX 12 1 14 2 13 3 15 4 16 5 2 6 1 7 3 8 11 10 9 11 10 12 5 13
REMARK SMILES IDX 6 14 7 15 8 16 4 17
REMARK H PARENT
REMARK Flexibility Score: 60.00
ROOT
ATOM      1  C   UNL     1      41.382  -7.281  11.010  1.00  0.00    -0.070 C 
ATOM      2  C   UNL     1      41.167  -8.326  10.184  1.00  0.00    -0.027 C 
ATOM      3  C   UNL     1      41.670  -5.937  10.390  1.00  0.00     0.039 C 
ENDROOT
BRANCH   2   4
ATOM      4  C   UNL     1      40.960  -9.764  10.611  1.00  0.00     0.032 C 
BRANCH   4   5
ATOM      5  C   UNL     1      42.242 -10.493  11.066  1.00  0.00     0.034 C 
BRANCH   5   6
ATOM      6  C   UNL     1      42.099 -11.166  12.420  1.00  0.00    -0.077 C 
ATOM      7  C   UNL     1      41.089 -12.278  12.547  1.00  0.00     0.039 C 
ATOM      8  C   UNL     1      42.768 -10.786  13.536  1.00  0.00    -0.023 CG0
ATOM      9  G   UNL     1      43.836  -9.715  13.641  1.00  0.00     0.000 G0
ENDBRANCH   5   6
ENDBRANCH   4   5
ENDBRANCH   2   4
BRANCH   1  10
ATOM     10  C   UNL     1      41.438  -7.411  12.519  1.00  0.00     0.111 C 
BRANCH  10  11
ATOM     11  C   UNL     1      42.858  -7.435  13.023  1.00  0.00     0.163 C 
ATOM     12  O   UNL     1      43.694  -6.665  12.479  1.00  0.00    -0.294 OA
BRANCH  11  13
ATOM     13  C   UNL     1      43.312  -8.374  14.091  1.00  0.00    -0.002 C 
ATOM     14  C   UNL     1      43.318  -7.990  15.403  1.00  0.00    -0.069 C 
ATOM     15  C   UNL     1      43.918  -8.856  16.489  1.00  0.00     0.039 C 
ATOM     16  C   UNL     1      42.722  -6.668  15.837  1.00  0.00     0.039 C 
BRANCH  13  17
ATOM     17  C   UNL     1      43.851  -9.725  13.647  1.00  0.00     0.066 CG0
ATOM     18  G   UNL     1      42.760 -10.772  13.539  1.00  0.00     0.000 G0
ENDBRANCH  13  17
ENDBRANCH  11  13
ENDBRANCH  10  11
ENDBRANCH   1  10
TORSDOF 0
ENDMDL
MODEL 4
REMARK VINA RESULT:    -4.525      2.040      3.604
REMARK INTER + INTRA:          -6.129
REMARK INTER:                  -6.574
REMARK INTRA:                   0.444
REMARK UNBOUND:                 0.248
REMARK SMILES CC1=CCC(=C(C)C)C(=O)CC(C)=CCC1
REMARK SMILES IDX 12 1 14 2 13 3 15 4 16 5 2 6 1 7 3 8 11 10 9 11 10 12 5 13
REMARK SMILES IDX 6 14 7 15 8 16 4 17
REMARK H PARENT
REMARK Flexibility Score: 60.00
ROOT
ATOM      1  C   UNL     1      42.141  -7.812  13.259  1.00  0.00    -0.070 C 
ATOM      2  C   UNL     1      41.349  -7.675  12.174  1.00  0.00    -0.027 C 
ATOM      3  C   UNL     1      41.591  -7.380  14.595  1.00  0.00     0.039 C 
ENDROOT
BRANCH   2   4
ATOM      4  C   UNL     1      41.752  -7.960  10.743  1.00  0.00     0.032 C 
BRANCH   4   5
ATOM      5  C   UNL     1      41.228  -9.297  10.177  1.00  0.00     0.034 C 
BRANCH   5   6
ATOM      6  C   UNL     1      42.256 -10.413  10.232  1.00  0.00    -0.077 C 
ATOM      7  C   UNL     1      43.109 -10.640   9.010  1.00  0.00     0.039 C 
ATOM      8  C   UNL     1      42.409 -11.259  11.280  1.00  0.00    -0.023 CG0
ATOM      9  G   UNL     1      41.681 -11.210  12.609  1.00  0.00     0.000 G0
ENDBRANCH   5   6
ENDBRANCH   4   5
ENDBRANCH   2   4
BRANCH   1  10
ATOM     10  C   UNL     1      43.577  -8.291  13.185  1.00  0.00     0.111 C 
BRANCH  10  11
ATOM     11  C   UNL     1      43.677  -9.782  13.371  1.00  0.00     0.163 C 
ATOM     12  O   UNL     1      44.785 -10.337  13.140  1.00  0.00    -0.294 OA
BRANCH  11  13
ATOM     13  C   UNL     1      42.503 -10.622  13.753  1.00  0.00    -0.002 C 
ATOM     14  C   UNL     1      42.246 -10.907  15.066  1.00  0.00    -0.069 C 
ATOM     15  C   UNL     1      41.163 -11.880  15.477  1.00  0.00     0.039 C 
ATOM     16  C   UNL     1      43.040 -10.260  16.179  1.00  0.00     0.039 C 
BRANCH  13  17
ATOM     17  C   UNL     1      41.675 -11.216  12.625  1.00  0.00     0.066 CG0
ATOM     18  G   UNL     1      42.433 -11.253  11.313  1.00  0.00     0.000 G0
ENDBRANCH  13  17
ENDBRANCH  11  13
ENDBRANCH  10  11
ENDBRANCH   1  10
TORSDOF 0
ENDMDL
MODEL 5
REMARK VINA RESULT:    -4.496      2.072      3.971
REMARK INTER + INTRA:          -6.088
REMARK INTER:                  -6.479
REMARK INTRA:                   0.391
REMARK UNBOUND:                 0.248
REMARK SMILES CC1=CCC(=C(C)C)C(=O)CC(C)=CCC1
REMARK SMILES IDX 12 1 14 2 13 3 15 4 16 5 2 6 1 7 3 8 11 10 9 11 10 12 5 13
REMARK SMILES IDX 6 14 7 15 8 16 4 17
REMARK H PARENT
REMARK Flexibility Score: 60.00
ROOT
ATOM      1  C   UNL     1      41.693 -10.426  14.501  1.00  0.00    -0.070 C 
ATOM      2  C   UNL     1      41.180  -9.320  15.079  1.00  0.00    -0.027 C 
ATOM      3  C   UNL     1      41.875 -11.653  15.359  1.00  0.00     0.039 C 
ENDROOT
BRANCH   2   4
ATOM      4  C   UNL     1      41.013  -7.970  14.415  1.00  0.00     0.032 C 
BRANCH   4   5
ATOM      5  C   UNL     1      41.812  -6.823  15.070  1.00  0.00     0.034 C 
BRANCH   5   6
ATOM      6  C   UNL     1      43.288  -7.140  15.232  1.00  0.00    -0.077 C 
ATOM      7  C   UNL     1      43.861  -7.119  16.627  1.00  0.00     0.039 C 
ATOM      8  C   UNL     1      44.136  -7.373  14.201  1.00  0.00    -0.023 CG0
ATOM      9  G   UNL     1      43.784  -7.462  12.729  1.00  0.00     0.000 G0
ENDBRANCH   5   6
ENDBRANCH   4   5
ENDBRANCH   2   4
BRANCH   1  10
ATOM     10  C   UNL     1      42.176 -10.466  13.065  1.00  0.00     0.111 C 
BRANCH  10  11
ATOM     11  C   UNL     1      43.608 -10.014  12.947  1.00  0.00     0.163 C 
ATOM     12  O   UNL     1      44.482 -10.630  13.615  1.00  0.00    -0.294 OA
BRANCH  11  13
ATOM     13  C   UNL     1      44.011  -8.836  12.122  1.00  0.00    -0.002 C 
ATOM     14  C   UNL     1      44.632  -9.007  10.917  1.00  0.00    -0.069 C 
ATOM     15  C   UNL     1      45.193  -7.841  10.132  1.00  0.00     0.039 C 
ATOM     16  C   UNL     1      44.792 -10.381  10.304  1.00  0.00     0.039 C 
BRANCH  13  17
ATOM     17  C   UNL     1      43.788  -7.457  12.723  1.00  0.00     0.066 CG0
ATOM     18  G   UNL     1      44.149  -7.406  14.194  1.00  0.00     0.000 G0
ENDBRANCH  13  17
ENDBRANCH  11  13
ENDBRANCH  10  11
ENDBRANCH   1  10
TORSDOF 0
ENDMDL
MODEL 6
REMARK VINA RESULT:    -4.427      2.242      2.857
REMARK INTER + INTRA:          -5.990
REMARK INTER:                  -6.187
REMARK INTRA:                   0.197
REMARK UNBOUND:                 0.248
REMARK SMILES CC1=CCC(=C(C)C)C(=O)CC(C)=CCC1
REMARK SMILES IDX 12 1 14 2 13 3 15 4 16 5 2 6 1 7 3 8 11 10 9 11 10 12 5 13
REMARK SMILES IDX 6 14 7 15 8 16 4 17
REMARK H PARENT
REMARK Flexibility Score: 60.00
ROOT
ATOM      1  C   UNL     1      41.549 -12.114  11.826  1.00  0.00    -0.070 C 
ATOM      2  C   UNL     1      42.486 -12.432  10.908  1.00  0.00    -0.027 C 
ATOM      3  C   UNL     1      40.521 -13.161  12.178  1.00  0.00     0.039 C 
ENDROOT
BRANCH   2   4
ATOM      4  C   UNL     1      43.536 -11.492  10.353  1.00  0.00     0.032 C 
BRANCH   4   5
ATOM      5  C   UNL     1      44.773 -11.300  11.256  1.00  0.00     0.034 C 
BRANCH   5   6
ATOM      6  C   UNL     1      45.133  -9.841  11.473  1.00  0.00    -0.077 C 
ATOM      7  C   UNL     1      45.678  -9.071  10.297  1.00  0.00     0.039 C 
ATOM      8  C   UNL     1      45.062  -9.207  12.668  1.00  0.00    -0.023 CG0
ATOM      9  G   UNL     1      44.531  -9.770  13.972  1.00  0.00     0.000 G0
ENDBRANCH   5   6
ENDBRANCH   4   5
ENDBRANCH   2   4
BRANCH   1  10
ATOM     10  C   UNL     1      41.425 -10.737  12.446  1.00  0.00     0.111 C 
BRANCH  10  11
ATOM     11  C   UNL     1      42.118 -10.665  13.782  1.00  0.00     0.163 C 
ATOM     12  O   UNL     1      41.871 -11.565  14.629  1.00  0.00    -0.294 OA
BRANCH  11  13
ATOM     13  C   UNL     1      43.027  -9.540  14.152  1.00  0.00    -0.002 C 
ATOM     14  C   UNL     1      42.520  -8.332  14.543  1.00  0.00    -0.069 C 
ATOM     15  C   UNL     1      43.407  -7.127  14.771  1.00  0.00     0.039 C 
ATOM     16  C   UNL     1      41.036  -8.138  14.766  1.00  0.00     0.039 C 
BRANCH  13  17
ATOM     17  C   UNL     1      44.521  -9.768  13.983  1.00  0.00     0.066 CG0
ATOM     18  G   UNL     1      45.044  -9.204  12.677  1.00  0.00     0.000 G0
ENDBRANCH  13  17
ENDBRANCH  11  13
ENDBRANCH  10  11
ENDBRANCH   1  10
TORSDOF 0
ENDMDL
MODEL 7
REMARK VINA RESULT:    -4.345      2.193      3.192
REMARK INTER + INTRA:          -5.876
REMARK INTER:                  -6.210
REMARK INTRA:                   0.334
REMARK UNBOUND:                 0.248
REMARK SMILES CC1=CCC(=C(C)C)C(=O)CC(C)=CCC1
REMARK SMILES IDX 12 1 14 2 13 3 15 4 16 5 2 6 1 7 3 8 11 10 9 11 10 12 5 13
REMARK SMILES IDX 6 14 7 15 8 16 4 17
REMARK H PARENT
REMARK Flexibility Score: 60.00
ROOT
ATOM      1  C   UNL     1      41.348 -11.999  14.186  1.00  0.00    -0.070 C 
ATOM      2  C   UNL     1      41.243 -12.580  12.972  1.00  0.00    -0.027 C 
ATOM      3  C   UNL     1      41.110 -12.857  15.404  1.00  0.00     0.039 C 
ENDROOT
BRANCH   2   4
ATOM      4  C   UNL     1      41.348 -11.870  11.639  1.00  0.00     0.032 C 
BRANCH   4   5
ATOM      5  C   UNL     1      42.752 -11.902  10.999  1.00  0.00     0.034 C 
BRANCH   5   6
ATOM      6  C   UNL     1      43.204 -10.549  10.480  1.00  0.00    -0.077 C 
ATOM      7  C   UNL     1      42.732 -10.129   9.111  1.00  0.00     0.039 C 
ATOM      8  C   UNL     1      44.057  -9.725  11.138  1.00  0.00    -0.023 CG0
ATOM      9  G   UNL     1      44.639  -9.928  12.522  1.00  0.00     0.000 G0
ENDBRANCH   5   6
ENDBRANCH   4   5
ENDBRANCH   2   4
BRANCH   1  10
ATOM     10  C   UNL     1      41.602 -10.518  14.380  1.00  0.00     0.111 C 
BRANCH  10  11
ATOM     11  C   UNL     1      43.071 -10.220  14.531  1.00  0.00     0.163 C 
ATOM     12  O   UNL     1      43.686 -10.742  15.500  1.00  0.00    -0.294 OA
BRANCH  11  13
ATOM     13  C   UNL     1      43.797  -9.287  13.618  1.00  0.00    -0.002 C 
ATOM     14  C   UNL     1      43.618  -7.936  13.714  1.00  0.00    -0.069 C 
ATOM     15  C   UNL     1      44.212  -6.975  12.707  1.00  0.00     0.039 C 
ATOM     16  C   UNL     1      42.810  -7.329  14.840  1.00  0.00     0.039 C 
BRANCH  13  17
ATOM     17  C   UNL     1      44.656  -9.909  12.529  1.00  0.00     0.066 CG0
ATOM     18  G   UNL     1      44.073  -9.700  11.146  1.00  0.00     0.000 G0
ENDBRANCH  13  17
ENDBRANCH  11  13
ENDBRANCH  10  11
ENDBRANCH   1  10
TORSDOF 0
ENDMDL
MODEL 8
REMARK VINA RESULT:    -4.298      1.607      3.746
REMARK INTER + INTRA:          -5.809
REMARK INTER:                  -6.063
REMARK INTRA:                   0.253
REMARK UNBOUND:                 0.248
REMARK SMILES CC1=CCC(=C(C)C)C(=O)CC(C)=CCC1
REMARK SMILES IDX 12 1 14 2 13 3 15 4 16 5 2 6 1 7 3 8 11 10 9 11 10 12 5 13
REMARK SMILES IDX 6 14 7 15 8 16 4 17
REMARK H PARENT
REMARK Flexibility Score: 60.00
ROOT
ATOM      1  C   UNL     1      41.786 -11.341  12.489  1.00  0.00    -0.070 C 
ATOM      2  C   UNL     1      41.552 -11.182  13.809  1.00  0.00    -0.027 C 
ATOM      3  C   UNL     1      41.129 -12.505  11.790  1.00  0.00     0.039 C 
ENDROOT
BRANCH   2   4
ATOM      4  C   UNL     1      42.193 -10.140  14.701  1.00  0.00     0.032 C 
BRANCH   4   5
ATOM      5  C   UNL     1      41.459  -8.782  14.739  1.00  0.00     0.034 C 
BRANCH   5   6
ATOM      6  C   UNL     1      42.384  -7.597  14.526  1.00  0.00    -0.077 C 
ATOM      7  C   UNL     1      43.260  -7.175  15.679  1.00  0.00     0.039 C 
ATOM      8  C   UNL     1      42.424  -6.853  13.394  1.00  0.00    -0.023 CG0
ATOM      9  G   UNL     1      41.654  -7.099  12.111  1.00  0.00     0.000 G0
ENDBRANCH   5   6
ENDBRANCH   4   5
ENDBRANCH   2   4
BRANCH   1  10
ATOM     10  C   UNL     1      42.742 -10.468  11.702  1.00  0.00     0.111 C 
BRANCH  10  11
ATOM     11  C   UNL     1      42.019  -9.361  10.980  1.00  0.00     0.163 C 
ATOM     12  O   UNL     1      41.077  -9.675  10.203  1.00  0.00    -0.294 OA
BRANCH  11  13
ATOM     13  C   UNL     1      42.418  -7.928  11.107  1.00  0.00    -0.002 C 
ATOM     14  C   UNL     1      43.490  -7.438  10.414  1.00  0.00    -0.069 C 
ATOM     15  C   UNL     1      44.016  -6.037  10.639  1.00  0.00     0.039 C 
ATOM     16  C   UNL     1      44.209  -8.279   9.382  1.00  0.00     0.039 C 
BRANCH  13  17
ATOM     17  C   UNL     1      41.647  -7.076  12.102  1.00  0.00     0.066 CG0
ATOM     18  G   UNL     1      42.419  -6.853  13.387  1.00  0.00     0.000 G0
ENDBRANCH  13  17
ENDBRANCH  11  13
ENDBRANCH  10  11
ENDBRANCH   1  10
TORSDOF 0
ENDMDL
MODEL 9
REMARK VINA RESULT:    -4.221     20.413     21.890
REMARK INTER + INTRA:          -5.701
REMARK INTER:                  -5.841
REMARK INTRA:                   0.140
REMARK UNBOUND:                 0.248
REMARK SMILES CC1=CCC(=C(C)C)C(=O)CC(C)=CCC1
REMARK SMILES IDX 12 1 14 2 13 3 15 4 16 5 2 6 1 7 3 8 11 10 9 11 10 12 5 13
REMARK SMILES IDX 6 14 7 15 8 16 4 17
REMARK H PARENT
REMARK Flexibility Score: 60.00
ROOT
ATOM      1  C   UNL     1      59.363 -20.791  11.796  1.00  0.00    -0.070 C 
ATOM      2  C   UNL     1      59.303 -21.151  13.095  1.00  0.00    -0.027 C 
ATOM      3  C   UNL     1      59.375 -19.318  11.470  1.00  0.00     0.039 C 
ENDROOT
BRANCH   2   4
ATOM      4  C   UNL     1      59.184 -22.568  13.616  1.00  0.00     0.032 C 
BRANCH   4   5
ATOM      5  C   UNL     1      57.742 -23.114  13.680  1.00  0.00     0.034 C 
BRANCH   5   6
ATOM      6  C   UNL     1      57.600 -24.500  13.077  1.00  0.00    -0.077 C 
ATOM      7  C   UNL     1      58.200 -25.658  13.833  1.00  0.00     0.039 C 
ATOM      8  C   UNL     1      57.032 -24.754  11.873  1.00  0.00    -0.023 CG0
ATOM      9  G   UNL     1      56.353 -23.759  10.954  1.00  0.00     0.000 G0
ENDBRANCH   5   6
ENDBRANCH   4   5
ENDBRANCH   2   4
BRANCH   1  10
ATOM     10  C   UNL     1      59.326 -21.786  10.654  1.00  0.00     0.111 C 
BRANCH  10  11
ATOM     11  C   UNL     1      57.943 -21.916  10.073  1.00  0.00     0.163 C 
ATOM     12  O   UNL     1      57.305 -20.860   9.815  1.00  0.00    -0.294 OA
BRANCH  11  13
ATOM     13  C   UNL     1      57.288 -23.241   9.855  1.00  0.00    -0.002 C 
ATOM     14  C   UNL     1      57.465 -23.922   8.683  1.00  0.00    -0.069 C 
ATOM     15  C   UNL     1      56.693 -25.185   8.367  1.00  0.00     0.039 C 
ATOM     16  C   UNL     1      58.446 -23.443   7.636  1.00  0.00     0.039 C 
BRANCH  13  17
ATOM     17  C   UNL     1      56.351 -23.741  10.943  1.00  0.00     0.066 CG0
ATOM     18  G   UNL     1      57.026 -24.731  11.871  1.00  0.00     0.000 G0
ENDBRANCH  13  17
ENDBRANCH  11  13
ENDBRANCH  10  11
ENDBRANCH   1  10
TORSDOF 0
ENDMDL
