MODEL 1
REMARK VINA RESULT:    -3.810      0.000      0.000
REMARK INTER + INTRA:          -4.171
REMARK INTER:                  -4.144
REMARK INTRA:                  -0.027
REMARK UNBOUND:                -0.027
REMARK SMILES O=C([O-])c1ccc(O)cc1
REMARK SMILES IDX 4 1 5 2 10 3 6 4 9 5 7 6 2 7 1 8 3 9 8 10
REMARK H PARENT 8 11
REMARK Flexibility Score: inf
ROOT
ATOM      1  C   UNL     1       1.692  36.798   5.520  1.00  0.00    -0.003 A 
ATOM      2  C   UNL     1       1.693  35.393   5.432  1.00  0.00     0.014 A 
ATOM      3  C   UNL     1       0.526  37.454   5.948  1.00  0.00     0.014 A 
ATOM      4  C   UNL     1       0.548  34.663   5.769  1.00  0.00     0.047 A 
ATOM      5  C   UNL     1      -0.617  36.721   6.283  1.00  0.00     0.047 A 
ATOM      6  C   UNL     1      -0.608  35.323   6.193  1.00  0.00     0.115 A 
ENDROOT
BRANCH   1   7
ATOM      7  C   UNL     1       2.901  37.575   5.167  1.00  0.00     0.071 C 
ATOM      8  O   UNL     1       3.165  37.839   3.963  1.00  0.00    -0.545 OA
ATOM      9  O   UNL     1       3.763  38.026   6.160  1.00  0.00    -0.545 OA
ENDBRANCH   1   7
BRANCH   6  10
ATOM     10  O   UNL     1      -1.741  34.582   6.524  1.00  0.00    -0.508 OA
ATOM     11  H   UNL     1      -1.908  33.664   6.127  1.00  0.00     0.293 HD
ENDBRANCH   6  10
TORSDOF 2
ENDMDL
MODEL 2
REMARK VINA RESULT:    -3.809      0.026      1.532
REMARK INTER + INTRA:          -4.170
REMARK INTER:                  -4.143
REMARK INTRA:                  -0.027
REMARK UNBOUND:                -0.027
REMARK SMILES O=C([O-])c1ccc(O)cc1
REMARK SMILES IDX 4 1 5 2 10 3 6 4 9 5 7 6 2 7 1 8 3 9 8 10
REMARK H PARENT 8 11
REMARK Flexibility Score: inf
ROOT
ATOM      1  C   UNL     1       1.688  36.816   5.507  1.00  0.00    -0.003 A 
ATOM      2  C   UNL     1       0.521  37.463   5.953  1.00  0.00     0.014 A 
ATOM      3  C   UNL     1       1.695  35.415   5.405  1.00  0.00     0.014 A 
ATOM      4  C   UNL     1      -0.616  36.720   6.289  1.00  0.00     0.047 A 
ATOM      5  C   UNL     1       0.557  34.674   5.742  1.00  0.00     0.047 A 
ATOM      6  C   UNL     1      -0.601  35.326   6.186  1.00  0.00     0.115 A 
ENDROOT
BRANCH   1   7
ATOM      7  C   UNL     1       2.893  37.598   5.149  1.00  0.00     0.071 C 
ATOM      8  O   UNL     1       3.145  37.873   3.946  1.00  0.00    -0.545 OA
ATOM      9  O   UNL     1       3.764  38.039   6.137  1.00  0.00    -0.545 OA
ENDBRANCH   1   7
BRANCH   6  10
ATOM     10  O   UNL     1      -1.740  34.599   6.524  1.00  0.00    -0.508 OA
ATOM     11  H   UNL     1      -2.365  34.906   7.262  1.00  0.00     0.293 HD
ENDBRANCH   6  10
TORSDOF 2
ENDMDL
MODEL 3
REMARK VINA RESULT:    -3.740      4.588      5.742
REMARK INTER + INTRA:          -4.095
REMARK INTER:                  -4.060
REMARK INTRA:                  -0.035
REMARK UNBOUND:                -0.027
REMARK SMILES O=C([O-])c1ccc(O)cc1
REMARK SMILES IDX 4 1 5 2 10 3 6 4 9 5 7 6 2 7 1 8 3 9 8 10
REMARK H PARENT 8 11
REMARK Flexibility Score: inf
ROOT
ATOM      1  C   UNL     1       5.030  39.133   6.518  1.00  0.00    -0.003 A 
ATOM      2  C   UNL     1       4.158  38.297   7.239  1.00  0.00     0.014 A 
ATOM      3  C   UNL     1       6.395  39.147   6.854  1.00  0.00     0.014 A 
ATOM      4  C   UNL     1       4.644  37.491   8.274  1.00  0.00     0.047 A 
ATOM      5  C   UNL     1       6.877  38.340   7.890  1.00  0.00     0.047 A 
ATOM      6  C   UNL     1       6.002  37.511   8.603  1.00  0.00     0.115 A 
ENDROOT
BRANCH   1   7
ATOM      7  C   UNL     1       4.522  39.987   5.421  1.00  0.00     0.071 C 
ATOM      8  O   UNL     1       3.292  40.242   5.324  1.00  0.00    -0.545 OA
ATOM      9  O   UNL     1       5.396  40.519   4.481  1.00  0.00    -0.545 OA
ENDBRANCH   1   7
BRANCH   6  10
ATOM     10  O   UNL     1       6.471  36.703   9.636  1.00  0.00    -0.508 OA
ATOM     11  H   UNL     1       6.997  37.089  10.413  1.00  0.00     0.293 HD
ENDBRANCH   6  10
TORSDOF 2
ENDMDL
MODEL 4
REMARK VINA RESULT:    -3.738      3.590      6.027
REMARK INTER + INTRA:          -4.093
REMARK INTER:                  -4.066
REMARK INTRA:                  -0.027
REMARK UNBOUND:                -0.027
REMARK SMILES O=C([O-])c1ccc(O)cc1
REMARK SMILES IDX 4 1 5 2 10 3 6 4 9 5 7 6 2 7 1 8 3 9 8 10
REMARK H PARENT 8 11
REMARK Flexibility Score: inf
ROOT
ATOM      1  C   UNL     1       4.168  38.097   7.236  1.00  0.00    -0.003 A 
ATOM      2  C   UNL     1       4.688  37.375   8.327  1.00  0.00     0.014 A 
ATOM      3  C   UNL     1       4.989  39.030   6.582  1.00  0.00     0.014 A 
ATOM      4  C   UNL     1       6.005  37.585   8.750  1.00  0.00     0.047 A 
ATOM      5  C   UNL     1       6.305  39.238   7.008  1.00  0.00     0.047 A 
ATOM      6  C   UNL     1       6.816  38.516   8.094  1.00  0.00     0.115 A 
ENDROOT
BRANCH   1   7
ATOM      7  C   UNL     1       2.776  37.878   6.783  1.00  0.00     0.071 C 
ATOM      8  O   UNL     1       1.820  38.492   7.328  1.00  0.00    -0.545 OA
ATOM      9  O   UNL     1       2.504  36.993   5.747  1.00  0.00    -0.545 OA
ENDBRANCH   1   7
BRANCH   6  10
ATOM     10  O   UNL     1       8.125  38.714   8.528  1.00  0.00    -0.508 OA
ATOM     11  H   UNL     1       8.827  39.126   7.922  1.00  0.00     0.293 HD
ENDBRANCH   6  10
TORSDOF 2
ENDMDL
MODEL 5
REMARK VINA RESULT:    -3.636      1.989      2.425
REMARK INTER + INTRA:          -3.982
REMARK INTER:                  -3.946
REMARK INTRA:                  -0.036
REMARK UNBOUND:                -0.027
REMARK SMILES O=C([O-])c1ccc(O)cc1
REMARK SMILES IDX 4 1 5 2 10 3 6 4 9 5 7 6 2 7 1 8 3 9 8 10
REMARK H PARENT 8 11
REMARK Flexibility Score: inf
ROOT
ATOM      1  C   UNL     1       1.618  38.374   6.286  1.00  0.00    -0.003 A 
ATOM      2  C   UNL     1       2.545  37.506   5.679  1.00  0.00     0.014 A 
ATOM      3  C   UNL     1       0.325  37.903   6.567  1.00  0.00     0.014 A 
ATOM      4  C   UNL     1       2.181  36.193   5.362  1.00  0.00     0.047 A 
ATOM      5  C   UNL     1      -0.036  36.589   6.249  1.00  0.00     0.047 A 
ATOM      6  C   UNL     1       0.893  35.732   5.644  1.00  0.00     0.115 A 
ENDROOT
BRANCH   1   7
ATOM      7  C   UNL     1       1.997  39.764   6.625  1.00  0.00     0.071 C 
ATOM      8  O   UNL     1       3.197  40.139   6.544  1.00  0.00    -0.545 OA
ATOM      9  O   UNL     1       1.033  40.676   7.038  1.00  0.00    -0.545 OA
ENDBRANCH   1   7
BRANCH   6  10
ATOM     10  O   UNL     1       0.545  34.421   5.322  1.00  0.00    -0.508 OA
ATOM     11  H   UNL     1       0.120  33.803   6.004  1.00  0.00     0.293 HD
ENDBRANCH   6  10
TORSDOF 2
ENDMDL
MODEL 6
REMARK VINA RESULT:    -3.512      2.285      2.974
REMARK INTER + INTRA:          -3.847
REMARK INTER:                  -3.814
REMARK INTRA:                  -0.033
REMARK UNBOUND:                -0.027
REMARK SMILES O=C([O-])c1ccc(O)cc1
REMARK SMILES IDX 4 1 5 2 10 3 6 4 9 5 7 6 2 7 1 8 3 9 8 10
REMARK H PARENT 8 11
REMARK Flexibility Score: inf
ROOT
ATOM      1  C   UNL     1       0.882  38.356   6.664  1.00  0.00    -0.003 A 
ATOM      2  C   UNL     1      -0.320  37.631   6.755  1.00  0.00     0.014 A 
ATOM      3  C   UNL     1       2.008  37.741   6.092  1.00  0.00     0.014 A 
ATOM      4  C   UNL     1      -0.392  36.317   6.280  1.00  0.00     0.047 A 
ATOM      5  C   UNL     1       1.934  36.427   5.619  1.00  0.00     0.047 A 
ATOM      6  C   UNL     1       0.733  35.711   5.713  1.00  0.00     0.115 A 
ENDROOT
BRANCH   1   7
ATOM      7  C   UNL     1       0.963  39.747   7.164  1.00  0.00     0.071 C 
ATOM      8  O   UNL     1       1.693  40.595   6.585  1.00  0.00    -0.545 OA
ATOM      9  O   UNL     1       0.233  40.137   8.280  1.00  0.00    -0.545 OA
ENDBRANCH   1   7
BRANCH   6  10
ATOM     10  O   UNL     1       0.647  34.402   5.245  1.00  0.00    -0.508 OA
ATOM     11  H   UNL     1       1.474  33.881   4.973  1.00  0.00     0.293 HD
ENDBRANCH   6  10
TORSDOF 2
ENDMDL
MODEL 7
REMARK VINA RESULT:    -3.494      0.935      4.393
REMARK INTER + INTRA:          -3.828
REMARK INTER:                  -3.800
REMARK INTRA:                  -0.028
REMARK UNBOUND:                -0.027
REMARK SMILES O=C([O-])c1ccc(O)cc1
REMARK SMILES IDX 4 1 5 2 10 3 6 4 9 5 7 6 2 7 1 8 3 9 8 10
REMARK H PARENT 8 11
REMARK Flexibility Score: inf
ROOT
ATOM      1  C   UNL     1      -0.594  35.834   6.262  1.00  0.00    -0.003 A 
ATOM      2  C   UNL     1       0.411  35.056   5.658  1.00  0.00     0.014 A 
ATOM      3  C   UNL     1      -0.325  37.181   6.562  1.00  0.00     0.014 A 
ATOM      4  C   UNL     1       1.658  35.616   5.361  1.00  0.00     0.047 A 
ATOM      5  C   UNL     1       0.923  37.738   6.264  1.00  0.00     0.047 A 
ATOM      6  C   UNL     1       1.917  36.956   5.662  1.00  0.00     0.115 A 
ENDROOT
BRANCH   1   7
ATOM      7  C   UNL     1      -1.915  35.247   6.579  1.00  0.00     0.071 C 
ATOM      8  O   UNL     1      -2.042  34.428   7.527  1.00  0.00    -0.545 OA
ATOM      9  O   UNL     1      -3.035  35.592   5.832  1.00  0.00    -0.545 OA
ENDBRANCH   1   7
BRANCH   6  10
ATOM     10  O   UNL     1       3.164  37.501   5.360  1.00  0.00    -0.508 OA
ATOM     11  H   UNL     1       3.262  38.463   5.057  1.00  0.00     0.293 HD
ENDBRANCH   6  10
TORSDOF 2
ENDMDL
MODEL 8
REMARK VINA RESULT:    -3.470      0.905      4.638
REMARK INTER + INTRA:          -3.801
REMARK INTER:                  -3.773
REMARK INTRA:                  -0.028
REMARK UNBOUND:                -0.027
REMARK SMILES O=C([O-])c1ccc(O)cc1
REMARK SMILES IDX 4 1 5 2 10 3 6 4 9 5 7 6 2 7 1 8 3 9 8 10
REMARK H PARENT 8 11
REMARK Flexibility Score: inf
ROOT
ATOM      1  C   UNL     1      -0.524  35.738   6.267  1.00  0.00    -0.003 A 
ATOM      2  C   UNL     1      -0.274  37.106   6.482  1.00  0.00     0.014 A 
ATOM      3  C   UNL     1       0.477  34.946   5.680  1.00  0.00     0.014 A 
ATOM      4  C   UNL     1       0.954  37.667   6.118  1.00  0.00     0.047 A 
ATOM      5  C   UNL     1       1.705  35.510   5.317  1.00  0.00     0.047 A 
ATOM      6  C   UNL     1       1.945  36.873   5.534  1.00  0.00     0.115 A 
ENDROOT
BRANCH   1   7
ATOM      7  C   UNL     1      -1.822  35.139   6.651  1.00  0.00     0.071 C 
ATOM      8  O   UNL     1      -1.891  34.313   7.600  1.00  0.00    -0.545 OA
ATOM      9  O   UNL     1      -2.984  35.481   5.970  1.00  0.00    -0.545 OA
ENDBRANCH   1   7
BRANCH   6  10
ATOM     10  O   UNL     1       3.164  37.446   5.176  1.00  0.00    -0.508 OA
ATOM     11  H   UNL     1       3.417  38.381   5.474  1.00  0.00     0.293 HD
ENDBRANCH   6  10
TORSDOF 2
ENDMDL
MODEL 9
REMARK VINA RESULT:    -3.345      1.779      4.493
REMARK INTER + INTRA:          -3.666
REMARK INTER:                  -3.633
REMARK INTRA:                  -0.033
REMARK UNBOUND:                -0.027
REMARK SMILES O=C([O-])c1ccc(O)cc1
REMARK SMILES IDX 4 1 5 2 10 3 6 4 9 5 7 6 2 7 1 8 3 9 8 10
REMARK H PARENT 8 11
REMARK Flexibility Score: inf
ROOT
ATOM      1  C   UNL     1       1.015  37.037   5.993  1.00  0.00    -0.003 A 
ATOM      2  C   UNL     1       0.552  38.173   6.684  1.00  0.00     0.014 A 
ATOM      3  C   UNL     1       2.347  37.006   5.548  1.00  0.00     0.014 A 
ATOM      4  C   UNL     1       1.407  39.252   6.925  1.00  0.00     0.047 A 
ATOM      5  C   UNL     1       3.200  38.088   5.790  1.00  0.00     0.047 A 
ATOM      6  C   UNL     1       2.731  39.215   6.478  1.00  0.00     0.115 A 
ENDROOT
BRANCH   1   7
ATOM      7  C   UNL     1       0.114  35.891   5.737  1.00  0.00     0.071 C 
ATOM      8  O   UNL     1       0.564  34.715   5.716  1.00  0.00    -0.545 OA
ATOM      9  O   UNL     1      -1.242  36.098   5.517  1.00  0.00    -0.545 OA
ENDBRANCH   1   7
BRANCH   6  10
ATOM     10  O   UNL     1       3.572  40.298   6.725  1.00  0.00    -0.508 OA
ATOM     11  H   UNL     1       4.503  40.348   6.325  1.00  0.00     0.293 HD
ENDBRANCH   6  10
TORSDOF 2
ENDMDL
