MODEL 1
REMARK VINA RESULT:    -4.883      0.000      0.000
REMARK INTER + INTRA:          -4.883
REMARK INTER:                  -4.883
REMARK INTRA:                   0.000
REMARK UNBOUND:                 0.000
REMARK SMILES Cc1cccc2ccccc12
REMARK SMILES IDX 1 1 2 2 3 3 4 4 5 5 6 6 7 7 8 8 9 9 10 10 11 11
REMARK H PARENT
REMARK Flexibility Score: inf
ROOT
ATOM      1  C   UNL     1     146.167 185.264 156.713  1.00  0.00     0.045 C 
ATOM      2  C   UNL     1     145.000 185.218 157.668  1.00  0.00    -0.043 A 
ATOM      3  C   UNL     1     144.235 186.381 157.859  1.00  0.00     0.004 A 
ATOM      4  C   UNL     1     143.148 186.384 158.732  1.00  0.00     0.001 A 
ATOM      5  C   UNL     1     142.802 185.229 159.430  1.00  0.00     0.009 A 
ATOM      6  C   UNL     1     143.544 184.053 159.259  1.00  0.00    -0.018 A 
ATOM      7  C   UNL     1     143.190 182.892 159.965  1.00  0.00     0.009 A 
ATOM      8  C   UNL     1     143.925 181.717 159.801  1.00  0.00     0.001 A 
ATOM      9  C   UNL     1     145.018 181.689 158.934  1.00  0.00     0.001 A 
ATOM     10  C   UNL     1     145.384 182.835 158.224  1.00  0.00     0.009 A 
ATOM     11  C   UNL     1     144.656 184.035 158.373  1.00  0.00    -0.015 A 
ENDROOT
TORSDOF 0
ENDMDL
MODEL 2
REMARK VINA RESULT:    -4.860      0.887      2.605
REMARK INTER + INTRA:          -4.860
REMARK INTER:                  -4.860
REMARK INTRA:                   0.000
REMARK UNBOUND:                 0.000
REMARK SMILES Cc1cccc2ccccc12
REMARK SMILES IDX 1 1 2 2 3 3 4 4 5 5 6 6 7 7 8 8 9 9 10 10 11 11
REMARK H PARENT
REMARK Flexibility Score: inf
ROOT
ATOM      1  C   UNL     1     142.835 186.692 159.243  1.00  0.00     0.045 C 
ATOM      2  C   UNL     1     143.608 185.535 158.660  1.00  0.00    -0.043 A 
ATOM      3  C   UNL     1     144.389 185.751 157.512  1.00  0.00     0.004 A 
ATOM      4  C   UNL     1     145.120 184.710 156.940  1.00  0.00     0.001 A 
ATOM      5  C   UNL     1     145.087 183.435 157.502  1.00  0.00     0.009 A 
ATOM      6  C   UNL     1     144.320 183.189 158.648  1.00  0.00    -0.018 A 
ATOM      7  C   UNL     1     144.291 181.902 159.210  1.00  0.00     0.009 A 
ATOM      8  C   UNL     1     143.528 181.649 160.350  1.00  0.00     0.001 A 
ATOM      9  C   UNL     1     142.788 182.673 160.940  1.00  0.00     0.001 A 
ATOM     10  C   UNL     1     142.805 183.959 160.394  1.00  0.00     0.009 A 
ATOM     11  C   UNL     1     143.568 184.240 159.241  1.00  0.00    -0.015 A 
ENDROOT
TORSDOF 0
ENDMDL
MODEL 3
REMARK VINA RESULT:    -4.852      1.965      3.448
REMARK INTER + INTRA:          -4.852
REMARK INTER:                  -4.852
REMARK INTRA:                   0.000
REMARK UNBOUND:                 0.000
REMARK SMILES Cc1cccc2ccccc12
REMARK SMILES IDX 1 1 2 2 3 3 4 4 5 5 6 6 7 7 8 8 9 9 10 10 11 11
REMARK H PARENT
REMARK Flexibility Score: inf
ROOT
ATOM      1  C   UNL     1     144.809 181.697 159.082  1.00  0.00     0.045 C 
ATOM      2  C   UNL     1     143.951 182.880 158.711  1.00  0.00    -0.043 A 
ATOM      3  C   UNL     1     143.187 183.504 159.712  1.00  0.00     0.004 A 
ATOM      4  C   UNL     1     142.380 184.602 159.414  1.00  0.00     0.001 A 
ATOM      5  C   UNL     1     142.320 185.099 158.113  1.00  0.00     0.009 A 
ATOM      6  C   UNL     1     143.071 184.500 157.094  1.00  0.00    -0.018 A 
ATOM      7  C   UNL     1     143.007 185.004 155.785  1.00  0.00     0.009 A 
ATOM      8  C   UNL     1     143.751 184.412 154.764  1.00  0.00     0.001 A 
ATOM      9  C   UNL     1     144.565 183.313 155.038  1.00  0.00     0.001 A 
ATOM     10  C   UNL     1     144.641 182.797 156.334  1.00  0.00     0.009 A 
ATOM     11  C   UNL     1     143.898 183.379 157.383  1.00  0.00    -0.015 A 
ENDROOT
TORSDOF 0
ENDMDL
MODEL 4
REMARK VINA RESULT:    -4.841      0.700      4.299
REMARK INTER + INTRA:          -4.841
REMARK INTER:                  -4.841
REMARK INTRA:                   0.000
REMARK UNBOUND:                 0.000
REMARK SMILES Cc1cccc2ccccc12
REMARK SMILES IDX 1 1 2 2 3 3 4 4 5 5 6 6 7 7 8 8 9 9 10 10 11 11
REMARK H PARENT
REMARK Flexibility Score: inf
ROOT
ATOM      1  C   UNL     1     142.500 182.742 161.397  1.00  0.00     0.045 C 
ATOM      2  C   UNL     1     143.358 182.788 160.159  1.00  0.00    -0.043 A 
ATOM      3  C   UNL     1     144.084 181.641 159.794  1.00  0.00     0.004 A 
ATOM      4  C   UNL     1     144.891 181.639 158.657  1.00  0.00     0.001 A 
ATOM      5  C   UNL     1     144.989 182.779 157.861  1.00  0.00     0.009 A 
ATOM      6  C   UNL     1     144.278 183.938 158.198  1.00  0.00    -0.018 A 
ATOM      7  C   UNL     1     144.380 185.083 157.393  1.00  0.00     0.009 A 
ATOM      8  C   UNL     1     143.676 186.241 157.722  1.00  0.00     0.001 A 
ATOM      9  C   UNL     1     142.862 186.268 158.855  1.00  0.00     0.001 A 
ATOM     10  C   UNL     1     142.748 185.138 159.667  1.00  0.00     0.009 A 
ATOM     11  C   UNL     1     143.452 183.955 159.355  1.00  0.00    -0.015 A 
ENDROOT
TORSDOF 0
ENDMDL
MODEL 5
REMARK VINA RESULT:    -4.802      2.204      3.188
REMARK INTER + INTRA:          -4.802
REMARK INTER:                  -4.802
REMARK INTRA:                   0.000
REMARK UNBOUND:                 0.000
REMARK SMILES Cc1cccc2ccccc12
REMARK SMILES IDX 1 1 2 2 3 3 4 4 5 5 6 6 7 7 8 8 9 9 10 10 11 11
REMARK H PARENT
REMARK Flexibility Score: inf
ROOT
ATOM      1  C   UNL     1     143.277 186.018 159.906  1.00  0.00     0.045 C 
ATOM      2  C   UNL     1     142.560 185.389 158.739  1.00  0.00    -0.043 A 
ATOM      3  C   UNL     1     141.190 185.650 158.563  1.00  0.00     0.004 A 
ATOM      4  C   UNL     1     140.488 185.089 157.498  1.00  0.00     0.001 A 
ATOM      5  C   UNL     1     141.136 184.258 156.587  1.00  0.00     0.009 A 
ATOM      6  C   UNL     1     142.501 183.978 156.734  1.00  0.00    -0.018 A 
ATOM      7  C   UNL     1     143.149 183.140 155.813  1.00  0.00     0.009 A 
ATOM      8  C   UNL     1     144.507 182.856 155.953  1.00  0.00     0.001 A 
ATOM      9  C   UNL     1     145.232 183.405 157.012  1.00  0.00     0.001 A 
ATOM     10  C   UNL     1     144.603 184.242 157.937  1.00  0.00     0.009 A 
ATOM     11  C   UNL     1     143.230 184.543 157.816  1.00  0.00    -0.015 A 
ENDROOT
TORSDOF 0
ENDMDL
MODEL 6
REMARK VINA RESULT:    -4.794      2.793      4.014
REMARK INTER + INTRA:          -4.794
REMARK INTER:                  -4.794
REMARK INTRA:                   0.000
REMARK UNBOUND:                 0.000
REMARK SMILES Cc1cccc2ccccc12
REMARK SMILES IDX 1 1 2 2 3 3 4 4 5 5 6 6 7 7 8 8 9 9 10 10 11 11
REMARK H PARENT
REMARK Flexibility Score: inf
ROOT
ATOM      1  C   UNL     1     145.079 187.623 161.637  1.00  0.00     0.045 C 
ATOM      2  C   UNL     1     144.034 187.962 160.604  1.00  0.00    -0.043 A 
ATOM      3  C   UNL     1     143.828 189.310 160.265  1.00  0.00     0.004 A 
ATOM      4  C   UNL     1     142.873 189.669 159.315  1.00  0.00     0.001 A 
ATOM      5  C   UNL     1     142.105 188.691 158.684  1.00  0.00     0.009 A 
ATOM      6  C   UNL     1     142.288 187.338 158.999  1.00  0.00    -0.018 A 
ATOM      7  C   UNL     1     141.512 186.358 158.360  1.00  0.00     0.009 A 
ATOM      8  C   UNL     1     141.687 185.009 158.670  1.00  0.00     0.001 A 
ATOM      9  C   UNL     1     142.637 184.625 159.617  1.00  0.00     0.001 A 
ATOM     10  C   UNL     1     143.418 185.587 160.262  1.00  0.00     0.009 A 
ATOM     11  C   UNL     1     143.258 186.958 159.967  1.00  0.00    -0.015 A 
ENDROOT
TORSDOF 0
ENDMDL
MODEL 7
REMARK VINA RESULT:    -4.777      1.016      3.612
REMARK INTER + INTRA:          -4.777
REMARK INTER:                  -4.777
REMARK INTRA:                   0.000
REMARK UNBOUND:                 0.000
REMARK SMILES Cc1cccc2ccccc12
REMARK SMILES IDX 1 1 2 2 3 3 4 4 5 5 6 6 7 7 8 8 9 9 10 10 11 11
REMARK H PARENT
REMARK Flexibility Score: inf
ROOT
ATOM      1  C   UNL     1     142.951 186.753 159.874  1.00  0.00     0.045 C 
ATOM      2  C   UNL     1     143.356 185.369 159.435  1.00  0.00    -0.043 A 
ATOM      3  C   UNL     1     142.854 184.259 160.137  1.00  0.00     0.004 A 
ATOM      4  C   UNL     1     143.203 182.962 159.765  1.00  0.00     0.001 A 
ATOM      5  C   UNL     1     144.058 182.744 158.686  1.00  0.00     0.009 A 
ATOM      6  C   UNL     1     144.574 183.829 157.965  1.00  0.00    -0.018 A 
ATOM      7  C   UNL     1     145.435 183.604 156.879  1.00  0.00     0.009 A 
ATOM      8  C   UNL     1     145.955 184.678 156.157  1.00  0.00     0.001 A 
ATOM      9  C   UNL     1     145.621 185.986 156.510  1.00  0.00     0.001 A 
ATOM     10  C   UNL     1     144.765 186.229 157.588  1.00  0.00     0.009 A 
ATOM     11  C   UNL     1     144.228 185.158 158.334  1.00  0.00    -0.015 A 
ENDROOT
TORSDOF 0
ENDMDL
MODEL 8
REMARK VINA RESULT:    -4.684      1.340      3.554
REMARK INTER + INTRA:          -4.684
REMARK INTER:                  -4.684
REMARK INTRA:                   0.000
REMARK UNBOUND:                 0.000
REMARK SMILES Cc1cccc2ccccc12
REMARK SMILES IDX 1 1 2 2 3 3 4 4 5 5 6 6 7 7 8 8 9 9 10 10 11 11
REMARK H PARENT
REMARK Flexibility Score: inf
ROOT
ATOM      1  C   UNL     1     146.243 184.264 157.169  1.00  0.00     0.045 C 
ATOM      2  C   UNL     1     145.075 184.361 158.116  1.00  0.00    -0.043 A 
ATOM      3  C   UNL     1     144.334 183.201 158.400  1.00  0.00     0.004 A 
ATOM      4  C   UNL     1     143.246 183.244 159.271  1.00  0.00     0.001 A 
ATOM      5  C   UNL     1     142.875 184.444 159.875  1.00  0.00     0.009 A 
ATOM      6  C   UNL     1     143.594 185.618 159.613  1.00  0.00    -0.018 A 
ATOM      7  C   UNL     1     143.216 186.823 160.225  1.00  0.00     0.009 A 
ATOM      8  C   UNL     1     143.926 187.996 159.968  1.00  0.00     0.001 A 
ATOM      9  C   UNL     1     145.019 187.978 159.101  1.00  0.00     0.001 A 
ATOM     10  C   UNL     1     145.409 186.787 158.484  1.00  0.00     0.009 A 
ATOM     11  C   UNL     1     144.705 185.588 158.727  1.00  0.00    -0.015 A 
ENDROOT
TORSDOF 0
ENDMDL
MODEL 9
REMARK VINA RESULT:    -4.668      1.729      3.010
REMARK INTER + INTRA:          -4.668
REMARK INTER:                  -4.668
REMARK INTRA:                   0.000
REMARK UNBOUND:                 0.000
REMARK SMILES Cc1cccc2ccccc12
REMARK SMILES IDX 1 1 2 2 3 3 4 4 5 5 6 6 7 7 8 8 9 9 10 10 11 11
REMARK H PARENT
REMARK Flexibility Score: inf
ROOT
ATOM      1  C   UNL     1     146.637 185.718 156.121  1.00  0.00     0.045 C 
ATOM      2  C   UNL     1     145.452 184.835 156.420  1.00  0.00    -0.043 A 
ATOM      3  C   UNL     1     145.118 183.817 155.511  1.00  0.00     0.004 A 
ATOM      4  C   UNL     1     144.031 182.977 155.747  1.00  0.00     0.001 A 
ATOM      5  C   UNL     1     143.256 183.135 156.895  1.00  0.00     0.009 A 
ATOM      6  C   UNL     1     143.563 184.140 157.821  1.00  0.00    -0.018 A 
ATOM      7  C   UNL     1     142.779 184.294 158.975  1.00  0.00     0.009 A 
ATOM      8  C   UNL     1     143.079 185.293 159.902  1.00  0.00     0.001 A 
ATOM      9  C   UNL     1     144.162 186.146 159.688  1.00  0.00     0.001 A 
ATOM     10  C   UNL     1     144.953 186.007 158.545  1.00  0.00     0.009 A 
ATOM     11  C   UNL     1     144.669 185.004 157.592  1.00  0.00    -0.015 A 
ENDROOT
TORSDOF 0
ENDMDL
