MODEL 1
REMARK VINA RESULT:    -5.917      0.000      0.000
REMARK INTER + INTRA:         -17.179
REMARK INTER:                 -14.910
REMARK INTRA:                  -2.269
REMARK UNBOUND:                -2.269
REMARK SMILES CCCCCCCCCCCCCCCCCCCCCCCCCCCC(=O)[O-]
REMARK SMILES IDX 15 1 16 2 17 3 18 4 19 5 20 6 21 7 22 8 23 9 24 10 25 11
REMARK SMILES IDX 26 12 27 13 28 14 29 15 30 16 14 17 13 18 12 19 11 20 10 21
REMARK SMILES IDX 9 22 8 23 7 24 6 25 5 26 4 27 3 28 2 29 1 30
REMARK H PARENT
REMARK Flexibility Score: inf
ROOT
ATOM      1  C   UNL     1      26.624  16.425   7.883  1.00  0.00     0.000 C 
ENDROOT
BRANCH   1   2
ATOM      2  C   UNL     1      27.051  17.899   7.971  1.00  0.00     0.000 C 
BRANCH   2   3
ATOM      3  C   UNL     1      26.168  18.815   7.108  1.00  0.00     0.000 C 
BRANCH   3   4
ATOM      4  C   UNL     1      24.668  18.592   7.357  1.00  0.00     0.000 C 
BRANCH   4   5
ATOM      5  C   UNL     1      23.849  18.879   6.092  1.00  0.00     0.000 C 
BRANCH   5   6
ATOM      6  C   UNL     1      22.564  19.643   6.432  1.00  0.00     0.000 C 
BRANCH   6   7
ATOM      7  C   UNL     1      22.518  21.001   5.715  1.00  0.00     0.000 C 
BRANCH   7   8
ATOM      8  C   UNL     1      23.260  20.965   4.368  1.00  0.00     0.000 C 
BRANCH   8   9
ATOM      9  C   UNL     1      24.255  22.133   4.224  1.00  0.00     0.000 C 
BRANCH   9  10
ATOM     10  C   UNL     1      25.484  22.000   5.147  1.00  0.00     0.000 C 
BRANCH  10  11
ATOM     11  C   UNL     1      25.837  23.280   5.928  1.00  0.00     0.000 C 
BRANCH  11  12
ATOM     12  C   UNL     1      24.816  23.622   7.027  1.00  0.00     0.006 C 
BRANCH  12  13
ATOM     13  C   UNL     1      24.066  24.931   6.742  1.00  0.00     0.053 C 
BRANCH  13  14
ATOM     14  C   UNL     1      24.520  26.040   7.643  1.00  0.00     0.041 C 
ATOM     15  O   UNL     1      24.337  27.242   7.312  1.00  0.00    -0.550 OA
ATOM     16  O   UNL     1      25.183  25.748   8.825  1.00  0.00    -0.550 OA
ENDBRANCH  13  14
ENDBRANCH  12  13
ENDBRANCH  11  12
ENDBRANCH  10  11
ENDBRANCH   9  10
ENDBRANCH   8   9
ENDBRANCH   7   8
ENDBRANCH   6   7
ENDBRANCH   5   6
ENDBRANCH   4   5
ENDBRANCH   3   4
ENDBRANCH   2   3
ENDBRANCH   1   2
BRANCH   1  17
ATOM     17  C   UNL     1      27.781  15.543   7.392  1.00  0.00     0.000 C 
BRANCH  17  18
ATOM     18  C   UNL     1      27.932  14.260   8.232  1.00  0.00     0.000 C 
BRANCH  18  19
ATOM     19  C   UNL     1      27.259  14.352   9.614  1.00  0.00     0.000 C 
BRANCH  19  20
ATOM     20  C   UNL     1      26.623  13.014  10.038  1.00  0.00     0.000 C 
BRANCH  20  21
ATOM     21  C   UNL     1      25.091  13.101  10.161  1.00  0.00     0.000 C 
BRANCH  21  22
ATOM     22  C   UNL     1      24.364  13.304   8.818  1.00  0.00    -0.000 C 
BRANCH  22  23
ATOM     23  C   UNL     1      22.855  13.016   8.915  1.00  0.00    -0.000 C 
BRANCH  23  24
ATOM     24  C   UNL     1      22.455  12.363  10.250  1.00  0.00    -0.000 C 
BRANCH  24  25
ATOM     25  C   UNL     1      21.608  11.081  10.123  1.00  0.00    -0.000 C 
BRANCH  25  26
ATOM     26  C   UNL     1      21.053  10.533  11.449  1.00  0.00    -0.000 C 
BRANCH  26  27
ATOM     27  C   UNL     1      21.932   9.429  12.058  1.00  0.00    -0.000 C 
BRANCH  27  28
ATOM     28  C   UNL     1      21.426   9.030  13.451  1.00  0.00    -0.000 C 
BRANCH  28  29
ATOM     29  C   UNL     1      20.124   8.216  13.398  1.00  0.00    -0.003 C 
ATOM     30  C   UNL     1      19.113   8.644  14.462  1.00  0.00     0.004 C 
ENDBRANCH  28  29
ENDBRANCH  27  28
ENDBRANCH  26  27
ENDBRANCH  25  26
ENDBRANCH  24  25
ENDBRANCH  23  24
ENDBRANCH  22  23
ENDBRANCH  21  22
ENDBRANCH  20  21
ENDBRANCH  19  20
ENDBRANCH  18  19
ENDBRANCH  17  18
ENDBRANCH   1  17
TORSDOF 26
ENDMDL
MODEL 2
REMARK VINA RESULT:    -5.862      1.270      1.771
REMARK INTER + INTRA:         -17.042
REMARK INTER:                 -14.857
REMARK INTRA:                  -2.185
REMARK UNBOUND:                -2.269
REMARK SMILES CCCCCCCCCCCCCCCCCCCCCCCCCCCC(=O)[O-]
REMARK SMILES IDX 15 1 16 2 17 3 18 4 19 5 20 6 21 7 22 8 23 9 24 10 25 11
REMARK SMILES IDX 26 12 27 13 28 14 29 15 30 16 14 17 13 18 12 19 11 20 10 21
REMARK SMILES IDX 9 22 8 23 7 24 6 25 5 26 4 27 3 28 2 29 1 30
REMARK H PARENT
REMARK Flexibility Score: inf
ROOT
ATOM      1  C   UNL     1      26.740  17.541   8.259  1.00  0.00     0.000 C 
ENDROOT
BRANCH   1   2
ATOM      2  C   UNL     1      26.977  18.942   7.675  1.00  0.00     0.000 C 
BRANCH   2   3
ATOM      3  C   UNL     1      25.884  19.349   6.672  1.00  0.00     0.000 C 
BRANCH   3   4
ATOM      4  C   UNL     1      24.550  18.634   6.934  1.00  0.00     0.000 C 
BRANCH   4   5
ATOM      5  C   UNL     1      23.507  19.000   5.870  1.00  0.00     0.000 C 
BRANCH   5   6
ATOM      6  C   UNL     1      22.479  19.991   6.426  1.00  0.00     0.000 C 
BRANCH   6   7
ATOM      7  C   UNL     1      22.597  21.359   5.738  1.00  0.00     0.000 C 
BRANCH   7   8
ATOM      8  C   UNL     1      23.334  21.264   4.391  1.00  0.00     0.000 C 
BRANCH   8   9
ATOM      9  C   UNL     1      24.303  22.442   4.177  1.00  0.00     0.000 C 
BRANCH   9  10
ATOM     10  C   UNL     1      25.755  22.116   4.583  1.00  0.00     0.000 C 
BRANCH  10  11
ATOM     11  C   UNL     1      26.437  23.198   5.441  1.00  0.00     0.000 C 
BRANCH  11  12
ATOM     12  C   UNL     1      26.076  24.631   5.010  1.00  0.00     0.006 C 
BRANCH  12  13
ATOM     13  C   UNL     1      26.092  25.617   6.186  1.00  0.00     0.053 C 
BRANCH  13  14
ATOM     14  C   UNL     1      24.960  25.366   7.138  1.00  0.00     0.041 C 
ATOM     15  O   UNL     1      25.116  25.557   8.373  1.00  0.00    -0.550 OA
ATOM     16  O   UNL     1      23.750  24.880   6.666  1.00  0.00    -0.550 OA
ENDBRANCH  13  14
ENDBRANCH  12  13
ENDBRANCH  11  12
ENDBRANCH  10  11
ENDBRANCH   9  10
ENDBRANCH   8   9
ENDBRANCH   7   8
ENDBRANCH   6   7
ENDBRANCH   5   6
ENDBRANCH   4   5
ENDBRANCH   3   4
ENDBRANCH   2   3
ENDBRANCH   1   2
BRANCH   1  17
ATOM     17  C   UNL     1      27.831  16.560   7.802  1.00  0.00     0.000 C 
BRANCH  17  18
ATOM     18  C   UNL     1      27.372  15.093   7.901  1.00  0.00     0.000 C 
BRANCH  18  19
ATOM     19  C   UNL     1      25.846  14.920   7.790  1.00  0.00     0.000 C 
BRANCH  19  20
ATOM     20  C   UNL     1      25.394  13.502   8.185  1.00  0.00     0.000 C 
BRANCH  20  21
ATOM     21  C   UNL     1      24.566  13.485   9.483  1.00  0.00     0.000 C 
BRANCH  21  22
ATOM     22  C   UNL     1      25.225  12.709  10.639  1.00  0.00    -0.000 C 
BRANCH  22  23
ATOM     23  C   UNL     1      24.229  12.361  11.760  1.00  0.00    -0.000 C 
BRANCH  23  24
ATOM     24  C   UNL     1      24.714  11.206  12.655  1.00  0.00    -0.000 C 
BRANCH  24  25
ATOM     25  C   UNL     1      23.595  10.393  13.337  1.00  0.00    -0.000 C 
BRANCH  25  26
ATOM     26  C   UNL     1      23.041   9.225  12.504  1.00  0.00    -0.000 C 
BRANCH  26  27
ATOM     27  C   UNL     1      21.749   9.582  11.752  1.00  0.00    -0.000 C 
BRANCH  27  28
ATOM     28  C   UNL     1      20.574   9.745  12.726  1.00  0.00    -0.000 C 
BRANCH  28  29
ATOM     29  C   UNL     1      20.126   8.410  13.342  1.00  0.00    -0.003 C 
ATOM     30  C   UNL     1      19.109   8.588  14.470  1.00  0.00     0.004 C 
ENDBRANCH  28  29
ENDBRANCH  27  28
ENDBRANCH  26  27
ENDBRANCH  25  26
ENDBRANCH  24  25
ENDBRANCH  23  24
ENDBRANCH  22  23
ENDBRANCH  21  22
ENDBRANCH  20  21
ENDBRANCH  19  20
ENDBRANCH  18  19
ENDBRANCH  17  18
ENDBRANCH   1  17
TORSDOF 26
ENDMDL
MODEL 3
REMARK VINA RESULT:    -5.790      4.584     12.827
REMARK INTER + INTRA:         -16.859
REMARK INTER:                 -14.788
REMARK INTRA:                  -2.071
REMARK UNBOUND:                -2.269
REMARK SMILES CCCCCCCCCCCCCCCCCCCCCCCCCCCC(=O)[O-]
REMARK SMILES IDX 15 1 16 2 17 3 18 4 19 5 20 6 21 7 22 8 23 9 24 10 25 11
REMARK SMILES IDX 26 12 27 13 28 14 29 15 30 16 14 17 13 18 12 19 11 20 10 21
REMARK SMILES IDX 9 22 8 23 7 24 6 25 5 26 4 27 3 28 2 29 1 30
REMARK H PARENT
REMARK Flexibility Score: inf
ROOT
ATOM      1  C   UNL     1      25.919  18.327   7.920  1.00  0.00     0.000 C 
ENDROOT
BRANCH   1   2
ATOM      2  C   UNL     1      27.218  17.592   7.559  1.00  0.00     0.000 C 
BRANCH   2   3
ATOM      3  C   UNL     1      27.250  16.156   8.110  1.00  0.00     0.000 C 
BRANCH   3   4
ATOM      4  C   UNL     1      25.997  15.352   7.726  1.00  0.00     0.000 C 
BRANCH   4   5
ATOM      5  C   UNL     1      25.942  14.020   8.484  1.00  0.00     0.000 C 
BRANCH   5   6
ATOM      6  C   UNL     1      27.306  13.678   9.095  1.00  0.00     0.000 C 
BRANCH   6   7
ATOM      7  C   UNL     1      27.156  12.733  10.296  1.00  0.00     0.000 C 
BRANCH   7   8
ATOM      8  C   UNL     1      25.727  12.750  10.866  1.00  0.00     0.000 C 
BRANCH   8   9
ATOM      9  C   UNL     1      25.546  11.727  12.004  1.00  0.00     0.000 C 
BRANCH   9  10
ATOM     10  C   UNL     1      24.068  11.487  12.375  1.00  0.00     0.000 C 
BRANCH  10  11
ATOM     11  C   UNL     1      23.819  10.220  13.217  1.00  0.00     0.000 C 
BRANCH  11  12
ATOM     12  C   UNL     1      22.830   9.241  12.561  1.00  0.00     0.006 C 
BRANCH  12  13
ATOM     13  C   UNL     1      21.548   9.063  13.388  1.00  0.00     0.053 C 
BRANCH  13  14
ATOM     14  C   UNL     1      20.407   9.853  12.821  1.00  0.00     0.041 C 
ATOM     15  O   UNL     1      20.594  10.628  11.846  1.00  0.00    -0.550 OA
ATOM     16  O   UNL     1      19.148   9.768  13.398  1.00  0.00    -0.550 OA
ENDBRANCH  13  14
ENDBRANCH  12  13
ENDBRANCH  11  12
ENDBRANCH  10  11
ENDBRANCH   9  10
ENDBRANCH   8   9
ENDBRANCH   7   8
ENDBRANCH   6   7
ENDBRANCH   5   6
ENDBRANCH   4   5
ENDBRANCH   3   4
ENDBRANCH   2   3
ENDBRANCH   1   2
BRANCH   1  17
ATOM     17  C   UNL     1      25.226  18.876   6.663  1.00  0.00     0.000 C 
BRANCH  17  18
ATOM     18  C   UNL     1      23.735  18.491   6.606  1.00  0.00     0.000 C 
BRANCH  18  19
ATOM     19  C   UNL     1      22.925  19.330   5.601  1.00  0.00     0.000 C 
BRANCH  19  20
ATOM     20  C   UNL     1      22.277  20.560   6.266  1.00  0.00     0.000 C 
BRANCH  20  21
ATOM     21  C   UNL     1      22.906  21.885   5.799  1.00  0.00     0.000 C 
BRANCH  21  22
ATOM     22  C   UNL     1      23.430  21.855   4.350  1.00  0.00    -0.000 C 
BRANCH  22  23
ATOM     23  C   UNL     1      24.897  22.308   4.244  1.00  0.00    -0.000 C 
BRANCH  23  24
ATOM     24  C   UNL     1      25.518  22.652   5.610  1.00  0.00    -0.000 C 
BRANCH  24  25
ATOM     25  C   UNL     1      26.760  23.564   5.552  1.00  0.00    -0.000 C 
BRANCH  25  26
ATOM     26  C   UNL     1      26.469  25.069   5.687  1.00  0.00    -0.000 C 
BRANCH  26  27
ATOM     27  C   UNL     1      24.985  25.415   5.485  1.00  0.00    -0.000 C 
BRANCH  27  28
ATOM     28  C   UNL     1      24.291  25.666   6.831  1.00  0.00    -0.000 C 
BRANCH  28  29
ATOM     29  C   UNL     1      24.955  26.792   7.638  1.00  0.00    -0.003 C 
ATOM     30  C   UNL     1      25.536  26.307   8.967  1.00  0.00     0.004 C 
ENDBRANCH  28  29
ENDBRANCH  27  28
ENDBRANCH  26  27
ENDBRANCH  25  26
ENDBRANCH  24  25
ENDBRANCH  23  24
ENDBRANCH  22  23
ENDBRANCH  21  22
ENDBRANCH  20  21
ENDBRANCH  19  20
ENDBRANCH  18  19
ENDBRANCH  17  18
ENDBRANCH   1  17
TORSDOF 26
ENDMDL
MODEL 4
REMARK VINA RESULT:    -5.731      2.402      3.725
REMARK INTER + INTRA:         -16.711
REMARK INTER:                 -13.938
REMARK INTRA:                  -2.774
REMARK UNBOUND:                -2.269
REMARK SMILES CCCCCCCCCCCCCCCCCCCCCCCCCCCC(=O)[O-]
REMARK SMILES IDX 15 1 16 2 17 3 18 4 19 5 20 6 21 7 22 8 23 9 24 10 25 11
REMARK SMILES IDX 26 12 27 13 28 14 29 15 30 16 14 17 13 18 12 19 11 20 10 21
REMARK SMILES IDX 9 22 8 23 7 24 6 25 5 26 4 27 3 28 2 29 1 30
REMARK H PARENT
REMARK Flexibility Score: inf
ROOT
ATOM      1  C   UNL     1      26.653  18.533   8.466  1.00  0.00     0.000 C 
ENDROOT
BRANCH   1   2
ATOM      2  C   UNL     1      27.728  19.365   7.750  1.00  0.00     0.000 C 
BRANCH   2   3
ATOM      3  C   UNL     1      27.132  20.290   6.676  1.00  0.00     0.000 C 
BRANCH   3   4
ATOM      4  C   UNL     1      27.589  19.913   5.258  1.00  0.00     0.000 C 
BRANCH   4   5
ATOM      5  C   UNL     1      26.843  20.737   4.200  1.00  0.00     0.000 C 
BRANCH   5   6
ATOM      6  C   UNL     1      27.788  21.725   3.507  1.00  0.00     0.000 C 
BRANCH   6   7
ATOM      7  C   UNL     1      27.280  23.168   3.642  1.00  0.00     0.000 C 
BRANCH   7   8
ATOM      8  C   UNL     1      27.238  23.627   5.110  1.00  0.00     0.000 C 
BRANCH   8   9
ATOM      9  C   UNL     1      25.850  24.165   5.508  1.00  0.00     0.000 C 
BRANCH   9  10
ATOM     10  C   UNL     1      25.043  23.179   6.376  1.00  0.00     0.000 C 
BRANCH  10  11
ATOM     11  C   UNL     1      23.639  22.851   5.832  1.00  0.00     0.000 C 
BRANCH  11  12
ATOM     12  C   UNL     1      23.669  22.063   4.511  1.00  0.00     0.006 C 
BRANCH  12  13
ATOM     13  C   UNL     1      22.651  20.913   4.492  1.00  0.00     0.053 C 
BRANCH  13  14
ATOM     14  C   UNL     1      22.835  19.990   5.659  1.00  0.00     0.041 C 
ATOM     15  O   UNL     1      21.941  19.898   6.542  1.00  0.00    -0.550 OA
ATOM     16  O   UNL     1      24.009  19.264   5.795  1.00  0.00    -0.550 OA
ENDBRANCH  13  14
ENDBRANCH  12  13
ENDBRANCH  11  12
ENDBRANCH  10  11
ENDBRANCH   9  10
ENDBRANCH   8   9
ENDBRANCH   7   8
ENDBRANCH   6   7
ENDBRANCH   5   6
ENDBRANCH   4   5
ENDBRANCH   3   4
ENDBRANCH   2   3
ENDBRANCH   1   2
BRANCH   1  17
ATOM     17  C   UNL     1      26.440  17.183   7.764  1.00  0.00     0.000 C 
BRANCH  17  18
ATOM     18  C   UNL     1      27.719  16.324   7.754  1.00  0.00     0.000 C 
BRANCH  18  19
ATOM     19  C   UNL     1      27.454  14.830   8.019  1.00  0.00     0.000 C 
BRANCH  19  20
ATOM     20  C   UNL     1      26.823  14.592   9.404  1.00  0.00     0.000 C 
BRANCH  20  21
ATOM     21  C   UNL     1      25.841  13.406   9.410  1.00  0.00     0.000 C 
BRANCH  21  22
ATOM     22  C   UNL     1      24.735  13.501   8.341  1.00  0.00    -0.000 C 
BRANCH  22  23
ATOM     23  C   UNL     1      23.336  13.687   8.954  1.00  0.00    -0.000 C 
BRANCH  23  24
ATOM     24  C   UNL     1      22.527  12.378   9.009  1.00  0.00    -0.000 C 
BRANCH  24  25
ATOM     25  C   UNL     1      21.957  12.020  10.396  1.00  0.00    -0.000 C 
BRANCH  25  26
ATOM     26  C   UNL     1      21.381  10.598  10.515  1.00  0.00    -0.000 C 
BRANCH  26  27
ATOM     27  C   UNL     1      21.373  10.073  11.959  1.00  0.00    -0.000 C 
BRANCH  27  28
ATOM     28  C   UNL     1      22.636   9.250  12.251  1.00  0.00    -0.000 C 
BRANCH  28  29
ATOM     29  C   UNL     1      23.469   9.832  13.403  1.00  0.00    -0.003 C 
ATOM     30  C   UNL     1      24.341  11.011  12.969  1.00  0.00     0.004 C 
ENDBRANCH  28  29
ENDBRANCH  27  28
ENDBRANCH  26  27
ENDBRANCH  25  26
ENDBRANCH  24  25
ENDBRANCH  23  24
ENDBRANCH  22  23
ENDBRANCH  21  22
ENDBRANCH  20  21
ENDBRANCH  19  20
ENDBRANCH  18  19
ENDBRANCH  17  18
ENDBRANCH   1  17
TORSDOF 26
ENDMDL
MODEL 5
REMARK VINA RESULT:    -5.729      3.665     11.742
REMARK INTER + INTRA:         -16.706
REMARK INTER:                 -13.856
REMARK INTRA:                  -2.851
REMARK UNBOUND:                -2.269
REMARK SMILES CCCCCCCCCCCCCCCCCCCCCCCCCCCC(=O)[O-]
REMARK SMILES IDX 15 1 16 2 17 3 18 4 19 5 20 6 21 7 22 8 23 9 24 10 25 11
REMARK SMILES IDX 26 12 27 13 28 14 29 15 30 16 14 17 13 18 12 19 11 20 10 21
REMARK SMILES IDX 9 22 8 23 7 24 6 25 5 26 4 27 3 28 2 29 1 30
REMARK H PARENT
REMARK Flexibility Score: inf
ROOT
ATOM      1  C   UNL     1      26.003  16.028   7.750  1.00  0.00     0.000 C 
ENDROOT
BRANCH   1   2
ATOM      2  C   UNL     1      25.841  14.660   8.431  1.00  0.00     0.000 C 
BRANCH   2   3
ATOM      3  C   UNL     1      27.161  13.874   8.485  1.00  0.00     0.000 C 
BRANCH   3   4
ATOM      4  C   UNL     1      27.244  12.948   9.709  1.00  0.00     0.000 C 
BRANCH   4   5
ATOM      5  C   UNL     1      25.919  12.934  10.482  1.00  0.00     0.000 C 
BRANCH   5   6
ATOM      6  C   UNL     1      26.038  12.097  11.760  1.00  0.00     0.000 C 
BRANCH   6   7
ATOM      7  C   UNL     1      24.662  11.866  12.403  1.00  0.00     0.000 C 
BRANCH   7   8
ATOM      8  C   UNL     1      24.651  10.621  13.306  1.00  0.00     0.000 C 
BRANCH   8   9
ATOM      9  C   UNL     1      23.240  10.017  13.441  1.00  0.00     0.000 C 
BRANCH   9  10
ATOM     10  C   UNL     1      22.728   9.374  12.136  1.00  0.00     0.000 C 
BRANCH  10  11
ATOM     11  C   UNL     1      21.310   9.812  11.722  1.00  0.00     0.000 C 
BRANCH  11  12
ATOM     12  C   UNL     1      21.272  11.200  11.060  1.00  0.00     0.006 C 
BRANCH  12  13
ATOM     13  C   UNL     1      22.139  11.269   9.795  1.00  0.00     0.053 C 
BRANCH  13  14
ATOM     14  C   UNL     1      22.431  12.685   9.397  1.00  0.00     0.041 C 
ATOM     15  O   UNL     1      22.764  12.956   8.213  1.00  0.00    -0.550 OA
ATOM     16  O   UNL     1      22.378  13.698  10.343  1.00  0.00    -0.550 OA
ENDBRANCH  13  14
ENDBRANCH  12  13
ENDBRANCH  11  12
ENDBRANCH  10  11
ENDBRANCH   9  10
ENDBRANCH   8   9
ENDBRANCH   7   8
ENDBRANCH   6   7
ENDBRANCH   5   6
ENDBRANCH   4   5
ENDBRANCH   3   4
ENDBRANCH   2   3
ENDBRANCH   1   2
BRANCH   1  17
ATOM     17  C   UNL     1      27.484  16.428   7.659  1.00  0.00     0.000 C 
BRANCH  17  18
ATOM     18  C   UNL     1      27.710  17.906   8.031  1.00  0.00     0.000 C 
BRANCH  18  19
ATOM     19  C   UNL     1      26.405  18.718   8.133  1.00  0.00     0.000 C 
BRANCH  19  20
ATOM     20  C   UNL     1      26.260  19.728   6.980  1.00  0.00     0.000 C 
BRANCH  20  21
ATOM     21  C   UNL     1      25.264  19.258   5.904  1.00  0.00     0.000 C 
BRANCH  21  22
ATOM     22  C   UNL     1      23.931  18.730   6.471  1.00  0.00    -0.000 C 
BRANCH  22  23
ATOM     23  C   UNL     1      22.712  19.482   5.907  1.00  0.00    -0.000 C 
BRANCH  23  24
ATOM     24  C   UNL     1      22.994  20.145   4.547  1.00  0.00    -0.000 C 
BRANCH  24  25
ATOM     25  C   UNL     1      22.796  21.674   4.512  1.00  0.00    -0.000 C 
BRANCH  25  26
ATOM     26  C   UNL     1      24.093  22.500   4.585  1.00  0.00    -0.000 C 
BRANCH  26  27
ATOM     27  C   UNL     1      24.428  22.965   6.011  1.00  0.00    -0.000 C 
BRANCH  27  28
ATOM     28  C   UNL     1      24.052  24.441   6.210  1.00  0.00    -0.000 C 
BRANCH  28  29
ATOM     29  C   UNL     1      25.238  25.295   6.682  1.00  0.00    -0.003 C 
ATOM     30  C   UNL     1      26.464  25.161   5.780  1.00  0.00     0.004 C 
ENDBRANCH  28  29
ENDBRANCH  27  28
ENDBRANCH  26  27
ENDBRANCH  25  26
ENDBRANCH  24  25
ENDBRANCH  23  24
ENDBRANCH  22  23
ENDBRANCH  21  22
ENDBRANCH  20  21
ENDBRANCH  19  20
ENDBRANCH  18  19
ENDBRANCH  17  18
ENDBRANCH   1  17
TORSDOF 26
ENDMDL
MODEL 6
REMARK VINA RESULT:    -5.707      2.452      3.886
REMARK INTER + INTRA:         -16.650
REMARK INTER:                 -13.721
REMARK INTRA:                  -2.929
REMARK UNBOUND:                -2.269
REMARK SMILES CCCCCCCCCCCCCCCCCCCCCCCCCCCC(=O)[O-]
REMARK SMILES IDX 15 1 16 2 17 3 18 4 19 5 20 6 21 7 22 8 23 9 24 10 25 11
REMARK SMILES IDX 26 12 27 13 28 14 29 15 30 16 14 17 13 18 12 19 11 20 10 21
REMARK SMILES IDX 9 22 8 23 7 24 6 25 5 26 4 27 3 28 2 29 1 30
REMARK H PARENT
REMARK Flexibility Score: inf
ROOT
ATOM      1  C   UNL     1      25.897  17.292   7.754  1.00  0.00     0.000 C 
ENDROOT
BRANCH   1   2
ATOM      2  C   UNL     1      26.356  18.604   8.410  1.00  0.00     0.000 C 
BRANCH   2   3
ATOM      3  C   UNL     1      27.500  19.277   7.632  1.00  0.00     0.000 C 
BRANCH   3   4
ATOM      4  C   UNL     1      27.029  20.510   6.845  1.00  0.00     0.000 C 
BRANCH   4   5
ATOM      5  C   UNL     1      27.124  20.271   5.333  1.00  0.00     0.000 C 
BRANCH   5   6
ATOM      6  C   UNL     1      27.205  21.598   4.571  1.00  0.00     0.000 C 
BRANCH   6   7
ATOM      7  C   UNL     1      27.276  22.790   5.536  1.00  0.00     0.000 C 
BRANCH   7   8
ATOM      8  C   UNL     1      26.786  24.092   4.880  1.00  0.00     0.000 C 
BRANCH   8   9
ATOM      9  C   UNL     1      25.285  24.336   5.129  1.00  0.00     0.000 C 
BRANCH   9  10
ATOM     10  C   UNL     1      24.800  23.795   6.490  1.00  0.00     0.000 C 
BRANCH  10  11
ATOM     11  C   UNL     1      23.526  22.933   6.416  1.00  0.00     0.000 C 
BRANCH  11  12
ATOM     12  C   UNL     1      23.540  21.926   5.253  1.00  0.00     0.006 C 
BRANCH  12  13
ATOM     13  C   UNL     1      23.469  20.471   5.737  1.00  0.00     0.053 C 
BRANCH  13  14
ATOM     14  C   UNL     1      22.056  20.035   5.987  1.00  0.00     0.041 C 
ATOM     15  O   UNL     1      21.379  19.516   5.062  1.00  0.00    -0.550 OA
ATOM     16  O   UNL     1      21.474  20.243   7.229  1.00  0.00    -0.550 OA
ENDBRANCH  13  14
ENDBRANCH  12  13
ENDBRANCH  11  12
ENDBRANCH  10  11
ENDBRANCH   9  10
ENDBRANCH   8   9
ENDBRANCH   7   8
ENDBRANCH   6   7
ENDBRANCH   5   6
ENDBRANCH   4   5
ENDBRANCH   3   4
ENDBRANCH   2   3
ENDBRANCH   1   2
BRANCH   1  17
ATOM     17  C   UNL     1      27.074  16.320   7.577  1.00  0.00     0.000 C 
BRANCH  17  18
ATOM     18  C   UNL     1      27.038  15.171   8.603  1.00  0.00     0.000 C 
BRANCH  18  19
ATOM     19  C   UNL     1      26.028  14.065   8.246  1.00  0.00     0.000 C 
BRANCH  19  20
ATOM     20  C   UNL     1      25.442  13.390   9.500  1.00  0.00     0.000 C 
BRANCH  20  21
ATOM     21  C   UNL     1      26.487  13.205  10.615  1.00  0.00     0.000 C 
BRANCH  21  22
ATOM     22  C   UNL     1      26.169  12.054  11.590  1.00  0.00    -0.000 C 
BRANCH  22  23
ATOM     23  C   UNL     1      24.748  12.151  12.173  1.00  0.00    -0.000 C 
BRANCH  23  24
ATOM     24  C   UNL     1      24.521  11.195  13.359  1.00  0.00    -0.000 C 
BRANCH  24  25
ATOM     25  C   UNL     1      23.826   9.866  13.003  1.00  0.00    -0.000 C 
BRANCH  25  26
ATOM     26  C   UNL     1      22.465   9.641  13.685  1.00  0.00    -0.000 C 
BRANCH  26  27
ATOM     27  C   UNL     1      21.345   9.296  12.691  1.00  0.00    -0.000 C 
BRANCH  27  28
ATOM     28  C   UNL     1      21.710   9.751  11.272  1.00  0.00    -0.000 C 
BRANCH  28  29
ATOM     29  C   UNL     1      21.112  11.121  10.916  1.00  0.00    -0.003 C 
ATOM     30  C   UNL     1      22.016  11.943   9.998  1.00  0.00     0.004 C 
ENDBRANCH  28  29
ENDBRANCH  27  28
ENDBRANCH  26  27
ENDBRANCH  25  26
ENDBRANCH  24  25
ENDBRANCH  23  24
ENDBRANCH  22  23
ENDBRANCH  21  22
ENDBRANCH  20  21
ENDBRANCH  19  20
ENDBRANCH  18  19
ENDBRANCH  17  18
ENDBRANCH   1  17
TORSDOF 26
ENDMDL
MODEL 7
REMARK VINA RESULT:    -5.658      4.183     12.131
REMARK INTER + INTRA:         -16.526
REMARK INTER:                 -14.076
REMARK INTRA:                  -2.450
REMARK UNBOUND:                -2.269
REMARK SMILES CCCCCCCCCCCCCCCCCCCCCCCCCCCC(=O)[O-]
REMARK SMILES IDX 15 1 16 2 17 3 18 4 19 5 20 6 21 7 22 8 23 9 24 10 25 11
REMARK SMILES IDX 26 12 27 13 28 14 29 15 30 16 14 17 13 18 12 19 11 20 10 21
REMARK SMILES IDX 9 22 8 23 7 24 6 25 5 26 4 27 3 28 2 29 1 30
REMARK H PARENT
REMARK Flexibility Score: inf
ROOT
ATOM      1  C   UNL     1      27.638  14.873   8.014  1.00  0.00     0.000 C 
ENDROOT
BRANCH   1   2
ATOM      2  C   UNL     1      27.012  14.626   9.396  1.00  0.00     0.000 C 
BRANCH   2   3
ATOM      3  C   UNL     1      26.492  13.187   9.552  1.00  0.00     0.000 C 
BRANCH   3   4
ATOM      4  C   UNL     1      24.999  13.138   9.911  1.00  0.00     0.000 C 
BRANCH   4   5
ATOM      5  C   UNL     1      24.129  13.554   8.718  1.00  0.00     0.000 C 
BRANCH   5   6
ATOM      6  C   UNL     1      22.846  12.720   8.656  1.00  0.00     0.000 C 
BRANCH   6   7
ATOM      7  C   UNL     1      22.320  12.403  10.064  1.00  0.00     0.000 C 
BRANCH   7   8
ATOM      8  C   UNL     1      21.699  10.997  10.143  1.00  0.00     0.000 C 
BRANCH   8   9
ATOM      9  C   UNL     1      20.964  10.765  11.477  1.00  0.00     0.000 C 
BRANCH   9  10
ATOM     10  C   UNL     1      21.443   9.502  12.222  1.00  0.00     0.000 C 
BRANCH  10  11
ATOM     11  C   UNL     1      22.480   9.770  13.330  1.00  0.00     0.000 C 
BRANCH  11  12
ATOM     12  C   UNL     1      23.905   9.983  12.789  1.00  0.00     0.006 C 
BRANCH  12  13
ATOM     13  C   UNL     1      24.439  11.392  13.084  1.00  0.00     0.053 C 
BRANCH  13  14
ATOM     14  C   UNL     1      25.889  11.369  13.464  1.00  0.00     0.041 C 
ATOM     15  O   UNL     1      26.389  10.345  14.000  1.00  0.00    -0.550 OA
ATOM     16  O   UNL     1      26.677  12.493  13.266  1.00  0.00    -0.550 OA
ENDBRANCH  13  14
ENDBRANCH  12  13
ENDBRANCH  11  12
ENDBRANCH  10  11
ENDBRANCH   9  10
ENDBRANCH   8   9
ENDBRANCH   7   8
ENDBRANCH   6   7
ENDBRANCH   5   6
ENDBRANCH   4   5
ENDBRANCH   3   4
ENDBRANCH   2   3
ENDBRANCH   1   2
BRANCH   1  17
ATOM     17  C   UNL     1      27.710  16.376   7.700  1.00  0.00     0.000 C 
BRANCH  17  18
ATOM     18  C   UNL     1      26.399  17.106   8.052  1.00  0.00     0.000 C 
BRANCH  18  19
ATOM     19  C   UNL     1      26.581  18.621   8.262  1.00  0.00     0.000 C 
BRANCH  19  20
ATOM     20  C   UNL     1      27.948  19.115   7.753  1.00  0.00     0.000 C 
BRANCH  20  21
ATOM     21  C   UNL     1      27.828  19.999   6.499  1.00  0.00     0.000 C 
BRANCH  21  22
ATOM     22  C   UNL     1      26.571  20.891   6.478  1.00  0.00    -0.000 C 
BRANCH  22  23
ATOM     23  C   UNL     1      25.720  20.683   5.213  1.00  0.00    -0.000 C 
BRANCH  23  24
ATOM     24  C   UNL     1      24.210  20.826   5.476  1.00  0.00    -0.000 C 
BRANCH  24  25
ATOM     25  C   UNL     1      23.640  22.242   5.257  1.00  0.00    -0.000 C 
BRANCH  25  26
ATOM     26  C   UNL     1      23.611  23.133   6.512  1.00  0.00    -0.000 C 
BRANCH  26  27
ATOM     27  C   UNL     1      23.921  24.607   6.209  1.00  0.00    -0.000 C 
BRANCH  27  28
ATOM     28  C   UNL     1      25.386  24.786   5.790  1.00  0.00    -0.000 C 
BRANCH  28  29
ATOM     29  C   UNL     1      26.084  25.926   6.547  1.00  0.00    -0.003 C 
ATOM     30  C   UNL     1      25.308  26.381   7.783  1.00  0.00     0.004 C 
ENDBRANCH  28  29
ENDBRANCH  27  28
ENDBRANCH  26  27
ENDBRANCH  25  26
ENDBRANCH  24  25
ENDBRANCH  23  24
ENDBRANCH  22  23
ENDBRANCH  21  22
ENDBRANCH  20  21
ENDBRANCH  19  20
ENDBRANCH  18  19
ENDBRANCH  17  18
ENDBRANCH   1  17
TORSDOF 26
ENDMDL
MODEL 8
REMARK VINA RESULT:    -5.649      4.871     11.996
REMARK INTER + INTRA:         -16.504
REMARK INTER:                 -14.027
REMARK INTRA:                  -2.477
REMARK UNBOUND:                -2.269
REMARK SMILES CCCCCCCCCCCCCCCCCCCCCCCCCCCC(=O)[O-]
REMARK SMILES IDX 15 1 16 2 17 3 18 4 19 5 20 6 21 7 22 8 23 9 24 10 25 11
REMARK SMILES IDX 26 12 27 13 28 14 29 15 30 16 14 17 13 18 12 19 11 20 10 21
REMARK SMILES IDX 9 22 8 23 7 24 6 25 5 26 4 27 3 28 2 29 1 30
REMARK H PARENT
REMARK Flexibility Score: inf
ROOT
ATOM      1  C   UNL     1      25.854  18.960   6.779  1.00  0.00     0.000 C 
ENDROOT
BRANCH   1   2
ATOM      2  C   UNL     1      26.290  18.022   7.915  1.00  0.00     0.000 C 
BRANCH   2   3
ATOM      3  C   UNL     1      25.701  16.610   7.766  1.00  0.00     0.000 C 
BRANCH   3   4
ATOM      4  C   UNL     1      26.743  15.509   8.018  1.00  0.00     0.000 C 
BRANCH   4   5
ATOM      5  C   UNL     1      26.198  14.131   7.622  1.00  0.00     0.000 C 
BRANCH   5   6
ATOM      6  C   UNL     1      25.436  13.486   8.785  1.00  0.00     0.000 C 
BRANCH   6   7
ATOM      7  C   UNL     1      23.997  13.135   8.380  1.00  0.00     0.000 C 
BRANCH   7   8
ATOM      8  C   UNL     1      22.990  14.196   8.860  1.00  0.00     0.000 C 
BRANCH   8   9
ATOM      9  C   UNL     1      22.159  13.703  10.060  1.00  0.00     0.000 C 
BRANCH   9  10
ATOM     10  C   UNL     1      22.288  12.185  10.305  1.00  0.00     0.000 C 
BRANCH  10  11
ATOM     11  C   UNL     1      23.166  11.806  11.513  1.00  0.00     0.000 C 
BRANCH  11  12
ATOM     12  C   UNL     1      22.722  10.503  12.201  1.00  0.00     0.006 C 
BRANCH  12  13
ATOM     13  C   UNL     1      21.314  10.065  11.772  1.00  0.00     0.053 C 
BRANCH  13  14
ATOM     14  C   UNL     1      20.580   9.384  12.888  1.00  0.00     0.041 C 
ATOM     15  O   UNL     1      20.956   8.255  13.300  1.00  0.00    -0.550 OA
ATOM     16  O   UNL     1      19.454   9.976  13.443  1.00  0.00    -0.550 OA
ENDBRANCH  13  14
ENDBRANCH  12  13
ENDBRANCH  11  12
ENDBRANCH  10  11
ENDBRANCH   9  10
ENDBRANCH   8   9
ENDBRANCH   7   8
ENDBRANCH   6   7
ENDBRANCH   5   6
ENDBRANCH   4   5
ENDBRANCH   3   4
ENDBRANCH   2   3
ENDBRANCH   1   2
BRANCH   1  17
ATOM     17  C   UNL     1      27.010  19.871   6.339  1.00  0.00     0.000 C 
BRANCH  17  18
ATOM     18  C   UNL     1      26.841  20.364   4.889  1.00  0.00     0.000 C 
BRANCH  18  19
ATOM     19  C   UNL     1      27.561  21.696   4.608  1.00  0.00     0.000 C 
BRANCH  19  20
ATOM     20  C   UNL     1      27.061  22.363   3.313  1.00  0.00     0.000 C 
BRANCH  20  21
ATOM     21  C   UNL     1      27.120  23.900   3.378  1.00  0.00     0.000 C 
BRANCH  21  22
ATOM     22  C   UNL     1      27.399  24.458   4.788  1.00  0.00    -0.000 C 
BRANCH  22  23
ATOM     23  C   UNL     1      26.171  25.155   5.400  1.00  0.00    -0.000 C 
BRANCH  23  24
ATOM     24  C   UNL     1      25.488  24.313   6.492  1.00  0.00    -0.000 C 
BRANCH  24  25
ATOM     25  C   UNL     1      23.981  24.064   6.279  1.00  0.00    -0.000 C 
BRANCH  25  26
ATOM     26  C   UNL     1      23.589  22.592   6.065  1.00  0.00    -0.000 C 
BRANCH  26  27
ATOM     27  C   UNL     1      23.718  22.142   4.601  1.00  0.00    -0.000 C 
BRANCH  27  28
ATOM     28  C   UNL     1      22.626  21.125   4.241  1.00  0.00    -0.000 C 
BRANCH  28  29
ATOM     29  C   UNL     1      22.753  19.815   5.033  1.00  0.00    -0.003 C 
ATOM     30  C   UNL     1      21.889  19.797   6.294  1.00  0.00     0.004 C 
ENDBRANCH  28  29
ENDBRANCH  27  28
ENDBRANCH  26  27
ENDBRANCH  25  26
ENDBRANCH  24  25
ENDBRANCH  23  24
ENDBRANCH  22  23
ENDBRANCH  21  22
ENDBRANCH  20  21
ENDBRANCH  19  20
ENDBRANCH  18  19
ENDBRANCH  17  18
ENDBRANCH   1  17
TORSDOF 26
ENDMDL
MODEL 9
REMARK VINA RESULT:    -5.605      4.228     12.259
REMARK INTER + INTRA:         -16.394
REMARK INTER:                 -14.274
REMARK INTRA:                  -2.120
REMARK UNBOUND:                -2.269
REMARK SMILES CCCCCCCCCCCCCCCCCCCCCCCCCCCC(=O)[O-]
REMARK SMILES IDX 15 1 16 2 17 3 18 4 19 5 20 6 21 7 22 8 23 9 24 10 25 11
REMARK SMILES IDX 26 12 27 13 28 14 29 15 30 16 14 17 13 18 12 19 11 20 10 21
REMARK SMILES IDX 9 22 8 23 7 24 6 25 5 26 4 27 3 28 2 29 1 30
REMARK H PARENT
REMARK Flexibility Score: inf
ROOT
ATOM      1  C   UNL     1      26.095  16.419   8.096  1.00  0.00     0.000 C 
ENDROOT
BRANCH   1   2
ATOM      2  C   UNL     1      27.118  15.319   7.775  1.00  0.00     0.000 C 
BRANCH   2   3
ATOM      3  C   UNL     1      26.492  13.914   7.801  1.00  0.00     0.000 C 
BRANCH   3   4
ATOM      4  C   UNL     1      26.360  13.355   9.226  1.00  0.00     0.000 C 
BRANCH   4   5
ATOM      5  C   UNL     1      24.887  13.198   9.624  1.00  0.00     0.000 C 
BRANCH   5   6
ATOM      6  C   UNL     1      23.984  13.159   8.387  1.00  0.00     0.000 C 
BRANCH   6   7
ATOM      7  C   UNL     1      22.506  13.027   8.781  1.00  0.00     0.000 C 
BRANCH   7   8
ATOM      8  C   UNL     1      22.338  12.523  10.224  1.00  0.00     0.000 C 
BRANCH   8   9
ATOM      9  C   UNL     1      21.663  11.140  10.279  1.00  0.00     0.000 C 
BRANCH   9  10
ATOM     10  C   UNL     1      21.503  10.599  11.715  1.00  0.00     0.000 C 
BRANCH  10  11
ATOM     11  C   UNL     1      22.595   9.602  12.146  1.00  0.00     0.000 C 
BRANCH  11  12
ATOM     12  C   UNL     1      23.501  10.141  13.268  1.00  0.00     0.006 C 
BRANCH  12  13
ATOM     13  C   UNL     1      24.504  11.185  12.759  1.00  0.00     0.053 C 
BRANCH  13  14
ATOM     14  C   UNL     1      25.777  11.166  13.551  1.00  0.00     0.041 C 
ATOM     15  O   UNL     1      26.468  12.212  13.667  1.00  0.00    -0.550 OA
ATOM     16  O   UNL     1      26.222   9.983  14.124  1.00  0.00    -0.550 OA
ENDBRANCH  13  14
ENDBRANCH  12  13
ENDBRANCH  11  12
ENDBRANCH  10  11
ENDBRANCH   9  10
ENDBRANCH   8   9
ENDBRANCH   7   8
ENDBRANCH   6   7
ENDBRANCH   5   6
ENDBRANCH   4   5
ENDBRANCH   3   4
ENDBRANCH   2   3
ENDBRANCH   1   2
BRANCH   1  17
ATOM     17  C   UNL     1      26.684  17.814   7.837  1.00  0.00     0.000 C 
BRANCH  17  18
ATOM     18  C   UNL     1      25.779  18.667   6.926  1.00  0.00     0.000 C 
BRANCH  18  19
ATOM     19  C   UNL     1      24.295  18.262   6.987  1.00  0.00     0.000 C 
BRANCH  19  20
ATOM     20  C   UNL     1      23.466  18.934   5.876  1.00  0.00     0.000 C 
BRANCH  20  21
ATOM     21  C   UNL     1      22.567  20.063   6.410  1.00  0.00     0.000 C 
BRANCH  21  22
ATOM     22  C   UNL     1      22.686  21.385   5.627  1.00  0.00    -0.000 C 
BRANCH  22  23
ATOM     23  C   UNL     1      23.960  21.449   4.767  1.00  0.00    -0.000 C 
BRANCH  23  24
ATOM     24  C   UNL     1      25.165  22.034   5.525  1.00  0.00    -0.000 C 
BRANCH  24  25
ATOM     25  C   UNL     1      25.941  23.133   4.771  1.00  0.00    -0.000 C 
BRANCH  25  26
ATOM     26  C   UNL     1      25.450  24.568   5.028  1.00  0.00    -0.000 C 
BRANCH  26  27
ATOM     27  C   UNL     1      25.277  24.886   6.521  1.00  0.00    -0.000 C 
BRANCH  27  28
ATOM     28  C   UNL     1      25.789  26.296   6.846  1.00  0.00    -0.000 C 
BRANCH  28  29
ATOM     29  C   UNL     1      25.346  26.782   8.235  1.00  0.00    -0.003 C 
ATOM     30  C   UNL     1      24.724  25.671   9.082  1.00  0.00     0.004 C 
ENDBRANCH  28  29
ENDBRANCH  27  28
ENDBRANCH  26  27
ENDBRANCH  25  26
ENDBRANCH  24  25
ENDBRANCH  23  24
ENDBRANCH  22  23
ENDBRANCH  21  22
ENDBRANCH  20  21
ENDBRANCH  19  20
ENDBRANCH  18  19
ENDBRANCH  17  18
ENDBRANCH   1  17
TORSDOF 26
ENDMDL
