MODEL 1
REMARK VINA RESULT:    -4.805      0.000      0.000
REMARK INTER + INTRA:          -6.950
REMARK INTER:                  -6.491
REMARK INTRA:                  -0.459
REMARK UNBOUND:                -0.459
REMARK SMILES C[C@H](O)[C@H](O)[C@@H](O)[C@@H](O)C=O
REMARK SMILES IDX 4 1 2 2 1 3 3 4 6 6 8 7 10 8 11 9 9 10 7 12 5 14
REMARK H PARENT 3 5 9 11 7 13 5 15
REMARK Flexibility Score: inf
ROOT
ATOM      1  C   UNL     1       7.193   4.815  19.231  1.00  0.00     0.174 C 
ENDROOT
BRANCH   1   2
ATOM      2  C   UNL     1       6.510   5.769  18.219  1.00  0.00     0.142 C 
ATOM      3  C   UNL     1       7.477   6.849  17.718  1.00  0.00     0.041 C 
BRANCH   2   4
ATOM      4  O   UNL     1       5.369   6.370  18.778  1.00  0.00    -0.391 OA
ATOM      5  H   UNL     1       5.360   7.321  18.492  1.00  0.00     0.211 HD
ENDBRANCH   2   4
ENDBRANCH   1   2
BRANCH   1   6
ATOM      6  C   UNL     1       7.661   5.572  20.505  1.00  0.00     0.181 C 
BRANCH   6   7
ATOM      7  C   UNL     1       8.537   4.692  21.430  1.00  0.00     0.209 C 
BRANCH   7   8
ATOM      8  C   UNL     1       7.722   4.134  22.567  1.00  0.00     0.258 C 
ATOM      9  O   UNL     1       7.498   4.810  23.559  1.00  0.00    -0.300 OA
ENDBRANCH   7   8
BRANCH   7  10
ATOM     10  O   UNL     1       9.589   5.463  21.953  1.00  0.00    -0.383 OA
ATOM     11  H   UNL     1       9.484   5.461  22.940  1.00  0.00     0.211 HD
ENDBRANCH   7  10
ENDBRANCH   6   7
BRANCH   6  12
ATOM     12  O   UNL     1       6.558   6.096  21.205  1.00  0.00    -0.387 OA
ATOM     13  H   UNL     1       6.401   7.019  20.876  1.00  0.00     0.211 HD
ENDBRANCH   6  12
ENDBRANCH   1   6
BRANCH   1  14
ATOM     14  O   UNL     1       6.292   3.793  19.582  1.00  0.00    -0.388 OA
ATOM     15  H   UNL     1       6.233   3.781  20.573  1.00  0.00     0.211 HD
ENDBRANCH   1  14
TORSDOF 8
ENDMDL
MODEL 2
REMARK VINA RESULT:    -4.751      0.976      4.403
REMARK INTER + INTRA:          -6.877
REMARK INTER:                  -6.553
REMARK INTRA:                  -0.324
REMARK UNBOUND:                -0.459
REMARK SMILES C[C@H](O)[C@H](O)[C@@H](O)[C@@H](O)C=O
REMARK SMILES IDX 4 1 2 2 1 3 3 4 6 6 8 7 10 8 11 9 9 10 7 12 5 14
REMARK H PARENT 3 5 9 11 7 13 5 15
REMARK Flexibility Score: inf
ROOT
ATOM      1  C   UNL     1       7.621   5.437  20.526  1.00  0.00     0.174 C 
ENDROOT
BRANCH   1   2
ATOM      2  C   UNL     1       8.272   4.800  21.779  1.00  0.00     0.142 C 
ATOM      3  C   UNL     1       7.343   4.869  22.998  1.00  0.00     0.041 C 
BRANCH   2   4
ATOM      4  O   UNL     1       9.502   5.413  22.080  1.00  0.00    -0.391 OA
ATOM      5  H   UNL     1      10.211   4.919  21.589  1.00  0.00     0.211 HD
ENDBRANCH   2   4
ENDBRANCH   1   2
BRANCH   1   6
ATOM      6  C   UNL     1       7.197   4.358  19.491  1.00  0.00     0.181 C 
BRANCH   6   7
ATOM      7  C   UNL     1       6.591   4.975  18.206  1.00  0.00     0.209 C 
BRANCH   7   8
ATOM      8  C   UNL     1       7.518   6.006  17.619  1.00  0.00     0.258 C 
ATOM      9  O   UNL     1       7.147   7.159  17.465  1.00  0.00    -0.300 OA
ENDBRANCH   7   8
BRANCH   7  10
ATOM     10  O   UNL     1       5.362   5.583  18.513  1.00  0.00    -0.383 OA
ATOM     11  H   UNL     1       5.047   6.029  17.685  1.00  0.00     0.211 HD
ENDBRANCH   7  10
ENDBRANCH   6   7
BRANCH   6  12
ATOM     12  O   UNL     1       6.310   3.432  20.072  1.00  0.00    -0.387 OA
ATOM     13  H   UNL     1       5.454   3.904  20.247  1.00  0.00     0.211 HD
ENDBRANCH   6  12
ENDBRANCH   1   6
BRANCH   1  14
ATOM     14  O   UNL     1       6.500   6.190  20.922  1.00  0.00    -0.388 OA
ATOM     15  H   UNL     1       5.901   5.581  21.428  1.00  0.00     0.211 HD
ENDBRANCH   1  14
TORSDOF 8
ENDMDL
MODEL 3
REMARK VINA RESULT:    -4.490      1.818      2.877
REMARK INTER + INTRA:          -6.524
REMARK INTER:                  -6.128
REMARK INTRA:                  -0.396
REMARK UNBOUND:                -0.459
REMARK SMILES C[C@H](O)[C@H](O)[C@@H](O)[C@@H](O)C=O
REMARK SMILES IDX 4 1 2 2 1 3 3 4 6 6 8 7 10 8 11 9 9 10 7 12 5 14
REMARK H PARENT 3 5 9 11 7 13 5 15
REMARK Flexibility Score: inf
ROOT
ATOM      1  C   UNL     1       7.644   5.858  17.569  1.00  0.00     0.174 C 
ENDROOT
BRANCH   1   2
ATOM      2  C   UNL     1       7.730   6.925  16.449  1.00  0.00     0.142 C 
ATOM      3  C   UNL     1       8.600   6.448  15.278  1.00  0.00     0.041 C 
BRANCH   2   4
ATOM      4  O   UNL     1       8.222   8.145  16.945  1.00  0.00    -0.391 OA
ATOM      5  H   UNL     1       8.661   8.620  16.191  1.00  0.00     0.211 HD
ENDBRANCH   2   4
ENDBRANCH   1   2
BRANCH   1   6
ATOM      6  C   UNL     1       6.652   6.282  18.688  1.00  0.00     0.181 C 
BRANCH   6   7
ATOM      7  C   UNL     1       7.233   6.069  20.107  1.00  0.00     0.209 C 
BRANCH   7   8
ATOM      8  C   UNL     1       7.616   4.627  20.317  1.00  0.00     0.258 C 
ATOM      9  O   UNL     1       6.831   3.731  20.047  1.00  0.00    -0.300 OA
ENDBRANCH   7   8
BRANCH   7  10
ATOM     10  O   UNL     1       6.273   6.434  21.066  1.00  0.00    -0.383 OA
ATOM     11  H   UNL     1       6.558   7.308  21.441  1.00  0.00     0.211 HD
ENDBRANCH   7  10
ENDBRANCH   6   7
BRANCH   6  12
ATOM     12  O   UNL     1       5.422   5.613  18.541  1.00  0.00    -0.387 OA
ATOM     13  H   UNL     1       5.387   5.245  17.620  1.00  0.00     0.211 HD
ENDBRANCH   6  12
ENDBRANCH   1   6
BRANCH   1  14
ATOM     14  O   UNL     1       7.241   4.632  17.008  1.00  0.00    -0.388 OA
ATOM     15  H   UNL     1       6.755   4.839  16.168  1.00  0.00     0.211 HD
ENDBRANCH   1  14
TORSDOF 8
ENDMDL
MODEL 4
REMARK VINA RESULT:    -4.444     16.744     17.856
REMARK INTER + INTRA:          -6.462
REMARK INTER:                  -6.258
REMARK INTRA:                  -0.204
REMARK UNBOUND:                -0.459
REMARK SMILES C[C@H](O)[C@H](O)[C@@H](O)[C@@H](O)C=O
REMARK SMILES IDX 4 1 2 2 1 3 3 4 6 6 8 7 10 8 11 9 9 10 7 12 5 14
REMARK H PARENT 3 5 9 11 7 13 5 15
REMARK Flexibility Score: inf
ROOT
ATOM      1  C   UNL     1      15.702  -3.406   7.154  1.00  0.00     0.174 C 
ENDROOT
BRANCH   1   2
ATOM      2  C   UNL     1      16.623  -3.888   8.302  1.00  0.00     0.142 C 
ATOM      3  C   UNL     1      18.105  -3.693   7.960  1.00  0.00     0.041 C 
BRANCH   2   4
ATOM      4  O   UNL     1      16.378  -5.237   8.618  1.00  0.00    -0.391 OA
ATOM      5  H   UNL     1      16.840  -5.433   9.475  1.00  0.00     0.211 HD
ENDBRANCH   2   4
ENDBRANCH   1   2
BRANCH   1   6
ATOM      6  C   UNL     1      14.983  -2.077   7.516  1.00  0.00     0.181 C 
BRANCH   6   7
ATOM      7  C   UNL     1      13.504  -2.057   7.058  1.00  0.00     0.209 C 
BRANCH   7   8
ATOM      8  C   UNL     1      13.004  -3.456   6.806  1.00  0.00     0.258 C 
ATOM      9  O   UNL     1      11.835  -3.743   7.011  1.00  0.00    -0.300 OA
ENDBRANCH   7   8
BRANCH   7  10
ATOM     10  O   UNL     1      13.390  -1.308   5.875  1.00  0.00    -0.383 OA
ATOM     11  H   UNL     1      13.122  -0.390   6.141  1.00  0.00     0.211 HD
ENDBRANCH   7  10
ENDBRANCH   6   7
BRANCH   6  12
ATOM     12  O   UNL     1      15.686  -0.974   6.995  1.00  0.00    -0.387 OA
ATOM     13  H   UNL     1      16.278  -0.626   7.712  1.00  0.00     0.211 HD
ENDBRANCH   6  12
ENDBRANCH   1   6
BRANCH   1  14
ATOM     14  O   UNL     1      16.470  -3.236   5.987  1.00  0.00    -0.388 OA
ATOM     15  H   UNL     1      15.841  -3.025   5.249  1.00  0.00     0.211 HD
ENDBRANCH   1  14
TORSDOF 8
ENDMDL
MODEL 5
REMARK VINA RESULT:    -4.390     16.649     17.650
REMARK INTER + INTRA:          -6.388
REMARK INTER:                  -5.861
REMARK INTRA:                  -0.527
REMARK UNBOUND:                -0.459
REMARK SMILES C[C@H](O)[C@H](O)[C@@H](O)[C@@H](O)C=O
REMARK SMILES IDX 4 1 2 2 1 3 3 4 6 6 8 7 10 8 11 9 9 10 7 12 5 14
REMARK H PARENT 3 5 9 11 7 13 5 15
REMARK Flexibility Score: inf
ROOT
ATOM      1  C   UNL     1      14.740  -2.449   8.408  1.00  0.00     0.174 C 
ENDROOT
BRANCH   1   2
ATOM      2  C   UNL     1      13.519  -1.988   7.574  1.00  0.00     0.142 C 
ATOM      3  C   UNL     1      12.710  -3.180   7.047  1.00  0.00     0.041 C 
BRANCH   2   4
ATOM      4  O   UNL     1      13.915  -1.167   6.503  1.00  0.00    -0.391 OA
ATOM      5  H   UNL     1      13.105  -0.699   6.169  1.00  0.00     0.211 HD
ENDBRANCH   2   4
ENDBRANCH   1   2
BRANCH   1   6
ATOM      6  C   UNL     1      15.738  -3.276   7.551  1.00  0.00     0.181 C 
BRANCH   6   7
ATOM      7  C   UNL     1      16.831  -3.961   8.408  1.00  0.00     0.209 C 
BRANCH   7   8
ATOM      8  C   UNL     1      18.175  -3.872   7.734  1.00  0.00     0.258 C 
ATOM      9  O   UNL     1      18.404  -4.513   6.720  1.00  0.00    -0.300 OA
ENDBRANCH   7   8
BRANCH   7  10
ATOM     10  O   UNL     1      16.499  -5.314   8.596  1.00  0.00    -0.383 OA
ATOM     11  H   UNL     1      15.650  -5.472   8.106  1.00  0.00     0.211 HD
ENDBRANCH   7  10
ENDBRANCH   6   7
BRANCH   6  12
ATOM     12  O   UNL     1      16.315  -2.474   6.548  1.00  0.00    -0.387 OA
ATOM     13  H   UNL     1      17.177  -2.892   6.285  1.00  0.00     0.211 HD
ENDBRANCH   6  12
ENDBRANCH   1   6
BRANCH   1  14
ATOM     14  O   UNL     1      15.386  -1.320   8.943  1.00  0.00    -0.388 OA
ATOM     15  H   UNL     1      15.014  -1.171   9.852  1.00  0.00     0.211 HD
ENDBRANCH   1  14
TORSDOF 8
ENDMDL
MODEL 6
REMARK VINA RESULT:    -4.388      1.443      4.205
REMARK INTER + INTRA:          -6.387
REMARK INTER:                  -6.017
REMARK INTRA:                  -0.369
REMARK UNBOUND:                -0.459
REMARK SMILES C[C@H](O)[C@H](O)[C@@H](O)[C@@H](O)C=O
REMARK SMILES IDX 4 1 2 2 1 3 3 4 6 6 8 7 10 8 11 9 9 10 7 12 5 14
REMARK H PARENT 3 5 9 11 7 13 5 15
REMARK Flexibility Score: inf
ROOT
ATOM      1  C   UNL     1       7.438   6.143  20.995  1.00  0.00     0.174 C 
ENDROOT
BRANCH   1   2
ATOM      2  C   UNL     1       8.110   5.092  21.914  1.00  0.00     0.142 C 
ATOM      3  C   UNL     1       7.319   4.886  23.212  1.00  0.00     0.041 C 
BRANCH   2   4
ATOM      4  O   UNL     1       9.436   5.453  22.213  1.00  0.00    -0.391 OA
ATOM      5  H   UNL     1       9.719   4.923  23.005  1.00  0.00     0.211 HD
ENDBRANCH   2   4
ENDBRANCH   1   2
BRANCH   1   6
ATOM      6  C   UNL     1       7.025   5.529  19.629  1.00  0.00     0.181 C 
BRANCH   6   7
ATOM      7  C   UNL     1       7.395   4.029  19.517  1.00  0.00     0.209 C 
BRANCH   7   8
ATOM      8  C   UNL     1       7.880   3.700  18.130  1.00  0.00     0.258 C 
ATOM      9  O   UNL     1       7.091   3.603  17.203  1.00  0.00    -0.300 OA
ENDBRANCH   7   8
BRANCH   7  10
ATOM     10  O   UNL     1       6.266   3.245  19.808  1.00  0.00    -0.383 OA
ATOM     11  H   UNL     1       5.807   3.675  20.576  1.00  0.00     0.211 HD
ENDBRANCH   7  10
ENDBRANCH   6   7
BRANCH   6  12
ATOM     12  O   UNL     1       7.579   6.265  18.565  1.00  0.00    -0.387 OA
ATOM     13  H   UNL     1       8.490   5.908  18.393  1.00  0.00     0.211 HD
ENDBRANCH   6  12
ENDBRANCH   1   6
BRANCH   1  14
ATOM     14  O   UNL     1       6.308   6.670  21.648  1.00  0.00    -0.388 OA
ATOM     15  H   UNL     1       5.624   6.851  20.951  1.00  0.00     0.211 HD
ENDBRANCH   1  14
TORSDOF 8
ENDMDL
MODEL 7
REMARK VINA RESULT:    -4.324     15.541     16.747
REMARK INTER + INTRA:          -6.300
REMARK INTER:                  -5.818
REMARK INTRA:                  -0.482
REMARK UNBOUND:                -0.459
REMARK SMILES C[C@H](O)[C@H](O)[C@@H](O)[C@@H](O)C=O
REMARK SMILES IDX 4 1 2 2 1 3 3 4 6 6 8 7 10 8 11 9 9 10 7 12 5 14
REMARK H PARENT 3 5 9 11 7 13 5 15
REMARK Flexibility Score: inf
ROOT
ATOM      1  C   UNL     1      12.253  -2.540   7.856  1.00  0.00     0.174 C 
ENDROOT
BRANCH   1   2
ATOM      2  C   UNL     1      10.813  -2.995   7.509  1.00  0.00     0.142 C 
ATOM      3  C   UNL     1       9.927  -3.072   8.758  1.00  0.00     0.041 C 
BRANCH   2   4
ATOM      4  O   UNL     1      10.818  -4.237   6.849  1.00  0.00    -0.391 OA
ATOM      5  H   UNL     1      11.551  -4.782   7.240  1.00  0.00     0.211 HD
ENDBRANCH   2   4
ENDBRANCH   1   2
BRANCH   1   6
ATOM      6  C   UNL     1      13.269  -2.974   6.763  1.00  0.00     0.181 C 
BRANCH   6   7
ATOM      7  C   UNL     1      14.584  -3.529   7.363  1.00  0.00     0.209 C 
BRANCH   7   8
ATOM      8  C   UNL     1      15.684  -2.503   7.283  1.00  0.00     0.258 C 
ATOM      9  O   UNL     1      15.531  -1.390   7.762  1.00  0.00    -0.300 OA
ENDBRANCH   7   8
BRANCH   7  10
ATOM     10  O   UNL     1      14.974  -4.678   6.654  1.00  0.00    -0.383 OA
ATOM     11  H   UNL     1      14.618  -4.581   5.732  1.00  0.00     0.211 HD
ENDBRANCH   7  10
ENDBRANCH   6   7
BRANCH   6  12
ATOM     12  O   UNL     1      13.529  -1.911   5.877  1.00  0.00    -0.387 OA
ATOM     13  H   UNL     1      14.514  -1.792   5.829  1.00  0.00     0.211 HD
ENDBRANCH   6  12
ENDBRANCH   1   6
BRANCH   1  14
ATOM     14  O   UNL     1      12.271  -1.141   8.002  1.00  0.00    -0.388 OA
ATOM     15  H   UNL     1      11.418  -0.795   7.630  1.00  0.00     0.211 HD
ENDBRANCH   1  14
TORSDOF 8
ENDMDL
MODEL 8
REMARK VINA RESULT:    -4.287      2.058      4.534
REMARK INTER + INTRA:          -6.249
REMARK INTER:                  -5.752
REMARK INTRA:                  -0.498
REMARK UNBOUND:                -0.459
REMARK SMILES C[C@H](O)[C@H](O)[C@@H](O)[C@@H](O)C=O
REMARK SMILES IDX 4 1 2 2 1 3 3 4 6 6 8 7 10 8 11 9 9 10 7 12 5 14
REMARK H PARENT 3 5 9 11 7 13 5 15
REMARK Flexibility Score: inf
ROOT
ATOM      1  C   UNL     1       7.452   5.650  19.591  1.00  0.00     0.174 C 
ENDROOT
BRANCH   1   2
ATOM      2  C   UNL     1       7.745   4.294  20.282  1.00  0.00     0.142 C 
ATOM      3  C   UNL     1       8.438   3.311  19.330  1.00  0.00     0.041 C 
BRANCH   2   4
ATOM      4  O   UNL     1       6.567   3.718  20.790  1.00  0.00    -0.391 OA
ATOM      5  H   UNL     1       6.082   3.306  20.027  1.00  0.00     0.211 HD
ENDBRANCH   2   4
ENDBRANCH   1   2
BRANCH   1   6
ATOM      6  C   UNL     1       6.837   5.451  18.178  1.00  0.00     0.181 C 
BRANCH   6   7
ATOM      7  C   UNL     1       7.231   6.581  17.195  1.00  0.00     0.209 C 
BRANCH   7   8
ATOM      8  C   UNL     1       8.063   6.040  16.062  1.00  0.00     0.258 C 
ATOM      9  O   UNL     1       8.808   6.775  15.432  1.00  0.00    -0.300 OA
ENDBRANCH   7   8
BRANCH   7  10
ATOM     10  O   UNL     1       7.969   7.561  17.880  1.00  0.00    -0.383 OA
ATOM     11  H   UNL     1       7.860   7.378  18.850  1.00  0.00     0.211 HD
ENDBRANCH   7  10
ENDBRANCH   6   7
BRANCH   6  12
ATOM     12  O   UNL     1       5.438   5.319  18.258  1.00  0.00    -0.387 OA
ATOM     13  H   UNL     1       5.205   5.152  19.209  1.00  0.00     0.211 HD
ENDBRANCH   6  12
ENDBRANCH   1   6
BRANCH   1  14
ATOM     14  O   UNL     1       6.574   6.398  20.397  1.00  0.00    -0.388 OA
ATOM     15  H   UNL     1       6.165   5.770  21.047  1.00  0.00     0.211 HD
ENDBRANCH   1  14
TORSDOF 8
ENDMDL
MODEL 9
REMARK VINA RESULT:    -4.165     12.855     14.366
REMARK INTER + INTRA:          -6.084
REMARK INTER:                  -5.525
REMARK INTRA:                  -0.559
REMARK UNBOUND:                -0.459
REMARK SMILES C[C@H](O)[C@H](O)[C@@H](O)[C@@H](O)C=O
REMARK SMILES IDX 4 1 2 2 1 3 3 4 6 6 8 7 10 8 11 9 9 10 7 12 5 14
REMARK H PARENT 3 5 9 11 7 13 5 15
REMARK Flexibility Score: inf
ROOT
ATOM      1  C   UNL     1      20.679   7.017  22.036  1.00  0.00     0.174 C 
ENDROOT
BRANCH   1   2
ATOM      2  C   UNL     1      20.349   7.413  23.497  1.00  0.00     0.142 C 
ATOM      3  C   UNL     1      18.836   7.438  23.749  1.00  0.00     0.041 C 
BRANCH   2   4
ATOM      4  O   UNL     1      20.909   8.661  23.824  1.00  0.00    -0.391 OA
ATOM      5  H   UNL     1      21.045   9.160  22.976  1.00  0.00     0.211 HD
ENDBRANCH   2   4
ENDBRANCH   1   2
BRANCH   1   6
ATOM      6  C   UNL     1      21.295   8.205  21.246  1.00  0.00     0.181 C 
BRANCH   6   7
ATOM      7  C   UNL     1      20.245   8.959  20.394  1.00  0.00     0.209 C 
BRANCH   7   8
ATOM      8  C   UNL     1      20.910   9.730  19.284  1.00  0.00     0.258 C 
ATOM      9  O   UNL     1      21.127   9.202  18.204  1.00  0.00    -0.300 OA
ENDBRANCH   7   8
BRANCH   7  10
ATOM     10  O   UNL     1      19.532   9.852  21.211  1.00  0.00    -0.383 OA
ATOM     11  H   UNL     1      20.169  10.562  21.487  1.00  0.00     0.211 HD
ENDBRANCH   7  10
ENDBRANCH   6   7
BRANCH   6  12
ATOM     12  O   UNL     1      22.370   7.768  20.449  1.00  0.00    -0.387 OA
ATOM     13  H   UNL     1      22.014   7.572  19.544  1.00  0.00     0.211 HD
ENDBRANCH   6  12
ENDBRANCH   1   6
BRANCH   1  14
ATOM     14  O   UNL     1      21.572   5.930  22.043  1.00  0.00    -0.388 OA
ATOM     15  H   UNL     1      21.171   5.216  21.481  1.00  0.00     0.211 HD
ENDBRANCH   1  14
TORSDOF 8
ENDMDL
