MODEL 1
REMARK VINA RESULT:    -3.609      0.000      0.000
REMARK INTER + INTRA:          -4.571
REMARK INTER:                  -4.347
REMARK INTRA:                  -0.224
REMARK UNBOUND:                -0.224
REMARK SMILES OCC(O)CO
REMARK SMILES IDX 3 1 5 2 6 3 2 5 1 6 4 8
REMARK H PARENT 6 4 1 7 4 9
REMARK Flexibility Score: inf
ROOT
ATOM      1  C   UNL     1     -19.656  24.489   0.594  1.00  0.00     0.165 C 
ENDROOT
BRANCH   1   2
ATOM      2  C   UNL     1     -19.524  23.509  -0.583  1.00  0.00     0.190 C 
BRANCH   2   3
ATOM      3  O   UNL     1     -18.785  24.087  -1.626  1.00  0.00    -0.394 OA
ATOM      4  H   UNL     1     -18.985  23.557  -2.441  1.00  0.00     0.210 HD
ENDBRANCH   2   3
ENDBRANCH   1   2
BRANCH   1   5
ATOM      5  C   UNL     1     -18.420  25.393   0.680  1.00  0.00     0.190 C 
BRANCH   5   6
ATOM      6  O   UNL     1     -18.619  26.566  -0.062  1.00  0.00    -0.394 OA
ATOM      7  H   UNL     1     -19.600  26.680  -0.158  1.00  0.00     0.210 HD
ENDBRANCH   5   6
ENDBRANCH   1   5
BRANCH   1   8
ATOM      8  O   UNL     1     -20.800  25.287   0.426  1.00  0.00    -0.388 OA
ATOM      9  H   UNL     1     -21.298  25.260   1.284  1.00  0.00     0.211 HD
ENDBRANCH   1   8
TORSDOF 5
ENDMDL
MODEL 2
REMARK VINA RESULT:    -3.570      1.994      3.491
REMARK INTER + INTRA:          -4.524
REMARK INTER:                  -4.302
REMARK INTRA:                  -0.222
REMARK UNBOUND:                -0.224
REMARK SMILES OCC(O)CO
REMARK SMILES IDX 3 1 5 2 6 3 2 5 1 6 4 8
REMARK H PARENT 6 4 1 7 4 9
REMARK Flexibility Score: inf
ROOT
ATOM      1  C   UNL     1     -17.345  26.615  -0.568  1.00  0.00     0.165 C 
ENDROOT
BRANCH   1   2
ATOM      2  C   UNL     1     -17.568  28.126  -0.395  1.00  0.00     0.190 C 
BRANCH   2   3
ATOM      3  O   UNL     1     -18.774  28.519  -0.993  1.00  0.00    -0.394 OA
ATOM      4  H   UNL     1     -18.553  28.796  -1.920  1.00  0.00     0.210 HD
ENDBRANCH   2   3
ENDBRANCH   1   2
BRANCH   1   5
ATOM      5  C   UNL     1     -18.117  25.834   0.502  1.00  0.00     0.190 C 
BRANCH   5   6
ATOM      6  O   UNL     1     -19.498  25.921   0.273  1.00  0.00    -0.394 OA
ATOM      7  H   UNL     1     -19.945  25.562   1.084  1.00  0.00     0.210 HD
ENDBRANCH   5   6
ENDBRANCH   1   5
BRANCH   1   8
ATOM      8  O   UNL     1     -17.784  26.209  -1.840  1.00  0.00    -0.388 OA
ATOM      9  H   UNL     1     -18.028  27.034  -2.336  1.00  0.00     0.211 HD
ENDBRANCH   1   8
TORSDOF 5
ENDMDL
MODEL 3
REMARK VINA RESULT:    -3.525      0.700      2.585
REMARK INTER + INTRA:          -4.470
REMARK INTER:                  -4.250
REMARK INTRA:                  -0.220
REMARK UNBOUND:                -0.224
REMARK SMILES OCC(O)CO
REMARK SMILES IDX 3 1 5 2 6 3 2 5 1 6 4 8
REMARK H PARENT 6 4 1 7 4 9
REMARK Flexibility Score: inf
ROOT
ATOM      1  C   UNL     1     -18.519  24.550  -0.007  1.00  0.00     0.165 C 
ENDROOT
BRANCH   1   2
ATOM      2  C   UNL     1     -18.071  25.907   0.560  1.00  0.00     0.190 C 
BRANCH   2   3
ATOM      3  O   UNL     1     -18.483  26.953  -0.279  1.00  0.00    -0.394 OA
ATOM      4  H   UNL     1     -19.459  26.834  -0.420  1.00  0.00     0.210 HD
ENDBRANCH   2   3
ENDBRANCH   1   2
BRANCH   1   5
ATOM      5  C   UNL     1     -19.937  24.212   0.468  1.00  0.00     0.190 C 
BRANCH   5   6
ATOM      6  O   UNL     1     -20.749  25.354   0.440  1.00  0.00    -0.394 OA
ATOM      7  H   UNL     1     -20.586  25.841   1.290  1.00  0.00     0.210 HD
ENDBRANCH   5   6
ENDBRANCH   1   5
BRANCH   1   8
ATOM      8  O   UNL     1     -18.501  24.590  -1.412  1.00  0.00    -0.388 OA
ATOM      9  H   UNL     1     -19.263  25.160  -1.693  1.00  0.00     0.211 HD
ENDBRANCH   1   8
TORSDOF 5
ENDMDL
MODEL 4
REMARK VINA RESULT:    -3.406      1.240      3.285
REMARK INTER + INTRA:          -4.327
REMARK INTER:                  -4.317
REMARK INTRA:                  -0.010
REMARK UNBOUND:                -0.224
REMARK SMILES OCC(O)CO
REMARK SMILES IDX 3 1 5 2 6 3 2 5 1 6 4 8
REMARK H PARENT 6 4 1 7 4 9
REMARK Flexibility Score: inf
ROOT
ATOM      1  C   UNL     1     -19.351  23.550  -0.577  1.00  0.00     0.165 C 
ENDROOT
BRANCH   1   2
ATOM      2  C   UNL     1     -19.627  24.508   0.594  1.00  0.00     0.190 C 
BRANCH   2   3
ATOM      3  O   UNL     1     -20.825  25.208   0.387  1.00  0.00    -0.394 OA
ATOM      4  H   UNL     1     -21.481  24.549   0.039  1.00  0.00     0.210 HD
ENDBRANCH   2   3
ENDBRANCH   1   2
BRANCH   1   5
ATOM      5  C   UNL     1     -20.657  22.911  -1.066  1.00  0.00     0.190 C 
BRANCH   5   6
ATOM      6  O   UNL     1     -20.459  22.276  -2.300  1.00  0.00    -0.394 OA
ATOM      7  H   UNL     1     -20.541  21.300  -2.134  1.00  0.00     0.210 HD
ENDBRANCH   5   6
ENDBRANCH   1   5
BRANCH   1   8
ATOM      8  O   UNL     1     -18.756  24.252  -1.639  1.00  0.00    -0.388 OA
ATOM      9  H   UNL     1     -18.845  23.682  -2.446  1.00  0.00     0.211 HD
ENDBRANCH   1   8
TORSDOF 5
ENDMDL
MODEL 5
REMARK VINA RESULT:    -3.376      6.405      7.254
REMARK INTER + INTRA:          -4.291
REMARK INTER:                  -4.099
REMARK INTRA:                  -0.191
REMARK UNBOUND:                -0.224
REMARK SMILES OCC(O)CO
REMARK SMILES IDX 3 1 5 2 6 3 2 5 1 6 4 8
REMARK H PARENT 6 4 1 7 4 9
REMARK Flexibility Score: inf
ROOT
ATOM      1  C   UNL     1     -26.069  23.969  -3.140  1.00  0.00     0.165 C 
ENDROOT
BRANCH   1   2
ATOM      2  C   UNL     1     -25.272  24.040  -1.827  1.00  0.00     0.190 C 
BRANCH   2   3
ATOM      3  O   UNL     1     -25.256  25.352  -1.330  1.00  0.00    -0.394 OA
ATOM      4  H   UNL     1     -24.306  25.575  -1.150  1.00  0.00     0.210 HD
ENDBRANCH   2   3
ENDBRANCH   1   2
BRANCH   1   5
ATOM      5  C   UNL     1     -25.287  24.635  -4.278  1.00  0.00     0.190 C 
BRANCH   5   6
ATOM      6  O   UNL     1     -25.035  25.982  -3.978  1.00  0.00    -0.394 OA
ATOM      7  H   UNL     1     -24.567  26.366  -4.765  1.00  0.00     0.210 HD
ENDBRANCH   5   6
ENDBRANCH   1   5
BRANCH   1   8
ATOM      8  O   UNL     1     -26.318  22.627  -3.476  1.00  0.00    -0.388 OA
ATOM      9  H   UNL     1     -26.311  22.573  -4.467  1.00  0.00     0.211 HD
ENDBRANCH   1   8
TORSDOF 5
ENDMDL
MODEL 6
REMARK VINA RESULT:    -3.265      1.339      2.696
REMARK INTER + INTRA:          -4.157
REMARK INTER:                  -3.960
REMARK INTRA:                  -0.197
REMARK UNBOUND:                -0.224
REMARK SMILES OCC(O)CO
REMARK SMILES IDX 3 1 5 2 6 3 2 5 1 6 4 8
REMARK H PARENT 6 4 1 7 4 9
REMARK Flexibility Score: inf
ROOT
ATOM      1  C   UNL     1     -19.798  23.166  -0.104  1.00  0.00     0.165 C 
ENDROOT
BRANCH   1   2
ATOM      2  C   UNL     1     -19.631  24.493   0.652  1.00  0.00     0.190 C 
BRANCH   2   3
ATOM      3  O   UNL     1     -20.735  25.330   0.431  1.00  0.00    -0.394 OA
ATOM      4  H   UNL     1     -21.087  25.101  -0.469  1.00  0.00     0.210 HD
ENDBRANCH   2   3
ENDBRANCH   1   2
BRANCH   1   5
ATOM      5  C   UNL     1     -19.150  23.254  -1.491  1.00  0.00     0.190 C 
BRANCH   5   6
ATOM      6  O   UNL     1     -18.603  24.528  -1.697  1.00  0.00    -0.394 OA
ATOM      7  H   UNL     1     -18.321  24.864  -0.806  1.00  0.00     0.210 HD
ENDBRANCH   5   6
ENDBRANCH   1   5
BRANCH   1   8
ATOM      8  O   UNL     1     -19.196  22.123   0.620  1.00  0.00    -0.388 OA
ATOM      9  H   UNL     1     -19.802  21.910   1.377  1.00  0.00     0.211 HD
ENDBRANCH   1   8
TORSDOF 5
ENDMDL
MODEL 7
REMARK VINA RESULT:    -3.260      2.318      3.425
REMARK INTER + INTRA:          -4.151
REMARK INTER:                  -3.933
REMARK INTRA:                  -0.219
REMARK UNBOUND:                -0.224
REMARK SMILES OCC(O)CO
REMARK SMILES IDX 3 1 5 2 6 3 2 5 1 6 4 8
REMARK H PARENT 6 4 1 7 4 9
REMARK Flexibility Score: inf
ROOT
ATOM      1  C   UNL     1     -21.052  23.451   0.129  1.00  0.00     0.165 C 
ENDROOT
BRANCH   1   2
ATOM      2  C   UNL     1     -22.431  22.807  -0.077  1.00  0.00     0.190 C 
BRANCH   2   3
ATOM      3  O   UNL     1     -23.175  23.525  -1.025  1.00  0.00    -0.394 OA
ATOM      4  H   UNL     1     -22.575  23.677  -1.800  1.00  0.00     0.210 HD
ENDBRANCH   2   3
ENDBRANCH   1   2
BRANCH   1   5
ATOM      5  C   UNL     1     -20.117  23.103  -1.036  1.00  0.00     0.190 C 
BRANCH   5   6
ATOM      6  O   UNL     1     -20.781  22.301  -1.975  1.00  0.00    -0.394 OA
ATOM      7  H   UNL     1     -21.271  21.607  -1.461  1.00  0.00     0.210 HD
ENDBRANCH   5   6
ENDBRANCH   1   5
BRANCH   1   8
ATOM      8  O   UNL     1     -21.184  24.848   0.211  1.00  0.00    -0.388 OA
ATOM      9  H   UNL     1     -21.985  25.029   0.770  1.00  0.00     0.211 HD
ENDBRANCH   1   8
TORSDOF 5
ENDMDL
MODEL 8
REMARK VINA RESULT:    -3.251      1.750      2.796
REMARK INTER + INTRA:          -4.140
REMARK INTER:                  -3.932
REMARK INTRA:                  -0.208
REMARK UNBOUND:                -0.224
REMARK SMILES OCC(O)CO
REMARK SMILES IDX 3 1 5 2 6 3 2 5 1 6 4 8
REMARK H PARENT 6 4 1 7 4 9
REMARK Flexibility Score: inf
ROOT
ATOM      1  C   UNL     1     -20.508  22.621  -0.803  1.00  0.00     0.165 C 
ENDROOT
BRANCH   1   2
ATOM      2  C   UNL     1     -19.174  23.340  -0.547  1.00  0.00     0.190 C 
BRANCH   2   3
ATOM      3  O   UNL     1     -18.820  24.130  -1.650  1.00  0.00    -0.394 OA
ATOM      4  H   UNL     1     -19.252  23.718  -2.444  1.00  0.00     0.210 HD
ENDBRANCH   2   3
ENDBRANCH   1   2
BRANCH   1   5
ATOM      5  C   UNL     1     -21.677  23.446  -0.251  1.00  0.00     0.190 C 
BRANCH   5   6
ATOM      6  O   UNL     1     -21.231  24.708   0.168  1.00  0.00    -0.394 OA
ATOM      7  H   UNL     1     -20.439  24.553   0.745  1.00  0.00     0.210 HD
ENDBRANCH   5   6
ENDBRANCH   1   5
BRANCH   1   8
ATOM      8  O   UNL     1     -20.691  22.429  -2.183  1.00  0.00    -0.388 OA
ATOM      9  H   UNL     1     -21.202  21.584  -2.291  1.00  0.00     0.211 HD
ENDBRANCH   1   8
TORSDOF 5
ENDMDL
MODEL 9
REMARK VINA RESULT:    -3.223      1.432      2.377
REMARK INTER + INTRA:          -4.106
REMARK INTER:                  -4.103
REMARK INTRA:                  -0.003
REMARK UNBOUND:                -0.224
REMARK SMILES OCC(O)CO
REMARK SMILES IDX 3 1 5 2 6 3 2 5 1 6 4 8
REMARK H PARENT 6 4 1 7 4 9
REMARK Flexibility Score: inf
ROOT
ATOM      1  C   UNL     1     -19.326  23.559  -0.770  1.00  0.00     0.165 C 
ENDROOT
BRANCH   1   2
ATOM      2  C   UNL     1     -20.566  22.715  -1.106  1.00  0.00     0.190 C 
BRANCH   2   3
ATOM      3  O   UNL     1     -20.493  22.231  -2.421  1.00  0.00    -0.394 OA
ATOM      4  H   UNL     1     -20.627  21.249  -2.368  1.00  0.00     0.210 HD
ENDBRANCH   2   3
ENDBRANCH   1   2
BRANCH   1   5
ATOM      5  C   UNL     1     -19.487  24.226   0.601  1.00  0.00     0.190 C 
BRANCH   5   6
ATOM      6  O   UNL     1     -20.348  25.329   0.513  1.00  0.00    -0.394 OA
ATOM      7  H   UNL     1     -19.779  26.140   0.575  1.00  0.00     0.210 HD
ENDBRANCH   5   6
ENDBRANCH   1   5
BRANCH   1   8
ATOM      8  O   UNL     1     -18.182  22.743  -0.755  1.00  0.00    -0.388 OA
ATOM      9  H   UNL     1     -18.050  22.451   0.185  1.00  0.00     0.211 HD
ENDBRANCH   1   8
TORSDOF 5
ENDMDL
