MODEL 1
REMARK VINA RESULT:    -5.493      0.000      0.000
REMARK INTER + INTRA:         -13.161
REMARK INTER:                 -10.632
REMARK INTRA:                  -2.530
REMARK UNBOUND:                -2.530
REMARK SMILES CCCCCCCCCCCCCCCCCC(=O)[O-]
REMARK SMILES IDX 10 1 11 2 12 3 13 4 14 5 15 6 16 7 17 8 18 9 19 10 20 11
REMARK SMILES IDX 9 12 8 13 7 14 6 15 5 16 4 17 3 18 2 19 1 20
REMARK H PARENT
REMARK Flexibility Score: inf
ROOT
ATOM      1  C   UNL     1     102.461  24.010 198.348  1.00  0.00     0.000 C 
ENDROOT
BRANCH   1   2
ATOM      2  C   UNL     1     103.563  23.002 198.725  1.00  0.00     0.000 C 
BRANCH   2   3
ATOM      3  C   UNL     1     104.166  23.267 200.113  1.00  0.00     0.000 C 
BRANCH   3   4
ATOM      4  C   UNL     1     105.699  23.192 200.068  1.00  0.00     0.000 C 
BRANCH   4   5
ATOM      5  C   UNL     1     106.222  22.335 198.901  1.00  0.00     0.000 C 
BRANCH   5   6
ATOM      6  C   UNL     1     107.082  21.124 199.315  1.00  0.00     0.000 C 
BRANCH   6   7
ATOM      7  C   UNL     1     106.952  19.889 198.406  1.00  0.00     0.006 C 
BRANCH   7   8
ATOM      8  C   UNL     1     106.558  20.247 196.967  1.00  0.00     0.053 C 
BRANCH   8   9
ATOM      9  C   UNL     1     107.759  20.221 196.076  1.00  0.00     0.041 C 
ATOM     10  O   UNL     1     107.671  20.613 194.882  1.00  0.00    -0.550 OA
ATOM     11  O   UNL     1     108.963  19.713 196.546  1.00  0.00    -0.550 OA
ENDBRANCH   8   9
ENDBRANCH   7   8
ENDBRANCH   6   7
ENDBRANCH   5   6
ENDBRANCH   4   5
ENDBRANCH   3   4
ENDBRANCH   2   3
ENDBRANCH   1   2
BRANCH   1  12
ATOM     12  C   UNL     1     102.891  25.093 197.342  1.00  0.00     0.000 C 
BRANCH  12  13
ATOM     13  C   UNL     1     104.413  25.128 197.118  1.00  0.00    -0.000 C 
BRANCH  13  14
ATOM     14  C   UNL     1     104.799  25.752 195.767  1.00  0.00    -0.000 C 
BRANCH  14  15
ATOM     15  C   UNL     1     105.023  24.696 194.672  1.00  0.00    -0.000 C 
BRANCH  15  16
ATOM     16  C   UNL     1     105.327  23.304 195.250  1.00  0.00    -0.000 C 
BRANCH  16  17
ATOM     17  C   UNL     1     104.471  22.197 194.610  1.00  0.00    -0.000 C 
BRANCH  17  18
ATOM     18  C   UNL     1     103.521  22.734 193.522  1.00  0.00    -0.000 C 
BRANCH  18  19
ATOM     19  C   UNL     1     102.045  22.338 193.704  1.00  0.00    -0.003 C 
ATOM     20  C   UNL     1     101.604  22.331 195.168  1.00  0.00     0.004 C 
ENDBRANCH  18  19
ENDBRANCH  17  18
ENDBRANCH  16  17
ENDBRANCH  15  16
ENDBRANCH  14  15
ENDBRANCH  13  14
ENDBRANCH  12  13
ENDBRANCH   1  12
TORSDOF 16
ENDMDL
MODEL 2
REMARK VINA RESULT:    -5.469      2.633      4.142
REMARK INTER + INTRA:         -13.113
REMARK INTER:                 -10.704
REMARK INTRA:                  -2.409
REMARK UNBOUND:                -2.530
REMARK SMILES CCCCCCCCCCCCCCCCCC(=O)[O-]
REMARK SMILES IDX 10 1 11 2 12 3 13 4 14 5 15 6 16 7 17 8 18 9 19 10 20 11
REMARK SMILES IDX 9 12 8 13 7 14 6 15 5 16 4 17 3 18 2 19 1 20
REMARK H PARENT
REMARK Flexibility Score: inf
ROOT
ATOM      1  C   UNL     1     102.615  22.770 200.524  1.00  0.00     0.000 C 
ENDROOT
BRANCH   1   2
ATOM      2  C   UNL     1     101.603  23.892 200.818  1.00  0.00     0.000 C 
BRANCH   2   3
ATOM      3  C   UNL     1     100.551  24.055 199.710  1.00  0.00     0.000 C 
BRANCH   3   4
ATOM      4  C   UNL     1     100.625  22.892 198.710  1.00  0.00     0.000 C 
BRANCH   4   5
ATOM      5  C   UNL     1     101.158  23.322 197.332  1.00  0.00     0.000 C 
BRANCH   5   6
ATOM      6  C   UNL     1     101.758  22.186 196.480  1.00  0.00     0.000 C 
BRANCH   6   7
ATOM      7  C   UNL     1     101.872  20.826 197.192  1.00  0.00     0.006 C 
BRANCH   7   8
ATOM      8  C   UNL     1     103.261  20.192 197.048  1.00  0.00     0.053 C 
BRANCH   8   9
ATOM      9  C   UNL     1     103.169  18.703 197.152  1.00  0.00     0.041 C 
ATOM     10  O   UNL     1     104.150  17.983 196.827  1.00  0.00    -0.550 OA
ATOM     11  O   UNL     1     101.982  18.107 197.559  1.00  0.00    -0.550 OA
ENDBRANCH   8   9
ENDBRANCH   7   8
ENDBRANCH   6   7
ENDBRANCH   5   6
ENDBRANCH   4   5
ENDBRANCH   3   4
ENDBRANCH   2   3
ENDBRANCH   1   2
BRANCH   1  12
ATOM     12  C   UNL     1     104.057  23.248 200.270  1.00  0.00     0.000 C 
BRANCH  12  13
ATOM     13  C   UNL     1     104.472  23.129 198.792  1.00  0.00    -0.000 C 
BRANCH  13  14
ATOM     14  C   UNL     1     105.220  24.373 198.285  1.00  0.00    -0.000 C 
BRANCH  14  15
ATOM     15  C   UNL     1     104.432  25.136 197.207  1.00  0.00    -0.000 C 
BRANCH  15  16
ATOM     16  C   UNL     1     105.110  25.074 195.828  1.00  0.00    -0.000 C 
BRANCH  16  17
ATOM     17  C   UNL     1     104.405  24.102 194.866  1.00  0.00    -0.000 C 
BRANCH  17  18
ATOM     18  C   UNL     1     105.210  22.809 194.631  1.00  0.00    -0.000 C 
BRANCH  18  19
ATOM     19  C   UNL     1     104.845  22.049 193.343  1.00  0.00    -0.003 C 
ATOM     20  C   UNL     1     105.968  21.138 192.848  1.00  0.00     0.004 C 
ENDBRANCH  18  19
ENDBRANCH  17  18
ENDBRANCH  16  17
ENDBRANCH  15  16
ENDBRANCH  14  15
ENDBRANCH  13  14
ENDBRANCH  12  13
ENDBRANCH   1  12
TORSDOF 16
ENDMDL
MODEL 3
REMARK VINA RESULT:    -5.373      1.800      4.452
REMARK INTER + INTRA:         -12.929
REMARK INTER:                 -10.334
REMARK INTRA:                  -2.595
REMARK UNBOUND:                -2.530
REMARK SMILES CCCCCCCCCCCCCCCCCC(=O)[O-]
REMARK SMILES IDX 10 1 11 2 12 3 13 4 14 5 15 6 16 7 17 8 18 9 19 10 20 11
REMARK SMILES IDX 9 12 8 13 7 14 6 15 5 16 4 17 3 18 2 19 1 20
REMARK H PARENT
REMARK Flexibility Score: inf
ROOT
ATOM      1  C   UNL     1     105.392  23.113 194.578  1.00  0.00     0.000 C 
ENDROOT
BRANCH   1   2
ATOM      2  C   UNL     1     104.800  24.471 194.997  1.00  0.00     0.000 C 
BRANCH   2   3
ATOM      3  C   UNL     1     105.685  25.226 195.999  1.00  0.00     0.000 C 
BRANCH   3   4
ATOM      4  C   UNL     1     104.898  25.577 197.271  1.00  0.00     0.000 C 
BRANCH   4   5
ATOM      5  C   UNL     1     103.935  24.458 197.705  1.00  0.00     0.000 C 
BRANCH   5   6
ATOM      6  C   UNL     1     104.540  23.410 198.660  1.00  0.00     0.000 C 
BRANCH   6   7
ATOM      7  C   UNL     1     104.902  22.063 198.008  1.00  0.00     0.006 C 
BRANCH   7   8
ATOM      8  C   UNL     1     106.413  21.879 197.819  1.00  0.00     0.053 C 
BRANCH   8   9
ATOM      9  C   UNL     1     107.010  21.211 199.016  1.00  0.00     0.041 C 
ATOM     10  O   UNL     1     106.898  19.965 199.169  1.00  0.00    -0.550 OA
ATOM     11  O   UNL     1     107.647  21.969 199.991  1.00  0.00    -0.550 OA
ENDBRANCH   8   9
ENDBRANCH   7   8
ENDBRANCH   6   7
ENDBRANCH   5   6
ENDBRANCH   4   5
ENDBRANCH   3   4
ENDBRANCH   2   3
ENDBRANCH   1   2
BRANCH   1  12
ATOM     12  C   UNL     1     104.353  22.051 194.172  1.00  0.00     0.000 C 
BRANCH  12  13
ATOM     13  C   UNL     1     103.247  22.616 193.263  1.00  0.00    -0.000 C 
BRANCH  13  14
ATOM     14  C   UNL     1     101.837  22.378 193.827  1.00  0.00    -0.000 C 
BRANCH  14  15
ATOM     15  C   UNL     1     101.812  22.360 195.365  1.00  0.00    -0.000 C 
BRANCH  15  16
ATOM     16  C   UNL     1     100.836  23.394 195.950  1.00  0.00    -0.000 C 
BRANCH  16  17
ATOM     17  C   UNL     1     100.006  22.831 197.117  1.00  0.00    -0.000 C 
BRANCH  17  18
ATOM     18  C   UNL     1     100.815  22.722 198.424  1.00  0.00    -0.000 C 
BRANCH  18  19
ATOM     19  C   UNL     1     100.323  23.631 199.564  1.00  0.00    -0.003 C 
ATOM     20  C   UNL     1     101.395  23.902 200.618  1.00  0.00     0.004 C 
ENDBRANCH  18  19
ENDBRANCH  17  18
ENDBRANCH  16  17
ENDBRANCH  15  16
ENDBRANCH  14  15
ENDBRANCH  13  14
ENDBRANCH  12  13
ENDBRANCH   1  12
TORSDOF 16
ENDMDL
MODEL 4
REMARK VINA RESULT:    -5.310      2.560      5.011
REMARK INTER + INTRA:         -12.806
REMARK INTER:                  -9.963
REMARK INTRA:                  -2.843
REMARK UNBOUND:                -2.530
REMARK SMILES CCCCCCCCCCCCCCCCCC(=O)[O-]
REMARK SMILES IDX 10 1 11 2 12 3 13 4 14 5 15 6 16 7 17 8 18 9 19 10 20 11
REMARK SMILES IDX 9 12 8 13 7 14 6 15 5 16 4 17 3 18 2 19 1 20
REMARK H PARENT
REMARK Flexibility Score: inf
ROOT
ATOM      1  C   UNL     1     106.966  21.707 199.307  1.00  0.00     0.000 C 
ENDROOT
BRANCH   1   2
ATOM      2  C   UNL     1     105.855  22.708 198.938  1.00  0.00     0.000 C 
BRANCH   2   3
ATOM      3  C   UNL     1     105.137  23.284 200.168  1.00  0.00     0.000 C 
BRANCH   3   4
ATOM      4  C   UNL     1     103.614  23.267 199.971  1.00  0.00     0.000 C 
BRANCH   4   5
ATOM      5  C   UNL     1     103.201  22.899 198.534  1.00  0.00     0.000 C 
BRANCH   5   6
ATOM      6  C   UNL     1     102.211  23.875 197.869  1.00  0.00     0.000 C 
BRANCH   6   7
ATOM      7  C   UNL     1     101.171  23.221 196.942  1.00  0.00     0.006 C 
BRANCH   7   8
ATOM      8  C   UNL     1     100.717  21.842 197.435  1.00  0.00     0.053 C 
BRANCH   8   9
ATOM      9  C   UNL     1     100.944  20.809 196.379  1.00  0.00     0.041 C 
ATOM     10  O   UNL     1     100.930  19.584 196.675  1.00  0.00    -0.550 OA
ATOM     11  O   UNL     1     101.224  21.197 195.074  1.00  0.00    -0.550 OA
ENDBRANCH   8   9
ENDBRANCH   7   8
ENDBRANCH   6   7
ENDBRANCH   5   6
ENDBRANCH   4   5
ENDBRANCH   3   4
ENDBRANCH   2   3
ENDBRANCH   1   2
BRANCH   1  12
ATOM     12  C   UNL     1     106.830  20.320 198.653  1.00  0.00     0.000 C 
BRANCH  12  13
ATOM     13  C   UNL     1     105.876  20.321 197.445  1.00  0.00    -0.000 C 
BRANCH  13  14
ATOM     14  C   UNL     1     106.621  20.317 196.101  1.00  0.00    -0.000 C 
BRANCH  14  15
ATOM     15  C   UNL     1     106.208  21.490 195.195  1.00  0.00    -0.000 C 
BRANCH  15  16
ATOM     16  C   UNL     1     104.723  21.857 195.347  1.00  0.00    -0.000 C 
BRANCH  16  17
ATOM     17  C   UNL     1     104.401  23.260 194.805  1.00  0.00    -0.000 C 
BRANCH  17  18
ATOM     18  C   UNL     1     105.384  24.333 195.309  1.00  0.00    -0.000 C 
BRANCH  18  19
ATOM     19  C   UNL     1     104.719  25.572 195.935  1.00  0.00    -0.003 C 
ATOM     20  C   UNL     1     105.367  25.998 197.252  1.00  0.00     0.004 C 
ENDBRANCH  18  19
ENDBRANCH  17  18
ENDBRANCH  16  17
ENDBRANCH  15  16
ENDBRANCH  14  15
ENDBRANCH  13  14
ENDBRANCH  12  13
ENDBRANCH   1  12
TORSDOF 16
ENDMDL
MODEL 5
REMARK VINA RESULT:    -5.281      1.422      2.911
REMARK INTER + INTRA:         -12.750
REMARK INTER:                 -10.133
REMARK INTRA:                  -2.617
REMARK UNBOUND:                -2.530
REMARK SMILES CCCCCCCCCCCCCCCCCC(=O)[O-]
REMARK SMILES IDX 10 1 11 2 12 3 13 4 14 5 15 6 16 7 17 8 18 9 19 10 20 11
REMARK SMILES IDX 9 12 8 13 7 14 6 15 5 16 4 17 3 18 2 19 1 20
REMARK H PARENT
REMARK Flexibility Score: inf
ROOT
ATOM      1  C   UNL     1     102.319  24.072 198.101  1.00  0.00     0.000 C 
ENDROOT
BRANCH   1   2
ATOM      2  C   UNL     1     102.120  23.211 199.362  1.00  0.00     0.000 C 
BRANCH   2   3
ATOM      3  C   UNL     1     103.409  23.037 200.178  1.00  0.00     0.000 C 
BRANCH   3   4
ATOM      4  C   UNL     1     104.614  23.629 199.432  1.00  0.00     0.000 C 
BRANCH   4   5
ATOM      5  C   UNL     1     105.961  23.240 200.067  1.00  0.00     0.000 C 
BRANCH   5   6
ATOM      6  C   UNL     1     106.563  21.914 199.561  1.00  0.00     0.000 C 
BRANCH   6   7
ATOM      7  C   UNL     1     106.569  21.741 198.032  1.00  0.00     0.006 C 
BRANCH   7   8
ATOM      8  C   UNL     1     105.594  20.659 197.551  1.00  0.00     0.053 C 
BRANCH   8   9
ATOM      9  C   UNL     1     106.254  19.317 197.566  1.00  0.00     0.041 C 
ATOM     10  O   UNL     1     107.509  19.227 197.505  1.00  0.00    -0.550 OA
ATOM     11  O   UNL     1     105.482  18.163 197.595  1.00  0.00    -0.550 OA
ENDBRANCH   8   9
ENDBRANCH   7   8
ENDBRANCH   6   7
ENDBRANCH   5   6
ENDBRANCH   4   5
ENDBRANCH   3   4
ENDBRANCH   2   3
ENDBRANCH   1   2
BRANCH   1  12
ATOM     12  C   UNL     1     101.579  23.568 196.849  1.00  0.00     0.000 C 
BRANCH  12  13
ATOM     13  C   UNL     1     101.597  22.034 196.723  1.00  0.00    -0.000 C 
BRANCH  13  14
ATOM     14  C   UNL     1     102.546  21.541 195.619  1.00  0.00    -0.000 C 
BRANCH  14  15
ATOM     15  C   UNL     1     102.528  22.448 194.377  1.00  0.00    -0.000 C 
BRANCH  15  16
ATOM     16  C   UNL     1     103.861  22.423 193.611  1.00  0.00    -0.000 C 
BRANCH  16  17
ATOM     17  C   UNL     1     105.040  22.935 194.456  1.00  0.00    -0.000 C 
BRANCH  17  18
ATOM     18  C   UNL     1     104.752  24.296 195.117  1.00  0.00    -0.000 C 
BRANCH  18  19
ATOM     19  C   UNL     1     105.768  24.717 196.193  1.00  0.00    -0.003 C 
ATOM     20  C   UNL     1     105.444  26.070 196.825  1.00  0.00     0.004 C 
ENDBRANCH  18  19
ENDBRANCH  17  18
ENDBRANCH  16  17
ENDBRANCH  15  16
ENDBRANCH  14  15
ENDBRANCH  13  14
ENDBRANCH  12  13
ENDBRANCH   1  12
TORSDOF 16
ENDMDL
MODEL 6
REMARK VINA RESULT:    -5.273      2.719      5.717
REMARK INTER + INTRA:         -12.734
REMARK INTER:                 -10.135
REMARK INTRA:                  -2.599
REMARK UNBOUND:                -2.530
REMARK SMILES CCCCCCCCCCCCCCCCCC(=O)[O-]
REMARK SMILES IDX 10 1 11 2 12 3 13 4 14 5 15 6 16 7 17 8 18 9 19 10 20 11
REMARK SMILES IDX 9 12 8 13 7 14 6 15 5 16 4 17 3 18 2 19 1 20
REMARK H PARENT
REMARK Flexibility Score: inf
ROOT
ATOM      1  C   UNL     1     104.867  25.667 197.156  1.00  0.00     0.000 C 
ENDROOT
BRANCH   1   2
ATOM      2  C   UNL     1     105.767  24.969 196.119  1.00  0.00     0.000 C 
BRANCH   2   3
ATOM      3  C   UNL     1     105.045  24.689 194.792  1.00  0.00     0.000 C 
BRANCH   3   4
ATOM      4  C   UNL     1     104.843  23.181 194.585  1.00  0.00     0.000 C 
BRANCH   4   5
ATOM      5  C   UNL     1     103.958  22.857 193.368  1.00  0.00     0.000 C 
BRANCH   5   6
ATOM      6  C   UNL     1     102.530  22.386 193.707  1.00  0.00     0.000 C 
BRANCH   6   7
ATOM      7  C   UNL     1     102.246  22.185 195.206  1.00  0.00     0.006 C 
BRANCH   7   8
ATOM      8  C   UNL     1     100.913  22.800 195.648  1.00  0.00     0.053 C 
BRANCH   8   9
ATOM      9  C   UNL     1     100.418  22.136 196.892  1.00  0.00     0.041 C 
ATOM     10  O   UNL     1     101.098  21.228 197.440  1.00  0.00    -0.550 OA
ATOM     11  O   UNL     1      99.180  22.481 197.421  1.00  0.00    -0.550 OA
ENDBRANCH   8   9
ENDBRANCH   7   8
ENDBRANCH   6   7
ENDBRANCH   5   6
ENDBRANCH   4   5
ENDBRANCH   3   4
ENDBRANCH   2   3
ENDBRANCH   1   2
BRANCH   1  12
ATOM     12  C   UNL     1     103.384  25.257 197.107  1.00  0.00     0.000 C 
BRANCH  12  13
ATOM     13  C   UNL     1     102.980  24.342 198.277  1.00  0.00    -0.000 C 
BRANCH  13  14
ATOM     14  C   UNL     1     103.950  23.166 198.472  1.00  0.00    -0.000 C 
BRANCH  14  15
ATOM     15  C   UNL     1     104.689  23.230 199.820  1.00  0.00    -0.000 C 
BRANCH  15  16
ATOM     16  C   UNL     1     106.104  22.633 199.743  1.00  0.00    -0.000 C 
BRANCH  16  17
ATOM     17  C   UNL     1     106.435  22.070 198.350  1.00  0.00    -0.000 C 
BRANCH  17  18
ATOM     18  C   UNL     1     106.934  20.614 198.400  1.00  0.00    -0.000 C 
BRANCH  18  19
ATOM     19  C   UNL     1     105.936  19.573 197.863  1.00  0.00    -0.003 C 
ATOM     20  C   UNL     1     105.068  20.108 196.724  1.00  0.00     0.004 C 
ENDBRANCH  18  19
ENDBRANCH  17  18
ENDBRANCH  16  17
ENDBRANCH  15  16
ENDBRANCH  14  15
ENDBRANCH  13  14
ENDBRANCH  12  13
ENDBRANCH   1  12
TORSDOF 16
ENDMDL
MODEL 7
REMARK VINA RESULT:    -5.241      1.925      4.504
REMARK INTER + INTRA:         -12.672
REMARK INTER:                 -10.016
REMARK INTRA:                  -2.656
REMARK UNBOUND:                -2.530
REMARK SMILES CCCCCCCCCCCCCCCCCC(=O)[O-]
REMARK SMILES IDX 10 1 11 2 12 3 13 4 14 5 15 6 16 7 17 8 18 9 19 10 20 11
REMARK SMILES IDX 9 12 8 13 7 14 6 15 5 16 4 17 3 18 2 19 1 20
REMARK H PARENT
REMARK Flexibility Score: inf
ROOT
ATOM      1  C   UNL     1     105.080  22.934 194.672  1.00  0.00     0.000 C 
ENDROOT
BRANCH   1   2
ATOM      2  C   UNL     1     104.605  24.388 194.848  1.00  0.00     0.000 C 
BRANCH   2   3
ATOM      3  C   UNL     1     105.614  25.259 195.611  1.00  0.00     0.000 C 
BRANCH   3   4
ATOM      4  C   UNL     1     105.082  25.620 197.006  1.00  0.00     0.000 C 
BRANCH   4   5
ATOM      5  C   UNL     1     103.713  24.985 197.306  1.00  0.00     0.000 C 
BRANCH   5   6
ATOM      6  C   UNL     1     103.715  23.927 198.427  1.00  0.00     0.000 C 
BRANCH   6   7
ATOM      7  C   UNL     1     104.916  22.964 198.415  1.00  0.00     0.006 C 
BRANCH   7   8
ATOM      8  C   UNL     1     105.682  22.951 199.744  1.00  0.00     0.053 C 
BRANCH   8   9
ATOM      9  C   UNL     1     106.852  22.023 199.662  1.00  0.00     0.041 C 
ATOM     10  O   UNL     1     107.952  22.341 200.189  1.00  0.00    -0.550 OA
ATOM     11  O   UNL     1     106.746  20.830 198.960  1.00  0.00    -0.550 OA
ENDBRANCH   8   9
ENDBRANCH   7   8
ENDBRANCH   6   7
ENDBRANCH   5   6
ENDBRANCH   4   5
ENDBRANCH   3   4
ENDBRANCH   2   3
ENDBRANCH   1   2
BRANCH   1  12
ATOM     12  C   UNL     1     104.254  22.098 193.677  1.00  0.00     0.000 C 
BRANCH  12  13
ATOM     13  C   UNL     1     102.880  22.721 193.373  1.00  0.00    -0.000 C 
BRANCH  13  14
ATOM     14  C   UNL     1     101.734  22.022 194.122  1.00  0.00    -0.000 C 
BRANCH  14  15
ATOM     15  C   UNL     1     101.310  22.781 195.391  1.00  0.00    -0.000 C 
BRANCH  15  16
ATOM     16  C   UNL     1     101.325  21.888 196.643  1.00  0.00    -0.000 C 
BRANCH  16  17
ATOM     17  C   UNL     1     101.777  20.450 196.339  1.00  0.00    -0.000 C 
BRANCH  17  18
ATOM     18  C   UNL     1     102.796  19.917 197.365  1.00  0.00    -0.000 C 
BRANCH  18  19
ATOM     19  C   UNL     1     104.210  19.683 196.806  1.00  0.00    -0.003 C 
ATOM     20  C   UNL     1     104.835  18.375 197.288  1.00  0.00     0.004 C 
ENDBRANCH  18  19
ENDBRANCH  17  18
ENDBRANCH  16  17
ENDBRANCH  15  16
ENDBRANCH  14  15
ENDBRANCH  13  14
ENDBRANCH  12  13
ENDBRANCH   1  12
TORSDOF 16
ENDMDL
MODEL 8
REMARK VINA RESULT:    -5.219      1.458      4.081
REMARK INTER + INTRA:         -12.629
REMARK INTER:                 -10.214
REMARK INTRA:                  -2.416
REMARK UNBOUND:                -2.530
REMARK SMILES CCCCCCCCCCCCCCCCCC(=O)[O-]
REMARK SMILES IDX 10 1 11 2 12 3 13 4 14 5 15 6 16 7 17 8 18 9 19 10 20 11
REMARK SMILES IDX 9 12 8 13 7 14 6 15 5 16 4 17 3 18 2 19 1 20
REMARK H PARENT
REMARK Flexibility Score: inf
ROOT
ATOM      1  C   UNL     1     103.610  23.033 198.334  1.00  0.00     0.000 C 
ENDROOT
BRANCH   1   2
ATOM      2  C   UNL     1     102.504  23.953 197.785  1.00  0.00     0.000 C 
BRANCH   2   3
ATOM      3  C   UNL     1     103.057  25.230 197.135  1.00  0.00     0.000 C 
BRANCH   3   4
ATOM      4  C   UNL     1     104.575  25.127 196.926  1.00  0.00     0.000 C 
BRANCH   4   5
ATOM      5  C   UNL     1     104.990  25.314 195.456  1.00  0.00     0.000 C 
BRANCH   5   6
ATOM      6  C   UNL     1     104.701  24.111 194.538  1.00  0.00     0.000 C 
BRANCH   6   7
ATOM      7  C   UNL     1     105.361  22.788 194.967  1.00  0.00     0.006 C 
BRANCH   7   8
ATOM      8  C   UNL     1     105.270  21.700 193.890  1.00  0.00     0.053 C 
BRANCH   8   9
ATOM      9  C   UNL     1     106.632  21.180 193.557  1.00  0.00     0.041 C 
ATOM     10  O   UNL     1     107.070  21.257 192.379  1.00  0.00    -0.550 OA
ATOM     11  O   UNL     1     107.400  20.563 194.537  1.00  0.00    -0.550 OA
ENDBRANCH   8   9
ENDBRANCH   7   8
ENDBRANCH   6   7
ENDBRANCH   5   6
ENDBRANCH   4   5
ENDBRANCH   3   4
ENDBRANCH   2   3
ENDBRANCH   1   2
BRANCH   1  12
ATOM     12  C   UNL     1     103.962  23.257 199.817  1.00  0.00     0.000 C 
BRANCH  12  13
ATOM     13  C   UNL     1     105.469  23.126 200.098  1.00  0.00    -0.000 C 
BRANCH  13  14
ATOM     14  C   UNL     1     106.252  22.581 198.894  1.00  0.00    -0.000 C 
BRANCH  14  15
ATOM     15  C   UNL     1     106.907  21.219 199.183  1.00  0.00    -0.000 C 
BRANCH  15  16
ATOM     16  C   UNL     1     107.028  20.345 197.924  1.00  0.00    -0.000 C 
BRANCH  16  17
ATOM     17  C   UNL     1     105.984  19.217 197.882  1.00  0.00    -0.000 C 
BRANCH  17  18
ATOM     18  C   UNL     1     104.834  19.507 196.899  1.00  0.00    -0.000 C 
BRANCH  18  19
ATOM     19  C   UNL     1     103.425  19.243 197.460  1.00  0.00    -0.003 C 
ATOM     20  C   UNL     1     102.334  20.024 196.729  1.00  0.00     0.004 C 
ENDBRANCH  18  19
ENDBRANCH  17  18
ENDBRANCH  16  17
ENDBRANCH  15  16
ENDBRANCH  14  15
ENDBRANCH  13  14
ENDBRANCH  12  13
ENDBRANCH   1  12
TORSDOF 16
ENDMDL
MODEL 9
REMARK VINA RESULT:    -5.151      1.633      3.878
REMARK INTER + INTRA:         -12.498
REMARK INTER:                  -9.640
REMARK INTRA:                  -2.858
REMARK UNBOUND:                -2.530
REMARK SMILES CCCCCCCCCCCCCCCCCC(=O)[O-]
REMARK SMILES IDX 10 1 11 2 12 3 13 4 14 5 15 6 16 7 17 8 18 9 19 10 20 11
REMARK SMILES IDX 9 12 8 13 7 14 6 15 5 16 4 17 3 18 2 19 1 20
REMARK H PARENT
REMARK Flexibility Score: inf
ROOT
ATOM      1  C   UNL     1     104.247  23.162 198.523  1.00  0.00     0.000 C 
ENDROOT
BRANCH   1   2
ATOM      2  C   UNL     1     105.003  24.393 197.991  1.00  0.00     0.000 C 
BRANCH   2   3
ATOM      3  C   UNL     1     104.282  25.080 196.822  1.00  0.00     0.000 C 
BRANCH   3   4
ATOM      4  C   UNL     1     105.029  24.841 195.501  1.00  0.00     0.000 C 
BRANCH   4   5
ATOM      5  C   UNL     1     104.438  23.679 194.682  1.00  0.00     0.000 C 
BRANCH   5   6
ATOM      6  C   UNL     1     105.430  22.548 194.346  1.00  0.00     0.000 C 
BRANCH   6   7
ATOM      7  C   UNL     1     105.525  21.428 195.398  1.00  0.00     0.006 C 
BRANCH   7   8
ATOM      8  C   UNL     1     106.734  21.586 196.328  1.00  0.00     0.053 C 
BRANCH   8   9
ATOM      9  C   UNL     1     107.682  20.443 196.151  1.00  0.00     0.041 C 
ATOM     10  O   UNL     1     108.381  20.354 195.107  1.00  0.00    -0.550 OA
ATOM     11  O   UNL     1     107.755  19.445 197.115  1.00  0.00    -0.550 OA
ENDBRANCH   8   9
ENDBRANCH   7   8
ENDBRANCH   6   7
ENDBRANCH   5   6
ENDBRANCH   4   5
ENDBRANCH   3   4
ENDBRANCH   2   3
ENDBRANCH   1   2
BRANCH   1  12
ATOM     12  C   UNL     1     103.874  23.225 200.015  1.00  0.00     0.000 C 
BRANCH  12  13
ATOM     13  C   UNL     1     102.356  23.147 200.254  1.00  0.00    -0.000 C 
BRANCH  13  14
ATOM     14  C   UNL     1     101.546  23.870 199.166  1.00  0.00    -0.000 C 
BRANCH  14  15
ATOM     15  C   UNL     1     100.156  23.246 198.951  1.00  0.00    -0.000 C 
BRANCH  15  16
ATOM     16  C   UNL     1     100.034  22.536 197.593  1.00  0.00    -0.000 C 
BRANCH  16  17
ATOM     17  C   UNL     1     101.205  22.857 196.649  1.00  0.00    -0.000 C 
BRANCH  17  18
ATOM     18  C   UNL     1     101.678  21.629 195.847  1.00  0.00    -0.000 C 
BRANCH  18  19
ATOM     19  C   UNL     1     101.543  20.287 196.588  1.00  0.00    -0.003 C 
ATOM     20  C   UNL     1     102.754  19.961 197.460  1.00  0.00     0.004 C 
ENDBRANCH  18  19
ENDBRANCH  17  18
ENDBRANCH  16  17
ENDBRANCH  15  16
ENDBRANCH  14  15
ENDBRANCH  13  14
ENDBRANCH  12  13
ENDBRANCH   1  12
TORSDOF 16
ENDMDL
