MODEL 1
REMARK VINA RESULT:    -6.407      0.000      0.000
REMARK INTER + INTRA:         -10.232
REMARK INTER:                  -8.842
REMARK INTRA:                  -1.391
REMARK UNBOUND:                -1.391
REMARK SMILES O=C([O-])[C@H]1O[C@@H](Oc2cc3oc(-c4ccccc4)cc(=O)c3c(O)c2O)[C@H](O)[C@H](O)[C@H]1O
REMARK SMILES IDX 7 1 6 2 4 3 31 4 5 5 29 6 27 7 2 8 1 9 3 10 32 11 30 13
REMARK SMILES IDX 28 15 8 17 25 18 9 19 23 20 10 21 22 22 11 23 20 24 12 25
REMARK SMILES IDX 19 26 21 27 26 28 24 30 13 32 14 33 18 34 15 35 17 36 16 37
REMARK H PARENT 32 12 30 14 28 16 26 29 24 31
REMARK Flexibility Score: inf
ROOT
ATOM      1  O   UNL     1      27.889  -5.255  97.652  1.00  0.00    -0.458 OA
ENDROOT
BRANCH   1   2
ATOM      2  C   UNL     1      27.417  -6.260  96.741  1.00  0.00     0.339 C 
ATOM      3  C   UNL     1      28.807  -5.824  94.822  1.00  0.00     0.199 C 
ATOM      4  C   UNL     1      27.579  -5.402  93.986  1.00  0.00     0.180 C 
ATOM      5  O   UNL     1      28.465  -6.713  95.885  1.00  0.00    -0.328 OA
ATOM      6  C   UNL     1      26.520  -4.773  94.891  1.00  0.00     0.181 C 
ATOM      7  C   UNL     1      26.158  -5.773  95.997  1.00  0.00     0.214 C 
BRANCH   3   8
ATOM      8  C   UNL     1      29.684  -4.679  95.276  1.00  0.00     0.073 C 
ATOM      9  O   UNL     1      30.812  -4.907  95.794  1.00  0.00    -0.547 OA
ATOM     10  O   UNL     1      29.331  -3.361  94.994  1.00  0.00    -0.547 OA
ENDBRANCH   3   8
BRANCH   4  11
ATOM     11  O   UNL     1      27.946  -4.498  92.972  1.00  0.00    -0.387 OA
ATOM     12  H   UNL     1      28.462  -5.008  92.295  1.00  0.00     0.211 HD
ENDBRANCH   4  11
BRANCH   6  13
ATOM     13  O   UNL     1      25.386  -4.458  94.126  1.00  0.00    -0.387 OA
ATOM     14  H   UNL     1      25.374  -5.085  93.359  1.00  0.00     0.211 HD
ENDBRANCH   6  13
BRANCH   7  15
ATOM     15  O   UNL     1      25.497  -6.880  95.431  1.00  0.00    -0.384 OA
ATOM     16  H   UNL     1      25.516  -6.762  94.443  1.00  0.00     0.211 HD
ENDBRANCH   7  15
ENDBRANCH   1   2
BRANCH   1  17
ATOM     17  C   UNL     1      27.102  -4.517  98.562  1.00  0.00     0.172 A 
ATOM     18  C   UNL     1      27.072  -3.119  98.432  1.00  0.00     0.201 A 
ATOM     19  C   UNL     1      26.339  -5.119  99.574  1.00  0.00     0.098 A 
ATOM     20  C   UNL     1      26.310  -2.324  99.312  1.00  0.00     0.176 A 
ATOM     21  C   UNL     1      25.632  -4.347 100.499  1.00  0.00     0.146 A 
ATOM     22  C   UNL     1      25.624  -2.933 100.401  1.00  0.00     0.111 A 
ATOM     23  O   UNL     1      24.984  -4.969 101.481  1.00  0.00    -0.456 OA
ATOM     24  C   UNL     1      24.956  -2.227 101.429  1.00  0.00     0.197 A 
ATOM     25  C   UNL     1      24.316  -4.330 102.436  1.00  0.00     0.138 A 
ATOM     26  C   UNL     1      24.286  -2.928 102.434  1.00  0.00     0.100 A 
ATOM     27  O   UNL     1      24.982  -0.969 101.499  1.00  0.00    -0.289 OA
BRANCH  18  28
ATOM     28  O   UNL     1      27.803  -2.528  97.407  1.00  0.00    -0.502 OA
ATOM     29  H   UNL     1      27.469  -1.721  96.893  1.00  0.00     0.293 HD
ENDBRANCH  18  28
BRANCH  20  30
ATOM     30  O   UNL     1      26.255  -0.950  99.047  1.00  0.00    -0.504 OA
ATOM     31  H   UNL     1      26.846  -0.465  98.391  1.00  0.00     0.293 HD
ENDBRANCH  20  30
BRANCH  25  32
ATOM     32  C   UNL     1      23.654  -5.124 103.504  1.00  0.00     0.017 A 
ATOM     33  C   UNL     1      24.246  -5.302 104.771  1.00  0.00     0.012 A 
ATOM     34  C   UNL     1      22.398  -5.707 103.255  1.00  0.00     0.012 A 
ATOM     35  C   UNL     1      23.601  -6.065 105.751  1.00  0.00     0.001 A 
ATOM     36  C   UNL     1      21.757  -6.465 104.239  1.00  0.00     0.001 A 
ATOM     37  C   UNL     1      22.357  -6.644 105.487  1.00  0.00     0.000 A 
ENDBRANCH  25  32
ENDBRANCH   1  17
TORSDOF 9
ENDMDL
MODEL 2
REMARK VINA RESULT:    -6.341      4.580      7.936
REMARK INTER + INTRA:         -10.141
REMARK INTER:                  -8.730
REMARK INTRA:                  -1.412
REMARK UNBOUND:                -1.391
REMARK SMILES O=C([O-])[C@H]1O[C@@H](Oc2cc3oc(-c4ccccc4)cc(=O)c3c(O)c2O)[C@H](O)[C@H](O)[C@H]1O
REMARK SMILES IDX 7 1 6 2 4 3 31 4 5 5 29 6 27 7 2 8 1 9 3 10 32 11 30 13
REMARK SMILES IDX 28 15 8 17 25 18 9 19 23 20 10 21 22 22 11 23 20 24 12 25
REMARK SMILES IDX 19 26 21 27 26 28 24 30 13 32 14 33 18 34 15 35 17 36 16 37
REMARK H PARENT 32 12 30 14 28 16 26 29 24 31
REMARK Flexibility Score: inf
ROOT
ATOM      1  O   UNL     1      28.383   0.181 103.323  1.00  0.00    -0.458 OA
ENDROOT
BRANCH   1   2
ATOM      2  C   UNL     1      28.143   1.377 104.080  1.00  0.00     0.339 C 
ATOM      3  C   UNL     1      29.982   2.753 103.354  1.00  0.00     0.199 C 
ATOM      4  C   UNL     1      30.594   2.743 104.772  1.00  0.00     0.180 C 
ATOM      5  O   UNL     1      28.572   2.536 103.366  1.00  0.00    -0.328 OA
ATOM      6  C   UNL     1      30.260   1.429 105.478  1.00  0.00     0.181 C 
ATOM      7  C   UNL     1      28.737   1.252 105.498  1.00  0.00     0.214 C 
BRANCH   3   8
ATOM      8  C   UNL     1      30.701   1.878 102.352  1.00  0.00     0.073 C 
ATOM      9  O   UNL     1      30.416   1.949 101.124  1.00  0.00    -0.547 OA
ATOM     10  O   UNL     1      31.786   1.097 102.742  1.00  0.00    -0.547 OA
ENDBRANCH   3   8
BRANCH   4  11
ATOM     11  O   UNL     1      31.989   2.923 104.720  1.00  0.00    -0.387 OA
ATOM     12  H   UNL     1      32.156   3.876 104.501  1.00  0.00     0.211 HD
ENDBRANCH   4  11
BRANCH   6  13
ATOM     13  O   UNL     1      30.766   1.466 106.787  1.00  0.00    -0.387 OA
ATOM     14  H   UNL     1      31.272   2.313 106.875  1.00  0.00     0.211 HD
ENDBRANCH   6  13
BRANCH   7  15
ATOM     15  O   UNL     1      28.162   2.232 106.329  1.00  0.00    -0.384 OA
ATOM     16  H   UNL     1      28.261   3.107 105.867  1.00  0.00     0.211 HD
ENDBRANCH   7  15
ENDBRANCH   1   2
BRANCH   1  17
ATOM     17  C   UNL     1      27.411  -0.594 102.655  1.00  0.00     0.172 A 
ATOM     18  C   UNL     1      27.097  -0.263 101.327  1.00  0.00     0.201 A 
ATOM     19  C   UNL     1      26.763  -1.686 103.251  1.00  0.00     0.098 A 
ATOM     20  C   UNL     1      26.133  -0.995 100.605  1.00  0.00     0.176 A 
ATOM     21  C   UNL     1      25.755  -2.381 102.578  1.00  0.00     0.146 A 
ATOM     22  C   UNL     1      25.404  -2.033 101.250  1.00  0.00     0.111 A 
ATOM     23  O   UNL     1      25.124  -3.362 103.219  1.00  0.00    -0.456 OA
ATOM     24  C   UNL     1      24.313  -2.730 100.676  1.00  0.00     0.197 A 
ATOM     25  C   UNL     1      24.124  -4.059 102.687  1.00  0.00     0.138 A 
ATOM     26  C   UNL     1      23.690  -3.755 101.389  1.00  0.00     0.100 A 
ATOM     27  O   UNL     1      23.849  -2.424  99.545  1.00  0.00    -0.289 OA
BRANCH  18  28
ATOM     28  O   UNL     1      27.766   0.799 100.727  1.00  0.00    -0.502 OA
ATOM     29  H   UNL     1      28.150   0.745  99.790  1.00  0.00     0.293 HD
ENDBRANCH  18  28
BRANCH  20  30
ATOM     30  O   UNL     1      25.957  -0.662  99.256  1.00  0.00    -0.504 OA
ATOM     31  H   UNL     1      25.066  -0.586  98.791  1.00  0.00     0.293 HD
ENDBRANCH  20  30
BRANCH  25  32
ATOM     32  C   UNL     1      23.469  -5.113 103.505  1.00  0.00     0.017 A 
ATOM     33  C   UNL     1      22.319  -5.793 103.055  1.00  0.00     0.012 A 
ATOM     34  C   UNL     1      24.013  -5.455 104.756  1.00  0.00     0.012 A 
ATOM     35  C   UNL     1      21.720  -6.773 103.854  1.00  0.00     0.001 A 
ATOM     36  C   UNL     1      23.413  -6.438 105.549  1.00  0.00     0.001 A 
ATOM     37  C   UNL     1      22.267  -7.097 105.099  1.00  0.00     0.000 A 
ENDBRANCH  25  32
ENDBRANCH   1  17
TORSDOF 9
ENDMDL
MODEL 3
REMARK VINA RESULT:    -6.306      4.935      7.558
REMARK INTER + INTRA:         -10.093
REMARK INTER:                  -9.170
REMARK INTRA:                  -0.924
REMARK UNBOUND:                -1.391
REMARK SMILES O=C([O-])[C@H]1O[C@@H](Oc2cc3oc(-c4ccccc4)cc(=O)c3c(O)c2O)[C@H](O)[C@H](O)[C@H]1O
REMARK SMILES IDX 7 1 6 2 4 3 31 4 5 5 29 6 27 7 2 8 1 9 3 10 32 11 30 13
REMARK SMILES IDX 28 15 8 17 25 18 9 19 23 20 10 21 22 22 11 23 20 24 12 25
REMARK SMILES IDX 19 26 21 27 26 28 24 30 13 32 14 33 18 34 15 35 17 36 16 37
REMARK H PARENT 32 12 30 14 28 16 26 29 24 31
REMARK Flexibility Score: inf
ROOT
ATOM      1  O   UNL     1      23.268  -3.735 102.139  1.00  0.00    -0.458 OA
ENDROOT
BRANCH   1   2
ATOM      2  C   UNL     1      21.920  -4.001 101.724  1.00  0.00     0.339 C 
ATOM      3  C   UNL     1      22.045  -6.360 101.248  1.00  0.00     0.199 C 
ATOM      4  C   UNL     1      21.778  -6.106  99.749  1.00  0.00     0.180 C 
ATOM      5  O   UNL     1      21.521  -5.325 102.080  1.00  0.00    -0.328 OA
ATOM      6  C   UNL     1      22.347  -4.748  99.337  1.00  0.00     0.181 C 
ATOM      7  C   UNL     1      21.732  -3.664 100.231  1.00  0.00     0.214 C 
BRANCH   3   8
ATOM      8  C   UNL     1      23.478  -6.709 101.582  1.00  0.00     0.073 C 
ATOM      9  O   UNL     1      23.795  -7.046 102.757  1.00  0.00    -0.547 OA
ATOM     10  O   UNL     1      24.436  -6.812 100.576  1.00  0.00    -0.547 OA
ENDBRANCH   3   8
BRANCH   4  11
ATOM     11  O   UNL     1      22.340  -7.125  98.957  1.00  0.00    -0.387 OA
ATOM     12  H   UNL     1      22.190  -6.878  98.008  1.00  0.00     0.211 HD
ENDBRANCH   4  11
BRANCH   6  13
ATOM     13  O   UNL     1      22.035  -4.506  97.990  1.00  0.00    -0.387 OA
ATOM     14  H   UNL     1      22.424  -3.625  97.759  1.00  0.00     0.211 HD
ENDBRANCH   6  13
BRANCH   7  15
ATOM     15  O   UNL     1      20.357  -3.548  99.952  1.00  0.00    -0.384 OA
ATOM     16  H   UNL     1      20.008  -2.791 100.495  1.00  0.00     0.211 HD
ENDBRANCH   7  15
ENDBRANCH   1   2
BRANCH   1  17
ATOM     17  C   UNL     1      23.869  -2.465 102.263  1.00  0.00     0.172 A 
ATOM     18  C   UNL     1      25.271  -2.390 102.258  1.00  0.00     0.201 A 
ATOM     19  C   UNL     1      23.129  -1.277 102.370  1.00  0.00     0.098 A 
ATOM     20  C   UNL     1      25.934  -1.152 102.382  1.00  0.00     0.176 A 
ATOM     21  C   UNL     1      23.764  -0.048 102.563  1.00  0.00     0.146 A 
ATOM     22  C   UNL     1      25.178   0.035 102.597  1.00  0.00     0.111 A 
ATOM     23  O   UNL     1      23.010   1.036 102.731  1.00  0.00    -0.456 OA
ATOM     24  C   UNL     1      25.736   1.304 102.885  1.00  0.00     0.197 A 
ATOM     25  C   UNL     1      23.510   2.246 102.963  1.00  0.00     0.138 A 
ATOM     26  C   UNL     1      24.900   2.410 103.047  1.00  0.00     0.100 A 
ATOM     27  O   UNL     1      26.975   1.466 103.048  1.00  0.00    -0.289 OA
BRANCH  18  28
ATOM     28  O   UNL     1      26.002  -3.566 102.117  1.00  0.00    -0.502 OA
ATOM     29  H   UNL     1      26.612  -3.921 102.843  1.00  0.00     0.293 HD
ENDBRANCH  18  28
BRANCH  20  30
ATOM     30  O   UNL     1      27.329  -1.160 102.264  1.00  0.00    -0.504 OA
ATOM     31  H   UNL     1      27.932  -1.898 102.590  1.00  0.00     0.293 HD
ENDBRANCH  20  30
BRANCH  25  32
ATOM     32  C   UNL     1      22.574   3.382 103.167  1.00  0.00     0.017 A 
ATOM     33  C   UNL     1      21.972   3.632 104.417  1.00  0.00     0.012 A 
ATOM     34  C   UNL     1      22.286   4.243 102.092  1.00  0.00     0.012 A 
ATOM     35  C   UNL     1      21.087   4.705 104.573  1.00  0.00     0.001 A 
ATOM     36  C   UNL     1      21.404   5.316 102.255  1.00  0.00     0.001 A 
ATOM     37  C   UNL     1      20.804   5.547 103.495  1.00  0.00     0.000 A 
ENDBRANCH  25  32
ENDBRANCH   1  17
TORSDOF 9
ENDMDL
MODEL 4
REMARK VINA RESULT:    -6.299      5.338      9.091
REMARK INTER + INTRA:         -10.083
REMARK INTER:                  -8.669
REMARK INTRA:                  -1.414
REMARK UNBOUND:                -1.391
REMARK SMILES O=C([O-])[C@H]1O[C@@H](Oc2cc3oc(-c4ccccc4)cc(=O)c3c(O)c2O)[C@H](O)[C@H](O)[C@H]1O
REMARK SMILES IDX 7 1 6 2 4 3 31 4 5 5 29 6 27 7 2 8 1 9 3 10 32 11 30 13
REMARK SMILES IDX 28 15 8 17 25 18 9 19 23 20 10 21 22 22 11 23 20 24 12 25
REMARK SMILES IDX 19 26 21 27 26 28 24 30 13 32 14 33 18 34 15 35 17 36 16 37
REMARK H PARENT 32 12 30 14 28 16 26 29 24 31
REMARK Flexibility Score: inf
ROOT
ATOM      1  O   UNL     1      26.168  -1.950 102.292  1.00  0.00    -0.458 OA
ENDROOT
BRANCH   1   2
ATOM      2  C   UNL     1      24.913  -1.661 101.659  1.00  0.00     0.339 C 
ATOM      3  C   UNL     1      23.613  -3.576 102.330  1.00  0.00     0.199 C 
ATOM      4  C   UNL     1      23.511  -4.062 100.867  1.00  0.00     0.180 C 
ATOM      5  O   UNL     1      23.820  -2.167 102.425  1.00  0.00    -0.328 OA
ATOM      6  C   UNL     1      24.760  -3.649 100.089  1.00  0.00     0.181 C 
ATOM      7  C   UNL     1      24.924  -2.128 100.189  1.00  0.00     0.214 C 
BRANCH   3   8
ATOM      8  C   UNL     1      24.573  -4.367 103.190  1.00  0.00     0.073 C 
ATOM      9  O   UNL     1      24.607  -4.186 104.439  1.00  0.00    -0.547 OA
ATOM     10  O   UNL     1      25.322  -5.408 102.645  1.00  0.00    -0.547 OA
ENDBRANCH   3   8
BRANCH   4  11
ATOM     11  O   UNL     1      23.345  -5.458 100.811  1.00  0.00    -0.387 OA
ATOM     12  H   UNL     1      22.869  -5.665  99.965  1.00  0.00     0.211 HD
ENDBRANCH   4  11
BRANCH   6  13
ATOM     13  O   UNL     1      24.618  -4.040  98.748  1.00  0.00    -0.387 OA
ATOM     14  H   UNL     1      24.352  -4.993  98.753  1.00  0.00     0.211 HD
ENDBRANCH   6  13
BRANCH   7  15
ATOM     15  O   UNL     1      23.875  -1.496  99.495  1.00  0.00    -0.384 OA
ATOM     16  H   UNL     1      23.695  -2.034  98.677  1.00  0.00     0.211 HD
ENDBRANCH   7  15
ENDBRANCH   1   2
BRANCH   1  17
ATOM     17  C   UNL     1      26.991  -1.028 102.974  1.00  0.00     0.172 A 
ATOM     18  C   UNL     1      26.762  -0.819 104.343  1.00  0.00     0.201 A 
ATOM     19  C   UNL     1      28.036  -0.330 102.349  1.00  0.00     0.098 A 
ATOM     20  C   UNL     1      27.546   0.091 105.080  1.00  0.00     0.176 A 
ATOM     21  C   UNL     1      28.780   0.627 103.044  1.00  0.00     0.146 A 
ATOM     22  C   UNL     1      28.533   0.873 104.417  1.00  0.00     0.111 A 
ATOM     23  O   UNL     1      29.711   1.310 102.382  1.00  0.00    -0.456 OA
ATOM     24  C   UNL     1      29.271   1.920 105.020  1.00  0.00     0.197 A 
ATOM     25  C   UNL     1      30.446   2.270 102.935  1.00  0.00     0.138 A 
ATOM     26  C   UNL     1      30.240   2.602 104.282  1.00  0.00     0.100 A 
ATOM     27  O   UNL     1      29.051   2.294 106.203  1.00  0.00    -0.289 OA
BRANCH  18  28
ATOM     28  O   UNL     1      25.747  -1.538 104.967  1.00  0.00    -0.502 OA
ATOM     29  H   UNL     1      25.722  -2.551 104.978  1.00  0.00     0.293 HD
ENDBRANCH  18  28
BRANCH  20  30
ATOM     30  O   UNL     1      27.315   0.161 106.460  1.00  0.00    -0.504 OA
ATOM     31  H   UNL     1      27.610  -0.532 107.130  1.00  0.00     0.293 HD
ENDBRANCH  20  30
BRANCH  25  32
ATOM     32  C   UNL     1      31.436   2.992 102.094  1.00  0.00     0.017 A 
ATOM     33  C   UNL     1      32.181   4.079 102.594  1.00  0.00     0.012 A 
ATOM     34  C   UNL     1      31.649   2.578 100.767  1.00  0.00     0.012 A 
ATOM     35  C   UNL     1      33.098   4.744 101.772  1.00  0.00     0.001 A 
ATOM     36  C   UNL     1      32.569   3.243  99.951  1.00  0.00     0.001 A 
ATOM     37  C   UNL     1      33.293   4.326 100.453  1.00  0.00     0.000 A 
ENDBRANCH  25  32
ENDBRANCH   1  17
TORSDOF 9
ENDMDL
MODEL 5
REMARK VINA RESULT:    -6.261      9.069     13.096
REMARK INTER + INTRA:         -10.030
REMARK INTER:                  -8.766
REMARK INTRA:                  -1.264
REMARK UNBOUND:                -1.391
REMARK SMILES O=C([O-])[C@H]1O[C@@H](Oc2cc3oc(-c4ccccc4)cc(=O)c3c(O)c2O)[C@H](O)[C@H](O)[C@H]1O
REMARK SMILES IDX 7 1 6 2 4 3 31 4 5 5 29 6 27 7 2 8 1 9 3 10 32 11 30 13
REMARK SMILES IDX 28 15 8 17 25 18 9 19 23 20 10 21 22 22 11 23 20 24 12 25
REMARK SMILES IDX 19 26 21 27 26 28 24 30 13 32 14 33 18 34 15 35 17 36 16 37
REMARK H PARENT 32 12 30 14 28 16 26 29 24 31
REMARK Flexibility Score: inf
ROOT
ATOM      1  O   UNL     1      31.938  -1.881 107.651  1.00  0.00    -0.458 OA
ENDROOT
BRANCH   1   2
ATOM      2  C   UNL     1      33.083  -1.490 108.424  1.00  0.00     0.339 C 
ATOM      3  C   UNL     1      32.645  -2.636 110.498  1.00  0.00     0.199 C 
ATOM      4  C   UNL     1      32.482  -1.294 111.245  1.00  0.00     0.180 C 
ATOM      5  O   UNL     1      33.466  -2.519 109.336  1.00  0.00    -0.328 OA
ATOM      6  C   UNL     1      31.923  -0.232 110.298  1.00  0.00     0.181 C 
ATOM      7  C   UNL     1      32.852  -0.115 109.083  1.00  0.00     0.214 C 
BRANCH   3   8
ATOM      8  C   UNL     1      31.350  -3.368 110.228  1.00  0.00     0.073 C 
ATOM      9  O   UNL     1      31.366  -4.555 109.800  1.00  0.00    -0.547 OA
ATOM     10  O   UNL     1      30.128  -2.803 110.589  1.00  0.00    -0.547 OA
ENDBRANCH   3   8
BRANCH   4  11
ATOM     11  O   UNL     1      31.639  -1.438 112.362  1.00  0.00    -0.387 OA
ATOM     12  H   UNL     1      31.441  -0.527 112.702  1.00  0.00     0.211 HD
ENDBRANCH   4  11
BRANCH   6  13
ATOM     13  O   UNL     1      31.846   0.996 110.975  1.00  0.00    -0.387 OA
ATOM     14  H   UNL     1      31.962   0.800 111.939  1.00  0.00     0.211 HD
ENDBRANCH   6  13
BRANCH   7  15
ATOM     15  O   UNL     1      34.090   0.418 109.488  1.00  0.00    -0.384 OA
ATOM     16  H   UNL     1      34.412  -0.129 110.253  1.00  0.00     0.211 HD
ENDBRANCH   7  15
ENDBRANCH   1   2
BRANCH   1  17
ATOM     17  C   UNL     1      31.147  -1.036 106.843  1.00  0.00     0.172 A 
ATOM     18  C   UNL     1      29.758  -1.034 107.046  1.00  0.00     0.201 A 
ATOM     19  C   UNL     1      31.690  -0.190 105.864  1.00  0.00     0.098 A 
ATOM     20  C   UNL     1      28.912  -0.216 106.269  1.00  0.00     0.176 A 
ATOM     21  C   UNL     1      30.864   0.576 105.038  1.00  0.00     0.146 A 
ATOM     22  C   UNL     1      29.458   0.559 105.208  1.00  0.00     0.111 A 
ATOM     23  O   UNL     1      31.429   1.307 104.078  1.00  0.00    -0.456 OA
ATOM     24  C   UNL     1      28.693   1.295 104.271  1.00  0.00     0.197 A 
ATOM     25  C   UNL     1      30.736   2.038 103.212  1.00  0.00     0.138 A 
ATOM     26  C   UNL     1      29.336   2.049 103.288  1.00  0.00     0.100 A 
ATOM     27  O   UNL     1      27.434   1.259 104.264  1.00  0.00    -0.289 OA
BRANCH  18  28
ATOM     28  O   UNL     1      29.226  -1.849 108.040  1.00  0.00    -0.502 OA
ATOM     29  H   UNL     1      29.662  -1.958 108.949  1.00  0.00     0.293 HD
ENDBRANCH  18  28
BRANCH  20  30
ATOM     30  O   UNL     1      27.553  -0.200 106.607  1.00  0.00    -0.504 OA
ATOM     31  H   UNL     1      27.045  -0.978 106.997  1.00  0.00     0.293 HD
ENDBRANCH  20  30
BRANCH  25  32
ATOM     32  C   UNL     1      31.468   2.790 102.159  1.00  0.00     0.017 A 
ATOM     33  C   UNL     1      31.430   2.400 100.805  1.00  0.00     0.012 A 
ATOM     34  C   UNL     1      32.212   3.930 102.515  1.00  0.00     0.012 A 
ATOM     35  C   UNL     1      32.139   3.124  99.841  1.00  0.00     0.001 A 
ATOM     36  C   UNL     1      32.916   4.652 101.547  1.00  0.00     0.001 A 
ATOM     37  C   UNL     1      32.880   4.249 100.210  1.00  0.00     0.000 A 
ENDBRANCH  25  32
ENDBRANCH   1  17
TORSDOF 9
ENDMDL
MODEL 6
REMARK VINA RESULT:    -6.101      6.121      9.411
REMARK INTER + INTRA:          -9.810
REMARK INTER:                  -8.545
REMARK INTRA:                  -1.266
REMARK UNBOUND:                -1.391
REMARK SMILES O=C([O-])[C@H]1O[C@@H](Oc2cc3oc(-c4ccccc4)cc(=O)c3c(O)c2O)[C@H](O)[C@H](O)[C@H]1O
REMARK SMILES IDX 7 1 6 2 4 3 31 4 5 5 29 6 27 7 2 8 1 9 3 10 32 11 30 13
REMARK SMILES IDX 28 15 8 17 25 18 9 19 23 20 10 21 22 22 11 23 20 24 12 25
REMARK SMILES IDX 19 26 21 27 26 28 24 30 13 32 14 33 18 34 15 35 17 36 16 37
REMARK H PARENT 32 12 30 14 28 16 26 29 24 31
REMARK Flexibility Score: inf
ROOT
ATOM      1  O   UNL     1      25.995  -0.263 101.808  1.00  0.00    -0.458 OA
ENDROOT
BRANCH   1   2
ATOM      2  C   UNL     1      25.047  -0.529 102.852  1.00  0.00     0.339 C 
ATOM      3  C   UNL     1      24.100  -2.609 102.089  1.00  0.00     0.199 C 
ATOM      4  C   UNL     1      22.721  -1.945 101.882  1.00  0.00     0.180 C 
ATOM      5  O   UNL     1      24.892  -1.932 103.064  1.00  0.00    -0.328 OA
ATOM      6  C   UNL     1      22.899  -0.475 101.502  1.00  0.00     0.181 C 
ATOM      7  C   UNL     1      23.724   0.221 102.591  1.00  0.00     0.214 C 
BRANCH   3   8
ATOM      8  C   UNL     1      24.860  -2.893 100.813  1.00  0.00     0.073 C 
ATOM      9  O   UNL     1      25.907  -3.598 100.838  1.00  0.00    -0.547 OA
ATOM     10  O   UNL     1      24.339  -2.514  99.578  1.00  0.00    -0.547 OA
ENDBRANCH   3   8
BRANCH   4  11
ATOM     11  O   UNL     1      21.983  -2.615 100.889  1.00  0.00    -0.387 OA
ATOM     12  H   UNL     1      21.629  -3.448 101.296  1.00  0.00     0.211 HD
ENDBRANCH   4  11
BRANCH   6  13
ATOM     13  O   UNL     1      21.636   0.128 101.385  1.00  0.00    -0.387 OA
ATOM     14  H   UNL     1      21.327  -0.032 100.458  1.00  0.00     0.211 HD
ENDBRANCH   6  13
BRANCH   7  15
ATOM     15  O   UNL     1      22.979   0.273 103.784  1.00  0.00    -0.384 OA
ATOM     16  H   UNL     1      22.178   0.837 103.607  1.00  0.00     0.211 HD
ENDBRANCH   7  15
ENDBRANCH   1   2
BRANCH   1  17
ATOM     17  C   UNL     1      27.303   0.240 101.975  1.00  0.00     0.172 A 
ATOM     18  C   UNL     1      28.365  -0.464 101.386  1.00  0.00     0.201 A 
ATOM     19  C   UNL     1      27.582   1.419 102.684  1.00  0.00     0.098 A 
ATOM     20  C   UNL     1      29.695  -0.016 101.519  1.00  0.00     0.176 A 
ATOM     21  C   UNL     1      28.898   1.842 102.886  1.00  0.00     0.146 A 
ATOM     22  C   UNL     1      29.982   1.119 102.328  1.00  0.00     0.111 A 
ATOM     23  O   UNL     1      29.108   2.928 103.628  1.00  0.00    -0.456 OA
ATOM     24  C   UNL     1      31.284   1.568 102.656  1.00  0.00     0.197 A 
ATOM     25  C   UNL     1      30.320   3.393 103.917  1.00  0.00     0.138 A 
ATOM     26  C   UNL     1      31.448   2.716 103.434  1.00  0.00     0.100 A 
ATOM     27  O   UNL     1      32.315   0.934 102.306  1.00  0.00    -0.289 OA
BRANCH  18  28
ATOM     28  O   UNL     1      28.081  -1.613 100.655  1.00  0.00    -0.502 OA
ATOM     29  H   UNL     1      28.636  -1.906  99.860  1.00  0.00     0.293 HD
ENDBRANCH  18  28
BRANCH  20  30
ATOM     30  O   UNL     1      30.680  -0.721 100.815  1.00  0.00    -0.504 OA
ATOM     31  H   UNL     1      30.996  -1.651 101.039  1.00  0.00     0.293 HD
ENDBRANCH  20  30
BRANCH  25  32
ATOM     32  C   UNL     1      30.439   4.596 104.782  1.00  0.00     0.017 A 
ATOM     33  C   UNL     1      31.385   4.668 105.825  1.00  0.00     0.012 A 
ATOM     34  C   UNL     1      29.598   5.699 104.552  1.00  0.00     0.012 A 
ATOM     35  C   UNL     1      31.465   5.812 106.627  1.00  0.00     0.001 A 
ATOM     36  C   UNL     1      29.684   6.841 105.354  1.00  0.00     0.001 A 
ATOM     37  C   UNL     1      30.617   6.898 106.392  1.00  0.00     0.000 A 
ENDBRANCH  25  32
ENDBRANCH   1  17
TORSDOF 9
ENDMDL
MODEL 7
REMARK VINA RESULT:    -6.098      9.636     13.077
REMARK INTER + INTRA:          -9.806
REMARK INTER:                  -8.415
REMARK INTRA:                  -1.392
REMARK UNBOUND:                -1.391
REMARK SMILES O=C([O-])[C@H]1O[C@@H](Oc2cc3oc(-c4ccccc4)cc(=O)c3c(O)c2O)[C@H](O)[C@H](O)[C@H]1O
REMARK SMILES IDX 7 1 6 2 4 3 31 4 5 5 29 6 27 7 2 8 1 9 3 10 32 11 30 13
REMARK SMILES IDX 28 15 8 17 25 18 9 19 23 20 10 21 22 22 11 23 20 24 12 25
REMARK SMILES IDX 19 26 21 27 26 28 24 30 13 32 14 33 18 34 15 35 17 36 16 37
REMARK H PARENT 32 12 30 14 28 16 26 29 24 31
REMARK Flexibility Score: inf
ROOT
ATOM      1  O   UNL     1      31.512  -2.695 107.919  1.00  0.00    -0.458 OA
ENDROOT
BRANCH   1   2
ATOM      2  C   UNL     1      32.100  -2.711 109.228  1.00  0.00     0.339 C 
ATOM      3  C   UNL     1      31.302  -4.827 110.060  1.00  0.00     0.199 C 
ATOM      4  C   UNL     1      30.460  -4.121 111.145  1.00  0.00     0.180 C 
ATOM      5  O   UNL     1      32.416  -4.042 109.636  1.00  0.00    -0.328 OA
ATOM      6  C   UNL     1      29.993  -2.755 110.641  1.00  0.00     0.181 C 
ATOM      7  C   UNL     1      31.221  -1.934 110.230  1.00  0.00     0.214 C 
BRANCH   3   8
ATOM      8  C   UNL     1      30.501  -5.379 108.902  1.00  0.00     0.073 C 
ATOM      9  O   UNL     1      31.048  -6.136 108.052  1.00  0.00    -0.547 OA
ATOM     10  O   UNL     1      29.122  -5.189 108.838  1.00  0.00    -0.547 OA
ENDBRANCH   3   8
BRANCH   4  11
ATOM     11  O   UNL     1      29.351  -4.906 111.512  1.00  0.00    -0.387 OA
ATOM     12  H   UNL     1      29.388  -5.739 110.975  1.00  0.00     0.211 HD
ENDBRANCH   4  11
BRANCH   6  13
ATOM     13  O   UNL     1      29.288  -2.102 111.665  1.00  0.00    -0.387 OA
ATOM     14  H   UNL     1      29.137  -2.769 112.381  1.00  0.00     0.211 HD
ENDBRANCH   6  13
BRANCH   7  15
ATOM     15  O   UNL     1      31.983  -1.625 111.372  1.00  0.00    -0.384 OA
ATOM     16  H   UNL     1      32.889  -1.357 111.059  1.00  0.00     0.211 HD
ENDBRANCH   7  15
ENDBRANCH   1   2
BRANCH   1  17
ATOM     17  C   UNL     1      30.930  -1.580 107.278  1.00  0.00     0.172 A 
ATOM     18  C   UNL     1      29.570  -1.648 106.934  1.00  0.00     0.201 A 
ATOM     19  C   UNL     1      31.643  -0.407 106.989  1.00  0.00     0.098 A 
ATOM     20  C   UNL     1      28.930  -0.570 106.289  1.00  0.00     0.176 A 
ATOM     21  C   UNL     1      31.047   0.644 106.289  1.00  0.00     0.146 A 
ATOM     22  C   UNL     1      29.685   0.573 105.904  1.00  0.00     0.111 A 
ATOM     23  O   UNL     1      31.792   1.703 105.979  1.00  0.00    -0.456 OA
ATOM     24  C   UNL     1      29.187   1.643 105.122  1.00  0.00     0.197 A 
ATOM     25  C   UNL     1      31.336   2.739 105.280  1.00  0.00     0.138 A 
ATOM     26  C   UNL     1      30.009   2.732 104.829  1.00  0.00     0.100 A 
ATOM     27  O   UNL     1      28.025   1.626 104.634  1.00  0.00    -0.289 OA
BRANCH  18  28
ATOM     28  O   UNL     1      28.857  -2.799 107.253  1.00  0.00    -0.502 OA
ATOM     29  H   UNL     1      28.600  -3.037 108.203  1.00  0.00     0.293 HD
ENDBRANCH  18  28
BRANCH  20  30
ATOM     30  O   UNL     1      27.550  -0.682 106.076  1.00  0.00    -0.504 OA
ATOM     31  H   UNL     1      27.000  -0.051 105.516  1.00  0.00     0.293 HD
ENDBRANCH  20  30
BRANCH  25  32
ATOM     32  C   UNL     1      32.265   3.855 104.962  1.00  0.00     0.017 A 
ATOM     33  C   UNL     1      32.552   4.226 103.633  1.00  0.00     0.012 A 
ATOM     34  C   UNL     1      32.868   4.573 106.011  1.00  0.00     0.012 A 
ATOM     35  C   UNL     1      33.440   5.275 103.368  1.00  0.00     0.001 A 
ATOM     36  C   UNL     1      33.751   5.623 105.741  1.00  0.00     0.001 A 
ATOM     37  C   UNL     1      34.037   5.974 104.420  1.00  0.00     0.000 A 
ENDBRANCH  25  32
ENDBRANCH   1  17
TORSDOF 9
ENDMDL
MODEL 8
REMARK VINA RESULT:    -5.998      2.077      3.444
REMARK INTER + INTRA:          -9.668
REMARK INTER:                  -8.308
REMARK INTRA:                  -1.360
REMARK UNBOUND:                -1.391
REMARK SMILES O=C([O-])[C@H]1O[C@@H](Oc2cc3oc(-c4ccccc4)cc(=O)c3c(O)c2O)[C@H](O)[C@H](O)[C@H]1O
REMARK SMILES IDX 7 1 6 2 4 3 31 4 5 5 29 6 27 7 2 8 1 9 3 10 32 11 30 13
REMARK SMILES IDX 28 15 8 17 25 18 9 19 23 20 10 21 22 22 11 23 20 24 12 25
REMARK SMILES IDX 19 26 21 27 26 28 24 30 13 32 14 33 18 34 15 35 17 36 16 37
REMARK H PARENT 32 12 30 14 28 16 26 29 24 31
REMARK Flexibility Score: inf
ROOT
ATOM      1  O   UNL     1      26.551  -5.095  97.858  1.00  0.00    -0.458 OA
ENDROOT
BRANCH   1   2
ATOM      2  C   UNL     1      27.237  -3.926  97.384  1.00  0.00     0.339 C 
ATOM      3  C   UNL     1      27.964  -4.674  95.212  1.00  0.00     0.199 C 
ATOM      4  C   UNL     1      29.445  -4.587  95.640  1.00  0.00     0.180 C 
ATOM      5  O   UNL     1      27.124  -3.801  95.966  1.00  0.00    -0.328 OA
ATOM      6  C   UNL     1      29.577  -4.876  97.135  1.00  0.00     0.181 C 
ATOM      7  C   UNL     1      28.687  -3.895  97.908  1.00  0.00     0.214 C 
BRANCH   3   8
ATOM      8  C   UNL     1      27.415  -6.081  95.123  1.00  0.00     0.073 C 
ATOM      9  O   UNL     1      28.119  -7.063  95.488  1.00  0.00    -0.547 OA
ATOM     10  O   UNL     1      26.082  -6.302  94.786  1.00  0.00    -0.547 OA
ENDBRANCH   3   8
BRANCH   4  11
ATOM     11  O   UNL     1      30.236  -5.486  94.902  1.00  0.00    -0.387 OA
ATOM     12  H   UNL     1      30.115  -6.385  95.304  1.00  0.00     0.211 HD
ENDBRANCH   4  11
BRANCH   6  13
ATOM     13  O   UNL     1      30.919  -4.725  97.518  1.00  0.00    -0.387 OA
ATOM     14  H   UNL     1      31.181  -5.561  97.981  1.00  0.00     0.211 HD
ENDBRANCH   6  13
BRANCH   7  15
ATOM     15  O   UNL     1      29.199  -2.591  97.775  1.00  0.00    -0.384 OA
ATOM     16  H   UNL     1      30.055  -2.659  97.272  1.00  0.00     0.211 HD
ENDBRANCH   7  15
ENDBRANCH   1   2
BRANCH   1  17
ATOM     17  C   UNL     1      25.285  -5.126  98.481  1.00  0.00     0.172 A 
ATOM     18  C   UNL     1      24.152  -4.859  97.695  1.00  0.00     0.201 A 
ATOM     19  C   UNL     1      25.110  -5.429  99.840  1.00  0.00     0.098 A 
ATOM     20  C   UNL     1      22.860  -4.870  98.257  1.00  0.00     0.176 A 
ATOM     21  C   UNL     1      23.846  -5.378 100.431  1.00  0.00     0.146 A 
ATOM     22  C   UNL     1      22.699  -5.073  99.657  1.00  0.00     0.111 A 
ATOM     23  O   UNL     1      23.748  -5.604 101.740  1.00  0.00    -0.456 OA
ATOM     24  C   UNL     1      21.472  -4.956 100.353  1.00  0.00     0.197 A 
ATOM     25  C   UNL     1      22.602  -5.539 102.410  1.00  0.00     0.138 A 
ATOM     26  C   UNL     1      21.424  -5.209 101.725  1.00  0.00     0.100 A 
ATOM     27  O   UNL     1      20.414  -4.581  99.780  1.00  0.00    -0.289 OA
BRANCH  18  28
ATOM     28  O   UNL     1      24.326  -4.593  96.341  1.00  0.00    -0.502 OA
ATOM     29  H   UNL     1      23.556  -4.581  95.683  1.00  0.00     0.293 HD
ENDBRANCH  18  28
BRANCH  20  30
ATOM     30  O   UNL     1      21.781  -4.696  97.381  1.00  0.00    -0.504 OA
ATOM     31  H   UNL     1      21.535  -3.827  96.934  1.00  0.00     0.293 HD
ENDBRANCH  20  30
BRANCH  25  32
ATOM     32  C   UNL     1      22.613  -5.779 103.876  1.00  0.00     0.017 A 
ATOM     33  C   UNL     1      23.778  -5.599 104.649  1.00  0.00     0.012 A 
ATOM     34  C   UNL     1      21.430  -6.185 104.520  1.00  0.00     0.012 A 
ATOM     35  C   UNL     1      23.757  -5.844 106.027  1.00  0.00     0.001 A 
ATOM     36  C   UNL     1      21.413  -6.425 105.897  1.00  0.00     0.001 A 
ATOM     37  C   UNL     1      22.577  -6.254 106.651  1.00  0.00     0.000 A 
ENDBRANCH  25  32
ENDBRANCH   1  17
TORSDOF 9
ENDMDL
MODEL 9
REMARK VINA RESULT:    -5.982      3.943      7.831
REMARK INTER + INTRA:          -9.646
REMARK INTER:                  -8.236
REMARK INTRA:                  -1.409
REMARK UNBOUND:                -1.391
REMARK SMILES O=C([O-])[C@H]1O[C@@H](Oc2cc3oc(-c4ccccc4)cc(=O)c3c(O)c2O)[C@H](O)[C@H](O)[C@H]1O
REMARK SMILES IDX 7 1 6 2 4 3 31 4 5 5 29 6 27 7 2 8 1 9 3 10 32 11 30 13
REMARK SMILES IDX 28 15 8 17 25 18 9 19 23 20 10 21 22 22 11 23 20 24 12 25
REMARK SMILES IDX 19 26 21 27 26 28 24 30 13 32 14 33 18 34 15 35 17 36 16 37
REMARK H PARENT 32 12 30 14 28 16 26 29 24 31
REMARK Flexibility Score: inf
ROOT
ATOM      1  O   UNL     1      28.190  -1.003 103.388  1.00  0.00    -0.458 OA
ENDROOT
BRANCH   1   2
ATOM      2  C   UNL     1      27.391  -0.378 104.405  1.00  0.00     0.339 C 
ATOM      3  C   UNL     1      27.415   1.913 103.658  1.00  0.00     0.199 C 
ATOM      4  C   UNL     1      28.206   2.349 104.910  1.00  0.00     0.180 C 
ATOM      5  O   UNL     1      26.655   0.725 103.877  1.00  0.00    -0.328 OA
ATOM      6  C   UNL     1      29.112   1.212 105.380  1.00  0.00     0.181 C 
ATOM      7  C   UNL     1      28.252  -0.032 105.637  1.00  0.00     0.214 C 
BRANCH   3   8
ATOM      8  C   UNL     1      28.230   1.858 102.385  1.00  0.00     0.073 C 
ATOM      9  O   UNL     1      27.657   1.780 101.263  1.00  0.00    -0.547 OA
ATOM     10  O   UNL     1      29.610   2.046 102.419  1.00  0.00    -0.547 OA
ENDBRANCH   3   8
BRANCH   4  11
ATOM     11  O   UNL     1      28.971   3.500 104.647  1.00  0.00    -0.387 OA
ATOM     12  H   UNL     1      28.389   4.136 104.156  1.00  0.00     0.211 HD
ENDBRANCH   4  11
BRANCH   6  13
ATOM     13  O   UNL     1      29.771   1.603 106.557  1.00  0.00    -0.387 OA
ATOM     14  H   UNL     1      29.916   0.781 107.091  1.00  0.00     0.211 HD
ENDBRANCH   6  13
BRANCH   7  15
ATOM     15  O   UNL     1      27.409   0.200 106.740  1.00  0.00    -0.384 OA
ATOM     16  H   UNL     1      27.474  -0.595 107.334  1.00  0.00     0.211 HD
ENDBRANCH   7  15
ENDBRANCH   1   2
BRANCH   1  17
ATOM     17  C   UNL     1      27.713  -1.784 102.314  1.00  0.00     0.172 A 
ATOM     18  C   UNL     1      28.377  -1.691 101.080  1.00  0.00     0.201 A 
ATOM     19  C   UNL     1      26.621  -2.658 102.430  1.00  0.00     0.098 A 
ATOM     20  C   UNL     1      27.948  -2.441  99.966  1.00  0.00     0.176 A 
ATOM     21  C   UNL     1      26.137  -3.357 101.322  1.00  0.00     0.146 A 
ATOM     22  C   UNL     1      26.777  -3.243 100.063  1.00  0.00     0.111 A 
ATOM     23  O   UNL     1      25.055  -4.117 101.475  1.00  0.00    -0.456 OA
ATOM     24  C   UNL     1      26.168  -3.916  98.976  1.00  0.00     0.197 A 
ATOM     25  C   UNL     1      24.488  -4.791 100.479  1.00  0.00     0.138 A 
ATOM     26  C   UNL     1      25.036  -4.705  99.192  1.00  0.00     0.100 A 
ATOM     27  O   UNL     1      26.590  -3.792  97.795  1.00  0.00    -0.289 OA
BRANCH  18  28
ATOM     28  O   UNL     1      29.480  -0.849 100.977  1.00  0.00    -0.502 OA
ATOM     29  H   UNL     1      30.210  -0.987 100.289  1.00  0.00     0.293 HD
ENDBRANCH  18  28
BRANCH  20  30
ATOM     30  O   UNL     1      28.729  -2.365  98.806  1.00  0.00    -0.504 OA
ATOM     31  H   UNL     1      28.576  -2.907  97.971  1.00  0.00     0.293 HD
ENDBRANCH  20  30
BRANCH  25  32
ATOM     32  C   UNL     1      23.261  -5.583 100.755  1.00  0.00     0.017 A 
ATOM     33  C   UNL     1      22.319  -5.869  99.745  1.00  0.00     0.012 A 
ATOM     34  C   UNL     1      23.032  -6.074 102.053  1.00  0.00     0.012 A 
ATOM     35  C   UNL     1      21.169  -6.609 100.041  1.00  0.00     0.001 A 
ATOM     36  C   UNL     1      21.883  -6.816 102.342  1.00  0.00     0.001 A 
ATOM     37  C   UNL     1      20.952  -7.084 101.337  1.00  0.00     0.000 A 
ENDBRANCH  25  32
ENDBRANCH   1  17
TORSDOF 9
ENDMDL
