MODEL 1
REMARK VINA RESULT:    -3.666      0.000      0.000
REMARK INTER + INTRA:          -3.774
REMARK INTER:                  -3.774
REMARK INTRA:                   0.000
REMARK UNBOUND:                 0.000
REMARK SMILES Cc1ccccc1O
REMARK SMILES IDX 1 1 2 2 3 3 4 4 5 5 6 6 7 7 8 8
REMARK H PARENT 8 9
REMARK Flexibility Score: inf
ROOT
ATOM      1  C   UNL     1      -5.786  83.557  -9.645  1.00  0.00     0.048 C 
ATOM      2  C   UNL     1      -4.774  82.829  -8.807  1.00  0.00    -0.009 A 
ATOM      3  C   UNL     1      -4.924  82.761  -7.412  1.00  0.00     0.007 A 
ATOM      4  C   UNL     1      -3.983  82.083  -6.632  1.00  0.00     0.001 A 
ATOM      5  C   UNL     1      -2.884  81.469  -7.238  1.00  0.00     0.004 A 
ATOM      6  C   UNL     1      -2.725  81.530  -8.624  1.00  0.00     0.046 A 
ATOM      7  C   UNL     1      -3.665  82.208  -9.415  1.00  0.00     0.118 A 
ENDROOT
BRANCH   7   8
ATOM      8  O   UNL     1      -3.502  82.266 -10.799  1.00  0.00    -0.508 OA
ATOM      9  H   UNL     1      -2.611  82.502 -11.219  1.00  0.00     0.293 HD
ENDBRANCH   7   8
TORSDOF 1
ENDMDL
MODEL 2
REMARK VINA RESULT:    -3.655      1.971      3.545
REMARK INTER + INTRA:          -3.762
REMARK INTER:                  -3.762
REMARK INTRA:                   0.000
REMARK UNBOUND:                 0.000
REMARK SMILES Cc1ccccc1O
REMARK SMILES IDX 1 1 2 2 3 3 4 4 5 5 6 6 7 7 8 8
REMARK H PARENT 8 9
REMARK Flexibility Score: inf
ROOT
ATOM      1  C   UNL     1      -2.869  81.732  -8.566  1.00  0.00     0.048 C 
ATOM      2  C   UNL     1      -3.702  82.917  -8.962  1.00  0.00    -0.009 A 
ATOM      3  C   UNL     1      -4.813  82.754  -9.807  1.00  0.00     0.007 A 
ATOM      4  C   UNL     1      -5.589  83.856 -10.175  1.00  0.00     0.001 A 
ATOM      5  C   UNL     1      -5.263  85.131  -9.704  1.00  0.00     0.004 A 
ATOM      6  C   UNL     1      -4.161  85.305  -8.863  1.00  0.00     0.046 A 
ATOM      7  C   UNL     1      -3.376  84.204  -8.488  1.00  0.00     0.118 A 
ENDROOT
BRANCH   7   8
ATOM      8  O   UNL     1      -2.277  84.381  -7.649  1.00  0.00    -0.508 OA
ATOM      9  H   UNL     1      -2.244  85.133  -6.969  1.00  0.00     0.293 HD
ENDBRANCH   7   8
TORSDOF 1
ENDMDL
MODEL 3
REMARK VINA RESULT:    -3.594      2.237      3.259
REMARK INTER + INTRA:          -3.699
REMARK INTER:                  -3.699
REMARK INTRA:                   0.000
REMARK UNBOUND:                 0.000
REMARK SMILES Cc1ccccc1O
REMARK SMILES IDX 1 1 2 2 3 3 4 4 5 5 6 6 7 7 8 8
REMARK H PARENT 8 9
REMARK Flexibility Score: inf
ROOT
ATOM      1  C   UNL     1      -2.912  85.945  -7.817  1.00  0.00     0.048 C 
ATOM      2  C   UNL     1      -3.717  84.914  -8.556  1.00  0.00    -0.009 A 
ATOM      3  C   UNL     1      -4.831  85.299  -9.322  1.00  0.00     0.007 A 
ATOM      4  C   UNL     1      -5.580  84.340 -10.010  1.00  0.00     0.001 A 
ATOM      5  C   UNL     1      -5.225  82.990  -9.938  1.00  0.00     0.004 A 
ATOM      6  C   UNL     1      -4.121  82.597  -9.179  1.00  0.00     0.046 A 
ATOM      7  C   UNL     1      -3.362  83.552  -8.486  1.00  0.00     0.118 A 
ENDROOT
BRANCH   7   8
ATOM      8  O   UNL     1      -2.260  83.155  -7.730  1.00  0.00    -0.508 OA
ATOM      9  H   UNL     1      -2.265  82.294  -7.195  1.00  0.00     0.293 HD
ENDBRANCH   7   8
TORSDOF 1
ENDMDL
MODEL 4
REMARK VINA RESULT:    -3.486      0.837      2.639
REMARK INTER + INTRA:          -3.587
REMARK INTER:                  -3.587
REMARK INTRA:                   0.000
REMARK UNBOUND:                 0.000
REMARK SMILES Cc1ccccc1O
REMARK SMILES IDX 1 1 2 2 3 3 4 4 5 5 6 6 7 7 8 8
REMARK H PARENT 8 9
REMARK Flexibility Score: inf
ROOT
ATOM      1  C   UNL     1      -2.562  81.824  -8.219  1.00  0.00     0.048 C 
ATOM      2  C   UNL     1      -3.951  82.383  -8.342  1.00  0.00    -0.009 A 
ATOM      3  C   UNL     1      -4.702  82.679  -7.192  1.00  0.00     0.007 A 
ATOM      4  C   UNL     1      -5.994  83.198  -7.307  1.00  0.00     0.001 A 
ATOM      5  C   UNL     1      -6.548  83.426  -8.570  1.00  0.00     0.004 A 
ATOM      6  C   UNL     1      -5.810  83.135  -9.720  1.00  0.00     0.046 A 
ATOM      7  C   UNL     1      -4.512  82.613  -9.614  1.00  0.00     0.118 A 
ENDROOT
BRANCH   7   8
ATOM      8  O   UNL     1      -3.779  82.325 -10.764  1.00  0.00    -0.508 OA
ATOM      9  H   UNL     1      -3.700  81.379 -11.121  1.00  0.00     0.293 HD
ENDBRANCH   7   8
TORSDOF 1
ENDMDL
MODEL 5
REMARK VINA RESULT:    -3.474      1.833      3.413
REMARK INTER + INTRA:          -3.575
REMARK INTER:                  -3.575
REMARK INTRA:                   0.000
REMARK UNBOUND:                 0.000
REMARK SMILES Cc1ccccc1O
REMARK SMILES IDX 1 1 2 2 3 3 4 4 5 5 6 6 7 7 8 8
REMARK H PARENT 8 9
REMARK Flexibility Score: inf
ROOT
ATOM      1  C   UNL     1      -2.972  82.275  -8.625  1.00  0.00     0.048 C 
ATOM      2  C   UNL     1      -3.786  83.499  -8.935  1.00  0.00    -0.009 A 
ATOM      3  C   UNL     1      -3.462  84.734  -8.349  1.00  0.00     0.007 A 
ATOM      4  C   UNL     1      -4.219  85.873  -8.639  1.00  0.00     0.001 A 
ATOM      5  C   UNL     1      -5.306  85.788  -9.513  1.00  0.00     0.004 A 
ATOM      6  C   UNL     1      -5.637  84.565 -10.100  1.00  0.00     0.046 A 
ATOM      7  C   UNL     1      -4.882  83.417  -9.816  1.00  0.00     0.118 A 
ENDROOT
BRANCH   7   8
ATOM      8  O   UNL     1      -5.216  82.197 -10.405  1.00  0.00    -0.508 OA
ATOM      9  H   UNL     1      -4.515  81.491 -10.598  1.00  0.00     0.293 HD
ENDBRANCH   7   8
TORSDOF 1
ENDMDL
MODEL 6
REMARK VINA RESULT:    -3.458      2.242      3.018
REMARK INTER + INTRA:          -3.559
REMARK INTER:                  -3.559
REMARK INTRA:                   0.000
REMARK UNBOUND:                 0.000
REMARK SMILES Cc1ccccc1O
REMARK SMILES IDX 1 1 2 2 3 3 4 4 5 5 6 6 7 7 8 8
REMARK H PARENT 8 9
REMARK Flexibility Score: inf
ROOT
ATOM      1  C   UNL     1      -4.703  86.474  -8.507  1.00  0.00     0.048 C 
ATOM      2  C   UNL     1      -4.526  85.039  -8.914  1.00  0.00    -0.009 A 
ATOM      3  C   UNL     1      -5.500  84.397  -9.697  1.00  0.00     0.007 A 
ATOM      4  C   UNL     1      -5.335  83.062 -10.076  1.00  0.00     0.001 A 
ATOM      5  C   UNL     1      -4.198  82.356  -9.675  1.00  0.00     0.004 A 
ATOM      6  C   UNL     1      -3.223  82.984  -8.895  1.00  0.00     0.046 A 
ATOM      7  C   UNL     1      -3.380  84.324  -8.511  1.00  0.00     0.118 A 
ENDROOT
BRANCH   7   8
ATOM      8  O   UNL     1      -2.405  84.947  -7.733  1.00  0.00    -0.508 OA
ATOM      9  H   UNL     1      -2.501  85.030  -6.727  1.00  0.00     0.293 HD
ENDBRANCH   7   8
TORSDOF 1
ENDMDL
MODEL 7
REMARK VINA RESULT:    -3.398      8.530      9.493
REMARK INTER + INTRA:          -3.497
REMARK INTER:                  -3.497
REMARK INTRA:                   0.000
REMARK UNBOUND:                 0.000
REMARK SMILES Cc1ccccc1O
REMARK SMILES IDX 1 1 2 2 3 3 4 4 5 5 6 6 7 7 8 8
REMARK H PARENT 8 9
REMARK Flexibility Score: inf
ROOT
ATOM      1  C   UNL     1     -12.795  81.390  -9.854  1.00  0.00     0.048 C 
ATOM      2  C   UNL     1     -12.786  82.880  -9.667  1.00  0.00    -0.009 A 
ATOM      3  C   UNL     1     -11.967  83.468  -8.688  1.00  0.00     0.007 A 
ATOM      4  C   UNL     1     -11.959  84.855  -8.515  1.00  0.00     0.001 A 
ATOM      5  C   UNL     1     -12.768  85.666  -9.315  1.00  0.00     0.004 A 
ATOM      6  C   UNL     1     -13.586  85.092 -10.291  1.00  0.00     0.046 A 
ATOM      7  C   UNL     1     -13.601  83.701 -10.473  1.00  0.00     0.118 A 
ENDROOT
BRANCH   7   8
ATOM      8  O   UNL     1     -14.418  83.131 -11.448  1.00  0.00    -0.508 OA
ATOM      9  H   UNL     1     -15.245  83.607 -11.792  1.00  0.00     0.293 HD
ENDBRANCH   7   8
TORSDOF 1
ENDMDL
MODEL 8
REMARK VINA RESULT:    -3.350      9.918     11.604
REMARK INTER + INTRA:          -3.448
REMARK INTER:                  -3.448
REMARK INTRA:                   0.000
REMARK UNBOUND:                 0.000
REMARK SMILES Cc1ccccc1O
REMARK SMILES IDX 1 1 2 2 3 3 4 4 5 5 6 6 7 7 8 8
REMARK H PARENT 8 9
REMARK Flexibility Score: inf
ROOT
ATOM      1  C   UNL     1      -5.876  89.418 -14.874  1.00  0.00     0.048 C 
ATOM      2  C   UNL     1      -5.013  90.362 -15.661  1.00  0.00    -0.009 A 
ATOM      3  C   UNL     1      -5.537  91.044 -16.773  1.00  0.00     0.007 A 
ATOM      4  C   UNL     1      -4.734  91.923 -17.505  1.00  0.00     0.001 A 
ATOM      5  C   UNL     1      -3.401  92.127 -17.136  1.00  0.00     0.004 A 
ATOM      6  C   UNL     1      -2.871  91.454 -16.033  1.00  0.00     0.046 A 
ATOM      7  C   UNL     1      -3.669  90.571 -15.291  1.00  0.00     0.118 A 
ENDROOT
BRANCH   7   8
ATOM      8  O   UNL     1      -3.136  89.901 -14.191  1.00  0.00    -0.508 OA
ATOM      9  H   UNL     1      -3.405  90.138 -13.243  1.00  0.00     0.293 HD
ENDBRANCH   7   8
TORSDOF 1
ENDMDL
MODEL 9
REMARK VINA RESULT:    -3.286      2.474      3.506
REMARK INTER + INTRA:          -3.382
REMARK INTER:                  -3.382
REMARK INTRA:                   0.000
REMARK UNBOUND:                 0.000
REMARK SMILES Cc1ccccc1O
REMARK SMILES IDX 1 1 2 2 3 3 4 4 5 5 6 6 7 7 8 8
REMARK H PARENT 8 9
REMARK Flexibility Score: inf
ROOT
ATOM      1  C   UNL     1      -2.885  85.772  -7.792  1.00  0.00     0.048 C 
ATOM      2  C   UNL     1      -3.674  84.752  -8.562  1.00  0.00    -0.009 A 
ATOM      3  C   UNL     1      -3.258  83.410  -8.596  1.00  0.00     0.007 A 
ATOM      4  C   UNL     1      -3.993  82.461  -9.312  1.00  0.00     0.001 A 
ATOM      5  C   UNL     1      -5.147  82.843 -10.002  1.00  0.00     0.004 A 
ATOM      6  C   UNL     1      -5.569  84.174  -9.975  1.00  0.00     0.046 A 
ATOM      7  C   UNL     1      -4.839  85.134  -9.258  1.00  0.00     0.118 A 
ENDROOT
BRANCH   7   8
ATOM      8  O   UNL     1      -5.264  86.461  -9.233  1.00  0.00    -0.508 OA
ATOM      9  H   UNL     1      -6.193  86.727  -9.539  1.00  0.00     0.293 HD
ENDBRANCH   7   8
TORSDOF 1
ENDMDL
