MODEL 1
REMARK VINA RESULT:    -3.024      0.000      0.000
REMARK INTER + INTRA:          -4.004
REMARK INTER:                  -3.908
REMARK INTRA:                  -0.096
REMARK UNBOUND:                -0.096
REMARK SMILES CCCCCCC(=O)[O-]
REMARK SMILES IDX 5 1 6 2 7 3 8 4 9 5 4 6 3 7 2 8 1 9
REMARK H PARENT
REMARK Flexibility Score: inf
ROOT
ATOM      1  C   UNL     1       7.122  -0.041  -5.275  1.00  0.00     0.006 C 
ENDROOT
BRANCH   1   2
ATOM      2  C   UNL     1       8.128   1.073  -5.613  1.00  0.00     0.053 C 
BRANCH   2   3
ATOM      3  C   UNL     1       7.946   2.290  -4.759  1.00  0.00     0.041 C 
ATOM      4  O   UNL     1       6.989   2.354  -3.944  1.00  0.00    -0.550 OA
ATOM      5  O   UNL     1       8.853   3.341  -4.836  1.00  0.00    -0.550 OA
ENDBRANCH   2   3
ENDBRANCH   1   2
BRANCH   1   6
ATOM      6  C   UNL     1       6.656  -0.854  -6.496  1.00  0.00     0.000 C 
BRANCH   6   7
ATOM      7  C   UNL     1       5.155  -1.187  -6.461  1.00  0.00    -0.000 C 
BRANCH   7   8
ATOM      8  C   UNL     1       4.667  -1.845  -7.761  1.00  0.00    -0.003 C 
ATOM      9  C   UNL     1       4.116  -0.831  -8.763  1.00  0.00     0.004 C 
ENDBRANCH   7   8
ENDBRANCH   6   7
ENDBRANCH   1   6
TORSDOF 5
ENDMDL
MODEL 2
REMARK VINA RESULT:    -2.982     10.183     11.304
REMARK INTER + INTRA:          -3.949
REMARK INTER:                  -3.752
REMARK INTRA:                  -0.197
REMARK UNBOUND:                -0.096
REMARK SMILES CCCCCCC(=O)[O-]
REMARK SMILES IDX 5 1 6 2 7 3 8 4 9 5 4 6 3 7 2 8 1 9
REMARK H PARENT
REMARK Flexibility Score: inf
ROOT
ATOM      1  C   UNL     1       1.128  -2.944   2.377  1.00  0.00     0.006 C 
ENDROOT
BRANCH   1   2
ATOM      2  C   UNL     1       0.928  -3.693   1.047  1.00  0.00     0.053 C 
BRANCH   2   3
ATOM      3  C   UNL     1       1.843  -3.200  -0.032  1.00  0.00     0.041 C 
ATOM      4  O   UNL     1       1.426  -3.093  -1.215  1.00  0.00    -0.550 OA
ATOM      5  O   UNL     1       3.146  -2.825   0.273  1.00  0.00    -0.550 OA
ENDBRANCH   2   3
ENDBRANCH   1   2
BRANCH   1   6
ATOM      6  C   UNL     1       1.864  -3.765   3.450  1.00  0.00     0.000 C 
BRANCH   6   7
ATOM      7  C   UNL     1       1.947  -3.044   4.807  1.00  0.00    -0.000 C 
BRANCH   7   8
ATOM      8  C   UNL     1       1.137  -1.739   4.830  1.00  0.00    -0.003 C 
ATOM      9  C   UNL     1       0.012  -1.761   5.864  1.00  0.00     0.004 C 
ENDBRANCH   7   8
ENDBRANCH   6   7
ENDBRANCH   1   6
TORSDOF 5
ENDMDL
MODEL 3
REMARK VINA RESULT:    -2.923      1.178      1.723
REMARK INTER + INTRA:          -3.874
REMARK INTER:                  -3.793
REMARK INTRA:                  -0.081
REMARK UNBOUND:                -0.096
REMARK SMILES CCCCCCC(=O)[O-]
REMARK SMILES IDX 5 1 6 2 7 3 8 4 9 5 4 6 3 7 2 8 1 9
REMARK H PARENT
REMARK Flexibility Score: inf
ROOT
ATOM      1  C   UNL     1       7.900   1.256  -5.336  1.00  0.00     0.006 C 
ENDROOT
BRANCH   1   2
ATOM      2  C   UNL     1       7.744   2.379  -4.296  1.00  0.00     0.053 C 
BRANCH   2   3
ATOM      3  C   UNL     1       9.034   2.705  -3.607  1.00  0.00     0.041 C 
ATOM      4  O   UNL     1       9.072   2.818  -2.353  1.00  0.00    -0.550 OA
ATOM      5  O   UNL     1      10.204   2.850  -4.343  1.00  0.00    -0.550 OA
ENDBRANCH   2   3
ENDBRANCH   1   2
BRANCH   1   6
ATOM      6  C   UNL     1       6.926   0.080  -5.135  1.00  0.00     0.000 C 
BRANCH   6   7
ATOM      7  C   UNL     1       6.668  -0.714  -6.427  1.00  0.00    -0.000 C 
BRANCH   7   8
ATOM      8  C   UNL     1       5.252  -1.308  -6.480  1.00  0.00    -0.003 C 
ATOM      9  C   UNL     1       4.607  -1.171  -7.859  1.00  0.00     0.004 C 
ENDBRANCH   7   8
ENDBRANCH   6   7
ENDBRANCH   1   6
TORSDOF 5
ENDMDL
MODEL 4
REMARK VINA RESULT:    -2.869      8.951      9.782
REMARK INTER + INTRA:          -3.803
REMARK INTER:                  -3.432
REMARK INTRA:                  -0.371
REMARK UNBOUND:                -0.096
REMARK SMILES CCCCCCC(=O)[O-]
REMARK SMILES IDX 5 1 6 2 7 3 8 4 9 5 4 6 3 7 2 8 1 9
REMARK H PARENT
REMARK Flexibility Score: inf
ROOT
ATOM      1  C   UNL     1       2.100  -3.586   2.859  1.00  0.00     0.006 C 
ENDROOT
BRANCH   1   2
ATOM      2  C   UNL     1       3.028  -4.432   1.968  1.00  0.00     0.053 C 
BRANCH   2   3
ATOM      3  C   UNL     1       3.910  -3.591   1.097  1.00  0.00     0.041 C 
ATOM      4  O   UNL     1       5.153  -3.790   1.074  1.00  0.00    -0.550 OA
ATOM      5  O   UNL     1       3.358  -2.610   0.281  1.00  0.00    -0.550 OA
ENDBRANCH   2   3
ENDBRANCH   1   2
BRANCH   1   6
ATOM      6  C   UNL     1       0.626  -3.603   2.418  1.00  0.00     0.000 C 
BRANCH   6   7
ATOM      7  C   UNL     1       0.298  -4.760   1.459  1.00  0.00    -0.000 C 
BRANCH   7   8
ATOM      8  C   UNL     1      -0.365  -4.278   0.159  1.00  0.00    -0.003 C 
ATOM      9  C   UNL     1       0.614  -4.216  -1.014  1.00  0.00     0.004 C 
ENDBRANCH   7   8
ENDBRANCH   6   7
ENDBRANCH   1   6
TORSDOF 5
ENDMDL
MODEL 5
REMARK VINA RESULT:    -2.868      9.694     10.915
REMARK INTER + INTRA:          -3.803
REMARK INTER:                  -3.456
REMARK INTRA:                  -0.347
REMARK UNBOUND:                -0.096
REMARK SMILES CCCCCCC(=O)[O-]
REMARK SMILES IDX 5 1 6 2 7 3 8 4 9 5 4 6 3 7 2 8 1 9
REMARK H PARENT
REMARK Flexibility Score: inf
ROOT
ATOM      1  C   UNL     1       8.618   8.616   2.005  1.00  0.00     0.006 C 
ENDROOT
BRANCH   1   2
ATOM      2  C   UNL     1       9.218   7.206   2.146  1.00  0.00     0.053 C 
BRANCH   2   3
ATOM      3  C   UNL     1       9.042   6.380   0.908  1.00  0.00     0.041 C 
ATOM      4  O   UNL     1       8.913   6.939  -0.213  1.00  0.00    -0.550 OA
ATOM      5  O   UNL     1       9.055   4.992   0.985  1.00  0.00    -0.550 OA
ENDBRANCH   2   3
ENDBRANCH   1   2
BRANCH   1   6
ATOM      6  C   UNL     1       7.165   8.728   2.501  1.00  0.00     0.000 C 
BRANCH   6   7
ATOM      7  C   UNL     1       6.153   8.928   1.361  1.00  0.00    -0.000 C 
BRANCH   7   8
ATOM      8  C   UNL     1       6.615   9.981   0.342  1.00  0.00    -0.003 C 
ATOM      9  C   UNL     1       6.564   9.469  -1.098  1.00  0.00     0.004 C 
ENDBRANCH   7   8
ENDBRANCH   6   7
ENDBRANCH   1   6
TORSDOF 5
ENDMDL
MODEL 6
REMARK VINA RESULT:    -2.863     13.575     14.450
REMARK INTER + INTRA:          -3.796
REMARK INTER:                  -3.408
REMARK INTRA:                  -0.388
REMARK UNBOUND:                -0.096
REMARK SMILES CCCCCCC(=O)[O-]
REMARK SMILES IDX 5 1 6 2 7 3 8 4 9 5 4 6 3 7 2 8 1 9
REMARK H PARENT
REMARK Flexibility Score: inf
ROOT
ATOM      1  C   UNL     1      -5.950   0.262   0.936  1.00  0.00     0.006 C 
ENDROOT
BRANCH   1   2
ATOM      2  C   UNL     1      -5.321   1.163   2.014  1.00  0.00     0.053 C 
BRANCH   2   3
ATOM      3  C   UNL     1      -5.955   2.519   2.070  1.00  0.00     0.041 C 
ATOM      4  O   UNL     1      -5.237   3.553   2.096  1.00  0.00    -0.550 OA
ATOM      5  O   UNL     1      -7.339   2.646   2.057  1.00  0.00    -0.550 OA
ENDBRANCH   2   3
ENDBRANCH   1   2
BRANCH   1   6
ATOM      6  C   UNL     1      -5.074   0.082  -0.316  1.00  0.00     0.000 C 
BRANCH   6   7
ATOM      7  C   UNL     1      -5.798   0.470  -1.617  1.00  0.00    -0.000 C 
BRANCH   7   8
ATOM      8  C   UNL     1      -7.031   1.350  -1.365  1.00  0.00    -0.003 C 
ATOM      9  C   UNL     1      -6.772   2.827  -1.665  1.00  0.00     0.004 C 
ENDBRANCH   7   8
ENDBRANCH   6   7
ENDBRANCH   1   6
TORSDOF 5
ENDMDL
MODEL 7
REMARK VINA RESULT:    -2.831     15.387     16.459
REMARK INTER + INTRA:          -3.754
REMARK INTER:                  -3.475
REMARK INTRA:                  -0.279
REMARK UNBOUND:                -0.096
REMARK SMILES CCCCCCC(=O)[O-]
REMARK SMILES IDX 5 1 6 2 7 3 8 4 9 5 4 6 3 7 2 8 1 9
REMARK H PARENT
REMARK Flexibility Score: inf
ROOT
ATOM      1  C   UNL     1      -2.835  12.756  -2.859  1.00  0.00     0.006 C 
ENDROOT
BRANCH   1   2
ATOM      2  C   UNL     1      -3.835  11.638  -3.204  1.00  0.00     0.053 C 
BRANCH   2   3
ATOM      3  C   UNL     1      -3.233  10.577  -4.074  1.00  0.00     0.041 C 
ATOM      4  O   UNL     1      -3.890   9.540  -4.355  1.00  0.00    -0.550 OA
ATOM      5  O   UNL     1      -1.960  10.747  -4.605  1.00  0.00    -0.550 OA
ENDBRANCH   2   3
ENDBRANCH   1   2
BRANCH   1   6
ATOM      6  C   UNL     1      -2.971  13.294  -1.423  1.00  0.00     0.000 C 
BRANCH   6   7
ATOM      7  C   UNL     1      -3.826  12.389  -0.520  1.00  0.00    -0.000 C 
BRANCH   7   8
ATOM      8  C   UNL     1      -5.016  13.134   0.104  1.00  0.00    -0.003 C 
ATOM      9  C   UNL     1      -5.976  13.694  -0.945  1.00  0.00     0.004 C 
ENDBRANCH   7   8
ENDBRANCH   6   7
ENDBRANCH   1   6
TORSDOF 5
ENDMDL
MODEL 8
REMARK VINA RESULT:    -2.831     15.083     15.773
REMARK INTER + INTRA:          -3.754
REMARK INTER:                  -3.680
REMARK INTRA:                  -0.074
REMARK UNBOUND:                -0.096
REMARK SMILES CCCCCCC(=O)[O-]
REMARK SMILES IDX 5 1 6 2 7 3 8 4 9 5 4 6 3 7 2 8 1 9
REMARK H PARENT
REMARK Flexibility Score: inf
ROOT
ATOM      1  C   UNL     1      -3.635  12.152  -2.737  1.00  0.00     0.006 C 
ENDROOT
BRANCH   1   2
ATOM      2  C   UNL     1      -4.653  12.805  -1.785  1.00  0.00     0.053 C 
BRANCH   2   3
ATOM      3  C   UNL     1      -4.163  12.859  -0.370  1.00  0.00     0.041 C 
ATOM      4  O   UNL     1      -2.939  12.709  -0.118  1.00  0.00    -0.550 OA
ATOM      5  O   UNL     1      -5.051  13.110   0.669  1.00  0.00    -0.550 OA
ENDBRANCH   2   3
ENDBRANCH   1   2
BRANCH   1   6
ATOM      6  C   UNL     1      -4.278  11.335  -3.872  1.00  0.00     0.000 C 
BRANCH   6   7
ATOM      7  C   UNL     1      -3.572   9.991  -4.120  1.00  0.00    -0.000 C 
BRANCH   7   8
ATOM      8  C   UNL     1      -4.389   9.054  -5.022  1.00  0.00    -0.003 C 
ATOM      9  C   UNL     1      -3.531   7.975  -5.682  1.00  0.00     0.004 C 
ENDBRANCH   7   8
ENDBRANCH   6   7
ENDBRANCH   1   6
TORSDOF 5
ENDMDL
MODEL 9
REMARK VINA RESULT:    -2.799      9.293     10.753
REMARK INTER + INTRA:          -3.713
REMARK INTER:                  -3.357
REMARK INTRA:                  -0.356
REMARK UNBOUND:                -0.096
REMARK SMILES CCCCCCC(=O)[O-]
REMARK SMILES IDX 5 1 6 2 7 3 8 4 9 5 4 6 3 7 2 8 1 9
REMARK H PARENT
REMARK Flexibility Score: inf
ROOT
ATOM      1  C   UNL     1       8.090   8.040  -0.730  1.00  0.00     0.006 C 
ENDROOT
BRANCH   1   2
ATOM      2  C   UNL     1       9.403   7.533  -0.106  1.00  0.00     0.053 C 
BRANCH   2   3
ATOM      3  C   UNL     1       9.260   6.172   0.505  1.00  0.00     0.041 C 
ATOM      4  O   UNL     1       9.539   5.144  -0.167  1.00  0.00    -0.550 OA
ATOM      5  O   UNL     1       8.853   6.037   1.827  1.00  0.00    -0.550 OA
ENDBRANCH   2   3
ENDBRANCH   1   2
BRANCH   1   6
ATOM      6  C   UNL     1       7.699   9.462  -0.290  1.00  0.00     0.000 C 
BRANCH   6   7
ATOM      7  C   UNL     1       6.372   9.508   0.486  1.00  0.00    -0.000 C 
BRANCH   7   8
ATOM      8  C   UNL     1       6.385   8.604   1.729  1.00  0.00    -0.003 C 
ATOM      9  C   UNL     1       7.347   9.101   2.808  1.00  0.00     0.004 C 
ENDBRANCH   7   8
ENDBRANCH   6   7
ENDBRANCH   1   6
TORSDOF 5
ENDMDL
