MODEL 1
REMARK VINA RESULT:     2.858      0.000      0.000
REMARK INTER + INTRA:           4.523
REMARK INTER:                   3.861
REMARK INTRA:                   0.662
REMARK UNBOUND:                 0.662
REMARK SMILES CC[C@@H](CC[C@@H](C)[C@@H]1CC[C@@H]2[C@@H]3CC(=O)C4=CC(=O)CC[C@@]4(C)[C@H]3CC[C@@]21C)C(C)C
REMARK SMILES IDX 4 1 3 2 2 3 1 4 29 5 30 6 31 7 5 8 6 9 7 10 8 11 9 12 27 13
REMARK SMILES IDX 10 14 11 15 26 16 28 17 12 18 25 19 24 20 13 21 22 22 14 23
REMARK SMILES IDX 16 24 21 25 23 26 15 27 17 28 20 29 18 30 19 31
REMARK H PARENT
REMARK Flexibility Score: inf
ROOT
ATOM      1  C   UNL     1     -12.288 -13.793  35.166  1.00  0.00     0.004 C 
ENDROOT
BRANCH   1   2
ATOM      2  C   UNL     1     -12.277 -12.765  36.342  1.00  0.00    -0.009 C 
BRANCH   2   3
ATOM      3  C   UNL     1     -10.929 -12.024  36.570  1.00  0.00     0.000 C 
ATOM      4  C   UNL     1     -10.064 -11.784  35.330  1.00  0.00     0.004 C 
ENDBRANCH   2   3
BRANCH   2   5
ATOM      5  C   UNL     1     -13.049 -13.129  37.661  1.00  0.00    -0.014 C 
ATOM      6  C   UNL     1     -13.301 -11.971  38.641  1.00  0.00     0.007 C 
ATOM      7  C   UNL     1     -12.447 -14.337  38.392  1.00  0.00     0.007 C 
ENDBRANCH   2   5
ENDBRANCH   1   2
BRANCH   1   8
ATOM      8  C   UNL     1     -11.027 -13.876  34.274  1.00  0.00     0.004 C 
BRANCH   8   9
ATOM      9  C   UNL     1     -10.229 -15.206  34.396  1.00  0.00    -0.011 C 
ATOM     10  C   UNL     1      -9.876 -15.465  35.880  1.00  0.00     0.008 C 
BRANCH   9  11
ATOM     11  C   UNL     1     -10.908 -16.467  33.735  1.00  0.00    -0.002 C 
ATOM     12  C   UNL     1      -9.876 -17.581  33.458  1.00  0.00     0.005 C 
ATOM     13  C   UNL     1     -11.655 -16.291  32.369  1.00  0.00    -0.026 C 
ATOM     14  C   UNL     1     -10.363 -18.387  32.261  1.00  0.00     0.005 C 
ATOM     15  C   UNL     1     -11.671 -17.739  31.811  1.00  0.00    -0.001 C 
ATOM     16  C   UNL     1     -10.880 -15.333  31.412  1.00  0.00     0.007 C 
ATOM     17  C   UNL     1     -13.114 -15.805  32.557  1.00  0.00     0.012 C 
ATOM     18  C   UNL     1     -11.971 -17.840  30.289  1.00  0.00     0.004 C 
ATOM     19  C   UNL     1     -11.299 -15.446  29.938  1.00  0.00     0.005 C 
ATOM     20  C   UNL     1     -11.092 -16.886  29.419  1.00  0.00     0.003 C 
ATOM     21  C   UNL     1     -11.916 -19.298  29.778  1.00  0.00     0.085 C 
ATOM     22  C   UNL     1     -11.273 -17.126  27.840  1.00  0.00    -0.000 C 
ATOM     23  C   UNL     1     -12.444 -19.350  28.377  1.00  0.00     0.159 C 
ATOM     24  C   UNL     1     -12.429 -18.108  27.579  1.00  0.00     0.005 C 
ATOM     25  C   UNL     1     -11.423 -15.830  26.961  1.00  0.00     0.020 C 
ATOM     26  C   UNL     1      -9.987 -17.827  27.322  1.00  0.00     0.017 C 
ATOM     27  O   UNL     1     -12.906 -20.423  27.907  1.00  0.00    -0.295 OA
ATOM     28  C   UNL     1     -13.501 -17.806  26.826  1.00  0.00     0.055 C 
ATOM     29  C   UNL     1     -12.863 -15.334  26.828  1.00  0.00     0.081 C 
ATOM     30  C   UNL     1     -13.718 -16.448  26.324  1.00  0.00     0.156 C 
ATOM     31  O   UNL     1     -14.674 -16.208  25.540  1.00  0.00    -0.295 OA
ENDBRANCH   9  11
ENDBRANCH   8   9
ENDBRANCH   1   8
TORSDOF 6
ENDMDL
