MODEL 1
REMARK VINA RESULT:    -6.618      0.000      0.000
REMARK INTER + INTRA:          -8.118
REMARK INTER:                  -7.972
REMARK INTRA:                  -0.146
REMARK UNBOUND:                -0.146
REMARK SMILES O=c1c(O)c(-c2ccc(O)c(O)c2)oc2cc(O)cc(O)c12
REMARK SMILES IDX 5 1 3 2 2 3 1 4 22 5 20 6 19 7 17 8 16 9 15 10 14 11 6 12
REMARK SMILES IDX 7 13 8 14 9 15 13 16 11 17 10 18 12 20 4 22 21 24 18 26
REMARK H PARENT 10 19 12 21 4 23 21 25 18 27
REMARK Flexibility Score: inf
ROOT
ATOM      1  C   UNL     1     -24.506 -19.176 -14.216  1.00  0.00     0.180 A 
ATOM      2  C   UNL     1     -23.901 -19.421 -12.971  1.00  0.00     0.208 A 
ATOM      3  C   UNL     1     -23.741 -20.748 -12.540  1.00  0.00     0.238 A 
ATOM      4  O   UNL     1     -23.247 -20.958 -11.401  1.00  0.00    -0.285 OA
ATOM      5  C   UNL     1     -24.174 -21.813 -13.366  1.00  0.00     0.111 A 
ATOM      6  C   UNL     1     -24.025 -23.197 -13.048  1.00  0.00     0.134 A 
ATOM      7  C   UNL     1     -24.607 -24.163 -13.878  1.00  0.00     0.093 A 
ATOM      8  C   UNL     1     -25.275 -23.798 -15.049  1.00  0.00     0.123 A 
ATOM      9  C   UNL     1     -25.374 -22.453 -15.399  1.00  0.00     0.094 A 
ATOM     10  C   UNL     1     -24.834 -21.465 -14.572  1.00  0.00     0.146 A 
ATOM     11  O   UNL     1     -24.960 -20.194 -14.937  1.00  0.00    -0.452 OA
ENDROOT
BRANCH   1  12
ATOM     12  C   UNL     1     -24.687 -17.806 -14.748  1.00  0.00     0.025 A 
ATOM     13  C   UNL     1     -25.966 -17.257 -14.935  1.00  0.00     0.016 A 
ATOM     14  C   UNL     1     -26.112 -15.953 -15.416  1.00  0.00     0.051 A 
ATOM     15  C   UNL     1     -24.983 -15.174 -15.703  1.00  0.00     0.157 A 
ATOM     16  C   UNL     1     -23.557 -17.015 -15.017  1.00  0.00     0.062 A 
ATOM     17  C   UNL     1     -23.700 -15.709 -15.498  1.00  0.00     0.158 A 
BRANCH  15  18
ATOM     18  O   UNL     1     -25.131 -13.875 -16.184  1.00  0.00    -0.504 OA
ATOM     19  H   UNL     1     -24.351 -13.227 -16.213  1.00  0.00     0.293 HD
ENDBRANCH  15  18
BRANCH  17  20
ATOM     20  O   UNL     1     -22.555 -14.957 -15.768  1.00  0.00    -0.504 OA
ATOM     21  H   UNL     1     -21.656 -15.390 -15.940  1.00  0.00     0.293 HD
ENDBRANCH  17  20
ENDBRANCH   1  12
BRANCH   2  22
ATOM     22  O   UNL     1     -23.501 -18.354 -12.162  1.00  0.00    -0.502 OA
ATOM     23  H   UNL     1     -23.241 -18.475 -11.190  1.00  0.00     0.293 HD
ENDBRANCH   2  22
BRANCH   6  24
ATOM     24  O   UNL     1     -23.298 -23.672 -11.952  1.00  0.00    -0.507 OA
ATOM     25  H   UNL     1     -22.429 -23.278 -11.624  1.00  0.00     0.293 HD
ENDBRANCH   6  24
BRANCH   8  26
ATOM     26  O   UNL     1     -25.837 -24.766 -15.878  1.00  0.00    -0.508 OA
ATOM     27  H   UNL     1     -25.358 -25.097 -16.707  1.00  0.00     0.293 HD
ENDBRANCH   8  26
TORSDOF 6
ENDMDL
MODEL 2
REMARK VINA RESULT:    -6.578      1.541      7.320
REMARK INTER + INTRA:          -8.071
REMARK INTER:                  -8.293
REMARK INTRA:                   0.222
REMARK UNBOUND:                -0.146
REMARK SMILES O=c1c(O)c(-c2ccc(O)c(O)c2)oc2cc(O)cc(O)c12
REMARK SMILES IDX 5 1 3 2 2 3 1 4 22 5 20 6 19 7 17 8 16 9 15 10 14 11 6 12
REMARK SMILES IDX 7 13 8 14 9 15 13 16 11 17 10 18 12 20 4 22 21 24 18 26
REMARK H PARENT 10 19 12 21 4 23 21 25 18 27
REMARK Flexibility Score: inf
ROOT
ATOM      1  C   UNL     1     -24.204 -18.730 -14.280  1.00  0.00     0.180 A 
ATOM      2  C   UNL     1     -25.354 -18.086 -14.769  1.00  0.00     0.208 A 
ATOM      3  C   UNL     1     -25.283 -16.724 -15.104  1.00  0.00     0.238 A 
ATOM      4  O   UNL     1     -26.330 -16.142 -15.490  1.00  0.00    -0.285 OA
ATOM      5  C   UNL     1     -24.059 -16.027 -14.961  1.00  0.00     0.111 A 
ATOM      6  C   UNL     1     -23.863 -14.657 -15.308  1.00  0.00     0.134 A 
ATOM      7  C   UNL     1     -22.646 -14.034 -15.003  1.00  0.00     0.093 A 
ATOM      8  C   UNL     1     -21.596 -14.752 -14.422  1.00  0.00     0.123 A 
ATOM      9  C   UNL     1     -21.759 -16.105 -14.135  1.00  0.00     0.094 A 
ATOM     10  C   UNL     1     -22.974 -16.743 -14.395  1.00  0.00     0.146 A 
ATOM     11  O   UNL     1     -23.089 -18.032 -14.096  1.00  0.00    -0.452 OA
ENDROOT
BRANCH   1  12
ATOM     12  C   UNL     1     -24.194 -20.168 -13.930  1.00  0.00     0.025 A 
ATOM     13  C   UNL     1     -23.493 -20.643 -12.808  1.00  0.00     0.016 A 
ATOM     14  C   UNL     1     -23.519 -22.002 -12.483  1.00  0.00     0.051 A 
ATOM     15  C   UNL     1     -24.256 -22.903 -13.263  1.00  0.00     0.157 A 
ATOM     16  C   UNL     1     -24.949 -21.071 -14.697  1.00  0.00     0.062 A 
ATOM     17  C   UNL     1     -24.976 -22.432 -14.373  1.00  0.00     0.158 A 
BRANCH  15  18
ATOM     18  O   UNL     1     -24.278 -24.257 -12.937  1.00  0.00    -0.504 OA
ATOM     19  H   UNL     1     -25.061 -24.851 -13.188  1.00  0.00     0.293 HD
ENDBRANCH  15  18
BRANCH  17  20
ATOM     20  O   UNL     1     -25.726 -23.302 -15.167  1.00  0.00    -0.504 OA
ATOM     21  H   UNL     1     -25.611 -24.307 -15.120  1.00  0.00     0.293 HD
ENDBRANCH  17  20
ENDBRANCH   1  12
BRANCH   2  22
ATOM     22  O   UNL     1     -26.558 -18.788 -14.881  1.00  0.00    -0.502 OA
ATOM     23  H   UNL     1     -27.328 -18.460 -15.452  1.00  0.00     0.293 HD
ENDBRANCH   2  22
BRANCH   6  24
ATOM     24  O   UNL     1     -24.813 -13.875 -15.973  1.00  0.00    -0.507 OA
ATOM     25  H   UNL     1     -25.718 -13.631 -15.601  1.00  0.00     0.293 HD
ENDBRANCH   6  24
BRANCH   8  26
ATOM     26  O   UNL     1     -20.384 -14.129 -14.136  1.00  0.00    -0.508 OA
ATOM     27  H   UNL     1     -19.720 -13.899 -14.867  1.00  0.00     0.293 HD
ENDBRANCH   8  26
TORSDOF 6
ENDMDL
MODEL 3
REMARK VINA RESULT:    -6.511      1.395      6.726
REMARK INTER + INTRA:          -7.989
REMARK INTER:                  -7.870
REMARK INTRA:                  -0.119
REMARK UNBOUND:                -0.146
REMARK SMILES O=c1c(O)c(-c2ccc(O)c(O)c2)oc2cc(O)cc(O)c12
REMARK SMILES IDX 5 1 3 2 2 3 1 4 22 5 20 6 19 7 17 8 16 9 15 10 14 11 6 12
REMARK SMILES IDX 7 13 8 14 9 15 13 16 11 17 10 18 12 20 4 22 21 24 18 26
REMARK H PARENT 10 19 12 21 4 23 21 25 18 27
REMARK Flexibility Score: inf
ROOT
ATOM      1  C   UNL     1     -24.139 -20.445 -13.778  1.00  0.00     0.180 A 
ATOM      2  C   UNL     1     -24.035 -20.006 -12.447  1.00  0.00     0.208 A 
ATOM      3  C   UNL     1     -23.881 -18.634 -12.192  1.00  0.00     0.238 A 
ATOM      4  O   UNL     1     -23.735 -18.254 -11.000  1.00  0.00    -0.285 OA
ATOM      5  C   UNL     1     -23.849 -17.717 -13.269  1.00  0.00     0.111 A 
ATOM      6  C   UNL     1     -23.738 -16.301 -13.125  1.00  0.00     0.134 A 
ATOM      7  C   UNL     1     -23.584 -15.500 -14.264  1.00  0.00     0.093 A 
ATOM      8  C   UNL     1     -23.604 -16.059 -15.545  1.00  0.00     0.123 A 
ATOM      9  C   UNL     1     -23.773 -17.433 -15.697  1.00  0.00     0.094 A 
ATOM     10  C   UNL     1     -23.892 -18.261 -14.578  1.00  0.00     0.146 A 
ATOM     11  O   UNL     1     -24.040 -19.567 -14.769  1.00  0.00    -0.452 OA
ENDROOT
BRANCH   1  12
ATOM     12  C   UNL     1     -24.328 -21.872 -14.125  1.00  0.00     0.025 A 
ATOM     13  C   UNL     1     -23.376 -22.843 -13.772  1.00  0.00     0.016 A 
ATOM     14  C   UNL     1     -23.587 -24.188 -14.089  1.00  0.00     0.051 A 
ATOM     15  C   UNL     1     -24.758 -24.584 -14.748  1.00  0.00     0.157 A 
ATOM     16  C   UNL     1     -25.510 -22.277 -14.768  1.00  0.00     0.062 A 
ATOM     17  C   UNL     1     -25.724 -23.622 -15.086  1.00  0.00     0.158 A 
BRANCH  15  18
ATOM     18  O   UNL     1     -24.965 -25.925 -15.064  1.00  0.00    -0.504 OA
ATOM     19  H   UNL     1     -25.734 -26.219 -15.656  1.00  0.00     0.293 HD
ENDBRANCH  15  18
BRANCH  17  20
ATOM     20  O   UNL     1     -26.905 -23.985 -15.737  1.00  0.00    -0.504 OA
ATOM     21  H   UNL     1     -27.491 -23.305 -16.205  1.00  0.00     0.293 HD
ENDBRANCH  17  20
ENDBRANCH   1  12
BRANCH   2  22
ATOM     22  O   UNL     1     -24.047 -20.932 -11.399  1.00  0.00    -0.502 OA
ATOM     23  H   UNL     1     -24.232 -21.917 -11.545  1.00  0.00     0.293 HD
ENDBRANCH   2  22
BRANCH   6  24
ATOM     24  O   UNL     1     -23.799 -15.634 -11.897  1.00  0.00    -0.507 OA
ATOM     25  H   UNL     1     -23.417 -14.718 -11.722  1.00  0.00     0.293 HD
ENDBRANCH   6  24
BRANCH   8  26
ATOM     26  O   UNL     1     -23.467 -15.254 -16.672  1.00  0.00    -0.508 OA
ATOM     27  H   UNL     1     -23.373 -14.248 -16.597  1.00  0.00     0.293 HD
ENDBRANCH   8  26
TORSDOF 6
ENDMDL
MODEL 4
REMARK VINA RESULT:    -6.370      1.505      1.972
REMARK INTER + INTRA:          -7.820
REMARK INTER:                  -7.485
REMARK INTRA:                  -0.335
REMARK UNBOUND:                -0.146
REMARK SMILES O=c1c(O)c(-c2ccc(O)c(O)c2)oc2cc(O)cc(O)c12
REMARK SMILES IDX 5 1 3 2 2 3 1 4 22 5 20 6 19 7 17 8 16 9 15 10 14 11 6 12
REMARK SMILES IDX 7 13 8 14 9 15 13 16 11 17 10 18 12 20 4 22 21 24 18 26
REMARK H PARENT 10 19 12 21 4 23 21 25 18 27
REMARK Flexibility Score: inf
ROOT
ATOM      1  C   UNL     1     -24.788 -19.227 -13.823  1.00  0.00     0.180 A 
ATOM      2  C   UNL     1     -25.437 -19.596 -12.632  1.00  0.00     0.208 A 
ATOM      3  C   UNL     1     -25.772 -20.945 -12.428  1.00  0.00     0.238 A 
ATOM      4  O   UNL     1     -26.400 -21.259 -11.384  1.00  0.00    -0.285 OA
ATOM      5  C   UNL     1     -25.439 -21.909 -13.409  1.00  0.00     0.111 A 
ATOM      6  C   UNL     1     -25.694 -23.308 -13.289  1.00  0.00     0.134 A 
ATOM      7  C   UNL     1     -25.441 -24.153 -14.377  1.00  0.00     0.093 A 
ATOM      8  C   UNL     1     -24.880 -23.658 -15.557  1.00  0.00     0.123 A 
ATOM      9  C   UNL     1     -24.573 -22.303 -15.662  1.00  0.00     0.094 A 
ATOM     10  C   UNL     1     -24.848 -21.431 -14.606  1.00  0.00     0.146 A 
ATOM     11  O   UNL     1     -24.549 -20.145 -14.752  1.00  0.00    -0.452 OA
ENDROOT
BRANCH   1  12
ATOM     12  C   UNL     1     -24.381 -17.830 -14.099  1.00  0.00     0.025 A 
ATOM     13  C   UNL     1     -23.127 -17.340 -13.698  1.00  0.00     0.016 A 
ATOM     14  C   UNL     1     -22.756 -16.025 -13.990  1.00  0.00     0.051 A 
ATOM     15  C   UNL     1     -23.624 -15.186 -14.700  1.00  0.00     0.157 A 
ATOM     16  C   UNL     1     -25.240 -16.992 -14.829  1.00  0.00     0.062 A 
ATOM     17  C   UNL     1     -24.871 -15.675 -15.124  1.00  0.00     0.158 A 
BRANCH  15  18
ATOM     18  O   UNL     1     -23.252 -13.875 -14.989  1.00  0.00    -0.504 OA
ATOM     19  H   UNL     1     -22.945 -13.237 -14.263  1.00  0.00     0.293 HD
ENDBRANCH  15  18
BRANCH  17  20
ATOM     20  O   UNL     1     -25.756 -14.867 -15.839  1.00  0.00    -0.504 OA
ATOM     21  H   UNL     1     -26.371 -15.242 -16.552  1.00  0.00     0.293 HD
ENDBRANCH  17  20
ENDBRANCH   1  12
BRANCH   2  22
ATOM     22  O   UNL     1     -25.776 -18.624 -11.687  1.00  0.00    -0.502 OA
ATOM     23  H   UNL     1     -25.171 -17.840 -11.471  1.00  0.00     0.293 HD
ENDBRANCH   2  22
BRANCH   6  24
ATOM     24  O   UNL     1     -26.166 -23.918 -12.122  1.00  0.00    -0.507 OA
ATOM     25  H   UNL     1     -26.747 -23.467 -11.433  1.00  0.00     0.293 HD
ENDBRANCH   6  24
BRANCH   8  26
ATOM     26  O   UNL     1     -24.617 -24.507 -16.629  1.00  0.00    -0.508 OA
ATOM     27  H   UNL     1     -23.743 -24.461 -17.140  1.00  0.00     0.293 HD
ENDBRANCH   8  26
TORSDOF 6
ENDMDL
MODEL 5
REMARK VINA RESULT:    -6.090      1.033      1.233
REMARK INTER + INTRA:          -7.482
REMARK INTER:                  -7.560
REMARK INTRA:                   0.078
REMARK UNBOUND:                -0.146
REMARK SMILES O=c1c(O)c(-c2ccc(O)c(O)c2)oc2cc(O)cc(O)c12
REMARK SMILES IDX 5 1 3 2 2 3 1 4 22 5 20 6 19 7 17 8 16 9 15 10 14 11 6 12
REMARK SMILES IDX 7 13 8 14 9 15 13 16 11 17 10 18 12 20 4 22 21 24 18 26
REMARK H PARENT 10 19 12 21 4 23 21 25 18 27
REMARK Flexibility Score: inf
ROOT
ATOM      1  C   UNL     1     -24.487 -20.179 -14.062  1.00  0.00     0.180 A 
ATOM      2  C   UNL     1     -23.730 -20.689 -12.994  1.00  0.00     0.208 A 
ATOM      3  C   UNL     1     -23.717 -22.075 -12.767  1.00  0.00     0.238 A 
ATOM      4  O   UNL     1     -23.081 -22.520 -11.776  1.00  0.00    -0.285 OA
ATOM      5  C   UNL     1     -24.449 -22.935 -13.621  1.00  0.00     0.111 A 
ATOM      6  C   UNL     1     -24.475 -24.357 -13.510  1.00  0.00     0.134 A 
ATOM      7  C   UNL     1     -25.336 -25.099 -14.328  1.00  0.00     0.093 A 
ATOM      8  C   UNL     1     -26.123 -24.473 -15.299  1.00  0.00     0.123 A 
ATOM      9  C   UNL     1     -26.060 -23.091 -15.455  1.00  0.00     0.094 A 
ATOM     10  C   UNL     1     -25.237 -22.321 -14.629  1.00  0.00     0.146 A 
ATOM     11  O   UNL     1     -25.214 -21.006 -14.805  1.00  0.00    -0.452 OA
ENDROOT
BRANCH   1  12
ATOM     12  C   UNL     1     -24.530 -18.733 -14.378  1.00  0.00     0.025 A 
ATOM     13  C   UNL     1     -25.749 -18.067 -14.593  1.00  0.00     0.016 A 
ATOM     14  C   UNL     1     -25.766 -16.697 -14.866  1.00  0.00     0.051 A 
ATOM     15  C   UNL     1     -24.569 -15.970 -14.914  1.00  0.00     0.157 A 
ATOM     16  C   UNL     1     -23.335 -17.997 -14.407  1.00  0.00     0.062 A 
ATOM     17  C   UNL     1     -23.349 -16.624 -14.680  1.00  0.00     0.158 A 
BRANCH  15  18
ATOM     18  O   UNL     1     -24.590 -14.604 -15.188  1.00  0.00    -0.504 OA
ATOM     19  H   UNL     1     -24.462 -14.249 -16.129  1.00  0.00     0.293 HD
ENDBRANCH  15  18
BRANCH  17  20
ATOM     20  O   UNL     1     -22.140 -15.928 -14.714  1.00  0.00    -0.504 OA
ATOM     21  H   UNL     1     -21.938 -15.235 -15.424  1.00  0.00     0.293 HD
ENDBRANCH  17  20
ENDBRANCH   1  12
BRANCH   2  22
ATOM     22  O   UNL     1     -23.033 -19.821 -12.149  1.00  0.00    -0.502 OA
ATOM     23  H   UNL     1     -22.028 -19.699 -12.201  1.00  0.00     0.293 HD
ENDBRANCH   2  22
BRANCH   6  24
ATOM     24  O   UNL     1     -23.661 -25.087 -12.637  1.00  0.00    -0.507 OA
ATOM     25  H   UNL     1     -23.853 -25.230 -11.658  1.00  0.00     0.293 HD
ENDBRANCH   6  24
BRANCH   8  26
ATOM     26  O   UNL     1     -26.965 -25.220 -16.119  1.00  0.00    -0.508 OA
ATOM     27  H   UNL     1     -26.733 -26.167 -16.396  1.00  0.00     0.293 HD
ENDBRANCH   8  26
TORSDOF 6
ENDMDL
MODEL 6
REMARK VINA RESULT:    -5.880      1.536      6.888
REMARK INTER + INTRA:          -7.229
REMARK INTER:                  -7.005
REMARK INTRA:                  -0.225
REMARK UNBOUND:                -0.146
REMARK SMILES O=c1c(O)c(-c2ccc(O)c(O)c2)oc2cc(O)cc(O)c12
REMARK SMILES IDX 5 1 3 2 2 3 1 4 22 5 20 6 19 7 17 8 16 9 15 10 14 11 6 12
REMARK SMILES IDX 7 13 8 14 9 15 13 16 11 17 10 18 12 20 4 22 21 24 18 26
REMARK H PARENT 10 19 12 21 4 23 21 25 18 27
REMARK Flexibility Score: inf
ROOT
ATOM      1  C   UNL     1     -23.969 -19.116 -14.203  1.00  0.00     0.180 A 
ATOM      2  C   UNL     1     -22.621 -18.723 -14.138  1.00  0.00     0.208 A 
ATOM      3  C   UNL     1     -22.296 -17.368 -14.313  1.00  0.00     0.238 A 
ATOM      4  O   UNL     1     -21.082 -17.032 -14.308  1.00  0.00    -0.285 OA
ATOM      5  C   UNL     1     -23.324 -16.421 -14.535  1.00  0.00     0.111 A 
ATOM      6  C   UNL     1     -23.113 -15.018 -14.685  1.00  0.00     0.134 A 
ATOM      7  C   UNL     1     -24.189 -14.190 -15.031  1.00  0.00     0.093 A 
ATOM      8  C   UNL     1     -25.481 -14.708 -15.166  1.00  0.00     0.123 A 
ATOM      9  C   UNL     1     -25.706 -16.067 -14.963  1.00  0.00     0.094 A 
ATOM     10  C   UNL     1     -24.645 -16.923 -14.653  1.00  0.00     0.146 A 
ATOM     11  O   UNL     1     -24.903 -18.213 -14.478  1.00  0.00    -0.452 OA
ENDROOT
BRANCH   1  12
ATOM     12  C   UNL     1     -24.391 -20.521 -14.004  1.00  0.00     0.025 A 
ATOM     13  C   UNL     1     -24.278 -21.149 -12.752  1.00  0.00     0.016 A 
ATOM     14  C   UNL     1     -24.706 -22.468 -12.582  1.00  0.00     0.051 A 
ATOM     15  C   UNL     1     -25.264 -23.175 -13.655  1.00  0.00     0.157 A 
ATOM     16  C   UNL     1     -24.971 -21.227 -15.072  1.00  0.00     0.062 A 
ATOM     17  C   UNL     1     -25.400 -22.548 -14.904  1.00  0.00     0.158 A 
BRANCH  15  18
ATOM     18  O   UNL     1     -25.688 -24.491 -13.482  1.00  0.00    -0.504 OA
ATOM     19  H   UNL     1     -26.297 -24.945 -14.154  1.00  0.00     0.293 HD
ENDBRANCH  15  18
BRANCH  17  20
ATOM     20  O   UNL     1     -25.959 -23.222 -15.991  1.00  0.00    -0.504 OA
ATOM     21  H   UNL     1     -25.431 -23.415 -16.833  1.00  0.00     0.293 HD
ENDBRANCH  17  20
ENDBRANCH   1  12
BRANCH   2  22
ATOM     22  O   UNL     1     -21.619 -19.679 -13.941  1.00  0.00    -0.502 OA
ATOM     23  H   UNL     1     -21.816 -20.610 -13.591  1.00  0.00     0.293 HD
ENDBRANCH   2  22
BRANCH   6  24
ATOM     24  O   UNL     1     -21.882 -14.386 -14.481  1.00  0.00    -0.507 OA
ATOM     25  H   UNL     1     -21.765 -13.483 -14.049  1.00  0.00     0.293 HD
ENDBRANCH   6  24
BRANCH   8  26
ATOM     26  O   UNL     1     -26.548 -13.876 -15.494  1.00  0.00    -0.508 OA
ATOM     27  H   UNL     1     -26.525 -13.283 -16.316  1.00  0.00     0.293 HD
ENDBRANCH   8  26
TORSDOF 6
ENDMDL
MODEL 7
REMARK VINA RESULT:    -5.316      2.095      2.437
REMARK INTER + INTRA:          -6.550
REMARK INTER:                  -6.329
REMARK INTRA:                  -0.222
REMARK UNBOUND:                -0.146
REMARK SMILES O=c1c(O)c(-c2ccc(O)c(O)c2)oc2cc(O)cc(O)c12
REMARK SMILES IDX 5 1 3 2 2 3 1 4 22 5 20 6 19 7 17 8 16 9 15 10 14 11 6 12
REMARK SMILES IDX 7 13 8 14 9 15 13 16 11 17 10 18 12 20 4 22 21 24 18 26
REMARK H PARENT 10 19 12 21 4 23 21 25 18 27
REMARK Flexibility Score: inf
ROOT
ATOM      1  C   UNL     1     -23.913 -19.459 -13.581  1.00  0.00     0.180 A 
ATOM      2  C   UNL     1     -22.884 -20.379 -13.844  1.00  0.00     0.208 A 
ATOM      3  C   UNL     1     -23.134 -21.750 -13.669  1.00  0.00     0.238 A 
ATOM      4  O   UNL     1     -22.192 -22.564 -13.855  1.00  0.00    -0.285 OA
ATOM      5  C   UNL     1     -24.414 -22.184 -13.250  1.00  0.00     0.111 A 
ATOM      6  C   UNL     1     -24.791 -23.550 -13.081  1.00  0.00     0.134 A 
ATOM      7  C   UNL     1     -26.043 -23.860 -12.537  1.00  0.00     0.093 A 
ATOM      8  C   UNL     1     -26.958 -22.852 -12.218  1.00  0.00     0.123 A 
ATOM      9  C   UNL     1     -26.622 -21.519 -12.436  1.00  0.00     0.094 A 
ATOM     10  C   UNL     1     -25.366 -21.178 -12.944  1.00  0.00     0.146 A 
ATOM     11  O   UNL     1     -25.083 -19.894 -13.126  1.00  0.00    -0.452 OA
ENDROOT
BRANCH   1  12
ATOM     12  C   UNL     1     -23.733 -18.001 -13.765  1.00  0.00     0.025 A 
ATOM     13  C   UNL     1     -23.630 -17.132 -12.665  1.00  0.00     0.016 A 
ATOM     14  C   UNL     1     -23.436 -15.762 -12.863  1.00  0.00     0.051 A 
ATOM     15  C   UNL     1     -23.327 -15.243 -14.160  1.00  0.00     0.157 A 
ATOM     16  C   UNL     1     -23.602 -17.479 -15.063  1.00  0.00     0.062 A 
ATOM     17  C   UNL     1     -23.408 -16.108 -15.264  1.00  0.00     0.158 A 
BRANCH  15  18
ATOM     18  O   UNL     1     -23.135 -13.877 -14.354  1.00  0.00    -0.504 OA
ATOM     19  H   UNL     1     -22.717 -13.514 -15.205  1.00  0.00     0.293 HD
ENDBRANCH  15  18
BRANCH  17  20
ATOM     20  O   UNL     1     -23.296 -15.624 -16.568  1.00  0.00    -0.504 OA
ATOM     21  H   UNL     1     -22.545 -15.006 -16.850  1.00  0.00     0.293 HD
ENDBRANCH  17  20
ENDBRANCH   1  12
BRANCH   2  22
ATOM     22  O   UNL     1     -21.620 -19.927 -14.235  1.00  0.00    -0.502 OA
ATOM     23  H   UNL     1     -21.027 -20.449 -14.868  1.00  0.00     0.293 HD
ENDBRANCH   2  22
BRANCH   6  24
ATOM     24  O   UNL     1     -23.988 -24.634 -13.453  1.00  0.00    -0.507 OA
ATOM     25  H   UNL     1     -22.980 -24.626 -13.459  1.00  0.00     0.293 HD
ENDBRANCH   6  24
BRANCH   8  26
ATOM     26  O   UNL     1     -28.208 -23.169 -11.693  1.00  0.00    -0.508 OA
ATOM     27  H   UNL     1     -28.927 -23.603 -12.260  1.00  0.00     0.293 HD
ENDBRANCH   8  26
TORSDOF 6
ENDMDL
MODEL 8
REMARK VINA RESULT:    -5.271      2.767      3.604
REMARK INTER + INTRA:          -6.496
REMARK INTER:                  -6.331
REMARK INTRA:                  -0.165
REMARK UNBOUND:                -0.146
REMARK SMILES O=c1c(O)c(-c2ccc(O)c(O)c2)oc2cc(O)cc(O)c12
REMARK SMILES IDX 5 1 3 2 2 3 1 4 22 5 20 6 19 7 17 8 16 9 15 10 14 11 6 12
REMARK SMILES IDX 7 13 8 14 9 15 13 16 11 17 10 18 12 20 4 22 21 24 18 26
REMARK H PARENT 10 19 12 21 4 23 21 25 18 27
REMARK Flexibility Score: inf
ROOT
ATOM      1  C   UNL     1     -24.756 -18.679 -13.271  1.00  0.00     0.180 A 
ATOM      2  C   UNL     1     -24.327 -19.932 -13.742  1.00  0.00     0.208 A 
ATOM      3  C   UNL     1     -24.997 -21.089 -13.311  1.00  0.00     0.238 A 
ATOM      4  O   UNL     1     -24.574 -22.210 -13.696  1.00  0.00    -0.285 OA
ATOM      5  C   UNL     1     -26.097 -20.976 -12.427  1.00  0.00     0.111 A 
ATOM      6  C   UNL     1     -26.874 -22.078 -11.958  1.00  0.00     0.134 A 
ATOM      7  C   UNL     1     -27.857 -21.864 -10.984  1.00  0.00     0.093 A 
ATOM      8  C   UNL     1     -28.135 -20.579 -10.511  1.00  0.00     0.123 A 
ATOM      9  C   UNL     1     -27.422 -19.490 -11.007  1.00  0.00     0.094 A 
ATOM     10  C   UNL     1     -26.411 -19.677 -11.953  1.00  0.00     0.146 A 
ATOM     11  O   UNL     1     -25.748 -18.613 -12.391  1.00  0.00    -0.452 OA
ENDROOT
BRANCH   1  12
ATOM     12  C   UNL     1     -24.115 -17.415 -13.699  1.00  0.00     0.025 A 
ATOM     13  C   UNL     1     -23.387 -16.621 -12.796  1.00  0.00     0.016 A 
ATOM     14  C   UNL     1     -22.771 -15.444 -13.229  1.00  0.00     0.051 A 
ATOM     15  C   UNL     1     -22.860 -15.050 -14.571  1.00  0.00     0.157 A 
ATOM     16  C   UNL     1     -24.185 -17.027 -15.047  1.00  0.00     0.062 A 
ATOM     17  C   UNL     1     -23.569 -15.849 -15.483  1.00  0.00     0.158 A 
BRANCH  15  18
ATOM     18  O   UNL     1     -22.246 -13.875 -14.999  1.00  0.00    -0.504 OA
ATOM     19  H   UNL     1     -21.943 -13.753 -15.959  1.00  0.00     0.293 HD
ENDBRANCH  15  18
BRANCH  17  20
ATOM     20  O   UNL     1     -23.671 -15.488 -16.828  1.00  0.00    -0.504 OA
ATOM     21  H   UNL     1     -22.976 -15.762 -17.512  1.00  0.00     0.293 HD
ENDBRANCH  17  20
ENDBRANCH   1  12
BRANCH   2  22
ATOM     22  O   UNL     1     -23.225 -20.021 -14.598  1.00  0.00    -0.502 OA
ATOM     23  H   UNL     1     -23.044 -20.838 -15.169  1.00  0.00     0.293 HD
ENDBRANCH   2  22
BRANCH   6  24
ATOM     24  O   UNL     1     -26.741 -23.387 -12.433  1.00  0.00    -0.507 OA
ATOM     25  H   UNL     1     -27.310 -24.165 -12.138  1.00  0.00     0.293 HD
ENDBRANCH   6  24
BRANCH   8  26
ATOM     26  O   UNL     1     -29.125 -20.373  -9.553  1.00  0.00    -0.508 OA
ATOM     27  H   UNL     1     -29.933 -20.981  -9.487  1.00  0.00     0.293 HD
ENDBRANCH   8  26
TORSDOF 6
ENDMDL
MODEL 9
REMARK VINA RESULT:    -3.794      3.121      6.899
REMARK INTER + INTRA:          -4.717
REMARK INTER:                  -4.716
REMARK INTRA:                  -0.001
REMARK UNBOUND:                -0.146
REMARK SMILES O=c1c(O)c(-c2ccc(O)c(O)c2)oc2cc(O)cc(O)c12
REMARK SMILES IDX 5 1 3 2 2 3 1 4 22 5 20 6 19 7 17 8 16 9 15 10 14 11 6 12
REMARK SMILES IDX 7 13 8 14 9 15 13 16 11 17 10 18 12 20 4 22 21 24 18 26
REMARK H PARENT 10 19 12 21 4 23 21 25 18 27
REMARK Flexibility Score: inf
ROOT
ATOM      1  C   UNL     1     -24.828 -21.799 -13.085  1.00  0.00     0.180 A 
ATOM      2  C   UNL     1     -23.964 -20.693 -13.158  1.00  0.00     0.208 A 
ATOM      3  C   UNL     1     -24.277 -19.533 -12.430  1.00  0.00     0.238 A 
ATOM      4  O   UNL     1     -23.527 -18.528 -12.543  1.00  0.00    -0.285 OA
ATOM      5  C   UNL     1     -25.441 -19.501 -11.625  1.00  0.00     0.111 A 
ATOM      6  C   UNL     1     -25.833 -18.394 -10.814  1.00  0.00     0.134 A 
ATOM      7  C   UNL     1     -27.072 -18.421 -10.160  1.00  0.00     0.093 A 
ATOM      8  C   UNL     1     -27.902 -19.543 -10.237  1.00  0.00     0.123 A 
ATOM      9  C   UNL     1     -27.499 -20.652 -10.978  1.00  0.00     0.094 A 
ATOM     10  C   UNL     1     -26.286 -20.639 -11.670  1.00  0.00     0.146 A 
ATOM     11  O   UNL     1     -25.946 -21.713 -12.373  1.00  0.00    -0.452 OA
ENDROOT
BRANCH   1  12
ATOM     12  C   UNL     1     -24.553 -23.063 -13.805  1.00  0.00     0.025 A 
ATOM     13  C   UNL     1     -23.292 -23.680 -13.742  1.00  0.00     0.016 A 
ATOM     14  C   UNL     1     -23.062 -24.886 -14.410  1.00  0.00     0.051 A 
ATOM     15  C   UNL     1     -24.091 -25.500 -15.136  1.00  0.00     0.157 A 
ATOM     16  C   UNL     1     -25.587 -23.693 -14.517  1.00  0.00     0.062 A 
ATOM     17  C   UNL     1     -25.360 -24.900 -15.186  1.00  0.00     0.158 A 
BRANCH  15  18
ATOM     18  O   UNL     1     -23.858 -26.702 -15.802  1.00  0.00    -0.504 OA
ATOM     19  H   UNL     1     -24.137 -26.837 -16.768  1.00  0.00     0.293 HD
ENDBRANCH  15  18
BRANCH  17  20
ATOM     20  O   UNL     1     -26.408 -25.490 -15.895  1.00  0.00    -0.504 OA
ATOM     21  H   UNL     1     -27.142 -26.012 -15.434  1.00  0.00     0.293 HD
ENDBRANCH  17  20
ENDBRANCH   1  12
BRANCH   2  22
ATOM     22  O   UNL     1     -22.832 -20.739 -13.977  1.00  0.00    -0.502 OA
ATOM     23  H   UNL     1     -22.794 -20.283 -14.881  1.00  0.00     0.293 HD
ENDBRANCH   2  22
BRANCH   6  24
ATOM     24  O   UNL     1     -25.038 -17.264 -10.596  1.00  0.00    -0.507 OA
ATOM     25  H   UNL     1     -24.032 -17.249 -10.660  1.00  0.00     0.293 HD
ENDBRANCH   6  24
BRANCH   8  26
ATOM     26  O   UNL     1     -29.124 -19.569  -9.571  1.00  0.00    -0.508 OA
ATOM     27  H   UNL     1     -29.484 -20.420  -9.156  1.00  0.00     0.293 HD
ENDBRANCH   8  26
TORSDOF 6
ENDMDL
