MODEL 1
REMARK VINA RESULT:    -2.658      0.000      0.000
REMARK INTER + INTRA:          -2.658
REMARK INTER:                  -2.658
REMARK INTRA:                   0.000
REMARK UNBOUND:                 0.000
REMARK SMILES CC(=O)[O-]
REMARK SMILES IDX 1 1 2 2 3 3 4 4
REMARK H PARENT
REMARK Flexibility Score: inf
ROOT
ATOM      1  C   UNL     1     160.451 146.502 155.094  1.00  0.00     0.063 C 
ATOM      2  C   UNL     1     160.506 147.990 155.175  1.00  0.00     0.038 C 
ATOM      3  O   UNL     1     159.662 148.687 154.554  1.00  0.00    -0.550 OA
ATOM      4  O   UNL     1     161.454 148.608 155.979  1.00  0.00    -0.550 OA
ENDROOT
TORSDOF 0
ENDMDL
MODEL 2
REMARK VINA RESULT:    -2.569      1.453      1.788
REMARK INTER + INTRA:          -2.569
REMARK INTER:                  -2.569
REMARK INTRA:                   0.000
REMARK UNBOUND:                 0.000
REMARK SMILES CC(=O)[O-]
REMARK SMILES IDX 1 1 2 2 3 3 4 4
REMARK H PARENT
REMARK Flexibility Score: inf
ROOT
ATOM      1  C   UNL     1     161.365 148.388 155.836  1.00  0.00     0.063 C 
ATOM      2  C   UNL     1     160.269 147.848 154.980  1.00  0.00     0.038 C 
ATOM      3  O   UNL     1     159.470 148.635 154.408  1.00  0.00    -0.550 OA
ATOM      4  O   UNL     1     160.162 146.480 154.768  1.00  0.00    -0.550 OA
ENDROOT
TORSDOF 0
ENDMDL
MODEL 3
REMARK VINA RESULT:    -2.450     11.955     12.608
REMARK INTER + INTRA:          -2.450
REMARK INTER:                  -2.450
REMARK INTRA:                   0.000
REMARK UNBOUND:                 0.000
REMARK SMILES CC(=O)[O-]
REMARK SMILES IDX 1 1 2 2 3 3 4 4
REMARK H PARENT
REMARK Flexibility Score: inf
ROOT
ATOM      1  C   UNL     1     154.878 155.892 145.518  1.00  0.00     0.063 C 
ATOM      2  C   UNL     1     156.064 155.252 146.156  1.00  0.00     0.038 C 
ATOM      3  O   UNL     1     157.225 155.551 145.773  1.00  0.00    -0.550 OA
ATOM      4  O   UNL     1     155.892 154.366 147.212  1.00  0.00    -0.550 OA
ENDROOT
TORSDOF 0
ENDMDL
MODEL 4
REMARK VINA RESULT:    -2.415     12.156     12.812
REMARK INTER + INTRA:          -2.415
REMARK INTER:                  -2.415
REMARK INTRA:                   0.000
REMARK UNBOUND:                 0.000
REMARK SMILES CC(=O)[O-]
REMARK SMILES IDX 1 1 2 2 3 3 4 4
REMARK H PARENT
REMARK Flexibility Score: inf
ROOT
ATOM      1  C   UNL     1     155.684 154.647 147.253  1.00  0.00     0.063 C 
ATOM      2  C   UNL     1     155.943 155.474 146.039  1.00  0.00     0.038 C 
ATOM      3  O   UNL     1     157.094 155.505 145.531  1.00  0.00    -0.550 OA
ATOM      4  O   UNL     1     154.904 156.168 145.435  1.00  0.00    -0.550 OA
ENDROOT
TORSDOF 0
ENDMDL
MODEL 5
REMARK VINA RESULT:    -2.385     24.084     24.711
REMARK INTER + INTRA:          -2.385
REMARK INTER:                  -2.385
REMARK INTRA:                   0.000
REMARK UNBOUND:                 0.000
REMARK SMILES CC(=O)[O-]
REMARK SMILES IDX 1 1 2 2 3 3 4 4
REMARK H PARENT
REMARK Flexibility Score: inf
ROOT
ATOM      1  C   UNL     1     150.863 163.717 138.048  1.00  0.00     0.063 C 
ATOM      2  C   UNL     1     151.839 162.700 137.559  1.00  0.00     0.038 C 
ATOM      3  O   UNL     1     151.913 161.576 138.121  1.00  0.00    -0.550 OA
ATOM      4  O   UNL     1     152.628 162.971 136.450  1.00  0.00    -0.550 OA
ENDROOT
TORSDOF 0
ENDMDL
MODEL 6
REMARK VINA RESULT:    -2.383      1.526      2.014
REMARK INTER + INTRA:          -2.383
REMARK INTER:                  -2.383
REMARK INTRA:                   0.000
REMARK UNBOUND:                 0.000
REMARK SMILES CC(=O)[O-]
REMARK SMILES IDX 1 1 2 2 3 3 4 4
REMARK H PARENT
REMARK Flexibility Score: inf
ROOT
ATOM      1  C   UNL     1     159.377 148.374 154.387  1.00  0.00     0.063 C 
ATOM      2  C   UNL     1     160.540 147.682 155.013  1.00  0.00     0.038 C 
ATOM      3  O   UNL     1     161.583 148.328 155.293  1.00  0.00    -0.550 OA
ATOM      4  O   UNL     1     160.455 146.335 155.339  1.00  0.00    -0.550 OA
ENDROOT
TORSDOF 0
ENDMDL
MODEL 7
REMARK VINA RESULT:    -2.200      3.286      3.576
REMARK INTER + INTRA:          -2.200
REMARK INTER:                  -2.200
REMARK INTRA:                   0.000
REMARK UNBOUND:                 0.000
REMARK SMILES CC(=O)[O-]
REMARK SMILES IDX 1 1 2 2 3 3 4 4
REMARK H PARENT
REMARK Flexibility Score: inf
ROOT
ATOM      1  C   UNL     1     160.168 146.070 154.593  1.00  0.00     0.063 C 
ATOM      2  C   UNL     1     159.517 145.557 153.353  1.00  0.00     0.038 C 
ATOM      3  O   UNL     1     158.291 145.759 153.153  1.00  0.00    -0.550 OA
ATOM      4  O   UNL     1     160.274 144.903 152.390  1.00  0.00    -0.550 OA
ENDROOT
TORSDOF 0
ENDMDL
MODEL 8
REMARK VINA RESULT:    -2.162      5.427      5.976
REMARK INTER + INTRA:          -2.162
REMARK INTER:                  -2.162
REMARK INTRA:                   0.000
REMARK UNBOUND:                 0.000
REMARK SMILES CC(=O)[O-]
REMARK SMILES IDX 1 1 2 2 3 3 4 4
REMARK H PARENT
REMARK Flexibility Score: inf
ROOT
ATOM      1  C   UNL     1     157.391 144.989 149.741  1.00  0.00     0.063 C 
ATOM      2  C   UNL     1     158.550 145.757 150.280  1.00  0.00     0.038 C 
ATOM      3  O   UNL     1     158.595 146.058 151.501  1.00  0.00    -0.550 OA
ATOM      4  O   UNL     1     159.609 146.096 149.448  1.00  0.00    -0.550 OA
ENDROOT
TORSDOF 0
ENDMDL
MODEL 9
REMARK VINA RESULT:    -2.140      4.142      4.591
REMARK INTER + INTRA:          -2.140
REMARK INTER:                  -2.140
REMARK INTRA:                   0.000
REMARK UNBOUND:                 0.000
REMARK SMILES CC(=O)[O-]
REMARK SMILES IDX 1 1 2 2 3 3 4 4
REMARK H PARENT
REMARK Flexibility Score: inf
ROOT
ATOM      1  C   UNL     1     158.284 145.809 150.693  1.00  0.00     0.063 C 
ATOM      2  C   UNL     1     158.829 145.595 152.064  1.00  0.00     0.038 C 
ATOM      3  O   UNL     1     158.221 146.057 153.064  1.00  0.00    -0.550 OA
ATOM      4  O   UNL     1     159.980 144.839 152.245  1.00  0.00    -0.550 OA
ENDROOT
TORSDOF 0
ENDMDL
