MODEL 1
REMARK VINA RESULT:    -5.504      0.000      0.000
REMARK INTER + INTRA:          -9.478
REMARK INTER:                  -7.917
REMARK INTRA:                  -1.561
REMARK UNBOUND:                -1.561
REMARK SMILES CC(C)=CCCC(C)=CCCC(C)=CCO
REMARK SMILES IDX 10 1 9 2 7 3 8 4 6 5 5 6 4 7 1 8 2 9 3 10 11 11 12 12 14 13
REMARK SMILES IDX 13 14 15 15 16 16
REMARK H PARENT 16 17
REMARK Flexibility Score: inf
ROOT
ATOM      1  C   UNL     1      10.272  43.111  13.843  1.00  0.00     0.032 C 
ENDROOT
BRANCH   1   2
ATOM      2  C   UNL     1      11.442  42.235  14.223  1.00  0.00    -0.028 C 
ATOM      3  C   UNL     1      12.607  42.661  14.764  1.00  0.00    -0.077 C 
ATOM      4  C   UNL     1      13.633  41.619  15.135  1.00  0.00     0.039 C 
BRANCH   3   5
ATOM      5  C   UNL     1      12.938  44.126  14.998  1.00  0.00     0.034 C 
BRANCH   5   6
ATOM      6  C   UNL     1      12.096  44.773  16.110  1.00  0.00     0.032 C 
BRANCH   6   7
ATOM      7  C   UNL     1      12.258  44.086  17.448  1.00  0.00    -0.028 C 
ATOM      8  C   UNL     1      11.601  42.805  19.436  1.00  0.00     0.039 C 
ATOM      9  C   UNL     1      11.278  43.422  18.100  1.00  0.00    -0.080 C 
ATOM     10  C   UNL     1       9.891  43.262  17.524  1.00  0.00     0.039 C 
ENDBRANCH   6   7
ENDBRANCH   5   6
ENDBRANCH   3   5
ENDBRANCH   1   2
BRANCH   1  11
ATOM     11  C   UNL     1      10.364  43.561  12.377  1.00  0.00     0.034 C 
BRANCH  11  12
ATOM     12  C   UNL     1      10.952  44.955  12.244  1.00  0.00    -0.075 C 
ATOM     13  C   UNL     1      12.075  45.221  11.537  1.00  0.00    -0.000 C 
ATOM     14  C   UNL     1      10.281  46.091  12.969  1.00  0.00     0.039 C 
BRANCH  13  15
ATOM     15  C   UNL     1      12.863  44.198  10.760  1.00  0.00     0.183 C 
BRANCH  15  16
ATOM     16  O   UNL     1      12.411  44.129   9.435  1.00  0.00    -0.392 OA
ATOM     17  H   UNL     1      11.558  44.637   9.399  1.00  0.00     0.210 HD
ENDBRANCH  15  16
ENDBRANCH  13  15
ENDBRANCH  11  12
ENDBRANCH   1  11
TORSDOF 8
ENDMDL
MODEL 2
REMARK VINA RESULT:    -5.449     11.993     14.416
REMARK INTER + INTRA:          -9.399
REMARK INTER:                  -8.253
REMARK INTRA:                  -1.146
REMARK UNBOUND:                -1.561
REMARK SMILES CC(C)=CCCC(C)=CCCC(C)=CCO
REMARK SMILES IDX 10 1 9 2 7 3 8 4 6 5 5 6 4 7 1 8 2 9 3 10 11 11 12 12 14 13
REMARK SMILES IDX 13 14 15 15 16 16
REMARK H PARENT 16 17
REMARK Flexibility Score: inf
ROOT
ATOM      1  C   UNL     1      22.605  38.641  13.240  1.00  0.00     0.032 C 
ENDROOT
BRANCH   1   2
ATOM      2  C   UNL     1      24.055  38.403  13.587  1.00  0.00    -0.028 C 
ATOM      3  C   UNL     1      24.912  37.607  12.907  1.00  0.00    -0.077 C 
ATOM      4  C   UNL     1      26.344  37.551  13.377  1.00  0.00     0.039 C 
BRANCH   3   5
ATOM      5  C   UNL     1      24.503  36.758  11.714  1.00  0.00     0.034 C 
BRANCH   5   6
ATOM      6  C   UNL     1      23.964  35.372  12.105  1.00  0.00     0.032 C 
BRANCH   6   7
ATOM      7  C   UNL     1      25.059  34.391  12.457  1.00  0.00    -0.028 C 
ATOM      8  C   UNL     1      26.506  33.020  13.891  1.00  0.00     0.039 C 
ATOM      9  C   UNL     1      25.371  33.996  13.711  1.00  0.00    -0.080 C 
ATOM     10  C   UNL     1      24.610  34.481  14.922  1.00  0.00     0.039 C 
ENDBRANCH   6   7
ENDBRANCH   5   6
ENDBRANCH   3   5
ENDBRANCH   1   2
BRANCH   1  11
ATOM     11  C   UNL     1      22.153  40.047  13.661  1.00  0.00     0.034 C 
BRANCH  11  12
ATOM     12  C   UNL     1      22.475  41.091  12.605  1.00  0.00    -0.075 C 
ATOM     13  C   UNL     1      23.331  42.117  12.815  1.00  0.00    -0.000 C 
ATOM     14  C   UNL     1      21.775  41.007  11.274  1.00  0.00     0.039 C 
BRANCH  13  15
ATOM     15  C   UNL     1      24.106  42.343  14.088  1.00  0.00     0.183 C 
BRANCH  15  16
ATOM     16  O   UNL     1      25.485  42.273  13.845  1.00  0.00    -0.392 OA
ATOM     17  H   UNL     1      25.922  42.126  14.725  1.00  0.00     0.210 HD
ENDBRANCH  15  16
ENDBRANCH  13  15
ENDBRANCH  11  12
ENDBRANCH   1  11
TORSDOF 8
ENDMDL
MODEL 3
REMARK VINA RESULT:    -5.059     12.090     14.578
REMARK INTER + INTRA:          -8.838
REMARK INTER:                  -8.158
REMARK INTRA:                  -0.680
REMARK UNBOUND:                -1.561
REMARK SMILES CC(C)=CCCC(C)=CCCC(C)=CCO
REMARK SMILES IDX 10 1 9 2 7 3 8 4 6 5 5 6 4 7 1 8 2 9 3 10 11 11 12 12 14 13
REMARK SMILES IDX 13 14 15 15 16 16
REMARK H PARENT 16 17
REMARK Flexibility Score: inf
ROOT
ATOM      1  C   UNL     1      22.917  39.325  12.894  1.00  0.00     0.032 C 
ENDROOT
BRANCH   1   2
ATOM      2  C   UNL     1      22.620  40.429  13.881  1.00  0.00    -0.028 C 
ATOM      3  C   UNL     1      22.979  41.727  13.750  1.00  0.00    -0.077 C 
ATOM      4  C   UNL     1      22.531  42.693  14.818  1.00  0.00     0.039 C 
BRANCH   3   5
ATOM      5  C   UNL     1      23.821  42.253  12.598  1.00  0.00     0.034 C 
BRANCH   5   6
ATOM      6  C   UNL     1      24.754  43.408  13.000  1.00  0.00     0.032 C 
BRANCH   6   7
ATOM      7  C   UNL     1      26.114  43.322  12.347  1.00  0.00    -0.028 C 
ATOM      8  C   UNL     1      28.523  42.885  12.166  1.00  0.00     0.039 C 
ATOM      9  C   UNL     1      27.241  42.893  12.957  1.00  0.00    -0.080 C 
ATOM     10  C   UNL     1      27.247  42.405  14.386  1.00  0.00     0.039 C 
ENDBRANCH   6   7
ENDBRANCH   5   6
ENDBRANCH   3   5
ENDBRANCH   1   2
BRANCH   1  11
ATOM     11  C   UNL     1      22.996  37.959  13.591  1.00  0.00     0.034 C 
BRANCH  11  12
ATOM     12  C   UNL     1      24.060  37.065  12.977  1.00  0.00    -0.075 C 
ATOM     13  C   UNL     1      24.620  36.022  13.633  1.00  0.00    -0.000 C 
ATOM     14  C   UNL     1      24.550  37.380  11.588  1.00  0.00     0.039 C 
BRANCH  13  15
ATOM     15  C   UNL     1      24.243  35.580  15.024  1.00  0.00     0.183 C 
BRANCH  15  16
ATOM     16  O   UNL     1      24.576  34.233  15.221  1.00  0.00    -0.392 OA
ATOM     17  H   UNL     1      24.535  34.070  16.200  1.00  0.00     0.210 HD
ENDBRANCH  15  16
ENDBRANCH  13  15
ENDBRANCH  11  12
ENDBRANCH   1  11
TORSDOF 8
ENDMDL
MODEL 4
REMARK VINA RESULT:    -4.742      3.022      5.722
REMARK INTER + INTRA:          -8.382
REMARK INTER:                  -7.384
REMARK INTRA:                  -0.998
REMARK UNBOUND:                -1.561
REMARK SMILES CC(C)=CCCC(C)=CCCC(C)=CCO
REMARK SMILES IDX 10 1 9 2 7 3 8 4 6 5 5 6 4 7 1 8 2 9 3 10 11 11 12 12 14 13
REMARK SMILES IDX 13 14 15 15 16 16
REMARK H PARENT 16 17
REMARK Flexibility Score: inf
ROOT
ATOM      1  C   UNL     1      13.120  43.724  16.052  1.00  0.00     0.032 C 
ENDROOT
BRANCH   1   2
ATOM      2  C   UNL     1      13.090  42.349  15.430  1.00  0.00    -0.028 C 
ATOM      3  C   UNL     1      11.984  41.698  15.001  1.00  0.00    -0.077 C 
ATOM      4  C   UNL     1      12.169  40.352  14.345  1.00  0.00     0.039 C 
BRANCH   3   5
ATOM      5  C   UNL     1      10.573  42.242  15.162  1.00  0.00     0.034 C 
BRANCH   5   6
ATOM      6  C   UNL     1      10.154  43.197  14.032  1.00  0.00     0.032 C 
BRANCH   6   7
ATOM      7  C   UNL     1      11.251  43.430  13.018  1.00  0.00    -0.028 C 
ATOM      8  C   UNL     1      12.623  44.664  11.399  1.00  0.00     0.039 C 
ATOM      9  C   UNL     1      11.497  44.606  12.399  1.00  0.00    -0.080 C 
ATOM     10  C   UNL     1      10.700  45.854  12.695  1.00  0.00     0.039 C 
ENDBRANCH   6   7
ENDBRANCH   5   6
ENDBRANCH   3   5
ENDBRANCH   1   2
BRANCH   1  11
ATOM     11  C   UNL     1      12.433  43.730  17.426  1.00  0.00     0.034 C 
BRANCH  11  12
ATOM     12  C   UNL     1      11.219  44.644  17.453  1.00  0.00    -0.075 C 
ATOM     13  C   UNL     1      10.126  44.400  18.212  1.00  0.00    -0.000 C 
ATOM     14  C   UNL     1      11.211  45.856  16.559  1.00  0.00     0.039 C 
BRANCH  13  15
ATOM     15  C   UNL     1       9.977  43.234  19.154  1.00  0.00     0.183 C 
BRANCH  15  16
ATOM     16  O   UNL     1      10.306  43.611  20.463  1.00  0.00    -0.392 OA
ATOM     17  H   UNL     1      11.268  43.400  20.587  1.00  0.00     0.210 HD
ENDBRANCH  15  16
ENDBRANCH  13  15
ENDBRANCH  11  12
ENDBRANCH   1  11
TORSDOF 8
ENDMDL
MODEL 5
REMARK VINA RESULT:    -4.715      3.617      6.553
REMARK INTER + INTRA:          -8.344
REMARK INTER:                  -7.385
REMARK INTRA:                  -0.959
REMARK UNBOUND:                -1.561
REMARK SMILES CC(C)=CCCC(C)=CCCC(C)=CCO
REMARK SMILES IDX 10 1 9 2 7 3 8 4 6 5 5 6 4 7 1 8 2 9 3 10 11 11 12 12 14 13
REMARK SMILES IDX 13 14 15 15 16 16
REMARK H PARENT 16 17
REMARK Flexibility Score: inf
ROOT
ATOM      1  C   UNL     1      13.839  42.671  15.792  1.00  0.00     0.032 C 
ENDROOT
BRANCH   1   2
ATOM      2  C   UNL     1      12.560  42.826  16.579  1.00  0.00    -0.028 C 
ATOM      3  C   UNL     1      11.312  42.569  16.121  1.00  0.00    -0.077 C 
ATOM      4  C   UNL     1      10.163  42.723  17.085  1.00  0.00     0.039 C 
BRANCH   3   5
ATOM      5  C   UNL     1      11.012  42.152  14.690  1.00  0.00     0.034 C 
BRANCH   5   6
ATOM      6  C   UNL     1      10.310  43.248  13.869  1.00  0.00     0.032 C 
BRANCH   6   7
ATOM      7  C   UNL     1      11.001  43.535  12.556  1.00  0.00    -0.028 C 
ATOM      8  C   UNL     1      12.546  44.634  10.996  1.00  0.00     0.039 C 
ATOM      9  C   UNL     1      11.970  44.461  12.377  1.00  0.00    -0.080 C 
ATOM     10  C   UNL     1      12.502  45.300  13.515  1.00  0.00     0.039 C 
ENDBRANCH   6   7
ENDBRANCH   5   6
ENDBRANCH   3   5
ENDBRANCH   1   2
BRANCH   1  11
ATOM     11  C   UNL     1      15.043  42.456  16.721  1.00  0.00     0.034 C 
BRANCH  11  12
ATOM     12  C   UNL     1      15.890  41.269  16.292  1.00  0.00    -0.075 C 
ATOM     13  C   UNL     1      16.660  40.562  17.151  1.00  0.00    -0.000 C 
ATOM     14  C   UNL     1      15.911  40.889  14.836  1.00  0.00     0.039 C 
BRANCH  13  15
ATOM     15  C   UNL     1      16.752  40.816  18.633  1.00  0.00     0.183 C 
BRANCH  15  16
ATOM     16  O   UNL     1      17.865  40.163  19.179  1.00  0.00    -0.392 OA
ATOM     17  H   UNL     1      18.539  40.093  18.452  1.00  0.00     0.210 HD
ENDBRANCH  15  16
ENDBRANCH  13  15
ENDBRANCH  11  12
ENDBRANCH   1  11
TORSDOF 8
ENDMDL
MODEL 6
REMARK VINA RESULT:    -4.703     12.296     14.879
REMARK INTER + INTRA:          -8.326
REMARK INTER:                  -7.125
REMARK INTRA:                  -1.200
REMARK UNBOUND:                -1.561
REMARK SMILES CC(C)=CCCC(C)=CCCC(C)=CCO
REMARK SMILES IDX 10 1 9 2 7 3 8 4 6 5 5 6 4 7 1 8 2 9 3 10 11 11 12 12 14 13
REMARK SMILES IDX 13 14 15 15 16 16
REMARK H PARENT 16 17
REMARK Flexibility Score: inf
ROOT
ATOM      1  C   UNL     1      23.641  38.071  12.340  1.00  0.00     0.032 C 
ENDROOT
BRANCH   1   2
ATOM      2  C   UNL     1      25.063  37.769  12.747  1.00  0.00    -0.028 C 
ATOM      3  C   UNL     1      25.441  37.019  13.809  1.00  0.00    -0.077 C 
ATOM      4  C   UNL     1      26.916  36.779  14.013  1.00  0.00     0.039 C 
BRANCH   3   5
ATOM      5  C   UNL     1      24.461  36.426  14.810  1.00  0.00     0.034 C 
BRANCH   5   6
ATOM      6  C   UNL     1      24.463  34.889  14.830  1.00  0.00     0.032 C 
BRANCH   6   7
ATOM      7  C   UNL     1      24.380  34.281  13.448  1.00  0.00    -0.028 C 
ATOM      8  C   UNL     1      25.120  33.033  11.468  1.00  0.00     0.039 C 
ATOM      9  C   UNL     1      25.357  33.555  12.861  1.00  0.00    -0.080 C 
ATOM     10  C   UNL     1      26.657  33.238  13.562  1.00  0.00     0.039 C 
ENDBRANCH   6   7
ENDBRANCH   5   6
ENDBRANCH   3   5
ENDBRANCH   1   2
BRANCH   1  11
ATOM     11  C   UNL     1      23.409  39.583  12.204  1.00  0.00     0.034 C 
BRANCH  11  12
ATOM     12  C   UNL     1      22.641  40.151  13.385  1.00  0.00    -0.075 C 
ATOM     13  C   UNL     1      22.777  41.429  13.811  1.00  0.00    -0.000 C 
ATOM     14  C   UNL     1      21.718  39.239  14.150  1.00  0.00     0.039 C 
BRANCH  13  15
ATOM     15  C   UNL     1      23.659  42.463  13.159  1.00  0.00     0.183 C 
BRANCH  15  16
ATOM     16  O   UNL     1      24.958  42.405  13.681  1.00  0.00    -0.392 OA
ATOM     17  H   UNL     1      24.886  42.622  14.647  1.00  0.00     0.210 HD
ENDBRANCH  15  16
ENDBRANCH  13  15
ENDBRANCH  11  12
ENDBRANCH   1  11
TORSDOF 8
ENDMDL
MODEL 7
REMARK VINA RESULT:    -4.585      1.783      3.158
REMARK INTER + INTRA:          -8.156
REMARK INTER:                  -6.992
REMARK INTRA:                  -1.164
REMARK UNBOUND:                -1.561
REMARK SMILES CC(C)=CCCC(C)=CCCC(C)=CCO
REMARK SMILES IDX 10 1 9 2 7 3 8 4 6 5 5 6 4 7 1 8 2 9 3 10 11 11 12 12 14 13
REMARK SMILES IDX 13 14 15 15 16 16
REMARK H PARENT 16 17
REMARK Flexibility Score: inf
ROOT
ATOM      1  C   UNL     1      10.290  43.352  13.899  1.00  0.00     0.032 C 
ENDROOT
BRANCH   1   2
ATOM      2  C   UNL     1      10.325  43.395  15.408  1.00  0.00    -0.028 C 
ATOM      3  C   UNL     1      11.331  42.939  16.190  1.00  0.00    -0.077 C 
ATOM      4  C   UNL     1      11.207  43.132  17.681  1.00  0.00     0.039 C 
BRANCH   3   5
ATOM      5  C   UNL     1      12.563  42.231  15.647  1.00  0.00     0.034 C 
BRANCH   5   6
ATOM      6  C   UNL     1      13.858  43.043  15.815  1.00  0.00     0.032 C 
BRANCH   6   7
ATOM      7  C   UNL     1      14.827  42.415  16.790  1.00  0.00    -0.028 C 
ATOM      8  C   UNL     1      16.599  40.911  17.580  1.00  0.00     0.039 C 
ATOM      9  C   UNL     1      15.713  41.442  16.483  1.00  0.00    -0.080 C 
ATOM     10  C   UNL     1      15.855  40.895  15.083  1.00  0.00     0.039 C 
ENDBRANCH   6   7
ENDBRANCH   5   6
ENDBRANCH   3   5
ENDBRANCH   1   2
BRANCH   1  11
ATOM     11  C   UNL     1      10.397  44.761  13.298  1.00  0.00     0.034 C 
BRANCH  11  12
ATOM     12  C   UNL     1      11.840  45.171  13.056  1.00  0.00    -0.075 C 
ATOM     13  C   UNL     1      12.549  44.778  11.973  1.00  0.00    -0.000 C 
ATOM     14  C   UNL     1      12.531  46.017  14.092  1.00  0.00     0.039 C 
BRANCH  13  15
ATOM     15  C   UNL     1      12.005  43.931  10.851  1.00  0.00     0.183 C 
BRANCH  15  16
ATOM     16  O   UNL     1      12.611  44.275   9.634  1.00  0.00    -0.392 OA
ATOM     17  H   UNL     1      12.642  43.446   9.088  1.00  0.00     0.210 HD
ENDBRANCH  15  16
ENDBRANCH  13  15
ENDBRANCH  11  12
ENDBRANCH   1  11
TORSDOF 8
ENDMDL
MODEL 8
REMARK VINA RESULT:    -4.560      2.235      5.326
REMARK INTER + INTRA:          -8.121
REMARK INTER:                  -7.207
REMARK INTRA:                  -0.914
REMARK UNBOUND:                -1.561
REMARK SMILES CC(C)=CCCC(C)=CCCC(C)=CCO
REMARK SMILES IDX 10 1 9 2 7 3 8 4 6 5 5 6 4 7 1 8 2 9 3 10 11 11 12 12 14 13
REMARK SMILES IDX 13 14 15 15 16 16
REMARK H PARENT 16 17
REMARK Flexibility Score: inf
ROOT
ATOM      1  C   UNL     1      13.140  43.737  16.610  1.00  0.00     0.032 C 
ENDROOT
BRANCH   1   2
ATOM      2  C   UNL     1      11.823  44.383  16.968  1.00  0.00    -0.028 C 
ATOM      3  C   UNL     1      11.226  45.392  16.292  1.00  0.00    -0.077 C 
ATOM      4  C   UNL     1       9.875  45.859  16.773  1.00  0.00     0.039 C 
BRANCH   3   5
ATOM      5  C   UNL     1      11.852  46.084  15.091  1.00  0.00     0.034 C 
BRANCH   5   6
ATOM      6  C   UNL     1      10.976  46.026  13.828  1.00  0.00     0.032 C 
BRANCH   6   7
ATOM      7  C   UNL     1      11.765  45.720  12.575  1.00  0.00    -0.028 C 
ATOM      8  C   UNL     1      12.518  44.439  10.621  1.00  0.00     0.039 C 
ATOM      9  C   UNL     1      11.640  44.596  11.836  1.00  0.00    -0.080 C 
ATOM     10  C   UNL     1      10.642  43.515  12.177  1.00  0.00     0.039 C 
ENDBRANCH   6   7
ENDBRANCH   5   6
ENDBRANCH   3   5
ENDBRANCH   1   2
BRANCH   1  11
ATOM     11  C   UNL     1      13.163  43.295  15.139  1.00  0.00     0.034 C 
BRANCH  11  12
ATOM     12  C   UNL     1      12.964  41.797  14.989  1.00  0.00    -0.075 C 
ATOM     13  C   UNL     1      13.981  40.906  15.039  1.00  0.00    -0.000 C 
ATOM     14  C   UNL     1      11.575  41.278  14.726  1.00  0.00     0.039 C 
BRANCH  13  15
ATOM     15  C   UNL     1      15.424  41.263  15.291  1.00  0.00     0.183 C 
BRANCH  15  16
ATOM     16  O   UNL     1      16.267  40.546  14.431  1.00  0.00    -0.392 OA
ATOM     17  H   UNL     1      16.641  39.794  14.961  1.00  0.00     0.210 HD
ENDBRANCH  15  16
ENDBRANCH  13  15
ENDBRANCH  11  12
ENDBRANCH   1  11
TORSDOF 8
ENDMDL
MODEL 9
REMARK VINA RESULT:    -4.466     21.461     24.261
REMARK INTER + INTRA:          -7.985
REMARK INTER:                  -6.619
REMARK INTRA:                  -1.366
REMARK UNBOUND:                -1.561
REMARK SMILES CC(C)=CCCC(C)=CCCC(C)=CCO
REMARK SMILES IDX 10 1 9 2 7 3 8 4 6 5 5 6 4 7 1 8 2 9 3 10 11 11 12 12 14 13
REMARK SMILES IDX 13 14 15 15 16 16
REMARK H PARENT 16 17
REMARK Flexibility Score: inf
ROOT
ATOM      1  C   UNL     1      26.520  27.805   6.609  1.00  0.00     0.032 C 
ENDROOT
BRANCH   1   2
ATOM      2  C   UNL     1      26.114  29.142   7.180  1.00  0.00    -0.028 C 
ATOM      3  C   UNL     1      26.948  30.169   7.463  1.00  0.00    -0.077 C 
ATOM      4  C   UNL     1      26.338  31.452   7.971  1.00  0.00     0.039 C 
BRANCH   3   5
ATOM      5  C   UNL     1      28.459  30.090   7.313  1.00  0.00     0.034 C 
BRANCH   5   6
ATOM      6  C   UNL     1      28.963  30.563   5.940  1.00  0.00     0.032 C 
BRANCH   6   7
ATOM      7  C   UNL     1      29.423  29.426   5.056  1.00  0.00    -0.028 C 
ATOM      8  C   UNL     1      30.125  28.293   2.994  1.00  0.00     0.039 C 
ATOM      9  C   UNL     1      29.690  29.531   3.735  1.00  0.00    -0.080 C 
ATOM     10  C   UNL     1      29.590  30.844   2.995  1.00  0.00     0.039 C 
ENDBRANCH   6   7
ENDBRANCH   5   6
ENDBRANCH   3   5
ENDBRANCH   1   2
BRANCH   1  11
ATOM     11  C   UNL     1      26.691  26.753   7.715  1.00  0.00     0.034 C 
BRANCH  11  12
ATOM     12  C   UNL     1      28.144  26.587   8.126  1.00  0.00    -0.075 C 
ATOM     13  C   UNL     1      28.556  26.609   9.414  1.00  0.00    -0.000 C 
ATOM     14  C   UNL     1      29.184  26.437   7.047  1.00  0.00     0.039 C 
BRANCH  13  15
ATOM     15  C   UNL     1      27.645  26.753  10.606  1.00  0.00     0.183 C 
BRANCH  15  16
ATOM     16  O   UNL     1      27.553  28.095  10.998  1.00  0.00    -0.392 OA
ATOM     17  H   UNL     1      28.221  28.226  11.722  1.00  0.00     0.210 HD
ENDBRANCH  15  16
ENDBRANCH  13  15
ENDBRANCH  11  12
ENDBRANCH   1  11
TORSDOF 8
ENDMDL
