MODEL 1
REMARK VINA RESULT:    -4.540      0.000      0.000
REMARK INTER + INTRA:          -8.780
REMARK INTER:                  -7.991
REMARK INTRA:                  -0.790
REMARK UNBOUND:                -0.790
REMARK SMILES CCCCCCCCCCCCCCC(=O)[O-]
REMARK SMILES IDX 9 1 10 2 11 3 12 4 13 5 14 6 15 7 16 8 17 9 8 10 7 11 6 12
REMARK SMILES IDX 5 13 4 14 3 15 2 16 1 17
REMARK H PARENT
REMARK Flexibility Score: inf
ROOT
ATOM      1  C   UNL     1      19.242  25.724   2.549  1.00  0.00     0.000 C 
ENDROOT
BRANCH   1   2
ATOM      2  C   UNL     1      19.278  24.538   1.568  1.00  0.00     0.000 C 
BRANCH   2   3
ATOM      3  C   UNL     1      18.895  24.939   0.136  1.00  0.00     0.000 C 
BRANCH   3   4
ATOM      4  C   UNL     1      18.400  26.390   0.085  1.00  0.00     0.000 C 
BRANCH   4   5
ATOM      5  C   UNL     1      17.101  26.502  -0.722  1.00  0.00     0.006 C 
BRANCH   5   6
ATOM      6  C   UNL     1      17.026  25.411  -1.794  1.00  0.00     0.053 C 
BRANCH   6   7
ATOM      7  C   UNL     1      15.613  25.212  -2.242  1.00  0.00     0.041 C 
ATOM      8  O   UNL     1      15.258  25.568  -3.396  1.00  0.00    -0.550 OA
ATOM      9  O   UNL     1      14.699  24.587  -1.403  1.00  0.00    -0.550 OA
ENDBRANCH   6   7
ENDBRANCH   5   6
ENDBRANCH   4   5
ENDBRANCH   3   4
ENDBRANCH   2   3
ENDBRANCH   1   2
BRANCH   1  10
ATOM     10  C   UNL     1      19.202  25.333   4.040  1.00  0.00     0.000 C 
BRANCH  10  11
ATOM     11  C   UNL     1      18.876  23.852   4.322  1.00  0.00    -0.000 C 
BRANCH  11  12
ATOM     12  C   UNL     1      17.642  23.610   5.211  1.00  0.00    -0.000 C 
BRANCH  12  13
ATOM     13  C   UNL     1      16.951  22.267   4.921  1.00  0.00    -0.000 C 
BRANCH  13  14
ATOM     14  C   UNL     1      15.668  22.069   5.746  1.00  0.00    -0.000 C 
BRANCH  14  15
ATOM     15  C   UNL     1      14.377  22.096   4.900  1.00  0.00    -0.000 C 
BRANCH  15  16
ATOM     16  C   UNL     1      13.542  23.358   5.159  1.00  0.00    -0.003 C 
ATOM     17  C   UNL     1      12.439  23.514   4.118  1.00  0.00     0.004 C 
ENDBRANCH  15  16
ENDBRANCH  14  15
ENDBRANCH  13  14
ENDBRANCH  12  13
ENDBRANCH  11  12
ENDBRANCH  10  11
ENDBRANCH   1  10
TORSDOF 13
ENDMDL
MODEL 2
REMARK VINA RESULT:    -4.400      1.097      2.032
REMARK INTER + INTRA:          -8.533
REMARK INTER:                  -7.855
REMARK INTRA:                  -0.679
REMARK UNBOUND:                -0.790
REMARK SMILES CCCCCCCCCCCCCCC(=O)[O-]
REMARK SMILES IDX 9 1 10 2 11 3 12 4 13 5 14 6 15 7 16 8 17 9 8 10 7 11 6 12
REMARK SMILES IDX 5 13 4 14 3 15 2 16 1 17
REMARK H PARENT
REMARK Flexibility Score: inf
ROOT
ATOM      1  C   UNL     1      18.839  24.598   4.323  1.00  0.00     0.000 C 
ENDROOT
BRANCH   1   2
ATOM      2  C   UNL     1      20.045  24.658   3.369  1.00  0.00     0.000 C 
BRANCH   2   3
ATOM      3  C   UNL     1      19.634  24.659   1.889  1.00  0.00     0.000 C 
BRANCH   3   4
ATOM      4  C   UNL     1      18.907  25.959   1.522  1.00  0.00     0.000 C 
BRANCH   4   5
ATOM      5  C   UNL     1      18.927  26.191   0.006  1.00  0.00     0.006 C 
BRANCH   5   6
ATOM      6  C   UNL     1      17.532  26.551  -0.512  1.00  0.00     0.053 C 
BRANCH   6   7
ATOM      7  C   UNL     1      16.884  25.361  -1.144  1.00  0.00     0.041 C 
ATOM      8  O   UNL     1      16.251  25.483  -2.226  1.00  0.00    -0.550 OA
ATOM      9  O   UNL     1      17.020  24.106  -0.565  1.00  0.00    -0.550 OA
ENDBRANCH   6   7
ENDBRANCH   5   6
ENDBRANCH   4   5
ENDBRANCH   3   4
ENDBRANCH   2   3
ENDBRANCH   1   2
BRANCH   1  10
ATOM     10  C   UNL     1      18.133  23.229   4.392  1.00  0.00     0.000 C 
BRANCH  10  11
ATOM     11  C   UNL     1      16.943  23.153   5.371  1.00  0.00    -0.000 C 
BRANCH  11  12
ATOM     12  C   UNL     1      16.316  21.756   5.534  1.00  0.00    -0.000 C 
BRANCH  12  13
ATOM     13  C   UNL     1      14.828  21.808   5.914  1.00  0.00    -0.000 C 
BRANCH  13  14
ATOM     14  C   UNL     1      13.913  22.064   4.704  1.00  0.00    -0.000 C 
BRANCH  14  15
ATOM     15  C   UNL     1      13.218  23.442   4.734  1.00  0.00    -0.000 C 
BRANCH  15  16
ATOM     16  C   UNL     1      11.985  23.488   3.819  1.00  0.00    -0.003 C 
ATOM     17  C   UNL     1      12.058  22.412   2.741  1.00  0.00     0.004 C 
ENDBRANCH  15  16
ENDBRANCH  14  15
ENDBRANCH  13  14
ENDBRANCH  12  13
ENDBRANCH  11  12
ENDBRANCH  10  11
ENDBRANCH   1  10
TORSDOF 13
ENDMDL
MODEL 3
REMARK VINA RESULT:    -4.375      2.421      6.356
REMARK INTER + INTRA:          -8.490
REMARK INTER:                  -7.588
REMARK INTRA:                  -0.901
REMARK UNBOUND:                -0.790
REMARK SMILES CCCCCCCCCCCCCCC(=O)[O-]
REMARK SMILES IDX 9 1 10 2 11 3 12 4 13 5 14 6 15 7 16 8 17 9 8 10 7 11 6 12
REMARK SMILES IDX 5 13 4 14 3 15 2 16 1 17
REMARK H PARENT
REMARK Flexibility Score: inf
ROOT
ATOM      1  C   UNL     1      18.929  23.881   4.447  1.00  0.00     0.000 C 
ENDROOT
BRANCH   1   2
ATOM      2  C   UNL     1      17.815  23.536   5.451  1.00  0.00     0.000 C 
BRANCH   2   3
ATOM      3  C   UNL     1      16.733  22.626   4.851  1.00  0.00     0.000 C 
BRANCH   3   4
ATOM      4  C   UNL     1      15.984  21.864   5.951  1.00  0.00     0.000 C 
BRANCH   4   5
ATOM      5  C   UNL     1      14.498  21.715   5.604  1.00  0.00     0.006 C 
BRANCH   5   6
ATOM      6  C   UNL     1      13.884  23.066   5.231  1.00  0.00     0.053 C 
BRANCH   6   7
ATOM      7  C   UNL     1      12.924  22.910   4.095  1.00  0.00     0.041 C 
ATOM      8  O   UNL     1      12.088  23.817   3.841  1.00  0.00    -0.550 OA
ATOM      9  O   UNL     1      12.986  21.785   3.282  1.00  0.00    -0.550 OA
ENDBRANCH   6   7
ENDBRANCH   5   6
ENDBRANCH   4   5
ENDBRANCH   3   4
ENDBRANCH   2   3
ENDBRANCH   1   2
BRANCH   1  10
ATOM     10  C   UNL     1      19.084  25.384   4.138  1.00  0.00     0.000 C 
BRANCH  10  11
ATOM     11  C   UNL     1      19.269  25.732   2.647  1.00  0.00    -0.000 C 
BRANCH  11  12
ATOM     12  C   UNL     1      19.384  24.524   1.701  1.00  0.00    -0.000 C 
BRANCH  12  13
ATOM     13  C   UNL     1      19.114  24.886   0.231  1.00  0.00    -0.000 C 
BRANCH  13  14
ATOM     14  C   UNL     1      18.756  26.370   0.040  1.00  0.00    -0.000 C 
BRANCH  14  15
ATOM     15  C   UNL     1      17.416  26.595  -0.694  1.00  0.00    -0.000 C 
BRANCH  15  16
ATOM     16  C   UNL     1      17.021  25.388  -1.558  1.00  0.00    -0.003 C 
ATOM     17  C   UNL     1      15.513  25.166  -1.537  1.00  0.00     0.004 C 
ENDBRANCH  15  16
ENDBRANCH  14  15
ENDBRANCH  13  14
ENDBRANCH  12  13
ENDBRANCH  11  12
ENDBRANCH  10  11
ENDBRANCH   1  10
TORSDOF 13
ENDMDL
MODEL 4
REMARK VINA RESULT:    -3.786     16.044     18.611
REMARK INTER + INTRA:          -7.453
REMARK INTER:                  -5.730
REMARK INTRA:                  -1.723
REMARK UNBOUND:                -0.790
REMARK SMILES CCCCCCCCCCCCCCC(=O)[O-]
REMARK SMILES IDX 9 1 10 2 11 3 12 4 13 5 14 6 15 7 16 8 17 9 8 10 7 11 6 12
REMARK SMILES IDX 5 13 4 14 3 15 2 16 1 17
REMARK H PARENT
REMARK Flexibility Score: inf
ROOT
ATOM      1  C   UNL     1      21.274  34.560  14.176  1.00  0.00     0.000 C 
ENDROOT
BRANCH   1   2
ATOM      2  C   UNL     1      21.296  33.790  15.508  1.00  0.00     0.000 C 
BRANCH   2   3
ATOM      3  C   UNL     1      22.246  32.584  15.484  1.00  0.00     0.000 C 
BRANCH   3   4
ATOM      4  C   UNL     1      22.858  32.395  14.090  1.00  0.00     0.000 C 
BRANCH   4   5
ATOM      5  C   UNL     1      24.330  32.823  14.073  1.00  0.00     0.006 C 
BRANCH   5   6
ATOM      6  C   UNL     1      24.660  33.600  12.795  1.00  0.00     0.053 C 
BRANCH   6   7
ATOM      7  C   UNL     1      25.841  32.996  12.105  1.00  0.00     0.041 C 
ATOM      8  O   UNL     1      25.676  32.122  11.213  1.00  0.00    -0.550 OA
ATOM      9  O   UNL     1      27.124  33.434  12.409  1.00  0.00    -0.550 OA
ENDBRANCH   6   7
ENDBRANCH   5   6
ENDBRANCH   4   5
ENDBRANCH   3   4
ENDBRANCH   2   3
ENDBRANCH   1   2
BRANCH   1  10
ATOM     10  C   UNL     1      22.100  35.861  14.163  1.00  0.00     0.000 C 
BRANCH  10  11
ATOM     11  C   UNL     1      22.904  36.142  15.448  1.00  0.00    -0.000 C 
BRANCH  11  12
ATOM     12  C   UNL     1      23.414  37.587  15.600  1.00  0.00    -0.000 C 
BRANCH  12  13
ATOM     13  C   UNL     1      24.937  37.705  15.423  1.00  0.00    -0.000 C 
BRANCH  13  14
ATOM     14  C   UNL     1      25.417  37.208  14.049  1.00  0.00    -0.000 C 
BRANCH  14  15
ATOM     15  C   UNL     1      26.708  36.364  14.112  1.00  0.00    -0.000 C 
BRANCH  15  16
ATOM     16  C   UNL     1      27.124  36.050  15.556  1.00  0.00    -0.003 C 
ATOM     17  C   UNL     1      27.000  34.559  15.855  1.00  0.00     0.004 C 
ENDBRANCH  15  16
ENDBRANCH  14  15
ENDBRANCH  13  14
ENDBRANCH  12  13
ENDBRANCH  11  12
ENDBRANCH  10  11
ENDBRANCH   1  10
TORSDOF 13
ENDMDL
MODEL 5
REMARK VINA RESULT:    -3.658     15.469     17.901
REMARK INTER + INTRA:          -7.228
REMARK INTER:                  -5.534
REMARK INTRA:                  -1.694
REMARK UNBOUND:                -0.790
REMARK SMILES CCCCCCCCCCCCCCC(=O)[O-]
REMARK SMILES IDX 9 1 10 2 11 3 12 4 13 5 14 6 15 7 16 8 17 9 8 10 7 11 6 12
REMARK SMILES IDX 5 13 4 14 3 15 2 16 1 17
REMARK H PARENT
REMARK Flexibility Score: inf
ROOT
ATOM      1  C   UNL     1      23.118  32.359  14.619  1.00  0.00     0.000 C 
ENDROOT
BRANCH   1   2
ATOM      2  C   UNL     1      22.509  32.738  15.980  1.00  0.00     0.000 C 
BRANCH   2   3
ATOM      3  C   UNL     1      21.581  33.959  15.898  1.00  0.00     0.000 C 
BRANCH   3   4
ATOM      4  C   UNL     1      22.379  35.236  15.603  1.00  0.00     0.000 C 
BRANCH   4   5
ATOM      5  C   UNL     1      22.038  35.790  14.214  1.00  0.00     0.006 C 
BRANCH   5   6
ATOM      6  C   UNL     1      20.820  35.075  13.622  1.00  0.00     0.053 C 
BRANCH   6   7
ATOM      7  C   UNL     1      21.128  34.565  12.250  1.00  0.00     0.041 C 
ATOM      8  O   UNL     1      22.283  34.150  11.972  1.00  0.00    -0.550 OA
ATOM      9  O   UNL     1      20.124  34.500  11.292  1.00  0.00    -0.550 OA
ENDBRANCH   6   7
ENDBRANCH   5   6
ENDBRANCH   4   5
ENDBRANCH   3   4
ENDBRANCH   2   3
ENDBRANCH   1   2
BRANCH   1  10
ATOM     10  C   UNL     1      24.604  32.732  14.444  1.00  0.00     0.000 C 
BRANCH  10  11
ATOM     11  C   UNL     1      25.330  33.156  15.737  1.00  0.00    -0.000 C 
BRANCH  11  12
ATOM     12  C   UNL     1      26.815  33.526  15.563  1.00  0.00    -0.000 C 
BRANCH  12  13
ATOM     13  C   UNL     1      27.105  34.222  14.223  1.00  0.00    -0.000 C 
BRANCH  13  14
ATOM     14  C   UNL     1      26.998  35.753  14.311  1.00  0.00    -0.000 C 
BRANCH  14  15
ATOM     15  C   UNL     1      25.629  36.306  13.858  1.00  0.00    -0.000 C 
BRANCH  15  16
ATOM     16  C   UNL     1      25.282  35.885  12.423  1.00  0.00    -0.003 C 
ATOM     17  C   UNL     1      26.288  36.448  11.424  1.00  0.00     0.004 C 
ENDBRANCH  15  16
ENDBRANCH  14  15
ENDBRANCH  13  14
ENDBRANCH  12  13
ENDBRANCH  11  12
ENDBRANCH  10  11
ENDBRANCH   1  10
TORSDOF 13
ENDMDL
MODEL 6
REMARK VINA RESULT:    -3.592     15.757     17.960
REMARK INTER + INTRA:          -7.112
REMARK INTER:                  -5.584
REMARK INTRA:                  -1.528
REMARK UNBOUND:                -0.790
REMARK SMILES CCCCCCCCCCCCCCC(=O)[O-]
REMARK SMILES IDX 9 1 10 2 11 3 12 4 13 5 14 6 15 7 16 8 17 9 8 10 7 11 6 12
REMARK SMILES IDX 5 13 4 14 3 15 2 16 1 17
REMARK H PARENT
REMARK Flexibility Score: inf
ROOT
ATOM      1  C   UNL     1      24.377  32.869  12.711  1.00  0.00     0.000 C 
ENDROOT
BRANCH   1   2
ATOM      2  C   UNL     1      23.685  32.133  13.873  1.00  0.00     0.000 C 
BRANCH   2   3
ATOM      3  C   UNL     1      23.337  33.064  15.044  1.00  0.00     0.000 C 
BRANCH   3   4
ATOM      4  C   UNL     1      21.842  32.986  15.380  1.00  0.00     0.000 C 
BRANCH   4   5
ATOM      5  C   UNL     1      21.173  34.358  15.237  1.00  0.00     0.006 C 
BRANCH   5   6
ATOM      6  C   UNL     1      21.675  35.085  13.987  1.00  0.00     0.053 C 
BRANCH   6   7
ATOM      7  C   UNL     1      20.908  34.645  12.781  1.00  0.00     0.041 C 
ATOM      8  O   UNL     1      21.471  34.591  11.656  1.00  0.00    -0.550 OA
ATOM      9  O   UNL     1      19.583  34.245  12.907  1.00  0.00    -0.550 OA
ENDBRANCH   6   7
ENDBRANCH   5   6
ENDBRANCH   4   5
ENDBRANCH   3   4
ENDBRANCH   2   3
ENDBRANCH   1   2
BRANCH   1  10
ATOM     10  C   UNL     1      25.663  33.627  13.095  1.00  0.00     0.000 C 
BRANCH  10  11
ATOM     11  C   UNL     1      26.725  33.725  11.982  1.00  0.00    -0.000 C 
BRANCH  11  12
ATOM     12  C   UNL     1      27.101  35.157  11.558  1.00  0.00    -0.000 C 
BRANCH  12  13
ATOM     13  C   UNL     1      25.989  36.178  11.849  1.00  0.00    -0.000 C 
BRANCH  13  14
ATOM     14  C   UNL     1      26.479  37.368  12.691  1.00  0.00    -0.000 C 
BRANCH  14  15
ATOM     15  C   UNL     1      27.125  36.953  14.031  1.00  0.00    -0.000 C 
BRANCH  15  16
ATOM     16  C   UNL     1      26.242  37.315  15.235  1.00  0.00    -0.003 C 
ATOM     17  C   UNL     1      24.934  36.532  15.214  1.00  0.00     0.004 C 
ENDBRANCH  15  16
ENDBRANCH  14  15
ENDBRANCH  13  14
ENDBRANCH  12  13
ENDBRANCH  11  12
ENDBRANCH  10  11
ENDBRANCH   1  10
TORSDOF 13
ENDMDL
MODEL 7
REMARK VINA RESULT:    -3.468     15.968     18.252
REMARK INTER + INTRA:          -6.894
REMARK INTER:                  -4.927
REMARK INTRA:                  -1.967
REMARK UNBOUND:                -0.790
REMARK SMILES CCCCCCCCCCCCCCC(=O)[O-]
REMARK SMILES IDX 9 1 10 2 11 3 12 4 13 5 14 6 15 7 16 8 17 9 8 10 7 11 6 12
REMARK SMILES IDX 5 13 4 14 3 15 2 16 1 17
REMARK H PARENT
REMARK Flexibility Score: inf
ROOT
ATOM      1  C   UNL     1      24.177  32.805  13.291  1.00  0.00     0.000 C 
ENDROOT
BRANCH   1   2
ATOM      2  C   UNL     1      24.011  32.305  14.737  1.00  0.00     0.000 C 
BRANCH   2   3
ATOM      3  C   UNL     1      22.686  32.750  15.373  1.00  0.00     0.000 C 
BRANCH   3   4
ATOM      4  C   UNL     1      22.774  34.197  15.872  1.00  0.00     0.000 C 
BRANCH   4   5
ATOM      5  C   UNL     1      21.622  35.043  15.316  1.00  0.00     0.006 C 
BRANCH   5   6
ATOM      6  C   UNL     1      21.902  35.470  13.873  1.00  0.00     0.053 C 
BRANCH   6   7
ATOM      7  C   UNL     1      20.999  34.745  12.927  1.00  0.00     0.041 C 
ATOM      8  O   UNL     1      19.968  34.162  13.355  1.00  0.00    -0.550 OA
ATOM      9  O   UNL     1      21.266  34.756  11.564  1.00  0.00    -0.550 OA
ENDBRANCH   6   7
ENDBRANCH   5   6
ENDBRANCH   4   5
ENDBRANCH   3   4
ENDBRANCH   2   3
ENDBRANCH   1   2
BRANCH   1  10
ATOM     10  C   UNL     1      25.350  33.781  13.071  1.00  0.00     0.000 C 
BRANCH  10  11
ATOM     11  C   UNL     1      26.343  33.892  14.246  1.00  0.00    -0.000 C 
BRANCH  11  12
ATOM     12  C   UNL     1      26.586  35.320  14.767  1.00  0.00    -0.000 C 
BRANCH  12  13
ATOM     13  C   UNL     1      25.377  36.247  14.558  1.00  0.00    -0.000 C 
BRANCH  13  14
ATOM     14  C   UNL     1      25.701  37.454  13.662  1.00  0.00    -0.000 C 
BRANCH  14  15
ATOM     15  C   UNL     1      27.125  37.420  13.067  1.00  0.00    -0.000 C 
BRANCH  15  16
ATOM     16  C   UNL     1      27.119  37.598  11.541  1.00  0.00    -0.003 C 
ATOM     17  C   UNL     1      26.702  36.311  10.837  1.00  0.00     0.004 C 
ENDBRANCH  15  16
ENDBRANCH  14  15
ENDBRANCH  13  14
ENDBRANCH  12  13
ENDBRANCH  11  12
ENDBRANCH  10  11
ENDBRANCH   1  10
TORSDOF 13
ENDMDL
MODEL 8
REMARK VINA RESULT:    -3.411     15.770     18.464
REMARK INTER + INTRA:          -6.793
REMARK INTER:                  -4.998
REMARK INTRA:                  -1.795
REMARK UNBOUND:                -0.790
REMARK SMILES CCCCCCCCCCCCCCC(=O)[O-]
REMARK SMILES IDX 9 1 10 2 11 3 12 4 13 5 14 6 15 7 16 8 17 9 8 10 7 11 6 12
REMARK SMILES IDX 5 13 4 14 3 15 2 16 1 17
REMARK H PARENT
REMARK Flexibility Score: inf
ROOT
ATOM      1  C   UNL     1      23.739  36.388  15.353  1.00  0.00     0.000 C 
ENDROOT
BRANCH   1   2
ATOM      2  C   UNL     1      24.436  35.202  16.043  1.00  0.00     0.000 C 
BRANCH   2   3
ATOM      3  C   UNL     1      24.316  33.895  15.246  1.00  0.00     0.000 C 
BRANCH   3   4
ATOM      4  C   UNL     1      23.121  33.064  15.732  1.00  0.00     0.000 C 
BRANCH   4   5
ATOM      5  C   UNL     1      22.060  32.931  14.633  1.00  0.00     0.006 C 
BRANCH   5   6
ATOM      6  C   UNL     1      22.577  33.481  13.301  1.00  0.00     0.053 C 
BRANCH   6   7
ATOM      7  C   UNL     1      21.612  34.472  12.733  1.00  0.00     0.041 C 
ATOM      8  O   UNL     1      21.341  34.460  11.503  1.00  0.00    -0.550 OA
ATOM      9  O   UNL     1      20.970  35.376  13.570  1.00  0.00    -0.550 OA
ENDBRANCH   6   7
ENDBRANCH   5   6
ENDBRANCH   4   5
ENDBRANCH   3   4
ENDBRANCH   2   3
ENDBRANCH   1   2
BRANCH   1  10
ATOM     10  C   UNL     1      24.659  37.581  15.024  1.00  0.00     0.000 C 
BRANCH  10  11
ATOM     11  C   UNL     1      26.151  37.370  15.352  1.00  0.00    -0.000 C 
BRANCH  11  12
ATOM     12  C   UNL     1      27.125  37.674  14.199  1.00  0.00    -0.000 C 
BRANCH  12  13
ATOM     13  C   UNL     1      26.447  37.643  12.819  1.00  0.00    -0.000 C 
BRANCH  13  14
ATOM     14  C   UNL     1      26.804  36.386  12.008  1.00  0.00    -0.000 C 
BRANCH  14  15
ATOM     15  C   UNL     1      25.891  35.177  12.305  1.00  0.00    -0.000 C 
BRANCH  15  16
ATOM     16  C   UNL     1      26.689  33.875  12.465  1.00  0.00    -0.003 C 
ATOM     17  C   UNL     1      26.204  32.808  11.489  1.00  0.00     0.004 C 
ENDBRANCH  15  16
ENDBRANCH  14  15
ENDBRANCH  13  14
ENDBRANCH  12  13
ENDBRANCH  11  12
ENDBRANCH  10  11
ENDBRANCH   1  10
TORSDOF 13
ENDMDL
