MODEL 1
REMARK VINA RESULT:    -5.273      0.000      0.000
REMARK INTER + INTRA:         -18.886
REMARK INTER:                 -13.903
REMARK INTRA:                  -4.983
REMARK UNBOUND:                -4.983
REMARK SMILES CCCCCCCCCCCCCCCCCCCCCCCCCCCCCC(=O)[O-]
REMARK SMILES IDX 16 1 17 2 18 3 19 4 20 5 21 6 22 7 23 8 24 9 25 10 26 11
REMARK SMILES IDX 27 12 28 13 29 14 30 15 31 16 32 17 15 18 14 19 13 20 12 21
REMARK SMILES IDX 11 22 10 23 9 24 8 25 7 26 6 27 5 28 4 29 3 30 2 31 1 32
REMARK H PARENT
REMARK Flexibility Score: inf
ROOT
ATOM      1  C   UNL     1      13.044 -29.878  23.630  1.00  0.00     0.000 C 
ENDROOT
BRANCH   1   2
ATOM      2  C   UNL     1      14.193 -29.009  23.086  1.00  0.00     0.000 C 
BRANCH   2   3
ATOM      3  C   UNL     1      14.625 -29.425  21.669  1.00  0.00     0.000 C 
BRANCH   3   4
ATOM      4  C   UNL     1      16.140 -29.666  21.577  1.00  0.00     0.000 C 
BRANCH   4   5
ATOM      5  C   UNL     1      16.732 -30.254  22.885  1.00  0.00     0.000 C 
BRANCH   5   6
ATOM      6  C   UNL     1      17.862 -31.289  22.653  1.00  0.00     0.000 C 
BRANCH   6   7
ATOM      7  C   UNL     1      17.947 -31.796  21.199  1.00  0.00     0.000 C 
BRANCH   7   8
ATOM      8  C   UNL     1      19.311 -32.390  20.792  1.00  0.00     0.000 C 
BRANCH   8   9
ATOM      9  C   UNL     1      20.534 -31.758  21.482  1.00  0.00     0.000 C 
BRANCH   9  10
ATOM     10  C   UNL     1      21.070 -30.519  20.749  1.00  0.00     0.000 C 
BRANCH  10  11
ATOM     11  C   UNL     1      20.944 -29.270  21.631  1.00  0.00     0.000 C 
BRANCH  11  12
ATOM     12  C   UNL     1      19.925 -28.278  21.048  1.00  0.00     0.000 C 
BRANCH  12  13
ATOM     13  C   UNL     1      20.587 -27.029  20.444  1.00  0.00     0.006 C 
BRANCH  13  14
ATOM     14  C   UNL     1      22.028 -26.821  20.935  1.00  0.00     0.053 C 
BRANCH  14  15
ATOM     15  C   UNL     1      22.470 -25.408  20.709  1.00  0.00     0.041 C 
ATOM     16  O   UNL     1      22.567 -24.612  21.682  1.00  0.00    -0.550 OA
ATOM     17  O   UNL     1      22.787 -24.975  19.429  1.00  0.00    -0.550 OA
ENDBRANCH  14  15
ENDBRANCH  13  14
ENDBRANCH  12  13
ENDBRANCH  11  12
ENDBRANCH  10  11
ENDBRANCH   9  10
ENDBRANCH   8   9
ENDBRANCH   7   8
ENDBRANCH   6   7
ENDBRANCH   5   6
ENDBRANCH   4   5
ENDBRANCH   3   4
ENDBRANCH   2   3
ENDBRANCH   1   2
BRANCH   1  18
ATOM     18  C   UNL     1      13.129 -31.357  23.199  1.00  0.00     0.000 C 
BRANCH  18  19
ATOM     19  C   UNL     1      14.073 -32.176  24.096  1.00  0.00     0.000 C 
BRANCH  19  20
ATOM     20  C   UNL     1      14.274 -33.617  23.596  1.00  0.00     0.000 C 
BRANCH  20  21
ATOM     21  C   UNL     1      15.308 -33.781  22.463  1.00  0.00     0.000 C 
BRANCH  21  22
ATOM     22  C   UNL     1      14.759 -33.578  21.040  1.00  0.00     0.000 C 
BRANCH  22  23
ATOM     23  C   UNL     1      14.973 -34.801  20.134  1.00  0.00     0.000 C 
BRANCH  23  24
ATOM     24  C   UNL     1      16.352 -34.755  19.456  1.00  0.00    -0.000 C 
BRANCH  24  25
ATOM     25  C   UNL     1      16.960 -36.153  19.257  1.00  0.00    -0.000 C 
BRANCH  25  26
ATOM     26  C   UNL     1      17.322 -36.842  20.585  1.00  0.00    -0.000 C 
BRANCH  26  27
ATOM     27  C   UNL     1      18.143 -35.931  21.516  1.00  0.00    -0.000 C 
BRANCH  27  28
ATOM     28  C   UNL     1      18.885 -36.720  22.609  1.00  0.00    -0.000 C 
BRANCH  28  29
ATOM     29  C   UNL     1      18.677 -36.128  24.013  1.00  0.00    -0.000 C 
BRANCH  29  30
ATOM     30  C   UNL     1      18.623 -34.593  24.009  1.00  0.00    -0.000 C 
BRANCH  30  31
ATOM     31  C   UNL     1      17.809 -34.070  25.199  1.00  0.00    -0.003 C 
ATOM     32  C   UNL     1      16.831 -35.124  25.706  1.00  0.00     0.004 C 
ENDBRANCH  30  31
ENDBRANCH  29  30
ENDBRANCH  28  29
ENDBRANCH  27  28
ENDBRANCH  26  27
ENDBRANCH  25  26
ENDBRANCH  24  25
ENDBRANCH  23  24
ENDBRANCH  22  23
ENDBRANCH  21  22
ENDBRANCH  20  21
ENDBRANCH  19  20
ENDBRANCH  18  19
ENDBRANCH   1  18
TORSDOF 28
ENDMDL
MODEL 2
REMARK VINA RESULT:    -5.241      1.078      2.069
REMARK INTER + INTRA:         -18.802
REMARK INTER:                 -13.571
REMARK INTRA:                  -5.231
REMARK UNBOUND:                -4.983
REMARK SMILES CCCCCCCCCCCCCCCCCCCCCCCCCCCCCC(=O)[O-]
REMARK SMILES IDX 16 1 17 2 18 3 19 4 20 5 21 6 22 7 23 8 24 9 25 10 26 11
REMARK SMILES IDX 27 12 28 13 29 14 30 15 31 16 32 17 15 18 14 19 13 20 12 21
REMARK SMILES IDX 11 22 10 23 9 24 8 25 7 26 6 27 5 28 4 29 3 30 2 31 1 32
REMARK H PARENT
REMARK Flexibility Score: inf
ROOT
ATOM      1  C   UNL     1      14.209 -31.772  23.340  1.00  0.00     0.000 C 
ENDROOT
BRANCH   1   2
ATOM      2  C   UNL     1      14.759 -30.413  22.870  1.00  0.00     0.000 C 
BRANCH   2   3
ATOM      3  C   UNL     1      16.275 -30.281  23.101  1.00  0.00     0.000 C 
BRANCH   3   4
ATOM      4  C   UNL     1      17.018 -29.868  21.821  1.00  0.00     0.000 C 
BRANCH   4   5
ATOM      5  C   UNL     1      17.315 -31.071  20.888  1.00  0.00     0.000 C 
BRANCH   5   6
ATOM      6  C   UNL     1      17.978 -32.274  21.607  1.00  0.00     0.000 C 
BRANCH   6   7
ATOM      7  C   UNL     1      19.358 -32.652  21.034  1.00  0.00     0.000 C 
BRANCH   7   8
ATOM      8  C   UNL     1      20.509 -32.669  22.061  1.00  0.00     0.000 C 
BRANCH   8   9
ATOM      9  C   UNL     1      21.647 -31.668  21.789  1.00  0.00     0.000 C 
BRANCH   9  10
ATOM     10  C   UNL     1      21.276 -30.219  22.140  1.00  0.00     0.000 C 
BRANCH  10  11
ATOM     11  C   UNL     1      20.838 -29.451  20.886  1.00  0.00     0.000 C 
BRANCH  11  12
ATOM     12  C   UNL     1      20.768 -27.940  21.155  1.00  0.00     0.000 C 
BRANCH  12  13
ATOM     13  C   UNL     1      22.087 -27.216  20.837  1.00  0.00     0.006 C 
BRANCH  13  14
ATOM     14  C   UNL     1      21.879 -25.926  20.028  1.00  0.00     0.053 C 
BRANCH  14  15
ATOM     15  C   UNL     1      22.847 -24.867  20.457  1.00  0.00     0.041 C 
ATOM     16  O   UNL     1      22.928 -24.540  21.672  1.00  0.00    -0.550 OA
ATOM     17  O   UNL     1      23.667 -24.254  19.520  1.00  0.00    -0.550 OA
ENDBRANCH  14  15
ENDBRANCH  13  14
ENDBRANCH  12  13
ENDBRANCH  11  12
ENDBRANCH  10  11
ENDBRANCH   9  10
ENDBRANCH   8   9
ENDBRANCH   7   8
ENDBRANCH   6   7
ENDBRANCH   5   6
ENDBRANCH   4   5
ENDBRANCH   3   4
ENDBRANCH   2   3
ENDBRANCH   1   2
BRANCH   1  18
ATOM     18  C   UNL     1      14.403 -32.907  22.313  1.00  0.00     0.000 C 
BRANCH  18  19
ATOM     19  C   UNL     1      13.849 -32.544  20.925  1.00  0.00     0.000 C 
BRANCH  19  20
ATOM     20  C   UNL     1      14.163 -33.607  19.859  1.00  0.00     0.000 C 
BRANCH  20  21
ATOM     21  C   UNL     1      15.413 -34.467  20.135  1.00  0.00     0.000 C 
BRANCH  21  22
ATOM     22  C   UNL     1      16.517 -34.383  19.066  1.00  0.00     0.000 C 
BRANCH  22  23
ATOM     23  C   UNL     1      17.604 -35.454  19.241  1.00  0.00     0.000 C 
BRANCH  23  24
ATOM     24  C   UNL     1      17.002 -36.781  19.729  1.00  0.00    -0.000 C 
BRANCH  24  25
ATOM     25  C   UNL     1      17.722 -37.337  20.969  1.00  0.00    -0.000 C 
BRANCH  25  26
ATOM     26  C   UNL     1      18.457 -36.247  21.771  1.00  0.00    -0.000 C 
BRANCH  26  27
ATOM     27  C   UNL     1      17.579 -35.639  22.879  1.00  0.00    -0.000 C 
BRANCH  27  28
ATOM     28  C   UNL     1      18.189 -35.819  24.281  1.00  0.00    -0.000 C 
BRANCH  28  29
ATOM     29  C   UNL     1      17.559 -34.885  25.327  1.00  0.00    -0.000 C 
BRANCH  29  30
ATOM     30  C   UNL     1      17.520 -33.419  24.870  1.00  0.00    -0.000 C 
BRANCH  30  31
ATOM     31  C   UNL     1      18.275 -32.518  25.855  1.00  0.00    -0.003 C 
ATOM     32  C   UNL     1      19.112 -31.476  25.121  1.00  0.00     0.004 C 
ENDBRANCH  30  31
ENDBRANCH  29  30
ENDBRANCH  28  29
ENDBRANCH  27  28
ENDBRANCH  26  27
ENDBRANCH  25  26
ENDBRANCH  24  25
ENDBRANCH  23  24
ENDBRANCH  22  23
ENDBRANCH  21  22
ENDBRANCH  20  21
ENDBRANCH  19  20
ENDBRANCH  18  19
ENDBRANCH   1  18
TORSDOF 28
ENDMDL
MODEL 3
REMARK VINA RESULT:    -5.122      1.203      3.486
REMARK INTER + INTRA:         -18.490
REMARK INTER:                 -13.438
REMARK INTRA:                  -5.052
REMARK UNBOUND:                -4.983
REMARK SMILES CCCCCCCCCCCCCCCCCCCCCCCCCCCCCC(=O)[O-]
REMARK SMILES IDX 16 1 17 2 18 3 19 4 20 5 21 6 22 7 23 8 24 9 25 10 26 11
REMARK SMILES IDX 27 12 28 13 29 14 30 15 31 16 32 17 15 18 14 19 13 20 12 21
REMARK SMILES IDX 11 22 10 23 9 24 8 25 7 26 6 27 5 28 4 29 3 30 2 31 1 32
REMARK H PARENT
REMARK Flexibility Score: inf
ROOT
ATOM      1  C   UNL     1      14.945 -33.688  22.696  1.00  0.00     0.000 C 
ENDROOT
BRANCH   1   2
ATOM      2  C   UNL     1      14.347 -32.715  23.729  1.00  0.00     0.000 C 
BRANCH   2   3
ATOM      3  C   UNL     1      13.392 -31.692  23.089  1.00  0.00     0.000 C 
BRANCH   3   4
ATOM      4  C   UNL     1      13.556 -30.291  23.699  1.00  0.00     0.000 C 
BRANCH   4   5
ATOM      5  C   UNL     1      13.910 -29.216  22.639  1.00  0.00     0.000 C 
BRANCH   5   6
ATOM      6  C   UNL     1      14.830 -29.732  21.503  1.00  0.00     0.000 C 
BRANCH   6   7
ATOM      7  C   UNL     1      16.329 -29.480  21.760  1.00  0.00     0.000 C 
BRANCH   7   8
ATOM      8  C   UNL     1      17.074 -30.629  22.469  1.00  0.00     0.000 C 
BRANCH   8   9
ATOM      9  C   UNL     1      18.172 -31.313  21.635  1.00  0.00     0.000 C 
BRANCH   9  10
ATOM     10  C   UNL     1      19.590 -31.046  22.164  1.00  0.00     0.000 C 
BRANCH  10  11
ATOM     11  C   UNL     1      20.628 -31.225  21.050  1.00  0.00     0.000 C 
BRANCH  11  12
ATOM     12  C   UNL     1      21.063 -29.869  20.472  1.00  0.00     0.000 C 
BRANCH  12  13
ATOM     13  C   UNL     1      20.690 -28.687  21.382  1.00  0.00     0.006 C 
BRANCH  13  14
ATOM     14  C   UNL     1      19.741 -27.688  20.703  1.00  0.00     0.053 C 
BRANCH  14  15
ATOM     15  C   UNL     1      20.283 -26.294  20.790  1.00  0.00     0.041 C 
ATOM     16  O   UNL     1      19.790 -25.474  21.612  1.00  0.00    -0.550 OA
ATOM     17  O   UNL     1      21.339 -25.908  19.977  1.00  0.00    -0.550 OA
ENDBRANCH  14  15
ENDBRANCH  13  14
ENDBRANCH  12  13
ENDBRANCH  11  12
ENDBRANCH  10  11
ENDBRANCH   9  10
ENDBRANCH   8   9
ENDBRANCH   7   8
ENDBRANCH   6   7
ENDBRANCH   5   6
ENDBRANCH   4   5
ENDBRANCH   3   4
ENDBRANCH   2   3
ENDBRANCH   1   2
BRANCH   1  18
ATOM     18  C   UNL     1      14.622 -33.314  21.234  1.00  0.00     0.000 C 
BRANCH  18  19
ATOM     19  C   UNL     1      15.044 -34.410  20.241  1.00  0.00     0.000 C 
BRANCH  19  20
ATOM     20  C   UNL     1      16.383 -34.105  19.546  1.00  0.00     0.000 C 
BRANCH  20  21
ATOM     21  C   UNL     1      17.534 -35.076  19.880  1.00  0.00     0.000 C 
BRANCH  21  22
ATOM     22  C   UNL     1      17.243 -36.072  21.016  1.00  0.00     0.000 C 
BRANCH  22  23
ATOM     23  C   UNL     1      18.431 -36.255  21.973  1.00  0.00     0.000 C 
BRANCH  23  24
ATOM     24  C   UNL     1      19.208 -34.940  22.150  1.00  0.00    -0.000 C 
BRANCH  24  25
ATOM     25  C   UNL     1      19.863 -34.821  23.535  1.00  0.00    -0.000 C 
BRANCH  25  26
ATOM     26  C   UNL     1      19.363 -33.600  24.330  1.00  0.00    -0.000 C 
BRANCH  26  27
ATOM     27  C   UNL     1      18.664 -33.998  25.642  1.00  0.00    -0.000 C 
BRANCH  27  28
ATOM     28  C   UNL     1      17.166 -34.291  25.447  1.00  0.00    -0.000 C 
BRANCH  28  29
ATOM     29  C   UNL     1      16.878 -35.785  25.222  1.00  0.00    -0.000 C 
BRANCH  29  30
ATOM     30  C   UNL     1      16.865 -36.591  26.529  1.00  0.00    -0.000 C 
BRANCH  30  31
ATOM     31  C   UNL     1      18.140 -37.432  26.668  1.00  0.00    -0.003 C 
ATOM     32  C   UNL     1      18.663 -37.874  25.306  1.00  0.00     0.004 C 
ENDBRANCH  30  31
ENDBRANCH  29  30
ENDBRANCH  28  29
ENDBRANCH  27  28
ENDBRANCH  26  27
ENDBRANCH  25  26
ENDBRANCH  24  25
ENDBRANCH  23  24
ENDBRANCH  22  23
ENDBRANCH  21  22
ENDBRANCH  20  21
ENDBRANCH  19  20
ENDBRANCH  18  19
ENDBRANCH   1  18
TORSDOF 28
ENDMDL
MODEL 4
REMARK VINA RESULT:    -5.102      1.253      2.326
REMARK INTER + INTRA:         -18.437
REMARK INTER:                 -13.649
REMARK INTRA:                  -4.788
REMARK UNBOUND:                -4.983
REMARK SMILES CCCCCCCCCCCCCCCCCCCCCCCCCCCCCC(=O)[O-]
REMARK SMILES IDX 16 1 17 2 18 3 19 4 20 5 21 6 22 7 23 8 24 9 25 10 26 11
REMARK SMILES IDX 27 12 28 13 29 14 30 15 31 16 32 17 15 18 14 19 13 20 12 21
REMARK SMILES IDX 11 22 10 23 9 24 8 25 7 26 6 27 5 28 4 29 3 30 2 31 1 32
REMARK H PARENT
REMARK Flexibility Score: inf
ROOT
ATOM      1  C   UNL     1      16.488 -31.086  23.244  1.00  0.00     0.000 C 
ENDROOT
BRANCH   1   2
ATOM      2  C   UNL     1      16.993 -30.144  22.135  1.00  0.00     0.000 C 
BRANCH   2   3
ATOM      3  C   UNL     1      17.412 -30.903  20.864  1.00  0.00     0.000 C 
BRANCH   3   4
ATOM      4  C   UNL     1      17.906 -32.324  21.179  1.00  0.00     0.000 C 
BRANCH   4   5
ATOM      5  C   UNL     1      19.382 -32.550  20.759  1.00  0.00     0.000 C 
BRANCH   5   6
ATOM      6  C   UNL     1      20.393 -32.428  21.928  1.00  0.00     0.000 C 
BRANCH   6   7
ATOM      7  C   UNL     1      21.315 -31.198  21.822  1.00  0.00     0.000 C 
BRANCH   7   8
ATOM      8  C   UNL     1      20.959 -30.209  20.692  1.00  0.00     0.000 C 
BRANCH   8   9
ATOM      9  C   UNL     1      21.430 -28.761  20.916  1.00  0.00     0.000 C 
BRANCH   9  10
ATOM     10  C   UNL     1      20.287 -27.735  20.852  1.00  0.00     0.000 C 
BRANCH  10  11
ATOM     11  C   UNL     1      20.428 -26.695  21.971  1.00  0.00     0.000 C 
BRANCH  11  12
ATOM     12  C   UNL     1      20.277 -25.267  21.425  1.00  0.00     0.000 C 
BRANCH  12  13
ATOM     13  C   UNL     1      21.508 -24.389  21.707  1.00  0.00     0.006 C 
BRANCH  13  14
ATOM     14  C   UNL     1      22.834 -25.140  21.512  1.00  0.00     0.053 C 
BRANCH  14  15
ATOM     15  C   UNL     1      23.350 -24.956  20.118  1.00  0.00     0.041 C 
ATOM     16  O   UNL     1      23.164 -25.853  19.252  1.00  0.00    -0.550 OA
ATOM     17  O   UNL     1      24.020 -23.790  19.773  1.00  0.00    -0.550 OA
ENDBRANCH  14  15
ENDBRANCH  13  14
ENDBRANCH  12  13
ENDBRANCH  11  12
ENDBRANCH  10  11
ENDBRANCH   9  10
ENDBRANCH   8   9
ENDBRANCH   7   8
ENDBRANCH   6   7
ENDBRANCH   5   6
ENDBRANCH   4   5
ENDBRANCH   3   4
ENDBRANCH   2   3
ENDBRANCH   1   2
BRANCH   1  18
ATOM     18  C   UNL     1      14.972 -30.971  23.510  1.00  0.00     0.000 C 
BRANCH  18  19
ATOM     19  C   UNL     1      14.271 -32.341  23.516  1.00  0.00     0.000 C 
BRANCH  19  20
ATOM     20  C   UNL     1      14.631 -33.202  22.294  1.00  0.00     0.000 C 
BRANCH  20  21
ATOM     21  C   UNL     1      14.016 -32.737  20.958  1.00  0.00     0.000 C 
BRANCH  21  22
ATOM     22  C   UNL     1      14.267 -33.669  19.760  1.00  0.00     0.000 C 
BRANCH  22  23
ATOM     23  C   UNL     1      15.327 -34.743  20.048  1.00  0.00     0.000 C 
BRANCH  23  24
ATOM     24  C   UNL     1      16.489 -34.660  19.044  1.00  0.00    -0.000 C 
BRANCH  24  25
ATOM     25  C   UNL     1      17.624 -35.643  19.370  1.00  0.00    -0.000 C 
BRANCH  25  26
ATOM     26  C   UNL     1      17.131 -36.904  20.104  1.00  0.00    -0.000 C 
BRANCH  26  27
ATOM     27  C   UNL     1      17.956 -37.212  21.366  1.00  0.00    -0.000 C 
BRANCH  27  28
ATOM     28  C   UNL     1      18.395 -35.939  22.110  1.00  0.00    -0.000 C 
BRANCH  28  29
ATOM     29  C   UNL     1      17.327 -35.427  23.091  1.00  0.00    -0.000 C 
BRANCH  29  30
ATOM     30  C   UNL     1      17.898 -34.467  24.145  1.00  0.00    -0.000 C 
BRANCH  30  31
ATOM     31  C   UNL     1      18.344 -35.231  25.398  1.00  0.00    -0.003 C 
ATOM     32  C   UNL     1      17.264 -36.199  25.869  1.00  0.00     0.004 C 
ENDBRANCH  30  31
ENDBRANCH  29  30
ENDBRANCH  28  29
ENDBRANCH  27  28
ENDBRANCH  26  27
ENDBRANCH  25  26
ENDBRANCH  24  25
ENDBRANCH  23  24
ENDBRANCH  22  23
ENDBRANCH  21  22
ENDBRANCH  20  21
ENDBRANCH  19  20
ENDBRANCH  18  19
ENDBRANCH   1  18
TORSDOF 28
ENDMDL
MODEL 5
REMARK VINA RESULT:    -5.096      1.389      4.690
REMARK INTER + INTRA:         -18.421
REMARK INTER:                 -13.028
REMARK INTRA:                  -5.393
REMARK UNBOUND:                -4.983
REMARK SMILES CCCCCCCCCCCCCCCCCCCCCCCCCCCCCC(=O)[O-]
REMARK SMILES IDX 16 1 17 2 18 3 19 4 20 5 21 6 22 7 23 8 24 9 25 10 26 11
REMARK SMILES IDX 27 12 28 13 29 14 30 15 31 16 32 17 15 18 14 19 13 20 12 21
REMARK SMILES IDX 11 22 10 23 9 24 8 25 7 26 6 27 5 28 4 29 3 30 2 31 1 32
REMARK H PARENT
REMARK Flexibility Score: inf
ROOT
ATOM      1  C   UNL     1      17.583 -32.262  24.529  1.00  0.00     0.000 C 
ENDROOT
BRANCH   1   2
ATOM      2  C   UNL     1      17.934 -33.717  24.893  1.00  0.00     0.000 C 
BRANCH   2   3
ATOM      3  C   UNL     1      19.418 -34.042  24.650  1.00  0.00     0.000 C 
BRANCH   3   4
ATOM      4  C   UNL     1      19.597 -35.215  23.673  1.00  0.00     0.000 C 
BRANCH   4   5
ATOM      5  C   UNL     1      20.804 -35.017  22.718  1.00  0.00     0.000 C 
BRANCH   5   6
ATOM      6  C   UNL     1      21.824 -33.957  23.205  1.00  0.00     0.000 C 
BRANCH   6   7
ATOM      7  C   UNL     1      21.891 -32.706  22.306  1.00  0.00     0.000 C 
BRANCH   7   8
ATOM      8  C   UNL     1      22.364 -31.419  23.011  1.00  0.00     0.000 C 
BRANCH   8   9
ATOM      9  C   UNL     1      21.566 -30.149  22.664  1.00  0.00     0.000 C 
BRANCH   9  10
ATOM     10  C   UNL     1      21.045 -30.136  21.219  1.00  0.00     0.000 C 
BRANCH  10  11
ATOM     11  C   UNL     1      21.033 -28.708  20.658  1.00  0.00     0.000 C 
BRANCH  11  12
ATOM     12  C   UNL     1      21.535 -27.697  21.700  1.00  0.00     0.000 C 
BRANCH  12  13
ATOM     13  C   UNL     1      20.939 -26.293  21.504  1.00  0.00     0.006 C 
BRANCH  13  14
ATOM     14  C   UNL     1      21.150 -25.750  20.082  1.00  0.00     0.053 C 
BRANCH  14  15
ATOM     15  C   UNL     1      22.582 -25.372  19.863  1.00  0.00     0.041 C 
ATOM     16  O   UNL     1      23.104 -24.449  20.545  1.00  0.00    -0.550 OA
ATOM     17  O   UNL     1      23.343 -26.048  18.919  1.00  0.00    -0.550 OA
ENDBRANCH  14  15
ENDBRANCH  13  14
ENDBRANCH  12  13
ENDBRANCH  11  12
ENDBRANCH  10  11
ENDBRANCH   9  10
ENDBRANCH   8   9
ENDBRANCH   7   8
ENDBRANCH   6   7
ENDBRANCH   5   6
ENDBRANCH   4   5
ENDBRANCH   3   4
ENDBRANCH   2   3
ENDBRANCH   1   2
BRANCH   1  18
ATOM     18  C   UNL     1      18.364 -31.724  23.312  1.00  0.00     0.000 C 
BRANCH  18  19
ATOM     19  C   UNL     1      17.462 -30.958  22.328  1.00  0.00     0.000 C 
BRANCH  19  20
ATOM     20  C   UNL     1      17.603 -31.453  20.878  1.00  0.00     0.000 C 
BRANCH  20  21
ATOM     21  C   UNL     1      18.493 -32.699  20.692  1.00  0.00     0.000 C 
BRANCH  21  22
ATOM     22  C   UNL     1      17.852 -33.850  19.897  1.00  0.00     0.000 C 
BRANCH  22  23
ATOM     23  C   UNL     1      17.602 -35.103  20.751  1.00  0.00     0.000 C 
BRANCH  23  24
ATOM     24  C   UNL     1      16.278 -34.991  21.525  1.00  0.00    -0.000 C 
BRANCH  24  25
ATOM     25  C   UNL     1      15.130 -34.450  20.658  1.00  0.00    -0.000 C 
BRANCH  25  26
ATOM     26  C   UNL     1      14.372 -33.289  21.328  1.00  0.00    -0.000 C 
BRANCH  26  27
ATOM     27  C   UNL     1      14.632 -33.212  22.844  1.00  0.00    -0.000 C 
BRANCH  27  28
ATOM     28  C   UNL     1      13.895 -32.038  23.510  1.00  0.00    -0.000 C 
BRANCH  28  29
ATOM     29  C   UNL     1      13.107 -31.183  22.503  1.00  0.00    -0.000 C 
BRANCH  29  30
ATOM     30  C   UNL     1      13.829 -29.877  22.139  1.00  0.00    -0.000 C 
BRANCH  30  31
ATOM     31  C   UNL     1      13.684 -28.840  23.260  1.00  0.00    -0.003 C 
ATOM     32  C   UNL     1      12.240 -28.744  23.741  1.00  0.00     0.004 C 
ENDBRANCH  30  31
ENDBRANCH  29  30
ENDBRANCH  28  29
ENDBRANCH  27  28
ENDBRANCH  26  27
ENDBRANCH  25  26
ENDBRANCH  24  25
ENDBRANCH  23  24
ENDBRANCH  22  23
ENDBRANCH  21  22
ENDBRANCH  20  21
ENDBRANCH  19  20
ENDBRANCH  18  19
ENDBRANCH   1  18
TORSDOF 28
ENDMDL
MODEL 6
REMARK VINA RESULT:    -5.024      2.993      6.823
REMARK INTER + INTRA:         -18.230
REMARK INTER:                 -12.811
REMARK INTRA:                  -5.420
REMARK UNBOUND:                -4.983
REMARK SMILES CCCCCCCCCCCCCCCCCCCCCCCCCCCCCC(=O)[O-]
REMARK SMILES IDX 16 1 17 2 18 3 19 4 20 5 21 6 22 7 23 8 24 9 25 10 26 11
REMARK SMILES IDX 27 12 28 13 29 14 30 15 31 16 32 17 15 18 14 19 13 20 12 21
REMARK SMILES IDX 11 22 10 23 9 24 8 25 7 26 6 27 5 28 4 29 3 30 2 31 1 32
REMARK H PARENT
REMARK Flexibility Score: inf
ROOT
ATOM      1  C   UNL     1      17.470 -31.203  20.839  1.00  0.00     0.000 C 
ENDROOT
BRANCH   1   2
ATOM      2  C   UNL     1      18.131 -32.576  21.063  1.00  0.00     0.000 C 
BRANCH   2   3
ATOM      3  C   UNL     1      18.308 -33.364  19.754  1.00  0.00     0.000 C 
BRANCH   3   4
ATOM      4  C   UNL     1      18.119 -34.875  19.962  1.00  0.00     0.000 C 
BRANCH   4   5
ATOM      5  C   UNL     1      16.939 -35.448  19.133  1.00  0.00     0.000 C 
BRANCH   5   6
ATOM      6  C   UNL     1      15.705 -35.840  19.985  1.00  0.00     0.000 C 
BRANCH   6   7
ATOM      7  C   UNL     1      15.218 -34.716  20.921  1.00  0.00     0.000 C 
BRANCH   7   8
ATOM      8  C   UNL     1      14.446 -33.576  20.227  1.00  0.00     0.000 C 
BRANCH   8   9
ATOM      9  C   UNL     1      14.001 -32.427  21.150  1.00  0.00     0.000 C 
BRANCH   9  10
ATOM     10  C   UNL     1      14.403 -32.639  22.618  1.00  0.00     0.000 C 
BRANCH  10  11
ATOM     11  C   UNL     1      14.386 -31.310  23.384  1.00  0.00     0.000 C 
BRANCH  11  12
ATOM     12  C   UNL     1      13.910 -30.157  22.486  1.00  0.00     0.000 C 
BRANCH  12  13
ATOM     13  C   UNL     1      12.446 -29.766  22.746  1.00  0.00     0.006 C 
BRANCH  13  14
ATOM     14  C   UNL     1      12.266 -28.950  24.035  1.00  0.00     0.053 C 
BRANCH  14  15
ATOM     15  C   UNL     1      12.585 -27.506  23.800  1.00  0.00     0.041 C 
ATOM     16  O   UNL     1      11.840 -26.805  23.062  1.00  0.00    -0.550 OA
ATOM     17  O   UNL     1      13.693 -26.931  24.407  1.00  0.00    -0.550 OA
ENDBRANCH  14  15
ENDBRANCH  13  14
ENDBRANCH  12  13
ENDBRANCH  11  12
ENDBRANCH  10  11
ENDBRANCH   9  10
ENDBRANCH   8   9
ENDBRANCH   7   8
ENDBRANCH   6   7
ENDBRANCH   5   6
ENDBRANCH   4   5
ENDBRANCH   3   4
ENDBRANCH   2   3
ENDBRANCH   1   2
BRANCH   1  18
ATOM     18  C   UNL     1      18.041 -30.086  21.737  1.00  0.00     0.000 C 
BRANCH  18  19
ATOM     19  C   UNL     1      18.812 -29.024  20.935  1.00  0.00     0.000 C 
BRANCH  19  20
ATOM     20  C   UNL     1      20.325 -29.047  21.212  1.00  0.00     0.000 C 
BRANCH  20  21
ATOM     21  C   UNL     1      20.999 -30.427  21.072  1.00  0.00     0.000 C 
BRANCH  21  22
ATOM     22  C   UNL     1      21.592 -31.002  22.370  1.00  0.00     0.000 C 
BRANCH  22  23
ATOM     23  C   UNL     1      21.198 -32.467  22.613  1.00  0.00     0.000 C 
BRANCH  23  24
ATOM     24  C   UNL     1      21.148 -32.786  24.116  1.00  0.00    -0.000 C 
BRANCH  24  25
ATOM     25  C   UNL     1      20.549 -31.639  24.944  1.00  0.00    -0.000 C 
BRANCH  25  26
ATOM     26  C   UNL     1      19.243 -32.036  25.658  1.00  0.00    -0.000 C 
BRANCH  26  27
ATOM     27  C   UNL     1      18.006 -31.864  24.759  1.00  0.00    -0.000 C 
BRANCH  27  28
ATOM     28  C   UNL     1      17.348 -33.208  24.398  1.00  0.00    -0.000 C 
BRANCH  28  29
ATOM     29  C   UNL     1      17.384 -34.217  25.557  1.00  0.00    -0.000 C 
BRANCH  29  30
ATOM     30  C   UNL     1      18.013 -35.560  25.157  1.00  0.00    -0.000 C 
BRANCH  30  31
ATOM     31  C   UNL     1      17.996 -35.742  23.634  1.00  0.00    -0.003 C 
ATOM     32  C   UNL     1      19.410 -35.844  23.074  1.00  0.00     0.004 C 
ENDBRANCH  30  31
ENDBRANCH  29  30
ENDBRANCH  28  29
ENDBRANCH  27  28
ENDBRANCH  26  27
ENDBRANCH  25  26
ENDBRANCH  24  25
ENDBRANCH  23  24
ENDBRANCH  22  23
ENDBRANCH  21  22
ENDBRANCH  20  21
ENDBRANCH  19  20
ENDBRANCH  18  19
ENDBRANCH   1  18
TORSDOF 28
ENDMDL
MODEL 7
REMARK VINA RESULT:    -4.954      1.331      4.556
REMARK INTER + INTRA:         -18.045
REMARK INTER:                 -12.557
REMARK INTRA:                  -5.488
REMARK UNBOUND:                -4.983
REMARK SMILES CCCCCCCCCCCCCCCCCCCCCCCCCCCCCC(=O)[O-]
REMARK SMILES IDX 16 1 17 2 18 3 19 4 20 5 21 6 22 7 23 8 24 9 25 10 26 11
REMARK SMILES IDX 27 12 28 13 29 14 30 15 31 16 32 17 15 18 14 19 13 20 12 21
REMARK SMILES IDX 11 22 10 23 9 24 8 25 7 26 6 27 5 28 4 29 3 30 2 31 1 32
REMARK H PARENT
REMARK Flexibility Score: inf
ROOT
ATOM      1  C   UNL     1      17.475 -35.335  25.634  1.00  0.00     0.000 C 
ENDROOT
BRANCH   1   2
ATOM      2  C   UNL     1      18.200 -36.284  24.662  1.00  0.00     0.000 C 
BRANCH   2   3
ATOM      3  C   UNL     1      18.054 -35.846  23.194  1.00  0.00     0.000 C 
BRANCH   3   4
ATOM      4  C   UNL     1      19.415 -35.731  22.490  1.00  0.00     0.000 C 
BRANCH   4   5
ATOM      5  C   UNL     1      20.583 -36.269  23.357  1.00  0.00     0.000 C 
BRANCH   5   6
ATOM      6  C   UNL     1      21.798 -35.310  23.439  1.00  0.00     0.000 C 
BRANCH   6   7
ATOM      7  C   UNL     1      21.411 -33.818  23.398  1.00  0.00     0.000 C 
BRANCH   7   8
ATOM      8  C   UNL     1      21.841 -33.065  22.122  1.00  0.00     0.000 C 
BRANCH   8   9
ATOM      9  C   UNL     1      21.785 -31.530  22.216  1.00  0.00     0.000 C 
BRANCH   9  10
ATOM     10  C   UNL     1      21.174 -30.868  20.971  1.00  0.00     0.000 C 
BRANCH  10  11
ATOM     11  C   UNL     1      20.702 -29.444  21.290  1.00  0.00     0.000 C 
BRANCH  11  12
ATOM     12  C   UNL     1      21.517 -28.400  20.510  1.00  0.00     0.000 C 
BRANCH  12  13
ATOM     13  C   UNL     1      21.524 -27.021  21.190  1.00  0.00     0.006 C 
BRANCH  13  14
ATOM     14  C   UNL     1      21.398 -25.862  20.190  1.00  0.00     0.053 C 
BRANCH  14  15
ATOM     15  C   UNL     1      22.639 -25.023  20.187  1.00  0.00     0.041 C 
ATOM     16  O   UNL     1      23.399 -25.021  19.181  1.00  0.00    -0.550 OA
ATOM     17  O   UNL     1      22.947 -24.234  21.287  1.00  0.00    -0.550 OA
ENDBRANCH  14  15
ENDBRANCH  13  14
ENDBRANCH  12  13
ENDBRANCH  11  12
ENDBRANCH  10  11
ENDBRANCH   9  10
ENDBRANCH   8   9
ENDBRANCH   7   8
ENDBRANCH   6   7
ENDBRANCH   5   6
ENDBRANCH   4   5
ENDBRANCH   3   4
ENDBRANCH   2   3
ENDBRANCH   1   2
BRANCH   1  18
ATOM     18  C   UNL     1      17.167 -33.948  25.031  1.00  0.00     0.000 C 
BRANCH  18  19
ATOM     19  C   UNL     1      18.082 -32.847  25.595  1.00  0.00     0.000 C 
BRANCH  19  20
ATOM     20  C   UNL     1      18.424 -31.764  24.558  1.00  0.00     0.000 C 
BRANCH  20  21
ATOM     21  C   UNL     1      18.258 -32.188  23.084  1.00  0.00     0.000 C 
BRANCH  21  22
ATOM     22  C   UNL     1      17.459 -31.210  22.206  1.00  0.00     0.000 C 
BRANCH  22  23
ATOM     23  C   UNL     1      17.578 -31.517  20.705  1.00  0.00     0.000 C 
BRANCH  23  24
ATOM     24  C   UNL     1      18.098 -32.944  20.470  1.00  0.00    -0.000 C 
BRANCH  24  25
ATOM     25  C   UNL     1      17.242 -33.728  19.463  1.00  0.00    -0.000 C 
BRANCH  25  26
ATOM     26  C   UNL     1      16.479 -34.899  20.110  1.00  0.00    -0.000 C 
BRANCH  26  27
ATOM     27  C   UNL     1      15.055 -34.507  20.542  1.00  0.00    -0.000 C 
BRANCH  27  28
ATOM     28  C   UNL     1      14.995 -34.009  21.997  1.00  0.00    -0.000 C 
BRANCH  28  29
ATOM     29  C   UNL     1      14.276 -32.657  22.133  1.00  0.00    -0.000 C 
BRANCH  29  30
ATOM     30  C   UNL     1      14.144 -32.197  23.592  1.00  0.00    -0.000 C 
BRANCH  30  31
ATOM     31  C   UNL     1      13.601 -30.765  23.669  1.00  0.00    -0.003 C 
ATOM     32  C   UNL     1      13.766 -30.039  22.339  1.00  0.00     0.004 C 
ENDBRANCH  30  31
ENDBRANCH  29  30
ENDBRANCH  28  29
ENDBRANCH  27  28
ENDBRANCH  26  27
ENDBRANCH  25  26
ENDBRANCH  24  25
ENDBRANCH  23  24
ENDBRANCH  22  23
ENDBRANCH  21  22
ENDBRANCH  20  21
ENDBRANCH  19  20
ENDBRANCH  18  19
ENDBRANCH   1  18
TORSDOF 28
ENDMDL
MODEL 8
REMARK VINA RESULT:    -4.949      3.950      7.980
REMARK INTER + INTRA:         -18.033
REMARK INTER:                 -13.459
REMARK INTRA:                  -4.574
REMARK UNBOUND:                -4.983
REMARK SMILES CCCCCCCCCCCCCCCCCCCCCCCCCCCCCC(=O)[O-]
REMARK SMILES IDX 16 1 17 2 18 3 19 4 20 5 21 6 22 7 23 8 24 9 25 10 26 11
REMARK SMILES IDX 27 12 28 13 29 14 30 15 31 16 32 17 15 18 14 19 13 20 12 21
REMARK SMILES IDX 11 22 10 23 9 24 8 25 7 26 6 27 5 28 4 29 3 30 2 31 1 32
REMARK H PARENT
REMARK Flexibility Score: inf
ROOT
ATOM      1  C   UNL     1      14.298 -29.130  23.097  1.00  0.00     0.000 C 
ENDROOT
BRANCH   1   2
ATOM      2  C   UNL     1      13.126 -29.982  23.620  1.00  0.00     0.000 C 
BRANCH   2   3
ATOM      3  C   UNL     1      13.095 -31.386  22.993  1.00  0.00     0.000 C 
BRANCH   3   4
ATOM      4  C   UNL     1      13.876 -32.409  23.833  1.00  0.00     0.000 C 
BRANCH   4   5
ATOM      5  C   UNL     1      14.653 -33.429  22.960  1.00  0.00     0.000 C 
BRANCH   5   6
ATOM      6  C   UNL     1      14.446 -33.239  21.436  1.00  0.00     0.000 C 
BRANCH   6   7
ATOM      7  C   UNL     1      15.664 -33.660  20.590  1.00  0.00     0.000 C 
BRANCH   7   8
ATOM      8  C   UNL     1      15.673 -35.137  20.147  1.00  0.00     0.000 C 
BRANCH   8   9
ATOM      9  C   UNL     1      16.847 -35.976  20.685  1.00  0.00     0.000 C 
BRANCH   9  10
ATOM     10  C   UNL     1      18.135 -35.160  20.881  1.00  0.00     0.000 C 
BRANCH  10  11
ATOM     11  C   UNL     1      18.695 -35.361  22.295  1.00  0.00     0.000 C 
BRANCH  11  12
ATOM     12  C   UNL     1      17.566 -35.455  23.332  1.00  0.00     0.000 C 
BRANCH  12  13
ATOM     13  C   UNL     1      18.079 -35.781  24.745  1.00  0.00     0.006 C 
BRANCH  13  14
ATOM     14  C   UNL     1      16.948 -35.901  25.778  1.00  0.00     0.053 C 
BRANCH  14  15
ATOM     15  C   UNL     1      17.086 -37.162  26.574  1.00  0.00     0.041 C 
ATOM     16  O   UNL     1      17.910 -38.048  26.218  1.00  0.00    -0.550 OA
ATOM     17  O   UNL     1      16.318 -37.351  27.714  1.00  0.00    -0.550 OA
ENDBRANCH  14  15
ENDBRANCH  13  14
ENDBRANCH  12  13
ENDBRANCH  11  12
ENDBRANCH  10  11
ENDBRANCH   9  10
ENDBRANCH   8   9
ENDBRANCH   7   8
ENDBRANCH   6   7
ENDBRANCH   5   6
ENDBRANCH   4   5
ENDBRANCH   3   4
ENDBRANCH   2   3
ENDBRANCH   1   2
BRANCH   1  18
ATOM     18  C   UNL     1      14.784 -29.542  21.692  1.00  0.00     0.000 C 
BRANCH  18  19
ATOM     19  C   UNL     1      16.271 -29.937  21.677  1.00  0.00     0.000 C 
BRANCH  19  20
ATOM     20  C   UNL     1      16.760 -30.476  23.032  1.00  0.00     0.000 C 
BRANCH  20  21
ATOM     21  C   UNL     1      17.926 -31.483  22.958  1.00  0.00     0.000 C 
BRANCH  21  22
ATOM     22  C   UNL     1      18.564 -31.646  21.568  1.00  0.00     0.000 C 
BRANCH  22  23
ATOM     23  C   UNL     1      20.083 -31.870  21.627  1.00  0.00     0.000 C 
BRANCH  23  24
ATOM     24  C   UNL     1      20.810 -31.024  20.569  1.00  0.00    -0.000 C 
BRANCH  24  25
ATOM     25  C   UNL     1      21.161 -29.616  21.077  1.00  0.00    -0.000 C 
BRANCH  25  26
ATOM     26  C   UNL     1      19.916 -28.787  21.447  1.00  0.00    -0.000 C 
BRANCH  26  27
ATOM     27  C   UNL     1      19.660 -27.636  20.458  1.00  0.00    -0.000 C 
BRANCH  27  28
ATOM     28  C   UNL     1      20.754 -26.555  20.514  1.00  0.00    -0.000 C 
BRANCH  28  29
ATOM     29  C   UNL     1      20.793 -25.821  21.864  1.00  0.00    -0.000 C 
BRANCH  29  30
ATOM     30  C   UNL     1      22.217 -25.681  22.423  1.00  0.00    -0.000 C 
BRANCH  30  31
ATOM     31  C   UNL     1      22.497 -26.751  23.486  1.00  0.00    -0.003 C 
ATOM     32  C   UNL     1      23.510 -27.775  22.986  1.00  0.00     0.004 C 
ENDBRANCH  30  31
ENDBRANCH  29  30
ENDBRANCH  28  29
ENDBRANCH  27  28
ENDBRANCH  26  27
ENDBRANCH  25  26
ENDBRANCH  24  25
ENDBRANCH  23  24
ENDBRANCH  22  23
ENDBRANCH  21  22
ENDBRANCH  20  21
ENDBRANCH  19  20
ENDBRANCH  18  19
ENDBRANCH   1  18
TORSDOF 28
ENDMDL
MODEL 9
REMARK VINA RESULT:    -4.946      2.492      4.303
REMARK INTER + INTRA:         -18.025
REMARK INTER:                 -12.443
REMARK INTRA:                  -5.582
REMARK UNBOUND:                -4.983
REMARK SMILES CCCCCCCCCCCCCCCCCCCCCCCCCCCCCC(=O)[O-]
REMARK SMILES IDX 16 1 17 2 18 3 19 4 20 5 21 6 22 7 23 8 24 9 25 10 26 11
REMARK SMILES IDX 27 12 28 13 29 14 30 15 31 16 32 17 15 18 14 19 13 20 12 21
REMARK SMILES IDX 11 22 10 23 9 24 8 25 7 26 6 27 5 28 4 29 3 30 2 31 1 32
REMARK H PARENT
REMARK Flexibility Score: inf
ROOT
ATOM      1  C   UNL     1      15.266 -33.866  22.518  1.00  0.00     0.000 C 
ENDROOT
BRANCH   1   2
ATOM      2  C   UNL     1      14.710 -32.922  23.600  1.00  0.00     0.000 C 
BRANCH   2   3
ATOM      3  C   UNL     1      13.515 -32.092  23.100  1.00  0.00     0.000 C 
BRANCH   3   4
ATOM      4  C   UNL     1      13.462 -30.705  23.758  1.00  0.00     0.000 C 
BRANCH   4   5
ATOM      5  C   UNL     1      13.669 -29.552  22.740  1.00  0.00     0.000 C 
BRANCH   5   6
ATOM      6  C   UNL     1      14.661 -29.893  21.599  1.00  0.00     0.000 C 
BRANCH   6   7
ATOM      7  C   UNL     1      16.107 -29.441  21.881  1.00  0.00     0.000 C 
BRANCH   7   8
ATOM      8  C   UNL     1      17.111 -30.583  22.138  1.00  0.00     0.000 C 
BRANCH   8   9
ATOM      9  C   UNL     1      17.635 -31.292  20.875  1.00  0.00     0.000 C 
BRANCH   9  10
ATOM     10  C   UNL     1      18.419 -32.577  21.183  1.00  0.00     0.000 C 
BRANCH  10  11
ATOM     11  C   UNL     1      19.922 -32.286  21.279  1.00  0.00     0.000 C 
BRANCH  11  12
ATOM     12  C   UNL     1      20.225 -30.812  20.970  1.00  0.00     0.000 C 
BRANCH  12  13
ATOM     13  C   UNL     1      21.377 -30.249  21.818  1.00  0.00     0.006 C 
BRANCH  13  14
ATOM     14  C   UNL     1      21.260 -30.619  23.305  1.00  0.00     0.053 C 
BRANCH  14  15
ATOM     15  C   UNL     1      22.461 -31.390  23.758  1.00  0.00     0.041 C 
ATOM     16  O   UNL     1      23.165 -32.015  22.919  1.00  0.00    -0.550 OA
ATOM     17  O   UNL     1      22.811 -31.405  25.101  1.00  0.00    -0.550 OA
ENDBRANCH  14  15
ENDBRANCH  13  14
ENDBRANCH  12  13
ENDBRANCH  11  12
ENDBRANCH  10  11
ENDBRANCH   9  10
ENDBRANCH   8   9
ENDBRANCH   7   8
ENDBRANCH   6   7
ENDBRANCH   5   6
ENDBRANCH   4   5
ENDBRANCH   3   4
ENDBRANCH   2   3
ENDBRANCH   1   2
BRANCH   1  18
ATOM     18  C   UNL     1      14.673 -33.615  21.115  1.00  0.00     0.000 C 
BRANCH  18  19
ATOM     19  C   UNL     1      15.020 -34.738  20.122  1.00  0.00     0.000 C 
BRANCH  19  20
ATOM     20  C   UNL     1      16.222 -34.394  19.226  1.00  0.00     0.000 C 
BRANCH  20  21
ATOM     21  C   UNL     1      17.333 -35.463  19.176  1.00  0.00     0.000 C 
BRANCH  21  22
ATOM     22  C   UNL     1      16.921 -36.860  19.670  1.00  0.00     0.000 C 
BRANCH  22  23
ATOM     23  C   UNL     1      17.756 -37.345  20.865  1.00  0.00     0.000 C 
BRANCH  23  24
ATOM     24  C   UNL     1      17.925 -36.231  21.911  1.00  0.00    -0.000 C 
BRANCH  24  25
ATOM     25  C   UNL     1      19.081 -36.505  22.887  1.00  0.00    -0.000 C 
BRANCH  25  26
ATOM     26  C   UNL     1      18.691 -36.266  24.357  1.00  0.00    -0.000 C 
BRANCH  26  27
ATOM     27  C   UNL     1      19.674 -35.328  25.082  1.00  0.00    -0.000 C 
BRANCH  27  28
ATOM     28  C   UNL     1      19.626 -33.889  24.539  1.00  0.00    -0.000 C 
BRANCH  28  29
ATOM     29  C   UNL     1      18.266 -33.212  24.773  1.00  0.00    -0.000 C 
BRANCH  29  30
ATOM     30  C   UNL     1      18.394 -31.841  25.455  1.00  0.00    -0.000 C 
BRANCH  30  31
ATOM     31  C   UNL     1      19.608 -31.806  26.392  1.00  0.00    -0.003 C 
ATOM     32  C   UNL     1      19.829 -30.408  26.957  1.00  0.00     0.004 C 
ENDBRANCH  30  31
ENDBRANCH  29  30
ENDBRANCH  28  29
ENDBRANCH  27  28
ENDBRANCH  26  27
ENDBRANCH  25  26
ENDBRANCH  24  25
ENDBRANCH  23  24
ENDBRANCH  22  23
ENDBRANCH  21  22
ENDBRANCH  20  21
ENDBRANCH  19  20
ENDBRANCH  18  19
ENDBRANCH   1  18
TORSDOF 28
ENDMDL
