MODEL 1
REMARK VINA RESULT:    -3.640      0.000      0.000
REMARK INTER + INTRA:          -8.485
REMARK INTER:                  -6.618
REMARK INTRA:                  -1.867
REMARK UNBOUND:                -1.867
REMARK SMILES CCCCCCCCCCCCCCCC(=O)[O-]
REMARK SMILES IDX 9 1 10 2 11 3 12 4 13 5 14 6 15 7 16 8 17 9 18 10 8 11 7 12
REMARK SMILES IDX 6 13 5 14 4 15 3 16 2 17 1 18
REMARK H PARENT
REMARK Flexibility Score: inf
ROOT
ATOM      1  C   UNL     1     -95.329 148.146 240.255  1.00  0.00     0.000 C 
ENDROOT
BRANCH   1   2
ATOM      2  C   UNL     1     -95.184 149.669 240.099  1.00  0.00     0.000 C 
BRANCH   2   3
ATOM      3  C   UNL     1     -96.505 150.415 240.356  1.00  0.00     0.000 C 
BRANCH   3   4
ATOM      4  C   UNL     1     -97.519 149.570 241.148  1.00  0.00     0.000 C 
BRANCH   4   5
ATOM      5  C   UNL     1     -98.592 150.430 241.833  1.00  0.00     0.000 C 
BRANCH   5   6
ATOM      6  C   UNL     1     -98.579 150.280 243.365  1.00  0.00     0.006 C 
BRANCH   6   7
ATOM      7  C   UNL     1     -99.707 151.077 244.034  1.00  0.00     0.053 C 
BRANCH   7   8
ATOM      8  C   UNL     1     -99.170 152.173 244.904  1.00  0.00     0.041 C 
ATOM      9  O   UNL     1     -98.144 151.978 245.608  1.00  0.00    -0.550 OA
ATOM     10  O   UNL     1     -99.783 153.420 244.912  1.00  0.00    -0.550 OA
ENDBRANCH   7   8
ENDBRANCH   6   7
ENDBRANCH   5   6
ENDBRANCH   4   5
ENDBRANCH   3   4
ENDBRANCH   2   3
ENDBRANCH   1   2
BRANCH   1  11
ATOM     11  C   UNL     1     -94.537 147.360 239.196  1.00  0.00     0.000 C 
BRANCH  11  12
ATOM     12  C   UNL     1     -93.849 148.257 238.145  1.00  0.00    -0.000 C 
BRANCH  12  13
ATOM     13  C   UNL     1     -94.569 148.216 236.788  1.00  0.00    -0.000 C 
BRANCH  13  14
ATOM     14  C   UNL     1     -95.374 149.500 236.553  1.00  0.00    -0.000 C 
BRANCH  14  15
ATOM     15  C   UNL     1     -96.840 149.178 236.225  1.00  0.00    -0.000 C 
BRANCH  15  16
ATOM     16  C   UNL     1     -97.508 148.319 237.319  1.00  0.00    -0.000 C 
BRANCH  16  17
ATOM     17  C   UNL     1     -98.855 148.880 237.804  1.00  0.00    -0.003 C 
ATOM     18  C   UNL     1     -98.963 150.396 237.652  1.00  0.00     0.004 C 
ENDBRANCH  16  17
ENDBRANCH  15  16
ENDBRANCH  14  15
ENDBRANCH  13  14
ENDBRANCH  12  13
ENDBRANCH  11  12
ENDBRANCH   1  11
TORSDOF 14
ENDMDL
MODEL 2
REMARK VINA RESULT:    -3.528      4.412      6.900
REMARK INTER + INTRA:          -8.282
REMARK INTER:                  -6.928
REMARK INTRA:                  -1.354
REMARK UNBOUND:                -1.867
REMARK SMILES CCCCCCCCCCCCCCCC(=O)[O-]
REMARK SMILES IDX 9 1 10 2 11 3 12 4 13 5 14 6 15 7 16 8 17 9 18 10 8 11 7 12
REMARK SMILES IDX 6 13 5 14 4 15 3 16 2 17 1 18
REMARK H PARENT
REMARK Flexibility Score: inf
ROOT
ATOM      1  C   UNL     1     -95.435 149.605 236.612  1.00  0.00     0.000 C 
ENDROOT
BRANCH   1   2
ATOM      2  C   UNL     1     -96.777 149.350 235.905  1.00  0.00     0.000 C 
BRANCH   2   3
ATOM      3  C   UNL     1     -97.039 150.346 234.763  1.00  0.00     0.000 C 
BRANCH   3   4
ATOM      4  C   UNL     1     -95.775 151.123 234.352  1.00  0.00     0.000 C 
BRANCH   4   5
ATOM      5  C   UNL     1     -96.101 152.492 233.735  1.00  0.00     0.000 C 
BRANCH   5   6
ATOM      6  C   UNL     1     -97.377 153.117 234.325  1.00  0.00     0.006 C 
BRANCH   6   7
ATOM      7  C   UNL     1     -97.896 154.285 233.476  1.00  0.00     0.053 C 
BRANCH   7   8
ATOM      8  C   UNL     1     -98.459 155.382 234.327  1.00  0.00     0.041 C 
ATOM      9  O   UNL     1     -97.907 156.514 234.349  1.00  0.00    -0.550 OA
ATOM     10  O   UNL     1     -99.612 155.165 235.071  1.00  0.00    -0.550 OA
ENDBRANCH   7   8
ENDBRANCH   6   7
ENDBRANCH   5   6
ENDBRANCH   4   5
ENDBRANCH   3   4
ENDBRANCH   2   3
ENDBRANCH   1   2
BRANCH   1  11
ATOM     11  C   UNL     1     -94.563 148.342 236.710  1.00  0.00     0.000 C 
BRANCH  11  12
ATOM     12  C   UNL     1     -93.928 148.132 238.101  1.00  0.00    -0.000 C 
BRANCH  12  13
ATOM     13  C   UNL     1     -94.586 149.011 239.176  1.00  0.00    -0.000 C 
BRANCH  13  14
ATOM     14  C   UNL     1     -95.284 148.152 240.238  1.00  0.00    -0.000 C 
BRANCH  14  15
ATOM     15  C   UNL     1     -96.600 148.802 240.693  1.00  0.00    -0.000 C 
BRANCH  15  16
ATOM     16  C   UNL     1     -96.610 150.327 240.459  1.00  0.00    -0.000 C 
BRANCH  16  17
ATOM     17  C   UNL     1     -98.004 150.890 240.135  1.00  0.00    -0.003 C 
ATOM     18  C   UNL     1     -98.696 150.154 238.990  1.00  0.00     0.004 C 
ENDBRANCH  16  17
ENDBRANCH  15  16
ENDBRANCH  14  15
ENDBRANCH  13  14
ENDBRANCH  12  13
ENDBRANCH  11  12
ENDBRANCH   1  11
TORSDOF 14
ENDMDL
MODEL 3
REMARK VINA RESULT:    -3.524      4.645      7.023
REMARK INTER + INTRA:          -8.275
REMARK INTER:                  -6.845
REMARK INTRA:                  -1.431
REMARK UNBOUND:                -1.867
REMARK SMILES CCCCCCCCCCCCCCCC(=O)[O-]
REMARK SMILES IDX 9 1 10 2 11 3 12 4 13 5 14 6 15 7 16 8 17 9 18 10 8 11 7 12
REMARK SMILES IDX 6 13 5 14 4 15 3 16 2 17 1 18
REMARK H PARENT
REMARK Flexibility Score: inf
ROOT
ATOM      1  C   UNL     1     -95.747 148.529 236.527  1.00  0.00     0.000 C 
ENDROOT
BRANCH   1   2
ATOM      2  C   UNL     1     -96.529 149.377 235.509  1.00  0.00     0.000 C 
BRANCH   2   3
ATOM      3  C   UNL     1     -95.750 150.625 235.061  1.00  0.00     0.000 C 
BRANCH   3   4
ATOM      4  C   UNL     1     -96.059 151.026 233.608  1.00  0.00     0.000 C 
BRANCH   4   5
ATOM      5  C   UNL     1     -96.119 152.550 233.419  1.00  0.00     0.000 C 
BRANCH   5   6
ATOM      6  C   UNL     1     -97.460 153.150 233.875  1.00  0.00     0.006 C 
BRANCH   6   7
ATOM      7  C   UNL     1     -97.272 154.430 234.701  1.00  0.00     0.053 C 
BRANCH   7   8
ATOM      8  C   UNL     1     -98.171 155.531 234.229  1.00  0.00     0.041 C 
ATOM      9  O   UNL     1     -99.332 155.269 233.817  1.00  0.00    -0.550 OA
ATOM     10  O   UNL     1     -97.740 156.851 234.277  1.00  0.00    -0.550 OA
ENDBRANCH   7   8
ENDBRANCH   6   7
ENDBRANCH   5   6
ENDBRANCH   4   5
ENDBRANCH   3   4
ENDBRANCH   2   3
ENDBRANCH   1   2
BRANCH   1  11
ATOM     11  C   UNL     1     -94.918 149.382 237.502  1.00  0.00     0.000 C 
BRANCH  11  12
ATOM     12  C   UNL     1     -94.332 148.580 238.684  1.00  0.00    -0.000 C 
BRANCH  12  13
ATOM     13  C   UNL     1     -95.111 148.817 239.987  1.00  0.00    -0.000 C 
BRANCH  13  14
ATOM     14  C   UNL     1     -95.766 150.204 239.993  1.00  0.00    -0.000 C 
BRANCH  14  15
ATOM     15  C   UNL     1     -97.092 150.184 240.768  1.00  0.00    -0.000 C 
BRANCH  15  16
ATOM     16  C   UNL     1     -98.255 150.785 239.951  1.00  0.00    -0.000 C 
BRANCH  16  17
ATOM     17  C   UNL     1     -98.487 150.083 238.603  1.00  0.00    -0.003 C 
ATOM     18  C   UNL     1     -99.217 150.960 237.588  1.00  0.00     0.004 C 
ENDBRANCH  16  17
ENDBRANCH  15  16
ENDBRANCH  14  15
ENDBRANCH  13  14
ENDBRANCH  12  13
ENDBRANCH  11  12
ENDBRANCH   1  11
TORSDOF 14
ENDMDL
MODEL 4
REMARK VINA RESULT:    -3.515      1.379      3.052
REMARK INTER + INTRA:          -8.258
REMARK INTER:                  -6.237
REMARK INTRA:                  -2.022
REMARK UNBOUND:                -1.867
REMARK SMILES CCCCCCCCCCCCCCCC(=O)[O-]
REMARK SMILES IDX 9 1 10 2 11 3 12 4 13 5 14 6 15 7 16 8 17 9 18 10 8 11 7 12
REMARK SMILES IDX 6 13 5 14 4 15 3 16 2 17 1 18
REMARK H PARENT
REMARK Flexibility Score: inf
ROOT
ATOM      1  C   UNL     1     -98.212 150.946 240.197  1.00  0.00     0.000 C 
ENDROOT
BRANCH   1   2
ATOM      2  C   UNL     1     -99.264 149.900 239.790  1.00  0.00     0.000 C 
BRANCH   2   3
ATOM      3  C   UNL     1    -100.678 150.268 240.270  1.00  0.00     0.000 C 
BRANCH   3   4
ATOM      4  C   UNL     1    -101.090 149.507 241.542  1.00  0.00     0.000 C 
BRANCH   4   5
ATOM      5  C   UNL     1    -100.918 150.352 242.814  1.00  0.00     0.000 C 
BRANCH   5   6
ATOM      6  C   UNL     1     -99.751 149.869 243.692  1.00  0.00     0.006 C 
BRANCH   6   7
ATOM      7  C   UNL     1     -98.725 150.979 243.956  1.00  0.00     0.053 C 
BRANCH   7   8
ATOM      8  C   UNL     1     -99.126 151.840 245.115  1.00  0.00     0.041 C 
ATOM      9  O   UNL     1     -98.904 151.458 246.294  1.00  0.00    -0.550 OA
ATOM     10  O   UNL     1     -99.713 153.080 244.892  1.00  0.00    -0.550 OA
ENDBRANCH   7   8
ENDBRANCH   6   7
ENDBRANCH   5   6
ENDBRANCH   4   5
ENDBRANCH   3   4
ENDBRANCH   2   3
ENDBRANCH   1   2
BRANCH   1  11
ATOM     11  C   UNL     1     -96.911 150.312 240.718  1.00  0.00     0.000 C 
BRANCH  11  12
ATOM     12  C   UNL     1     -96.977 148.775 240.845  1.00  0.00    -0.000 C 
BRANCH  12  13
ATOM     13  C   UNL     1     -95.682 148.099 240.372  1.00  0.00    -0.000 C 
BRANCH  13  14
ATOM     14  C   UNL     1     -94.706 149.127 239.786  1.00  0.00    -0.000 C 
BRANCH  14  15
ATOM     15  C   UNL     1     -94.219 148.693 238.394  1.00  0.00    -0.000 C 
BRANCH  15  16
ATOM     16  C   UNL     1     -94.856 149.530 237.266  1.00  0.00    -0.000 C 
BRANCH  16  17
ATOM     17  C   UNL     1     -95.982 148.797 236.517  1.00  0.00    -0.003 C 
ATOM     18  C   UNL     1     -97.354 149.434 236.728  1.00  0.00     0.004 C 
ENDBRANCH  16  17
ENDBRANCH  15  16
ENDBRANCH  14  15
ENDBRANCH  13  14
ENDBRANCH  12  13
ENDBRANCH  11  12
ENDBRANCH   1  11
TORSDOF 14
ENDMDL
MODEL 5
REMARK VINA RESULT:    -3.491      4.303      6.715
REMARK INTER + INTRA:          -8.214
REMARK INTER:                  -5.966
REMARK INTRA:                  -2.248
REMARK UNBOUND:                -1.867
REMARK SMILES CCCCCCCCCCCCCCCC(=O)[O-]
REMARK SMILES IDX 9 1 10 2 11 3 12 4 13 5 14 6 15 7 16 8 17 9 18 10 8 11 7 12
REMARK SMILES IDX 6 13 5 14 4 15 3 16 2 17 1 18
REMARK H PARENT
REMARK Flexibility Score: inf
ROOT
ATOM      1  C   UNL     1     -94.222 148.938 238.218  1.00  0.00     0.000 C 
ENDROOT
BRANCH   1   2
ATOM      2  C   UNL     1     -95.056 149.498 237.054  1.00  0.00     0.000 C 
BRANCH   2   3
ATOM      3  C   UNL     1     -95.160 148.513 235.877  1.00  0.00     0.000 C 
BRANCH   3   4
ATOM      4  C   UNL     1     -95.985 149.074 234.705  1.00  0.00     0.000 C 
BRANCH   4   5
ATOM      5  C   UNL     1     -96.177 150.596 234.798  1.00  0.00     0.000 C 
BRANCH   5   6
ATOM      6  C   UNL     1     -97.461 151.074 234.098  1.00  0.00     0.006 C 
BRANCH   6   7
ATOM      7  C   UNL     1     -98.034 152.344 234.741  1.00  0.00     0.053 C 
BRANCH   7   8
ATOM      8  C   UNL     1     -97.579 153.580 234.028  1.00  0.00     0.041 C 
ATOM      9  O   UNL     1     -97.247 154.603 234.683  1.00  0.00    -0.550 OA
ATOM     10  O   UNL     1     -97.487 153.592 232.642  1.00  0.00    -0.550 OA
ENDBRANCH   7   8
ENDBRANCH   6   7
ENDBRANCH   5   6
ENDBRANCH   4   5
ENDBRANCH   3   4
ENDBRANCH   2   3
ENDBRANCH   1   2
BRANCH   1  11
ATOM     11  C   UNL     1     -95.044 148.751 239.505  1.00  0.00     0.000 C 
BRANCH  11  12
ATOM     12  C   UNL     1     -95.674 150.057 240.034  1.00  0.00    -0.000 C 
BRANCH  12  13
ATOM     13  C   UNL     1     -97.088 149.834 240.589  1.00  0.00    -0.000 C 
BRANCH  13  14
ATOM     14  C   UNL     1     -98.029 150.972 240.174  1.00  0.00    -0.000 C 
BRANCH  14  15
ATOM     15  C   UNL     1     -99.114 150.466 239.210  1.00  0.00    -0.000 C 
BRANCH  15  16
ATOM     16  C   UNL     1     -98.573 150.258 237.780  1.00  0.00    -0.000 C 
BRANCH  16  17
ATOM     17  C   UNL     1     -98.985 148.914 237.156  1.00  0.00    -0.003 C 
ATOM     18  C   UNL     1     -98.241 147.723 237.756  1.00  0.00     0.004 C 
ENDBRANCH  16  17
ENDBRANCH  15  16
ENDBRANCH  14  15
ENDBRANCH  13  14
ENDBRANCH  12  13
ENDBRANCH  11  12
ENDBRANCH   1  11
TORSDOF 14
ENDMDL
MODEL 6
REMARK VINA RESULT:    -3.409      4.136      6.376
REMARK INTER + INTRA:          -8.066
REMARK INTER:                  -6.360
REMARK INTRA:                  -1.706
REMARK UNBOUND:                -1.867
REMARK SMILES CCCCCCCCCCCCCCCC(=O)[O-]
REMARK SMILES IDX 9 1 10 2 11 3 12 4 13 5 14 6 15 7 16 8 17 9 18 10 8 11 7 12
REMARK SMILES IDX 6 13 5 14 4 15 3 16 2 17 1 18
REMARK H PARENT
REMARK Flexibility Score: inf
ROOT
ATOM      1  C   UNL     1     -98.120 150.825 240.000  1.00  0.00     0.000 C 
ENDROOT
BRANCH   1   2
ATOM      2  C   UNL     1     -98.942 149.753 239.265  1.00  0.00     0.000 C 
BRANCH   2   3
ATOM      3  C   UNL     1     -99.580 150.286 237.971  1.00  0.00     0.000 C 
BRANCH   3   4
ATOM      4  C   UNL     1     -99.468 151.815 237.840  1.00  0.00     0.000 C 
BRANCH   4   5
ATOM      5  C   UNL     1     -99.874 152.317 236.446  1.00  0.00     0.000 C 
BRANCH   5   6
ATOM      6  C   UNL     1     -98.923 151.828 235.340  1.00  0.00     0.006 C 
BRANCH   6   7
ATOM      7  C   UNL     1     -98.747 152.866 234.224  1.00  0.00     0.053 C 
BRANCH   7   8
ATOM      8  C   UNL     1     -97.458 153.617 234.363  1.00  0.00     0.041 C 
ATOM      9  O   UNL     1     -96.370 153.071 234.040  1.00  0.00    -0.550 OA
ATOM     10  O   UNL     1     -97.462 154.930 234.816  1.00  0.00    -0.550 OA
ENDBRANCH   7   8
ENDBRANCH   6   7
ENDBRANCH   5   6
ENDBRANCH   4   5
ENDBRANCH   3   4
ENDBRANCH   2   3
ENDBRANCH   1   2
BRANCH   1  11
ATOM     11  C   UNL     1     -96.921 150.237 240.763  1.00  0.00     0.000 C 
BRANCH  11  12
ATOM     12  C   UNL     1     -96.898 148.694 240.788  1.00  0.00    -0.000 C 
BRANCH  12  13
ATOM     13  C   UNL     1     -95.579 148.125 240.244  1.00  0.00    -0.000 C 
BRANCH  13  14
ATOM     14  C   UNL     1     -94.725 149.228 239.606  1.00  0.00    -0.000 C 
BRANCH  14  15
ATOM     15  C   UNL     1     -93.914 148.680 238.421  1.00  0.00    -0.000 C 
BRANCH  15  16
ATOM     16  C   UNL     1     -94.799 148.402 237.188  1.00  0.00    -0.000 C 
BRANCH  16  17
ATOM     17  C   UNL     1     -95.826 149.510 236.904  1.00  0.00    -0.003 C 
ATOM     18  C   UNL     1     -95.899 149.897 235.429  1.00  0.00     0.004 C 
ENDBRANCH  16  17
ENDBRANCH  15  16
ENDBRANCH  14  15
ENDBRANCH  13  14
ENDBRANCH  12  13
ENDBRANCH  11  12
ENDBRANCH   1  11
TORSDOF 14
ENDMDL
MODEL 7
REMARK VINA RESULT:    -3.398      4.158      6.781
REMARK INTER + INTRA:          -8.045
REMARK INTER:                  -5.899
REMARK INTRA:                  -2.146
REMARK UNBOUND:                -1.867
REMARK SMILES CCCCCCCCCCCCCCCC(=O)[O-]
REMARK SMILES IDX 9 1 10 2 11 3 12 4 13 5 14 6 15 7 16 8 17 9 18 10 8 11 7 12
REMARK SMILES IDX 6 13 5 14 4 15 3 16 2 17 1 18
REMARK H PARENT
REMARK Flexibility Score: inf
ROOT
ATOM      1  C   UNL     1     -94.971 147.628 240.210  1.00  0.00     0.000 C 
ENDROOT
BRANCH   1   2
ATOM      2  C   UNL     1     -94.751 149.071 239.724  1.00  0.00     0.000 C 
BRANCH   2   3
ATOM      3  C   UNL     1     -94.160 149.130 238.305  1.00  0.00     0.000 C 
BRANCH   3   4
ATOM      4  C   UNL     1     -93.625 147.767 237.829  1.00  0.00     0.000 C 
BRANCH   4   5
ATOM      5  C   UNL     1     -94.125 147.398 236.423  1.00  0.00     0.000 C 
BRANCH   5   6
ATOM      6  C   UNL     1     -95.288 148.291 235.957  1.00  0.00     0.006 C 
BRANCH   6   7
ATOM      7  C   UNL     1     -95.119 148.750 234.502  1.00  0.00     0.053 C 
BRANCH   7   8
ATOM      8  C   UNL     1     -95.937 149.970 234.208  1.00  0.00     0.041 C 
ATOM      9  O   UNL     1     -95.656 151.068 234.756  1.00  0.00    -0.550 OA
ATOM     10  O   UNL     1     -96.988 149.903 233.301  1.00  0.00    -0.550 OA
ENDBRANCH   7   8
ENDBRANCH   6   7
ENDBRANCH   5   6
ENDBRANCH   4   5
ENDBRANCH   3   4
ENDBRANCH   2   3
ENDBRANCH   1   2
BRANCH   1  11
ATOM     11  C   UNL     1     -96.460 147.257 240.320  1.00  0.00     0.000 C 
BRANCH  11  12
ATOM     12  C   UNL     1     -97.194 147.230 238.963  1.00  0.00    -0.000 C 
BRANCH  12  13
ATOM     13  C   UNL     1     -98.449 148.115 238.966  1.00  0.00    -0.000 C 
BRANCH  13  14
ATOM     14  C   UNL     1     -98.121 149.538 238.497  1.00  0.00    -0.000 C 
BRANCH  14  15
ATOM     15  C   UNL     1     -98.653 150.582 239.492  1.00  0.00    -0.000 C 
BRANCH  15  16
ATOM     16  C   UNL     1     -97.767 150.692 240.751  1.00  0.00    -0.000 C 
BRANCH  16  17
ATOM     17  C   UNL     1     -98.539 150.485 242.065  1.00  0.00    -0.003 C 
ATOM     18  C   UNL     1     -98.285 149.119 242.700  1.00  0.00     0.004 C 
ENDBRANCH  16  17
ENDBRANCH  15  16
ENDBRANCH  14  15
ENDBRANCH  13  14
ENDBRANCH  12  13
ENDBRANCH  11  12
ENDBRANCH   1  11
TORSDOF 14
ENDMDL
MODEL 8
REMARK VINA RESULT:    -3.374      3.032      3.901
REMARK INTER + INTRA:          -8.003
REMARK INTER:                  -5.955
REMARK INTRA:                  -2.048
REMARK UNBOUND:                -1.867
REMARK SMILES CCCCCCCCCCCCCCCC(=O)[O-]
REMARK SMILES IDX 9 1 10 2 11 3 12 4 13 5 14 6 15 7 16 8 17 9 18 10 8 11 7 12
REMARK SMILES IDX 6 13 5 14 4 15 3 16 2 17 1 18
REMARK H PARENT
REMARK Flexibility Score: inf
ROOT
ATOM      1  C   UNL     1     -93.879 149.005 238.335  1.00  0.00     0.000 C 
ENDROOT
BRANCH   1   2
ATOM      2  C   UNL     1     -94.696 149.237 239.618  1.00  0.00     0.000 C 
BRANCH   2   3
ATOM      3  C   UNL     1     -95.769 148.157 239.835  1.00  0.00     0.000 C 
BRANCH   3   4
ATOM      4  C   UNL     1     -97.084 148.732 240.393  1.00  0.00     0.000 C 
BRANCH   4   5
ATOM      5  C   UNL     1     -96.983 150.234 240.704  1.00  0.00     0.000 C 
BRANCH   5   6
ATOM      6  C   UNL     1     -98.201 151.026 240.199  1.00  0.00     0.006 C 
BRANCH   6   7
ATOM      7  C   UNL     1     -98.749 150.466 238.879  1.00  0.00     0.053 C 
BRANCH   7   8
ATOM      8  C   UNL     1     -99.803 151.356 238.295  1.00  0.00     0.041 C 
ATOM      9  O   UNL     1     -99.563 152.025 237.255  1.00  0.00    -0.550 OA
ATOM     10  O   UNL     1    -101.062 151.421 238.879  1.00  0.00    -0.550 OA
ENDBRANCH   7   8
ENDBRANCH   6   7
ENDBRANCH   5   6
ENDBRANCH   4   5
ENDBRANCH   3   4
ENDBRANCH   2   3
ENDBRANCH   1   2
BRANCH   1  11
ATOM     11  C   UNL     1     -93.476 147.533 238.143  1.00  0.00     0.000 C 
BRANCH  11  12
ATOM     12  C   UNL     1     -93.689 147.015 236.704  1.00  0.00    -0.000 C 
BRANCH  12  13
ATOM     13  C   UNL     1     -94.578 147.955 235.876  1.00  0.00    -0.000 C 
BRANCH  13  14
ATOM     14  C   UNL     1     -95.996 147.387 235.732  1.00  0.00    -0.000 C 
BRANCH  14  15
ATOM     15  C   UNL     1     -97.050 148.426 236.143  1.00  0.00    -0.000 C 
BRANCH  15  16
ATOM     16  C   UNL     1     -96.507 149.869 236.070  1.00  0.00    -0.000 C 
BRANCH  16  17
ATOM     17  C   UNL     1     -96.901 150.610 234.781  1.00  0.00    -0.003 C 
ATOM     18  C   UNL     1     -95.698 151.141 234.005  1.00  0.00     0.004 C 
ENDBRANCH  16  17
ENDBRANCH  15  16
ENDBRANCH  14  15
ENDBRANCH  13  14
ENDBRANCH  12  13
ENDBRANCH  11  12
ENDBRANCH   1  11
TORSDOF 14
ENDMDL
MODEL 9
REMARK VINA RESULT:    -3.359      4.129      6.338
REMARK INTER + INTRA:          -7.974
REMARK INTER:                  -5.605
REMARK INTRA:                  -2.369
REMARK UNBOUND:                -1.867
REMARK SMILES CCCCCCCCCCCCCCCC(=O)[O-]
REMARK SMILES IDX 9 1 10 2 11 3 12 4 13 5 14 6 15 7 16 8 17 9 18 10 8 11 7 12
REMARK SMILES IDX 6 13 5 14 4 15 3 16 2 17 1 18
REMARK H PARENT
REMARK Flexibility Score: inf
ROOT
ATOM      1  C   UNL     1     -95.145 149.495 237.175  1.00  0.00     0.000 C 
ENDROOT
BRANCH   1   2
ATOM      2  C   UNL     1     -95.468 148.528 236.024  1.00  0.00     0.000 C 
BRANCH   2   3
ATOM      3  C   UNL     1     -96.812 147.808 236.219  1.00  0.00     0.000 C 
BRANCH   3   4
ATOM      4  C   UNL     1     -97.770 148.581 237.144  1.00  0.00     0.000 C 
BRANCH   4   5
ATOM      5  C   UNL     1     -98.880 149.305 236.367  1.00  0.00     0.000 C 
BRANCH   5   6
ATOM      6  C   UNL     1     -98.500 150.750 236.002  1.00  0.00     0.006 C 
BRANCH   6   7
ATOM      7  C   UNL     1     -98.139 150.897 234.517  1.00  0.00     0.053 C 
BRANCH   7   8
ATOM      8  C   UNL     1     -97.087 151.941 234.304  1.00  0.00     0.041 C 
ATOM      9  O   UNL     1     -97.403 153.159 234.256  1.00  0.00    -0.550 OA
ATOM     10  O   UNL     1     -95.752 151.572 234.192  1.00  0.00    -0.550 OA
ENDBRANCH   7   8
ENDBRANCH   6   7
ENDBRANCH   5   6
ENDBRANCH   4   5
ENDBRANCH   3   4
ENDBRANCH   2   3
ENDBRANCH   1   2
BRANCH   1  11
ATOM     11  C   UNL     1     -94.174 148.893 238.205  1.00  0.00     0.000 C 
BRANCH  11  12
ATOM     12  C   UNL     1     -94.570 149.174 239.670  1.00  0.00    -0.000 C 
BRANCH  12  13
ATOM     13  C   UNL     1     -95.627 148.184 240.184  1.00  0.00    -0.000 C 
BRANCH  13  14
ATOM     14  C   UNL     1     -96.825 148.923 240.793  1.00  0.00    -0.000 C 
BRANCH  14  15
ATOM     15  C   UNL     1     -96.799 150.414 240.421  1.00  0.00    -0.000 C 
BRANCH  15  16
ATOM     16  C   UNL     1     -98.202 150.951 240.066  1.00  0.00    -0.000 C 
BRANCH  16  17
ATOM     17  C   UNL     1     -99.347 150.164 240.725  1.00  0.00    -0.003 C 
ATOM     18  C   UNL     1    -100.436 149.750 239.737  1.00  0.00     0.004 C 
ENDBRANCH  16  17
ENDBRANCH  15  16
ENDBRANCH  14  15
ENDBRANCH  13  14
ENDBRANCH  12  13
ENDBRANCH  11  12
ENDBRANCH   1  11
TORSDOF 14
ENDMDL
