MODEL 1
REMARK VINA RESULT:    -6.408      0.000      0.000
REMARK INTER + INTRA:         -11.413
REMARK INTER:                  -9.967
REMARK INTRA:                  -1.446
REMARK UNBOUND:                -1.446
REMARK SMILES COc1cc(CNC(=O)CCCCC=CC(C)C)ccc1O
REMARK SMILES IDX 11 1 12 2 13 3 14 4 15 5 16 6 17 7 18 8 10 9 8 10 9 11 7 12
REMARK SMILES IDX 6 14 5 15 4 16 19 17 3 18 20 19 21 20 2 21 1 22 22 23
REMARK H PARENT 7 13 22 24
REMARK Flexibility Score: inf
ROOT
ATOM      1  C   UNL     1     156.619 146.925 134.528  1.00  0.00     0.010 C 
ENDROOT
BRANCH   1   2
ATOM      2  C   UNL     1     156.868 148.192 135.359  1.00  0.00     0.005 C 
BRANCH   2   3
ATOM      3  C   UNL     1     155.844 148.320 136.492  1.00  0.00     0.027 C 
BRANCH   3   4
ATOM      4  C   UNL     1     154.764 147.283 136.364  1.00  0.00    -0.031 C 
ATOM      5  C   UNL     1     153.466 147.622 136.316  1.00  0.00    -0.028 C 
BRANCH   5   6
ATOM      6  C   UNL     1     152.358 146.598 136.202  1.00  0.00     0.005 C 
ATOM      7  C   UNL     1     152.798 145.236 136.750  1.00  0.00     0.012 C 
ATOM      8  C   UNL     1     151.079 147.085 136.889  1.00  0.00     0.012 C 
ENDBRANCH   5   6
ENDBRANCH   3   4
ENDBRANCH   2   3
ENDBRANCH   1   2
BRANCH   1   9
ATOM      9  C   UNL     1     156.834 147.164 133.027  1.00  0.00     0.100 C 
BRANCH   9  10
ATOM     10  C   UNL     1     155.602 146.841 132.232  1.00  0.00     0.220 C 
ATOM     11  O   UNL     1     155.654 146.874 130.972  1.00  0.00    -0.275 OA
ATOM     12  N   UNL     1     154.369 146.535 132.901  1.00  0.00    -0.352 N 
ATOM     13  H   UNL     1     154.362 146.483 133.945  1.00  0.00     0.163 HD
BRANCH  12  14
ATOM     14  C   UNL     1     153.083 146.483 132.209  1.00  0.00     0.151 C 
BRANCH  14  15
ATOM     15  C   UNL     1     152.530 145.087 132.267  1.00  0.00    -0.025 A 
ATOM     16  C   UNL     1     152.971 144.196 133.258  1.00  0.00     0.056 A 
ATOM     17  C   UNL     1     151.609 144.646 131.306  1.00  0.00     0.009 A 
ATOM     18  C   UNL     1     152.496 142.870 133.294  1.00  0.00     0.160 A 
ATOM     19  C   UNL     1     151.116 143.340 131.351  1.00  0.00     0.050 A 
ATOM     20  C   UNL     1     151.552 142.454 132.344  1.00  0.00     0.157 A 
BRANCH  18  21
ATOM     21  O   UNL     1     152.941 141.943 134.247  1.00  0.00    -0.493 OA
ATOM     22  C   UNL     1     152.439 141.852 135.576  1.00  0.00     0.278 C 
ENDBRANCH  18  21
BRANCH  20  23
ATOM     23  O   UNL     1     151.056 141.153 132.391  1.00  0.00    -0.504 OA
ATOM     24  H   UNL     1     151.122 140.530 131.592  1.00  0.00     0.293 HD
ENDBRANCH  20  23
ENDBRANCH  14  15
ENDBRANCH  12  14
ENDBRANCH   9  10
ENDBRANCH   1   9
TORSDOF 10
ENDMDL
MODEL 2
REMARK VINA RESULT:    -6.004      1.897      6.485
REMARK INTER + INTRA:         -10.785
REMARK INTER:                  -9.544
REMARK INTRA:                  -1.241
REMARK UNBOUND:                -1.446
REMARK SMILES COc1cc(CNC(=O)CCCCC=CC(C)C)ccc1O
REMARK SMILES IDX 11 1 12 2 13 3 14 4 15 5 16 6 17 7 18 8 10 9 8 10 9 11 7 12
REMARK SMILES IDX 6 14 5 15 4 16 19 17 3 18 20 19 21 20 2 21 1 22 22 23
REMARK H PARENT 7 13 22 24
REMARK Flexibility Score: inf
ROOT
ATOM      1  C   UNL     1     152.602 141.538 132.441  1.00  0.00     0.010 C 
ENDROOT
BRANCH   1   2
ATOM      2  C   UNL     1     151.121 141.871 132.208  1.00  0.00     0.005 C 
BRANCH   2   3
ATOM      3  C   UNL     1     150.965 143.069 131.266  1.00  0.00     0.027 C 
BRANCH   3   4
ATOM      4  C   UNL     1     151.524 144.320 131.887  1.00  0.00    -0.031 C 
ATOM      5  C   UNL     1     151.496 145.497 131.241  1.00  0.00    -0.028 C 
BRANCH   5   6
ATOM      6  C   UNL     1     152.063 146.767 131.835  1.00  0.00     0.005 C 
ATOM      7  C   UNL     1     152.394 147.794 130.746  1.00  0.00     0.012 C 
ATOM      8  C   UNL     1     151.120 147.359 132.886  1.00  0.00     0.012 C 
ENDBRANCH   5   6
ENDBRANCH   3   4
ENDBRANCH   2   3
ENDBRANCH   1   2
BRANCH   1   9
ATOM      9  C   UNL     1     152.869 141.059 133.875  1.00  0.00     0.100 C 
BRANCH   9  10
ATOM     10  C   UNL     1     152.732 142.178 134.868  1.00  0.00     0.220 C 
ATOM     11  O   UNL     1     152.238 141.938 136.003  1.00  0.00    -0.275 OA
ATOM     12  N   UNL     1     153.126 143.512 134.513  1.00  0.00    -0.352 N 
ATOM     13  H   UNL     1     153.563 143.676 133.577  1.00  0.00     0.163 HD
BRANCH  12  14
ATOM     14  C   UNL     1     152.772 144.682 135.312  1.00  0.00     0.151 C 
BRANCH  14  15
ATOM     15  C   UNL     1     153.903 145.673 135.294  1.00  0.00    -0.025 A 
ATOM     16  C   UNL     1     154.756 145.745 134.183  1.00  0.00     0.056 A 
ATOM     17  C   UNL     1     154.146 146.496 136.404  1.00  0.00     0.009 A 
ATOM     18  C   UNL     1     155.848 146.635 134.174  1.00  0.00     0.160 A 
ATOM     19  C   UNL     1     155.212 147.397 136.391  1.00  0.00     0.050 A 
ATOM     20  C   UNL     1     156.059 147.473 135.279  1.00  0.00     0.157 A 
BRANCH  18  21
ATOM     21  O   UNL     1     156.743 146.710 133.096  1.00  0.00    -0.493 OA
ATOM     22  C   UNL     1     156.358 146.960 131.748  1.00  0.00     0.278 C 
ENDBRANCH  18  21
BRANCH  20  23
ATOM     23  O   UNL     1     157.120 148.376 135.265  1.00  0.00    -0.504 OA
ATOM     24  H   UNL     1     157.741 148.454 134.466  1.00  0.00     0.293 HD
ENDBRANCH  20  23
ENDBRANCH  14  15
ENDBRANCH  12  14
ENDBRANCH   9  10
ENDBRANCH   1   9
TORSDOF 10
ENDMDL
MODEL 3
REMARK VINA RESULT:    -5.953      1.825      3.577
REMARK INTER + INTRA:         -10.705
REMARK INTER:                  -8.918
REMARK INTRA:                  -1.787
REMARK UNBOUND:                -1.446
REMARK SMILES COc1cc(CNC(=O)CCCCC=CC(C)C)ccc1O
REMARK SMILES IDX 11 1 12 2 13 3 14 4 15 5 16 6 17 7 18 8 10 9 8 10 9 11 7 12
REMARK SMILES IDX 6 14 5 15 4 16 19 17 3 18 20 19 21 20 2 21 1 22 22 23
REMARK H PARENT 7 13 22 24
REMARK Flexibility Score: inf
ROOT
ATOM      1  C   UNL     1     152.271 147.737 135.935  1.00  0.00     0.010 C 
ENDROOT
BRANCH   1   2
ATOM      2  C   UNL     1     152.289 146.454 136.777  1.00  0.00     0.005 C 
BRANCH   2   3
ATOM      3  C   UNL     1     153.596 145.679 136.577  1.00  0.00     0.027 C 
BRANCH   3   4
ATOM      4  C   UNL     1     154.494 146.380 135.596  1.00  0.00    -0.031 C 
ATOM      5  C   UNL     1     155.454 145.721 134.926  1.00  0.00    -0.028 C 
BRANCH   5   6
ATOM      6  C   UNL     1     156.380 146.403 133.945  1.00  0.00     0.005 C 
ATOM      7  C   UNL     1     155.644 146.786 132.656  1.00  0.00     0.012 C 
ATOM      8  C   UNL     1     157.062 147.620 134.577  1.00  0.00     0.012 C 
ENDBRANCH   5   6
ENDBRANCH   3   4
ENDBRANCH   2   3
ENDBRANCH   1   2
BRANCH   1   9
ATOM      9  C   UNL     1     150.878 148.035 135.361  1.00  0.00     0.100 C 
BRANCH   9  10
ATOM     10  C   UNL     1     150.790 147.674 133.906  1.00  0.00     0.220 C 
ATOM     11  O   UNL     1     149.664 147.677 133.338  1.00  0.00    -0.275 OA
ATOM     12  N   UNL     1     151.970 147.295 133.182  1.00  0.00    -0.352 N 
ATOM     13  H   UNL     1     152.894 147.333 133.670  1.00  0.00     0.163 HD
BRANCH  12  14
ATOM     14  C   UNL     1     151.924 146.674 131.860  1.00  0.00     0.151 C 
BRANCH  14  15
ATOM     15  C   UNL     1     151.861 145.179 132.002  1.00  0.00    -0.025 A 
ATOM     16  C   UNL     1     152.488 144.549 133.088  1.00  0.00     0.056 A 
ATOM     17  C   UNL     1     151.222 144.398 131.027  1.00  0.00     0.009 A 
ATOM     18  C   UNL     1     152.478 143.145 133.205  1.00  0.00     0.160 A 
ATOM     19  C   UNL     1     151.188 143.008 131.151  1.00  0.00     0.050 A 
ATOM     20  C   UNL     1     151.809 142.380 132.239  1.00  0.00     0.157 A 
BRANCH  18  21
ATOM     21  O   UNL     1     153.124 142.479 134.257  1.00  0.00    -0.493 OA
ATOM     22  C   UNL     1     152.532 142.214 135.525  1.00  0.00     0.278 C 
ENDBRANCH  18  21
BRANCH  20  23
ATOM     23  O   UNL     1     151.770 140.993 132.365  1.00  0.00    -0.504 OA
ATOM     24  H   UNL     1     151.072 140.531 132.938  1.00  0.00     0.293 HD
ENDBRANCH  20  23
ENDBRANCH  14  15
ENDBRANCH  12  14
ENDBRANCH   9  10
ENDBRANCH   1   9
TORSDOF 10
ENDMDL
MODEL 4
REMARK VINA RESULT:    -5.734      2.354      4.585
REMARK INTER + INTRA:         -10.364
REMARK INTER:                  -9.235
REMARK INTRA:                  -1.128
REMARK UNBOUND:                -1.446
REMARK SMILES COc1cc(CNC(=O)CCCCC=CC(C)C)ccc1O
REMARK SMILES IDX 11 1 12 2 13 3 14 4 15 5 16 6 17 7 18 8 10 9 8 10 9 11 7 12
REMARK SMILES IDX 6 14 5 15 4 16 19 17 3 18 20 19 21 20 2 21 1 22 22 23
REMARK H PARENT 7 13 22 24
REMARK Flexibility Score: inf
ROOT
ATOM      1  C   UNL     1     152.218 142.764 136.006  1.00  0.00     0.010 C 
ENDROOT
BRANCH   1   2
ATOM      2  C   UNL     1     152.983 144.042 135.634  1.00  0.00     0.005 C 
BRANCH   2   3
ATOM      3  C   UNL     1     153.051 145.012 136.818  1.00  0.00     0.027 C 
BRANCH   3   4
ATOM      4  C   UNL     1     151.920 146.001 136.771  1.00  0.00    -0.031 C 
ATOM      5  C   UNL     1     152.010 147.139 136.063  1.00  0.00    -0.028 C 
BRANCH   5   6
ATOM      6  C   UNL     1     150.894 148.158 136.010  1.00  0.00     0.005 C 
ATOM      7  C   UNL     1     150.406 148.376 134.573  1.00  0.00     0.012 C 
ATOM      8  C   UNL     1     149.738 147.766 136.934  1.00  0.00     0.012 C 
ENDBRANCH   5   6
ENDBRANCH   3   4
ENDBRANCH   2   3
ENDBRANCH   1   2
BRANCH   1   9
ATOM      9  C   UNL     1     152.922 141.498 135.499  1.00  0.00     0.100 C 
BRANCH   9  10
ATOM     10  C   UNL     1     152.675 141.277 134.034  1.00  0.00     0.220 C 
ATOM     11  O   UNL     1     153.567 140.722 133.335  1.00  0.00    -0.275 OA
ATOM     12  N   UNL     1     151.453 141.725 133.430  1.00  0.00    -0.352 N 
ATOM     13  H   UNL     1     150.717 142.152 134.039  1.00  0.00     0.163 HD
BRANCH  12  14
ATOM     14  C   UNL     1     151.261 141.793 131.983  1.00  0.00     0.151 C 
BRANCH  14  15
ATOM     15  C   UNL     1     151.450 143.208 131.510  1.00  0.00    -0.025 A 
ATOM     16  C   UNL     1     152.171 144.121 132.294  1.00  0.00     0.056 A 
ATOM     17  C   UNL     1     150.866 143.640 130.310  1.00  0.00     0.009 A 
ATOM     18  C   UNL     1     152.312 145.462 131.886  1.00  0.00     0.160 A 
ATOM     19  C   UNL     1     151.024 144.961 129.888  1.00  0.00     0.050 A 
ATOM     20  C   UNL     1     151.750 145.871 130.668  1.00  0.00     0.157 A 
BRANCH  18  21
ATOM     21  O   UNL     1     152.996 146.411 132.661  1.00  0.00    -0.493 OA
ATOM     22  C   UNL     1     154.357 146.293 133.060  1.00  0.00     0.278 C 
ENDBRANCH  18  21
BRANCH  20  23
ATOM     23  O   UNL     1     151.911 147.188 130.243  1.00  0.00    -0.504 OA
ATOM     24  H   UNL     1     152.766 147.501 129.796  1.00  0.00     0.293 HD
ENDBRANCH  20  23
ENDBRANCH  14  15
ENDBRANCH  12  14
ENDBRANCH   9  10
ENDBRANCH   1   9
TORSDOF 10
ENDMDL
MODEL 5
REMARK VINA RESULT:    -5.476      2.213      6.359
REMARK INTER + INTRA:          -9.964
REMARK INTER:                  -8.942
REMARK INTRA:                  -1.022
REMARK UNBOUND:                -1.446
REMARK SMILES COc1cc(CNC(=O)CCCCC=CC(C)C)ccc1O
REMARK SMILES IDX 11 1 12 2 13 3 14 4 15 5 16 6 17 7 18 8 10 9 8 10 9 11 7 12
REMARK SMILES IDX 6 14 5 15 4 16 19 17 3 18 20 19 21 20 2 21 1 22 22 23
REMARK H PARENT 7 13 22 24
REMARK Flexibility Score: inf
ROOT
ATOM      1  C   UNL     1     152.610 141.660 131.894  1.00  0.00     0.010 C 
ENDROOT
BRANCH   1   2
ATOM      2  C   UNL     1     151.111 141.930 132.091  1.00  0.00     0.005 C 
BRANCH   2   3
ATOM      3  C   UNL     1     150.696 143.251 131.435  1.00  0.00     0.027 C 
BRANCH   3   4
ATOM      4  C   UNL     1     151.723 144.322 131.678  1.00  0.00    -0.031 C 
ATOM      5  C   UNL     1     151.416 145.626 131.584  1.00  0.00    -0.028 C 
BRANCH   5   6
ATOM      6  C   UNL     1     152.432 146.722 131.809  1.00  0.00     0.005 C 
ATOM      7  C   UNL     1     153.863 146.172 131.784  1.00  0.00     0.012 C 
ATOM      8  C   UNL     1     152.258 147.858 130.797  1.00  0.00     0.012 C 
ENDBRANCH   5   6
ENDBRANCH   3   4
ENDBRANCH   2   3
ENDBRANCH   1   2
BRANCH   1   9
ATOM      9  C   UNL     1     153.137 140.585 132.854  1.00  0.00     0.100 C 
BRANCH   9  10
ATOM     10  C   UNL     1     153.024 141.019 134.287  1.00  0.00     0.220 C 
ATOM     11  O   UNL     1     153.053 140.148 135.199  1.00  0.00    -0.275 OA
ATOM     12  N   UNL     1     152.848 142.406 134.611  1.00  0.00    -0.352 N 
ATOM     13  H   UNL     1     152.861 143.110 133.838  1.00  0.00     0.163 HD
BRANCH  12  14
ATOM     14  C   UNL     1     152.460 142.866 135.943  1.00  0.00     0.151 C 
BRANCH  14  15
ATOM     15  C   UNL     1     152.669 144.351 136.050  1.00  0.00    -0.025 A 
ATOM     16  C   UNL     1     153.686 144.973 135.309  1.00  0.00     0.056 A 
ATOM     17  C   UNL     1     151.886 145.119 136.924  1.00  0.00     0.009 A 
ATOM     18  C   UNL     1     153.923 146.356 135.438  1.00  0.00     0.160 A 
ATOM     19  C   UNL     1     152.100 146.493 137.037  1.00  0.00     0.050 A 
ATOM     20  C   UNL     1     153.112 147.114 136.293  1.00  0.00     0.157 A 
BRANCH  18  21
ATOM     21  O   UNL     1     154.953 147.005 134.741  1.00  0.00    -0.493 OA
ATOM     22  C   UNL     1     156.303 147.080 135.186  1.00  0.00     0.278 C 
ENDBRANCH  18  21
BRANCH  20  23
ATOM     23  O   UNL     1     153.321 148.488 136.403  1.00  0.00    -0.504 OA
ATOM     24  H   UNL     1     152.682 149.157 135.988  1.00  0.00     0.293 HD
ENDBRANCH  20  23
ENDBRANCH  14  15
ENDBRANCH  12  14
ENDBRANCH   9  10
ENDBRANCH   1   9
TORSDOF 10
ENDMDL
MODEL 6
REMARK VINA RESULT:    -5.395      1.847      4.909
REMARK INTER + INTRA:          -9.837
REMARK INTER:                  -8.753
REMARK INTRA:                  -1.084
REMARK UNBOUND:                -1.446
REMARK SMILES COc1cc(CNC(=O)CCCCC=CC(C)C)ccc1O
REMARK SMILES IDX 11 1 12 2 13 3 14 4 15 5 16 6 17 7 18 8 10 9 8 10 9 11 7 12
REMARK SMILES IDX 6 14 5 15 4 16 19 17 3 18 20 19 21 20 2 21 1 22 22 23
REMARK H PARENT 7 13 22 24
REMARK Flexibility Score: inf
ROOT
ATOM      1  C   UNL     1     154.901 146.974 131.539  1.00  0.00     0.010 C 
ENDROOT
BRANCH   1   2
ATOM      2  C   UNL     1     153.991 146.222 132.521  1.00  0.00     0.005 C 
BRANCH   2   3
ATOM      3  C   UNL     1     152.515 146.543 132.266  1.00  0.00     0.027 C 
BRANCH   3   4
ATOM      4  C   UNL     1     151.799 145.361 131.675  1.00  0.00    -0.031 C 
ATOM      5  C   UNL     1     152.069 144.106 132.071  1.00  0.00    -0.028 C 
BRANCH   5   6
ATOM      6  C   UNL     1     151.375 142.897 131.485  1.00  0.00     0.005 C 
ATOM      7  C   UNL     1     151.341 141.734 132.482  1.00  0.00     0.012 C 
ATOM      8  C   UNL     1     149.967 143.248 130.994  1.00  0.00     0.012 C 
ENDBRANCH   5   6
ENDBRANCH   3   4
ENDBRANCH   2   3
ENDBRANCH   1   2
BRANCH   1   9
ATOM      9  C   UNL     1     156.387 146.824 131.893  1.00  0.00     0.100 C 
BRANCH   9  10
ATOM     10  C   UNL     1     156.581 146.536 133.355  1.00  0.00     0.220 C 
ATOM     11  O   UNL     1     157.125 145.452 133.702  1.00  0.00    -0.275 OA
ATOM     12  N   UNL     1     156.120 147.469 134.343  1.00  0.00    -0.352 N 
ATOM     13  H   UNL     1     155.703 148.373 134.026  1.00  0.00     0.163 HD
BRANCH  12  14
ATOM     14  C   UNL     1     156.026 147.137 135.763  1.00  0.00     0.151 C 
BRANCH  14  15
ATOM     15  C   UNL     1     154.590 146.890 136.134  1.00  0.00    -0.025 A 
ATOM     16  C   UNL     1     154.096 145.578 136.199  1.00  0.00     0.056 A 
ATOM     17  C   UNL     1     153.721 147.966 136.369  1.00  0.00     0.009 A 
ATOM     18  C   UNL     1     152.741 145.336 136.499  1.00  0.00     0.160 A 
ATOM     19  C   UNL     1     152.383 147.731 136.690  1.00  0.00     0.050 A 
ATOM     20  C   UNL     1     151.892 146.420 136.761  1.00  0.00     0.157 A 
BRANCH  18  21
ATOM     21  O   UNL     1     152.205 144.040 136.538  1.00  0.00    -0.493 OA
ATOM     22  C   UNL     1     152.581 142.987 135.657  1.00  0.00     0.278 C 
ENDBRANCH  18  21
BRANCH  20  23
ATOM     23  O   UNL     1     150.557 146.187 137.087  1.00  0.00    -0.504 OA
ATOM     24  H   UNL     1     150.124 146.625 137.893  1.00  0.00     0.293 HD
ENDBRANCH  20  23
ENDBRANCH  14  15
ENDBRANCH  12  14
ENDBRANCH   9  10
ENDBRANCH   1   9
TORSDOF 10
ENDMDL
MODEL 7
REMARK VINA RESULT:    -5.377      1.980      3.979
REMARK INTER + INTRA:          -9.809
REMARK INTER:                  -8.420
REMARK INTRA:                  -1.390
REMARK UNBOUND:                -1.446
REMARK SMILES COc1cc(CNC(=O)CCCCC=CC(C)C)ccc1O
REMARK SMILES IDX 11 1 12 2 13 3 14 4 15 5 16 6 17 7 18 8 10 9 8 10 9 11 7 12
REMARK SMILES IDX 6 14 5 15 4 16 19 17 3 18 20 19 21 20 2 21 1 22 22 23
REMARK H PARENT 7 13 22 24
REMARK Flexibility Score: inf
ROOT
ATOM      1  C   UNL     1     155.981 147.332 135.100  1.00  0.00     0.010 C 
ENDROOT
BRANCH   1   2
ATOM      2  C   UNL     1     156.038 146.162 134.108  1.00  0.00     0.005 C 
BRANCH   2   3
ATOM      3  C   UNL     1     156.262 146.660 132.676  1.00  0.00     0.027 C 
BRANCH   3   4
ATOM      4  C   UNL     1     154.953 146.889 131.973  1.00  0.00    -0.031 C 
ATOM      5  C   UNL     1     153.839 146.226 132.328  1.00  0.00    -0.028 C 
BRANCH   5   6
ATOM      6  C   UNL     1     152.513 146.426 131.629  1.00  0.00     0.005 C 
ATOM      7  C   UNL     1     151.453 146.974 132.591  1.00  0.00     0.012 C 
ATOM      8  C   UNL     1     152.662 147.324 130.398  1.00  0.00     0.012 C 
ENDBRANCH   5   6
ENDBRANCH   3   4
ENDBRANCH   2   3
ENDBRANCH   1   2
BRANCH   1   9
ATOM      9  C   UNL     1     155.194 146.979 136.369  1.00  0.00     0.100 C 
BRANCH   9  10
ATOM     10  C   UNL     1     153.917 146.257 136.045  1.00  0.00     0.220 C 
ATOM     11  O   UNL     1     152.908 146.921 135.683  1.00  0.00    -0.275 OA
ATOM     12  N   UNL     1     153.839 144.830 136.183  1.00  0.00    -0.352 N 
ATOM     13  H   UNL     1     154.699 144.302 136.454  1.00  0.00     0.163 HD
BRANCH  12  14
ATOM     14  C   UNL     1     152.574 144.100 136.154  1.00  0.00     0.151 C 
BRANCH  14  15
ATOM     15  C   UNL     1     152.601 143.077 135.052  1.00  0.00    -0.025 A 
ATOM     16  C   UNL     1     152.288 143.453 133.737  1.00  0.00     0.056 A 
ATOM     17  C   UNL     1     152.889 141.734 135.335  1.00  0.00     0.009 A 
ATOM     18  C   UNL     1     152.263 142.495 132.704  1.00  0.00     0.160 A 
ATOM     19  C   UNL     1     152.889 140.785 134.312  1.00  0.00     0.050 A 
ATOM     20  C   UNL     1     152.583 141.162 132.998  1.00  0.00     0.157 A 
BRANCH  18  21
ATOM     21  O   UNL     1     151.920 142.828 131.385  1.00  0.00    -0.493 OA
ATOM     22  C   UNL     1     150.635 143.287 130.979  1.00  0.00     0.278 C 
ENDBRANCH  18  21
BRANCH  20  23
ATOM     23  O   UNL     1     152.589 140.214 131.976  1.00  0.00    -0.504 OA
ATOM     24  H   UNL     1     151.743 139.975 131.469  1.00  0.00     0.293 HD
ENDBRANCH  20  23
ENDBRANCH  14  15
ENDBRANCH  12  14
ENDBRANCH   9  10
ENDBRANCH   1   9
TORSDOF 10
ENDMDL
MODEL 8
REMARK VINA RESULT:    -5.291      2.051      4.879
REMARK INTER + INTRA:          -9.676
REMARK INTER:                  -8.557
REMARK INTRA:                  -1.119
REMARK UNBOUND:                -1.446
REMARK SMILES COc1cc(CNC(=O)CCCCC=CC(C)C)ccc1O
REMARK SMILES IDX 11 1 12 2 13 3 14 4 15 5 16 6 17 7 18 8 10 9 8 10 9 11 7 12
REMARK SMILES IDX 6 14 5 15 4 16 19 17 3 18 20 19 21 20 2 21 1 22 22 23
REMARK H PARENT 7 13 22 24
REMARK Flexibility Score: inf
ROOT
ATOM      1  C   UNL     1     152.240 143.214 136.026  1.00  0.00     0.010 C 
ENDROOT
BRANCH   1   2
ATOM      2  C   UNL     1     153.241 144.202 135.409  1.00  0.00     0.005 C 
BRANCH   2   3
ATOM      3  C   UNL     1     153.377 145.462 136.270  1.00  0.00     0.027 C 
BRANCH   3   4
ATOM      4  C   UNL     1     154.265 146.477 135.605  1.00  0.00    -0.031 C 
ATOM      5  C   UNL     1     155.273 146.107 134.798  1.00  0.00    -0.028 C 
BRANCH   5   6
ATOM      6  C   UNL     1     156.191 147.105 134.128  1.00  0.00     0.005 C 
ATOM      7  C   UNL     1     157.041 147.860 135.156  1.00  0.00     0.012 C 
ATOM      8  C   UNL     1     157.070 146.429 133.071  1.00  0.00     0.012 C 
ENDBRANCH   5   6
ENDBRANCH   3   4
ENDBRANCH   2   3
ENDBRANCH   1   2
BRANCH   1   9
ATOM      9  C   UNL     1     152.610 141.754 135.732  1.00  0.00     0.100 C 
BRANCH   9  10
ATOM     10  C   UNL     1     152.604 141.467 134.257  1.00  0.00     0.220 C 
ATOM     11  O   UNL     1     153.652 141.025 133.712  1.00  0.00    -0.275 OA
ATOM     12  N   UNL     1     151.431 141.729 133.474  1.00  0.00    -0.352 N 
ATOM     13  H   UNL     1     150.567 142.065 133.958  1.00  0.00     0.163 HD
BRANCH  12  14
ATOM     14  C   UNL     1     151.439 141.737 132.013  1.00  0.00     0.151 C 
BRANCH  14  15
ATOM     15  C   UNL     1     151.493 143.153 131.511  1.00  0.00    -0.025 A 
ATOM     16  C   UNL     1     151.913 144.185 132.364  1.00  0.00     0.056 A 
ATOM     17  C   UNL     1     151.078 143.462 130.207  1.00  0.00     0.009 A 
ATOM     18  C   UNL     1     151.922 145.522 131.921  1.00  0.00     0.160 A 
ATOM     19  C   UNL     1     151.108 144.782 129.755  1.00  0.00     0.050 A 
ATOM     20  C   UNL     1     151.534 145.811 130.605  1.00  0.00     0.157 A 
BRANCH  18  21
ATOM     21  O   UNL     1     152.301 146.584 132.756  1.00  0.00    -0.493 OA
ATOM     22  C   UNL     1     151.399 147.337 133.559  1.00  0.00     0.278 C 
ENDBRANCH  18  21
BRANCH  20  23
ATOM     23  O   UNL     1     151.568 147.128 130.150  1.00  0.00    -0.504 OA
ATOM     24  H   UNL     1     151.378 147.909 130.769  1.00  0.00     0.293 HD
ENDBRANCH  20  23
ENDBRANCH  14  15
ENDBRANCH  12  14
ENDBRANCH   9  10
ENDBRANCH   1   9
TORSDOF 10
ENDMDL
MODEL 9
REMARK VINA RESULT:    -5.249      2.350      5.344
REMARK INTER + INTRA:          -9.611
REMARK INTER:                  -8.540
REMARK INTRA:                  -1.071
REMARK UNBOUND:                -1.446
REMARK SMILES COc1cc(CNC(=O)CCCCC=CC(C)C)ccc1O
REMARK SMILES IDX 11 1 12 2 13 3 14 4 15 5 16 6 17 7 18 8 10 9 8 10 9 11 7 12
REMARK SMILES IDX 6 14 5 15 4 16 19 17 3 18 20 19 21 20 2 21 1 22 22 23
REMARK H PARENT 7 13 22 24
REMARK Flexibility Score: inf
ROOT
ATOM      1  C   UNL     1     154.852 146.798 131.702  1.00  0.00     0.010 C 
ENDROOT
BRANCH   1   2
ATOM      2  C   UNL     1     153.884 146.404 132.827  1.00  0.00     0.005 C 
BRANCH   2   3
ATOM      3  C   UNL     1     152.701 145.596 132.282  1.00  0.00     0.027 C 
BRANCH   3   4
ATOM      4  C   UNL     1     152.651 144.228 132.903  1.00  0.00    -0.031 C 
ATOM      5  C   UNL     1     152.106 143.183 132.258  1.00  0.00    -0.028 C 
BRANCH   5   6
ATOM      6  C   UNL     1     152.028 141.800 132.864  1.00  0.00     0.005 C 
ATOM      7  C   UNL     1     152.625 140.745 131.925  1.00  0.00     0.012 C 
ATOM      8  C   UNL     1     152.697 141.758 134.241  1.00  0.00     0.012 C 
ENDBRANCH   5   6
ENDBRANCH   3   4
ENDBRANCH   2   3
ENDBRANCH   1   2
BRANCH   1   9
ATOM      9  C   UNL     1     156.307 146.863 132.186  1.00  0.00     0.100 C 
BRANCH   9  10
ATOM     10  C   UNL     1     156.411 146.620 133.664  1.00  0.00     0.220 C 
ATOM     11  O   UNL     1     156.653 145.454 134.082  1.00  0.00    -0.275 OA
ATOM     12  N   UNL     1     156.201 147.696 134.590  1.00  0.00    -0.352 N 
ATOM     13  H   UNL     1     156.035 148.658 134.216  1.00  0.00     0.163 HD
BRANCH  12  14
ATOM     14  C   UNL     1     156.015 147.483 136.024  1.00  0.00     0.151 C 
BRANCH  14  15
ATOM     15  C   UNL     1     154.608 147.025 136.293  1.00  0.00    -0.025 A 
ATOM     16  C   UNL     1     153.545 147.937 136.213  1.00  0.00     0.056 A 
ATOM     17  C   UNL     1     154.352 145.699 136.673  1.00  0.00     0.009 A 
ATOM     18  C   UNL     1     152.229 147.532 136.510  1.00  0.00     0.160 A 
ATOM     19  C   UNL     1     153.046 145.286 136.945  1.00  0.00     0.050 A 
ATOM     20  C   UNL     1     151.985 146.196 136.859  1.00  0.00     0.157 A 
BRANCH  18  21
ATOM     21  O   UNL     1     151.147 148.424 136.475  1.00  0.00    -0.493 OA
ATOM     22  C   UNL     1     150.383 148.717 135.310  1.00  0.00     0.278 C 
ENDBRANCH  18  21
BRANCH  20  23
ATOM     23  O   UNL     1     150.681 145.780 137.125  1.00  0.00    -0.504 OA
ATOM     24  H   UNL     1     150.473 145.138 137.882  1.00  0.00     0.293 HD
ENDBRANCH  20  23
ENDBRANCH  14  15
ENDBRANCH  12  14
ENDBRANCH   9  10
ENDBRANCH   1   9
TORSDOF 10
ENDMDL
