MODEL 1
REMARK VINA RESULT:    -4.852      0.000      0.000
REMARK INTER + INTRA:         -15.150
REMARK INTER:                 -11.091
REMARK INTRA:                  -4.059
REMARK UNBOUND:                -4.059
REMARK SMILES CCCCCCCCCCCCCCCCCCCCCCCC(=O)[O-]
REMARK SMILES IDX 13 1 14 2 15 3 16 4 17 5 18 6 19 7 20 8 21 9 22 10 23 11
REMARK SMILES IDX 24 12 25 13 26 14 12 15 11 16 10 17 9 18 8 19 7 20 6 21 5 22
REMARK SMILES IDX 4 23 3 24 2 25 1 26
REMARK H PARENT
REMARK Flexibility Score: inf
ROOT
ATOM      1  C   UNL     1      63.688  30.785  14.606  1.00  0.00     0.000 C 
ENDROOT
BRANCH   1   2
ATOM      2  C   UNL     1      63.824  29.827  13.408  1.00  0.00     0.000 C 
BRANCH   2   3
ATOM      3  C   UNL     1      62.690  28.791  13.355  1.00  0.00     0.000 C 
BRANCH   3   4
ATOM      4  C   UNL     1      61.400  29.289  14.026  1.00  0.00     0.000 C 
BRANCH   4   5
ATOM      5  C   UNL     1      60.210  29.350  13.053  1.00  0.00     0.000 C 
BRANCH   5   6
ATOM      6  C   UNL     1      59.674  30.779  12.825  1.00  0.00     0.000 C 
BRANCH   6   7
ATOM      7  C   UNL     1      60.786  31.760  12.410  1.00  0.00     0.000 C 
BRANCH   7   8
ATOM      8  C   UNL     1      60.842  33.011  13.311  1.00  0.00     0.000 C 
BRANCH   8   9
ATOM      9  C   UNL     1      60.343  32.777  14.750  1.00  0.00     0.000 C 
BRANCH   9  10
ATOM     10  C   UNL     1      60.740  33.890  15.742  1.00  0.00     0.006 C 
BRANCH  10  11
ATOM     11  C   UNL     1      61.953  33.501  16.597  1.00  0.00     0.053 C 
BRANCH  11  12
ATOM     12  C   UNL     1      62.043  34.372  17.809  1.00  0.00     0.041 C 
ATOM     13  O   UNL     1      62.995  35.187  17.935  1.00  0.00    -0.550 OA
ATOM     14  O   UNL     1      61.044  34.325  18.775  1.00  0.00    -0.550 OA
ENDBRANCH  11  12
ENDBRANCH  10  11
ENDBRANCH   9  10
ENDBRANCH   8   9
ENDBRANCH   7   8
ENDBRANCH   6   7
ENDBRANCH   5   6
ENDBRANCH   4   5
ENDBRANCH   3   4
ENDBRANCH   2   3
ENDBRANCH   1   2
BRANCH   1  15
ATOM     15  C   UNL     1      64.711  31.932  14.563  1.00  0.00     0.000 C 
BRANCH  15  16
ATOM     16  C   UNL     1      64.241  33.114  13.698  1.00  0.00     0.000 C 
BRANCH  16  17
ATOM     17  C   UNL     1      65.401  33.820  12.975  1.00  0.00     0.000 C 
BRANCH  17  18
ATOM     18  C   UNL     1      65.699  33.237  11.575  1.00  0.00    -0.000 C 
BRANCH  18  19
ATOM     19  C   UNL     1      64.558  32.360  11.018  1.00  0.00    -0.000 C 
BRANCH  19  20
ATOM     20  C   UNL     1      64.836  31.778   9.617  1.00  0.00    -0.000 C 
BRANCH  20  21
ATOM     21  C   UNL     1      64.974  30.244   9.587  1.00  0.00    -0.000 C 
BRANCH  21  22
ATOM     22  C   UNL     1      63.749  29.552   8.966  1.00  0.00    -0.000 C 
BRANCH  22  23
ATOM     23  C   UNL     1      62.493  29.654   9.850  1.00  0.00    -0.000 C 
BRANCH  23  24
ATOM     24  C   UNL     1      61.602  28.399   9.858  1.00  0.00    -0.000 C 
BRANCH  24  25
ATOM     25  C   UNL     1      60.192  28.662   9.308  1.00  0.00    -0.003 C 
ATOM     26  C   UNL     1      60.032  30.117   8.875  1.00  0.00     0.004 C 
ENDBRANCH  24  25
ENDBRANCH  23  24
ENDBRANCH  22  23
ENDBRANCH  21  22
ENDBRANCH  20  21
ENDBRANCH  19  20
ENDBRANCH  18  19
ENDBRANCH  17  18
ENDBRANCH  16  17
ENDBRANCH  15  16
ENDBRANCH   1  15
TORSDOF 22
ENDMDL
MODEL 2
REMARK VINA RESULT:    -4.818      1.253      4.452
REMARK INTER + INTRA:         -15.075
REMARK INTER:                 -11.800
REMARK INTRA:                  -3.275
REMARK UNBOUND:                -4.059
REMARK SMILES CCCCCCCCCCCCCCCCCCCCCCCC(=O)[O-]
REMARK SMILES IDX 13 1 14 2 15 3 16 4 17 5 18 6 19 7 20 8 21 9 22 10 23 11
REMARK SMILES IDX 24 12 25 13 26 14 12 15 11 16 10 17 9 18 8 19 7 20 6 21 5 22
REMARK SMILES IDX 4 23 3 24 2 25 1 26
REMARK H PARENT
REMARK Flexibility Score: inf
ROOT
ATOM      1  C   UNL     1      59.326  28.828  12.232  1.00  0.00     0.000 C 
ENDROOT
BRANCH   1   2
ATOM      2  C   UNL     1      60.381  28.107  13.090  1.00  0.00     0.000 C 
BRANCH   2   3
ATOM      3  C   UNL     1      61.807  28.304  12.555  1.00  0.00     0.000 C 
BRANCH   3   4
ATOM      4  C   UNL     1      62.713  29.054  13.545  1.00  0.00     0.000 C 
BRANCH   4   5
ATOM      5  C   UNL     1      62.114  30.396  13.999  1.00  0.00     0.000 C 
BRANCH   5   6
ATOM      6  C   UNL     1      61.482  30.344  15.406  1.00  0.00     0.000 C 
BRANCH   6   7
ATOM      7  C   UNL     1      60.350  31.374  15.575  1.00  0.00     0.000 C 
BRANCH   7   8
ATOM      8  C   UNL     1      60.520  32.600  14.655  1.00  0.00     0.000 C 
BRANCH   8   9
ATOM      9  C   UNL     1      60.718  33.931  15.404  1.00  0.00     0.000 C 
BRANCH   9  10
ATOM     10  C   UNL     1      61.635  33.827  16.640  1.00  0.00     0.006 C 
BRANCH  10  11
ATOM     11  C   UNL     1      61.076  34.594  17.845  1.00  0.00     0.053 C 
BRANCH  11  12
ATOM     12  C   UNL     1      61.386  33.873  19.118  1.00  0.00     0.041 C 
ATOM     13  O   UNL     1      62.545  33.425  19.327  1.00  0.00    -0.550 OA
ATOM     14  O   UNL     1      60.410  33.744  20.099  1.00  0.00    -0.550 OA
ENDBRANCH  11  12
ENDBRANCH  10  11
ENDBRANCH   9  10
ENDBRANCH   8   9
ENDBRANCH   7   8
ENDBRANCH   6   7
ENDBRANCH   5   6
ENDBRANCH   4   5
ENDBRANCH   3   4
ENDBRANCH   2   3
ENDBRANCH   1   2
BRANCH   1  15
ATOM     15  C   UNL     1      59.938  29.529  11.009  1.00  0.00     0.000 C 
BRANCH  15  16
ATOM     16  C   UNL     1      59.641  28.794   9.692  1.00  0.00     0.000 C 
BRANCH  16  17
ATOM     17  C   UNL     1      60.917  28.396   8.931  1.00  0.00     0.000 C 
BRANCH  17  18
ATOM     18  C   UNL     1      62.014  29.484   8.958  1.00  0.00    -0.000 C 
BRANCH  18  19
ATOM     19  C   UNL     1      63.384  28.965   9.440  1.00  0.00    -0.000 C 
BRANCH  19  20
ATOM     20  C   UNL     1      64.465  30.059   9.564  1.00  0.00    -0.000 C 
BRANCH  20  21
ATOM     21  C   UNL     1      64.230  31.051  10.719  1.00  0.00    -0.000 C 
BRANCH  21  22
ATOM     22  C   UNL     1      65.082  32.325  10.586  1.00  0.00    -0.000 C 
BRANCH  22  23
ATOM     23  C   UNL     1      65.216  33.095  11.912  1.00  0.00    -0.000 C 
BRANCH  23  24
ATOM     24  C   UNL     1      64.025  32.941  12.875  1.00  0.00    -0.000 C 
BRANCH  24  25
ATOM     25  C   UNL     1      64.370  33.328  14.320  1.00  0.00    -0.003 C 
ATOM     26  C   UNL     1      65.243  32.265  14.982  1.00  0.00     0.004 C 
ENDBRANCH  24  25
ENDBRANCH  23  24
ENDBRANCH  22  23
ENDBRANCH  21  22
ENDBRANCH  20  21
ENDBRANCH  19  20
ENDBRANCH  18  19
ENDBRANCH  17  18
ENDBRANCH  16  17
ENDBRANCH  15  16
ENDBRANCH   1  15
TORSDOF 22
ENDMDL
MODEL 3
REMARK VINA RESULT:    -4.620      1.328      4.630
REMARK INTER + INTRA:         -14.622
REMARK INTER:                 -11.379
REMARK INTRA:                  -3.243
REMARK UNBOUND:                -4.059
REMARK SMILES CCCCCCCCCCCCCCCCCCCCCCCC(=O)[O-]
REMARK SMILES IDX 13 1 14 2 15 3 16 4 17 5 18 6 19 7 20 8 21 9 22 10 23 11
REMARK SMILES IDX 24 12 25 13 26 14 12 15 11 16 10 17 9 18 8 19 7 20 6 21 5 22
REMARK SMILES IDX 4 23 3 24 2 25 1 26
REMARK H PARENT
REMARK Flexibility Score: inf
ROOT
ATOM      1  C   UNL     1      59.386  28.391  11.882  1.00  0.00     0.000 C 
ENDROOT
BRANCH   1   2
ATOM      2  C   UNL     1      60.265  28.099  13.111  1.00  0.00     0.000 C 
BRANCH   2   3
ATOM      3  C   UNL     1      61.662  28.728  12.997  1.00  0.00     0.000 C 
BRANCH   3   4
ATOM      4  C   UNL     1      61.939  29.759  14.103  1.00  0.00     0.000 C 
BRANCH   4   5
ATOM      5  C   UNL     1      60.736  30.681  14.370  1.00  0.00     0.000 C 
BRANCH   5   6
ATOM      6  C   UNL     1      60.763  31.984  13.544  1.00  0.00     0.000 C 
BRANCH   6   7
ATOM      7  C   UNL     1      60.502  33.229  14.410  1.00  0.00     0.000 C 
BRANCH   7   8
ATOM      8  C   UNL     1      61.679  33.554  15.352  1.00  0.00     0.000 C 
BRANCH   8   9
ATOM      9  C   UNL     1      61.368  33.352  16.847  1.00  0.00     0.000 C 
BRANCH   9  10
ATOM     10  C   UNL     1      61.889  34.483  17.757  1.00  0.00     0.006 C 
BRANCH  10  11
ATOM     11  C   UNL     1      63.407  34.673  17.637  1.00  0.00     0.053 C 
BRANCH  11  12
ATOM     12  C   UNL     1      64.100  34.152  18.856  1.00  0.00     0.041 C 
ATOM     13  O   UNL     1      63.607  34.351  19.998  1.00  0.00    -0.550 OA
ATOM     14  O   UNL     1      65.260  33.398  18.727  1.00  0.00    -0.550 OA
ENDBRANCH  11  12
ENDBRANCH  10  11
ENDBRANCH   9  10
ENDBRANCH   8   9
ENDBRANCH   7   8
ENDBRANCH   6   7
ENDBRANCH   5   6
ENDBRANCH   4   5
ENDBRANCH   3   4
ENDBRANCH   2   3
ENDBRANCH   1   2
BRANCH   1  15
ATOM     15  C   UNL     1      60.061  29.351  10.888  1.00  0.00     0.000 C 
BRANCH  15  16
ATOM     16  C   UNL     1      59.994  28.847   9.437  1.00  0.00     0.000 C 
BRANCH  16  17
ATOM     17  C   UNL     1      61.357  28.365   8.912  1.00  0.00     0.000 C 
BRANCH  17  18
ATOM     18  C   UNL     1      62.517  28.597   9.906  1.00  0.00    -0.000 C 
BRANCH  18  19
ATOM     19  C   UNL     1      63.844  28.985   9.223  1.00  0.00    -0.000 C 
BRANCH  19  20
ATOM     20  C   UNL     1      64.330  30.412   9.554  1.00  0.00    -0.000 C 
BRANCH  20  21
ATOM     21  C   UNL     1      63.791  30.969  10.885  1.00  0.00    -0.000 C 
BRANCH  21  22
ATOM     22  C   UNL     1      64.543  32.229  11.346  1.00  0.00    -0.000 C 
BRANCH  22  23
ATOM     23  C   UNL     1      64.116  32.701  12.747  1.00  0.00    -0.000 C 
BRANCH  23  24
ATOM     24  C   UNL     1      65.156  33.563  13.486  1.00  0.00    -0.000 C 
BRANCH  24  25
ATOM     25  C   UNL     1      65.364  33.129  14.945  1.00  0.00    -0.003 C 
ATOM     26  C   UNL     1      64.912  31.688  15.161  1.00  0.00     0.004 C 
ENDBRANCH  24  25
ENDBRANCH  23  24
ENDBRANCH  22  23
ENDBRANCH  21  22
ENDBRANCH  20  21
ENDBRANCH  19  20
ENDBRANCH  18  19
ENDBRANCH  17  18
ENDBRANCH  16  17
ENDBRANCH  15  16
ENDBRANCH   1  15
TORSDOF 22
ENDMDL
MODEL 4
REMARK VINA RESULT:    -4.295      3.027      7.306
REMARK INTER + INTRA:         -13.878
REMARK INTER:                 -10.447
REMARK INTRA:                  -3.431
REMARK UNBOUND:                -4.059
REMARK SMILES CCCCCCCCCCCCCCCCCCCCCCCC(=O)[O-]
REMARK SMILES IDX 13 1 14 2 15 3 16 4 17 5 18 6 19 7 20 8 21 9 22 10 23 11
REMARK SMILES IDX 24 12 25 13 26 14 12 15 11 16 10 17 9 18 8 19 7 20 6 21 5 22
REMARK SMILES IDX 4 23 3 24 2 25 1 26
REMARK H PARENT
REMARK Flexibility Score: inf
ROOT
ATOM      1  C   UNL     1      60.997  31.738  14.562  1.00  0.00     0.000 C 
ENDROOT
BRANCH   1   2
ATOM      2  C   UNL     1      61.565  32.672  13.479  1.00  0.00     0.000 C 
BRANCH   2   3
ATOM      3  C   UNL     1      62.655  31.995  12.634  1.00  0.00     0.000 C 
BRANCH   3   4
ATOM      4  C   UNL     1      63.280  30.779  13.336  1.00  0.00     0.000 C 
BRANCH   4   5
ATOM      5  C   UNL     1      63.624  29.641  12.360  1.00  0.00     0.000 C 
BRANCH   5   6
ATOM      6  C   UNL     1      63.785  30.110  10.899  1.00  0.00     0.000 C 
BRANCH   6   7
ATOM      7  C   UNL     1      63.450  28.998   9.889  1.00  0.00     0.000 C 
BRANCH   7   8
ATOM      8  C   UNL     1      62.102  29.229   9.176  1.00  0.00     0.000 C 
BRANCH   8   9
ATOM      9  C   UNL     1      60.936  28.395   9.741  1.00  0.00     0.000 C 
BRANCH   9  10
ATOM     10  C   UNL     1      59.732  29.236  10.213  1.00  0.00     0.006 C 
BRANCH  10  11
ATOM     11  C   UNL     1      59.916  29.764  11.642  1.00  0.00     0.053 C 
BRANCH  11  12
ATOM     12  C   UNL     1      59.665  28.678  12.640  1.00  0.00     0.041 C 
ATOM     13  O   UNL     1      60.542  28.389  13.496  1.00  0.00    -0.550 OA
ATOM     14  O   UNL     1      58.440  28.023  12.660  1.00  0.00    -0.550 OA
ENDBRANCH  11  12
ENDBRANCH  10  11
ENDBRANCH   9  10
ENDBRANCH   8   9
ENDBRANCH   7   8
ENDBRANCH   6   7
ENDBRANCH   5   6
ENDBRANCH   4   5
ENDBRANCH   3   4
ENDBRANCH   2   3
ENDBRANCH   1   2
BRANCH   1  15
ATOM     15  C   UNL     1      61.096  32.340  15.973  1.00  0.00     0.000 C 
BRANCH  15  16
ATOM     16  C   UNL     1      61.149  33.876  15.961  1.00  0.00     0.000 C 
BRANCH  16  17
ATOM     17  C   UNL     1      61.032  34.488  17.367  1.00  0.00     0.000 C 
BRANCH  17  18
ATOM     18  C   UNL     1      62.375  34.533  18.131  1.00  0.00    -0.000 C 
BRANCH  18  19
ATOM     19  C   UNL     1      62.386  33.665  19.406  1.00  0.00    -0.000 C 
BRANCH  19  20
ATOM     20  C   UNL     1      63.603  33.907  20.324  1.00  0.00    -0.000 C 
BRANCH  20  21
ATOM     21  C   UNL     1      64.822  34.517  19.606  1.00  0.00    -0.000 C 
BRANCH  21  22
ATOM     22  C   UNL     1      65.788  33.447  19.068  1.00  0.00    -0.000 C 
BRANCH  22  23
ATOM     23  C   UNL     1      66.434  33.844  17.729  1.00  0.00    -0.000 C 
BRANCH  23  24
ATOM     24  C   UNL     1      66.166  32.871  16.567  1.00  0.00    -0.000 C 
BRANCH  24  25
ATOM     25  C   UNL     1      64.764  33.033  15.961  1.00  0.00    -0.003 C 
ATOM     26  C   UNL     1      64.768  34.054  14.827  1.00  0.00     0.004 C 
ENDBRANCH  24  25
ENDBRANCH  23  24
ENDBRANCH  22  23
ENDBRANCH  21  22
ENDBRANCH  20  21
ENDBRANCH  19  20
ENDBRANCH  18  19
ENDBRANCH  17  18
ENDBRANCH  16  17
ENDBRANCH  15  16
ENDBRANCH   1  15
TORSDOF 22
ENDMDL
MODEL 5
REMARK VINA RESULT:    -4.166      1.935      5.265
REMARK INTER + INTRA:         -13.583
REMARK INTER:                  -9.776
REMARK INTRA:                  -3.808
REMARK UNBOUND:                -4.059
REMARK SMILES CCCCCCCCCCCCCCCCCCCCCCCC(=O)[O-]
REMARK SMILES IDX 13 1 14 2 15 3 16 4 17 5 18 6 19 7 20 8 21 9 22 10 23 11
REMARK SMILES IDX 24 12 25 13 26 14 12 15 11 16 10 17 9 18 8 19 7 20 6 21 5 22
REMARK SMILES IDX 4 23 3 24 2 25 1 26
REMARK H PARENT
REMARK Flexibility Score: inf
ROOT
ATOM      1  C   UNL     1      63.485  30.120  14.075  1.00  0.00     0.000 C 
ENDROOT
BRANCH   1   2
ATOM      2  C   UNL     1      64.766  30.316  14.906  1.00  0.00     0.000 C 
BRANCH   2   3
ATOM      3  C   UNL     1      65.031  31.793  15.237  1.00  0.00     0.000 C 
BRANCH   3   4
ATOM      4  C   UNL     1      64.524  32.746  14.142  1.00  0.00     0.000 C 
BRANCH   4   5
ATOM      5  C   UNL     1      65.456  33.950  13.924  1.00  0.00     0.000 C 
BRANCH   5   6
ATOM      6  C   UNL     1      66.813  33.817  14.647  1.00  0.00     0.000 C 
BRANCH   6   7
ATOM      7  C   UNL     1      66.997  34.883  15.742  1.00  0.00     0.000 C 
BRANCH   7   8
ATOM      8  C   UNL     1      65.771  35.809  15.882  1.00  0.00     0.000 C 
BRANCH   8   9
ATOM      9  C   UNL     1      65.070  35.727  17.251  1.00  0.00     0.000 C 
BRANCH   9  10
ATOM     10  C   UNL     1      63.901  34.721  17.301  1.00  0.00     0.006 C 
BRANCH  10  11
ATOM     11  C   UNL     1      64.185  33.548  18.247  1.00  0.00     0.053 C 
BRANCH  11  12
ATOM     12  C   UNL     1      64.492  34.045  19.624  1.00  0.00     0.041 C 
ATOM     13  O   UNL     1      63.594  34.601  20.311  1.00  0.00    -0.550 OA
ATOM     14  O   UNL     1      65.754  33.844  20.171  1.00  0.00    -0.550 OA
ENDBRANCH  11  12
ENDBRANCH  10  11
ENDBRANCH   9  10
ENDBRANCH   8   9
ENDBRANCH   7   8
ENDBRANCH   6   7
ENDBRANCH   5   6
ENDBRANCH   4   5
ENDBRANCH   3   4
ENDBRANCH   2   3
ENDBRANCH   1   2
BRANCH   1  15
ATOM     15  C   UNL     1      63.744  29.375  12.756  1.00  0.00     0.000 C 
BRANCH  15  16
ATOM     16  C   UNL     1      63.445  30.237  11.519  1.00  0.00     0.000 C 
BRANCH  16  17
ATOM     17  C   UNL     1      63.403  29.418  10.218  1.00  0.00     0.000 C 
BRANCH  17  18
ATOM     18  C   UNL     1      62.009  29.394   9.551  1.00  0.00    -0.000 C 
BRANCH  18  19
ATOM     19  C   UNL     1      60.997  28.480  10.273  1.00  0.00    -0.000 C 
BRANCH  19  20
ATOM     20  C   UNL     1      59.814  29.233  10.916  1.00  0.00    -0.000 C 
BRANCH  20  21
ATOM     21  C   UNL     1      59.623  28.942  12.417  1.00  0.00    -0.000 C 
BRANCH  21  22
ATOM     22  C   UNL     1      60.126  30.089  13.310  1.00  0.00    -0.000 C 
BRANCH  22  23
ATOM     23  C   UNL     1      60.053  31.462  12.618  1.00  0.00    -0.000 C 
BRANCH  23  24
ATOM     24  C   UNL     1      61.001  32.529  13.194  1.00  0.00    -0.000 C 
BRANCH  24  25
ATOM     25  C   UNL     1      60.455  33.188  14.469  1.00  0.00    -0.003 C 
ATOM     26  C   UNL     1      61.188  32.682  15.708  1.00  0.00     0.004 C 
ENDBRANCH  24  25
ENDBRANCH  23  24
ENDBRANCH  22  23
ENDBRANCH  21  22
ENDBRANCH  20  21
ENDBRANCH  19  20
ENDBRANCH  18  19
ENDBRANCH  17  18
ENDBRANCH  16  17
ENDBRANCH  15  16
ENDBRANCH   1  15
TORSDOF 22
ENDMDL
MODEL 6
REMARK VINA RESULT:    -4.158      2.530      5.223
REMARK INTER + INTRA:         -13.564
REMARK INTER:                  -9.642
REMARK INTRA:                  -3.921
REMARK UNBOUND:                -4.059
REMARK SMILES CCCCCCCCCCCCCCCCCCCCCCCC(=O)[O-]
REMARK SMILES IDX 13 1 14 2 15 3 16 4 17 5 18 6 19 7 20 8 21 9 22 10 23 11
REMARK SMILES IDX 24 12 25 13 26 14 12 15 11 16 10 17 9 18 8 19 7 20 6 21 5 22
REMARK SMILES IDX 4 23 3 24 2 25 1 26
REMARK H PARENT
REMARK Flexibility Score: inf
ROOT
ATOM      1  C   UNL     1      61.573  32.421  16.112  1.00  0.00     0.000 C 
ENDROOT
BRANCH   1   2
ATOM      2  C   UNL     1      61.096  33.873  16.292  1.00  0.00     0.000 C 
BRANCH   2   3
ATOM      3  C   UNL     1      61.746  34.558  17.504  1.00  0.00     0.000 C 
BRANCH   3   4
ATOM      4  C   UNL     1      63.177  34.060  17.769  1.00  0.00     0.000 C 
BRANCH   4   5
ATOM      5  C   UNL     1      64.240  35.140  17.508  1.00  0.00     0.000 C 
BRANCH   5   6
ATOM      6  C   UNL     1      65.687  34.604  17.551  1.00  0.00     0.000 C 
BRANCH   6   7
ATOM      7  C   UNL     1      65.750  33.080  17.350  1.00  0.00     0.000 C 
BRANCH   7   8
ATOM      8  C   UNL     1      66.184  32.686  15.923  1.00  0.00     0.000 C 
BRANCH   8   9
ATOM      9  C   UNL     1      65.014  32.401  14.961  1.00  0.00     0.000 C 
BRANCH   9  10
ATOM     10  C   UNL     1      64.687  33.566  14.005  1.00  0.00     0.006 C 
BRANCH  10  11
ATOM     11  C   UNL     1      65.888  34.498  13.792  1.00  0.00     0.053 C 
BRANCH  11  12
ATOM     12  C   UNL     1      66.137  34.709  12.333  1.00  0.00     0.041 C 
ATOM     13  O   UNL     1      66.201  33.722  11.552  1.00  0.00    -0.550 OA
ATOM     14  O   UNL     1      66.242  35.998  11.825  1.00  0.00    -0.550 OA
ENDBRANCH  11  12
ENDBRANCH  10  11
ENDBRANCH   9  10
ENDBRANCH   8   9
ENDBRANCH   7   8
ENDBRANCH   6   7
ENDBRANCH   5   6
ENDBRANCH   4   5
ENDBRANCH   3   4
ENDBRANCH   2   3
ENDBRANCH   1   2
BRANCH   1  15
ATOM     15  C   UNL     1      60.596  31.578  15.276  1.00  0.00     0.000 C 
BRANCH  15  16
ATOM     16  C   UNL     1      60.495  32.057  13.818  1.00  0.00     0.000 C 
BRANCH  16  17
ATOM     17  C   UNL     1      61.753  31.730  12.995  1.00  0.00     0.000 C 
BRANCH  17  18
ATOM     18  C   UNL     1      62.369  30.355  13.335  1.00  0.00    -0.000 C 
BRANCH  18  19
ATOM     19  C   UNL     1      63.562  29.976  12.433  1.00  0.00    -0.000 C 
BRANCH  19  20
ATOM     20  C   UNL     1      63.917  31.041  11.375  1.00  0.00    -0.000 C 
BRANCH  20  21
ATOM     21  C   UNL     1      63.944  30.510   9.929  1.00  0.00    -0.000 C 
BRANCH  21  22
ATOM     22  C   UNL     1      63.408  29.073   9.818  1.00  0.00    -0.000 C 
BRANCH  22  23
ATOM     23  C   UNL     1      62.021  29.002   9.155  1.00  0.00    -0.000 C 
BRANCH  23  24
ATOM     24  C   UNL     1      60.929  28.329  10.006  1.00  0.00    -0.000 C 
BRANCH  24  25
ATOM     25  C   UNL     1      60.010  29.340  10.709  1.00  0.00    -0.003 C 
ATOM     26  C   UNL     1      59.420  28.752  11.987  1.00  0.00     0.004 C 
ENDBRANCH  24  25
ENDBRANCH  23  24
ENDBRANCH  22  23
ENDBRANCH  21  22
ENDBRANCH  20  21
ENDBRANCH  19  20
ENDBRANCH  18  19
ENDBRANCH  17  18
ENDBRANCH  16  17
ENDBRANCH  15  16
ENDBRANCH   1  15
TORSDOF 22
ENDMDL
MODEL 7
REMARK VINA RESULT:    -4.156      1.275      4.753
REMARK INTER + INTRA:         -13.560
REMARK INTER:                 -10.227
REMARK INTRA:                  -3.333
REMARK UNBOUND:                -4.059
REMARK SMILES CCCCCCCCCCCCCCCCCCCCCCCC(=O)[O-]
REMARK SMILES IDX 13 1 14 2 15 3 16 4 17 5 18 6 19 7 20 8 21 9 22 10 23 11
REMARK SMILES IDX 24 12 25 13 26 14 12 15 11 16 10 17 9 18 8 19 7 20 6 21 5 22
REMARK SMILES IDX 4 23 3 24 2 25 1 26
REMARK H PARENT
REMARK Flexibility Score: inf
ROOT
ATOM      1  C   UNL     1      61.002  28.093   9.624  1.00  0.00     0.000 C 
ENDROOT
BRANCH   1   2
ATOM      2  C   UNL     1      60.127  29.206  10.228  1.00  0.00     0.000 C 
BRANCH   2   3
ATOM      3  C   UNL     1      59.564  28.827  11.606  1.00  0.00     0.000 C 
BRANCH   3   4
ATOM      4  C   UNL     1      60.667  28.532  12.636  1.00  0.00     0.000 C 
BRANCH   4   5
ATOM      5  C   UNL     1      61.236  29.809  13.279  1.00  0.00     0.000 C 
BRANCH   5   6
ATOM      6  C   UNL     1      60.364  31.059  13.043  1.00  0.00     0.000 C 
BRANCH   6   7
ATOM      7  C   UNL     1      61.130  32.366  13.317  1.00  0.00     0.000 C 
BRANCH   7   8
ATOM      8  C   UNL     1      60.534  33.169  14.492  1.00  0.00     0.000 C 
BRANCH   8   9
ATOM      9  C   UNL     1      61.163  32.849  15.861  1.00  0.00     0.000 C 
BRANCH   9  10
ATOM     10  C   UNL     1      62.176  33.905  16.350  1.00  0.00     0.006 C 
BRANCH  10  11
ATOM     11  C   UNL     1      61.673  34.666  17.583  1.00  0.00     0.053 C 
BRANCH  11  12
ATOM     12  C   UNL     1      61.840  33.837  18.817  1.00  0.00     0.041 C 
ATOM     13  O   UNL     1      60.836  33.317  19.371  1.00  0.00    -0.550 OA
ATOM     14  O   UNL     1      63.111  33.592  19.323  1.00  0.00    -0.550 OA
ENDBRANCH  11  12
ENDBRANCH  10  11
ENDBRANCH   9  10
ENDBRANCH   8   9
ENDBRANCH   7   8
ENDBRANCH   6   7
ENDBRANCH   5   6
ENDBRANCH   4   5
ENDBRANCH   3   4
ENDBRANCH   2   3
ENDBRANCH   1   2
BRANCH   1  15
ATOM     15  C   UNL     1      62.295  28.634   8.993  1.00  0.00     0.000 C 
BRANCH  15  16
ATOM     16  C   UNL     1      63.352  29.017  10.043  1.00  0.00     0.000 C 
BRANCH  16  17
ATOM     17  C   UNL     1      63.609  30.532  10.103  1.00  0.00     0.000 C 
BRANCH  17  18
ATOM     18  C   UNL     1      64.113  31.016  11.481  1.00  0.00    -0.000 C 
BRANCH  18  19
ATOM     19  C   UNL     1      64.820  32.387  11.431  1.00  0.00    -0.000 C 
BRANCH  19  20
ATOM     20  C   UNL     1      64.506  33.303  12.633  1.00  0.00    -0.000 C 
BRANCH  20  21
ATOM     21  C   UNL     1      65.713  34.118  13.136  1.00  0.00    -0.000 C 
BRANCH  21  22
ATOM     22  C   UNL     1      65.542  34.591  14.589  1.00  0.00    -0.000 C 
BRANCH  22  23
ATOM     23  C   UNL     1      66.351  33.749  15.592  1.00  0.00    -0.000 C 
BRANCH  23  24
ATOM     24  C   UNL     1      65.562  32.618  16.275  1.00  0.00    -0.000 C 
BRANCH  24  25
ATOM     25  C   UNL     1      65.616  31.296  15.495  1.00  0.00    -0.003 C 
ATOM     26  C   UNL     1      64.213  30.792  15.168  1.00  0.00     0.004 C 
ENDBRANCH  24  25
ENDBRANCH  23  24
ENDBRANCH  22  23
ENDBRANCH  21  22
ENDBRANCH  20  21
ENDBRANCH  19  20
ENDBRANCH  18  19
ENDBRANCH  17  18
ENDBRANCH  16  17
ENDBRANCH  15  16
ENDBRANCH   1  15
TORSDOF 22
ENDMDL
MODEL 8
REMARK VINA RESULT:    -4.139      1.663      4.791
REMARK INTER + INTRA:         -13.522
REMARK INTER:                 -10.050
REMARK INTRA:                  -3.472
REMARK UNBOUND:                -4.059
REMARK SMILES CCCCCCCCCCCCCCCCCCCCCCCC(=O)[O-]
REMARK SMILES IDX 13 1 14 2 15 3 16 4 17 5 18 6 19 7 20 8 21 9 22 10 23 11
REMARK SMILES IDX 24 12 25 13 26 14 12 15 11 16 10 17 9 18 8 19 7 20 6 21 5 22
REMARK SMILES IDX 4 23 3 24 2 25 1 26
REMARK H PARENT
REMARK Flexibility Score: inf
ROOT
ATOM      1  C   UNL     1      61.676  31.379  15.308  1.00  0.00     0.000 C 
ENDROOT
BRANCH   1   2
ATOM      2  C   UNL     1      63.117  31.909  15.194  1.00  0.00     0.000 C 
BRANCH   2   3
ATOM      3  C   UNL     1      63.223  33.122  14.257  1.00  0.00     0.000 C 
BRANCH   3   4
ATOM      4  C   UNL     1      64.561  33.170  13.501  1.00  0.00     0.000 C 
BRANCH   4   5
ATOM      5  C   UNL     1      65.538  34.203  14.088  1.00  0.00     0.000 C 
BRANCH   5   6
ATOM      6  C   UNL     1      66.542  33.600  15.094  1.00  0.00     0.000 C 
BRANCH   6   7
ATOM      7  C   UNL     1      66.334  34.140  16.520  1.00  0.00     0.000 C 
BRANCH   7   8
ATOM      8  C   UNL     1      65.447  35.402  16.554  1.00  0.00     0.000 C 
BRANCH   8   9
ATOM      9  C   UNL     1      64.294  35.338  17.574  1.00  0.00     0.000 C 
BRANCH   9  10
ATOM     10  C   UNL     1      63.772  33.911  17.843  1.00  0.00     0.006 C 
BRANCH  10  11
ATOM     11  C   UNL     1      62.988  33.819  19.158  1.00  0.00     0.053 C 
BRANCH  11  12
ATOM     12  C   UNL     1      61.517  33.892  18.900  1.00  0.00     0.041 C 
ATOM     13  O   UNL     1      61.082  33.943  17.718  1.00  0.00    -0.550 OA
ATOM     14  O   UNL     1      60.621  33.846  19.962  1.00  0.00    -0.550 OA
ENDBRANCH  11  12
ENDBRANCH  10  11
ENDBRANCH   9  10
ENDBRANCH   8   9
ENDBRANCH   7   8
ENDBRANCH   6   7
ENDBRANCH   5   6
ENDBRANCH   4   5
ENDBRANCH   3   4
ENDBRANCH   2   3
ENDBRANCH   1   2
BRANCH   1  15
ATOM     15  C   UNL     1      60.633  32.390  14.805  1.00  0.00     0.000 C 
BRANCH  15  16
ATOM     16  C   UNL     1      59.542  31.737  13.942  1.00  0.00     0.000 C 
BRANCH  16  17
ATOM     17  C   UNL     1      60.117  30.903  12.785  1.00  0.00     0.000 C 
BRANCH  17  18
ATOM     18  C   UNL     1      59.743  29.406  12.860  1.00  0.00    -0.000 C 
BRANCH  18  19
ATOM     19  C   UNL     1      60.035  28.632  11.558  1.00  0.00    -0.000 C 
BRANCH  19  20
ATOM     20  C   UNL     1      59.862  29.469  10.274  1.00  0.00    -0.000 C 
BRANCH  20  21
ATOM     21  C   UNL     1      60.294  28.744   8.985  1.00  0.00    -0.000 C 
BRANCH  21  22
ATOM     22  C   UNL     1      61.765  28.298   9.022  1.00  0.00    -0.000 C 
BRANCH  22  23
ATOM     23  C   UNL     1      62.749  29.480   8.955  1.00  0.00    -0.000 C 
BRANCH  23  24
ATOM     24  C   UNL     1      63.822  29.493  10.059  1.00  0.00    -0.000 C 
BRANCH  24  25
ATOM     25  C   UNL     1      63.385  30.273  11.308  1.00  0.00    -0.003 C 
ATOM     26  C   UNL     1      63.518  29.420  12.566  1.00  0.00     0.004 C 
ENDBRANCH  24  25
ENDBRANCH  23  24
ENDBRANCH  22  23
ENDBRANCH  21  22
ENDBRANCH  20  21
ENDBRANCH  19  20
ENDBRANCH  18  19
ENDBRANCH  17  18
ENDBRANCH  16  17
ENDBRANCH  15  16
ENDBRANCH   1  15
TORSDOF 22
ENDMDL
MODEL 9
REMARK VINA RESULT:    -4.112      2.144      4.513
REMARK INTER + INTRA:         -13.458
REMARK INTER:                 -10.243
REMARK INTRA:                  -3.215
REMARK UNBOUND:                -4.059
REMARK SMILES CCCCCCCCCCCCCCCCCCCCCCCC(=O)[O-]
REMARK SMILES IDX 13 1 14 2 15 3 16 4 17 5 18 6 19 7 20 8 21 9 22 10 23 11
REMARK SMILES IDX 24 12 25 13 26 14 12 15 11 16 10 17 9 18 8 19 7 20 6 21 5 22
REMARK SMILES IDX 4 23 3 24 2 25 1 26
REMARK H PARENT
REMARK Flexibility Score: inf
ROOT
ATOM      1  C   UNL     1      64.464  31.897  14.745  1.00  0.00     0.000 C 
ENDROOT
BRANCH   1   2
ATOM      2  C   UNL     1      64.301  33.311  14.161  1.00  0.00     0.000 C 
BRANCH   2   3
ATOM      3  C   UNL     1      65.573  34.160  14.315  1.00  0.00     0.000 C 
BRANCH   3   4
ATOM      4  C   UNL     1      65.486  35.149  15.489  1.00  0.00     0.000 C 
BRANCH   4   5
ATOM      5  C   UNL     1      66.170  34.621  16.762  1.00  0.00     0.000 C 
BRANCH   5   6
ATOM      6  C   UNL     1      65.207  33.888  17.719  1.00  0.00     0.000 C 
BRANCH   6   7
ATOM      7  C   UNL     1      63.848  34.601  17.838  1.00  0.00     0.000 C 
BRANCH   7   8
ATOM      8  C   UNL     1      62.873  33.869  18.784  1.00  0.00     0.000 C 
BRANCH   8   9
ATOM      9  C   UNL     1      61.483  33.601  18.177  1.00  0.00     0.000 C 
BRANCH   9  10
ATOM     10  C   UNL     1      61.434  33.725  16.640  1.00  0.00     0.006 C 
BRANCH  10  11
ATOM     11  C   UNL     1      61.065  32.400  15.962  1.00  0.00     0.053 C 
BRANCH  11  12
ATOM     12  C   UNL     1      60.290  32.649  14.707  1.00  0.00     0.041 C 
ATOM     13  O   UNL     1      60.696  33.497  13.869  1.00  0.00    -0.550 OA
ATOM     14  O   UNL     1      59.149  31.904  14.436  1.00  0.00    -0.550 OA
ENDBRANCH  11  12
ENDBRANCH  10  11
ENDBRANCH   9  10
ENDBRANCH   8   9
ENDBRANCH   7   8
ENDBRANCH   6   7
ENDBRANCH   5   6
ENDBRANCH   4   5
ENDBRANCH   3   4
ENDBRANCH   2   3
ENDBRANCH   1   2
BRANCH   1  15
ATOM     15  C   UNL     1      63.718  30.830  13.926  1.00  0.00     0.000 C 
BRANCH  15  16
ATOM     16  C   UNL     1      63.393  31.298  12.498  1.00  0.00     0.000 C 
BRANCH  16  17
ATOM     17  C   UNL     1      64.145  30.496  11.423  1.00  0.00     0.000 C 
BRANCH  17  18
ATOM     18  C   UNL     1      64.264  31.238  10.073  1.00  0.00    -0.000 C 
BRANCH  18  19
ATOM     19  C   UNL     1      63.672  30.453   8.884  1.00  0.00    -0.000 C 
BRANCH  19  20
ATOM     20  C   UNL     1      63.350  28.977   9.200  1.00  0.00    -0.000 C 
BRANCH  20  21
ATOM     21  C   UNL     1      61.874  28.593   8.982  1.00  0.00    -0.000 C 
BRANCH  21  22
ATOM     22  C   UNL     1      60.905  29.719   9.381  1.00  0.00    -0.000 C 
BRANCH  22  23
ATOM     23  C   UNL     1      60.502  29.663  10.866  1.00  0.00    -0.000 C 
BRANCH  23  24
ATOM     24  C   UNL     1      61.107  28.490  11.657  1.00  0.00    -0.000 C 
BRANCH  24  25
ATOM     25  C   UNL     1      60.412  28.258  13.007  1.00  0.00    -0.003 C 
ATOM     26  C   UNL     1      58.894  28.241  12.850  1.00  0.00     0.004 C 
ENDBRANCH  24  25
ENDBRANCH  23  24
ENDBRANCH  22  23
ENDBRANCH  21  22
ENDBRANCH  20  21
ENDBRANCH  19  20
ENDBRANCH  18  19
ENDBRANCH  17  18
ENDBRANCH  16  17
ENDBRANCH  15  16
ENDBRANCH   1  15
TORSDOF 22
ENDMDL
