MODEL 1
REMARK VINA RESULT:    -4.912      0.000      0.000
REMARK INTER + INTRA:          -5.056
REMARK INTER:                  -5.056
REMARK INTRA:                   0.000
REMARK UNBOUND:                 0.000
REMARK SMILES CC1(C)[C@H]2CC[C@](C)(C2)[C@@H]1O
REMARK SMILES IDX 1 1 2 2 4 3 5 4 6 5 7 6 9 7 10 8 8 9 3 10 11 11
REMARK H PARENT 11 12
REMARK Flexibility Score: inf
ROOT
ATOM      1  C   UNL     1     182.554 191.137 201.692  1.00  0.00     0.014 C 
ATOM      2  C   UNL     1     181.164 190.458 201.752  1.00  0.00    -0.006 C 
ATOM      3  C   UNL     1     180.167 191.161 202.735  1.00  0.00    -0.002 C 
ATOM      4  C   UNL     1     180.138 192.686 202.510  1.00  0.00     0.005 C 
ATOM      5  C   UNL     1     179.483 192.814 201.127  1.00  0.00     0.010 C 
ATOM      6  C   UNL     1     179.116 191.352 200.786  1.00  0.00    -0.006 C 
ATOM      7  C   UNL     1     178.815 190.782 202.154  1.00  0.00     0.013 C 
ATOM      8  C   UNL     1     180.411 190.589 200.384  1.00  0.00     0.126 C 
ATOM      9  C   UNL     1     177.956 191.237 199.789  1.00  0.00     0.014 C 
ATOM     10  C   UNL     1     181.389 188.988 202.194  1.00  0.00     0.014 C 
ENDROOT
BRANCH   8  11
ATOM     11  O   UNL     1     180.107 189.327 199.837  1.00  0.00    -0.392 OA
ATOM     12  H   UNL     1     179.346 188.961 200.360  1.00  0.00     0.211 HD
ENDBRANCH   8  11
TORSDOF 1
ENDMDL
MODEL 2
REMARK VINA RESULT:    -4.755      1.775      3.572
REMARK INTER + INTRA:          -4.894
REMARK INTER:                  -4.894
REMARK INTRA:                   0.000
REMARK UNBOUND:                 0.000
REMARK SMILES CC1(C)[C@H]2CC[C@](C)(C2)[C@@H]1O
REMARK SMILES IDX 1 1 2 2 4 3 5 4 6 5 7 6 9 7 10 8 8 9 3 10 11 11
REMARK H PARENT 11 12
REMARK Flexibility Score: inf
ROOT
ATOM      1  C   UNL     1     178.177 193.397 200.663  1.00  0.00     0.014 C 
ATOM      2  C   UNL     1     178.953 192.660 201.782  1.00  0.00    -0.006 C 
ATOM      3  C   UNL     1     178.631 191.129 201.862  1.00  0.00    -0.002 C 
ATOM      4  C   UNL     1     178.705 190.466 200.472  1.00  0.00     0.005 C 
ATOM      5  C   UNL     1     180.204 190.536 200.142  1.00  0.00     0.010 C 
ATOM      6  C   UNL     1     180.812 191.127 201.434  1.00  0.00    -0.006 C 
ATOM      7  C   UNL     1     179.891 190.563 202.494  1.00  0.00     0.013 C 
ATOM      8  C   UNL     1     180.493 192.648 201.490  1.00  0.00     0.126 C 
ATOM      9  C   UNL     1     182.289 190.763 201.629  1.00  0.00     0.014 C 
ATOM     10  C   UNL     1     178.585 193.346 203.125  1.00  0.00     0.014 C 
ENDROOT
BRANCH   8  11
ATOM     11  O   UNL     1     181.220 193.282 202.518  1.00  0.00    -0.392 OA
ATOM     12  H   UNL     1     180.815 192.994 203.378  1.00  0.00     0.211 HD
ENDBRANCH   8  11
TORSDOF 1
ENDMDL
MODEL 3
REMARK VINA RESULT:    -4.599      1.186      3.224
REMARK INTER + INTRA:          -4.734
REMARK INTER:                  -4.734
REMARK INTRA:                   0.000
REMARK UNBOUND:                 0.000
REMARK SMILES CC1(C)[C@H]2CC[C@](C)(C2)[C@@H]1O
REMARK SMILES IDX 1 1 2 2 4 3 5 4 6 5 7 6 9 7 10 8 8 9 3 10 11 11
REMARK H PARENT 11 12
REMARK Flexibility Score: inf
ROOT
ATOM      1  C   UNL     1     177.875 189.980 199.742  1.00  0.00     0.014 C 
ATOM      2  C   UNL     1     179.361 190.416 199.761  1.00  0.00    -0.006 C 
ATOM      3  C   UNL     1     179.640 191.645 200.693  1.00  0.00    -0.002 C 
ATOM      4  C   UNL     1     178.999 191.453 202.082  1.00  0.00     0.005 C 
ATOM      5  C   UNL     1     179.827 190.307 202.683  1.00  0.00     0.010 C 
ATOM      6  C   UNL     1     180.910 190.066 201.607  1.00  0.00    -0.006 C 
ATOM      7  C   UNL     1     181.105 191.458 201.048  1.00  0.00     0.013 C 
ATOM      8  C   UNL     1     180.266 189.312 200.407  1.00  0.00     0.126 C 
ATOM      9  C   UNL     1     182.187 189.429 202.167  1.00  0.00     0.014 C 
ATOM     10  C   UNL     1     179.757 190.763 198.302  1.00  0.00     0.014 C 
ENDROOT
BRANCH   8  11
ATOM     11  O   UNL     1     181.251 188.858 199.507  1.00  0.00    -0.392 OA
ATOM     12  H   UNL     1     182.133 189.060 199.917  1.00  0.00     0.211 HD
ENDBRANCH   8  11
TORSDOF 1
ENDMDL
MODEL 4
REMARK VINA RESULT:    -4.470     13.126     14.200
REMARK INTER + INTRA:          -4.601
REMARK INTER:                  -4.601
REMARK INTRA:                   0.000
REMARK UNBOUND:                 0.000
REMARK SMILES CC1(C)[C@H]2CC[C@](C)(C2)[C@@H]1O
REMARK SMILES IDX 1 1 2 2 4 3 5 4 6 5 7 6 9 7 10 8 8 9 3 10 11 11
REMARK H PARENT 11 12
REMARK Flexibility Score: inf
ROOT
ATOM      1  C   UNL     1     186.009 190.735 190.589  1.00  0.00     0.014 C 
ATOM      2  C   UNL     1     185.021 190.322 189.470  1.00  0.00    -0.006 C 
ATOM      3  C   UNL     1     184.439 191.537 188.671  1.00  0.00    -0.002 C 
ATOM      4  C   UNL     1     185.555 192.506 188.230  1.00  0.00     0.005 C 
ATOM      5  C   UNL     1     186.328 191.683 187.188  1.00  0.00     0.010 C 
ATOM      6  C   UNL     1     185.487 190.390 187.082  1.00  0.00    -0.006 C 
ATOM      7  C   UNL     1     184.089 190.910 187.333  1.00  0.00     0.013 C 
ATOM      8  C   UNL     1     185.749 189.516 188.341  1.00  0.00     0.126 C 
ATOM      9  C   UNL     1     185.657 189.669 185.739  1.00  0.00     0.014 C 
ATOM     10  C   UNL     1     183.866 189.535 190.144  1.00  0.00     0.014 C 
ENDROOT
BRANCH   8  11
ATOM     11  O   UNL     1     185.198 188.228 188.187  1.00  0.00    -0.392 OA
ATOM     12  H   UNL     1     185.954 187.609 188.009  1.00  0.00     0.211 HD
ENDBRANCH   8  11
TORSDOF 1
ENDMDL
MODEL 5
REMARK VINA RESULT:    -4.354     11.206     12.585
REMARK INTER + INTRA:          -4.481
REMARK INTER:                  -4.481
REMARK INTRA:                   0.000
REMARK UNBOUND:                 0.000
REMARK SMILES CC1(C)[C@H]2CC[C@](C)(C2)[C@@H]1O
REMARK SMILES IDX 1 1 2 2 4 3 5 4 6 5 7 6 9 7 10 8 8 9 3 10 11 11
REMARK H PARENT 11 12
REMARK Flexibility Score: inf
ROOT
ATOM      1  C   UNL     1     183.252 187.388 188.160  1.00  0.00     0.014 C 
ATOM      2  C   UNL     1     183.379 187.239 189.696  1.00  0.00    -0.006 C 
ATOM      3  C   UNL     1     184.650 186.438 190.142  1.00  0.00    -0.002 C 
ATOM      4  C   UNL     1     185.917 186.954 189.430  1.00  0.00     0.005 C 
ATOM      5  C   UNL     1     186.101 188.355 190.035  1.00  0.00     0.010 C 
ATOM      6  C   UNL     1     184.982 188.417 191.100  1.00  0.00    -0.006 C 
ATOM      7  C   UNL     1     184.897 186.973 191.542  1.00  0.00     0.013 C 
ATOM      8  C   UNL     1     183.617 188.627 190.383  1.00  0.00     0.126 C 
ATOM      9  C   UNL     1     185.282 189.405 192.234  1.00  0.00     0.014 C 
ATOM     10  C   UNL     1     182.101 186.514 190.195  1.00  0.00     0.014 C 
ENDROOT
BRANCH   8  11
ATOM     11  O   UNL     1     182.599 188.927 191.309  1.00  0.00    -0.392 OA
ATOM     12  H   UNL     1     182.207 188.063 191.600  1.00  0.00     0.211 HD
ENDBRANCH   8  11
TORSDOF 1
ENDMDL
MODEL 6
REMARK VINA RESULT:    -4.264      1.357      2.261
REMARK INTER + INTRA:          -4.389
REMARK INTER:                  -4.389
REMARK INTRA:                   0.000
REMARK UNBOUND:                 0.000
REMARK SMILES CC1(C)[C@H]2CC[C@](C)(C2)[C@@H]1O
REMARK SMILES IDX 1 1 2 2 4 3 5 4 6 5 7 6 9 7 10 8 8 9 3 10 11 11
REMARK H PARENT 11 12
REMARK Flexibility Score: inf
ROOT
ATOM      1  C   UNL     1     180.267 192.629 201.892  1.00  0.00     0.014 C 
ATOM      2  C   UNL     1     179.830 191.232 201.388  1.00  0.00    -0.006 C 
ATOM      3  C   UNL     1     178.308 191.146 201.025  1.00  0.00    -0.002 C 
ATOM      4  C   UNL     1     177.877 192.327 200.130  1.00  0.00     0.005 C 
ATOM      5  C   UNL     1     178.613 192.040 198.812  1.00  0.00     0.010 C 
ATOM      6  C   UNL     1     179.280 190.672 199.083  1.00  0.00    -0.006 C 
ATOM      7  C   UNL     1     178.278 190.018 200.008  1.00  0.00     0.013 C 
ATOM      8  C   UNL     1     180.506 190.887 200.017  1.00  0.00     0.126 C 
ATOM      9  C   UNL     1     179.566 189.876 197.804  1.00  0.00     0.014 C 
ATOM     10  C   UNL     1     180.159 190.214 202.511  1.00  0.00     0.014 C 
ENDROOT
BRANCH   8  11
ATOM     11  O   UNL     1     181.287 189.717 200.104  1.00  0.00    -0.392 OA
ATOM     12  H   UNL     1     180.793 189.002 199.623  1.00  0.00     0.211 HD
ENDBRANCH   8  11
TORSDOF 1
ENDMDL
MODEL 7
REMARK VINA RESULT:    -4.210     11.745     13.045
REMARK INTER + INTRA:          -4.333
REMARK INTER:                  -4.333
REMARK INTRA:                   0.000
REMARK UNBOUND:                 0.000
REMARK SMILES CC1(C)[C@H]2CC[C@](C)(C2)[C@@H]1O
REMARK SMILES IDX 1 1 2 2 4 3 5 4 6 5 7 6 9 7 10 8 8 9 3 10 11 11
REMARK H PARENT 11 12
REMARK Flexibility Score: inf
ROOT
ATOM      1  C   UNL     1     186.627 190.080 189.624  1.00  0.00     0.014 C 
ATOM      2  C   UNL     1     185.196 189.661 189.206  1.00  0.00    -0.006 C 
ATOM      3  C   UNL     1     185.132 188.252 188.521  1.00  0.00    -0.002 C 
ATOM      4  C   UNL     1     185.909 187.197 189.335  1.00  0.00     0.005 C 
ATOM      5  C   UNL     1     185.059 187.056 190.607  1.00  0.00     0.010 C 
ATOM      6  C   UNL     1     183.844 187.964 190.310  1.00  0.00    -0.006 C 
ATOM      7  C   UNL     1     183.707 187.814 188.811  1.00  0.00     0.013 C 
ATOM      8  C   UNL     1     184.279 189.450 190.458  1.00  0.00     0.126 C 
ATOM      9  C   UNL     1     182.588 187.570 191.097  1.00  0.00     0.014 C 
ATOM     10  C   UNL     1     184.667 190.744 188.228  1.00  0.00     0.014 C 
ENDROOT
BRANCH   8  11
ATOM     11  O   UNL     1     183.162 190.310 190.433  1.00  0.00    -0.392 OA
ATOM     12  H   UNL     1     182.790 190.329 191.353  1.00  0.00     0.211 HD
ENDBRANCH   8  11
TORSDOF 1
ENDMDL
MODEL 8
REMARK VINA RESULT:    -4.198     12.867     13.975
REMARK INTER + INTRA:          -4.321
REMARK INTER:                  -4.321
REMARK INTRA:                   0.000
REMARK UNBOUND:                 0.000
REMARK SMILES CC1(C)[C@H]2CC[C@](C)(C2)[C@@H]1O
REMARK SMILES IDX 1 1 2 2 4 3 5 4 6 5 7 6 9 7 10 8 8 9 3 10 11 11
REMARK H PARENT 11 12
REMARK Flexibility Score: inf
ROOT
ATOM      1  C   UNL     1     186.421 188.644 188.446  1.00  0.00     0.014 C 
ATOM      2  C   UNL     1     185.541 189.864 188.081  1.00  0.00    -0.006 C 
ATOM      3  C   UNL     1     184.412 190.156 189.128  1.00  0.00    -0.002 C 
ATOM      4  C   UNL     1     184.968 190.160 190.566  1.00  0.00     0.005 C 
ATOM      5  C   UNL     1     185.855 191.415 190.584  1.00  0.00     0.010 C 
ATOM      6  C   UNL     1     185.604 192.031 189.189  1.00  0.00    -0.006 C 
ATOM      7  C   UNL     1     184.164 191.642 188.935  1.00  0.00     0.013 C 
ATOM      8  C   UNL     1     186.369 191.194 188.124  1.00  0.00     0.126 C 
ATOM      9  C   UNL     1     185.864 193.542 189.141  1.00  0.00     0.014 C 
ATOM     10  C   UNL     1     184.908 189.576 186.693  1.00  0.00     0.014 C 
ENDROOT
BRANCH   8  11
ATOM     11  O   UNL     1     186.371 191.844 186.874  1.00  0.00    -0.392 OA
ATOM     12  H   UNL     1     186.386 191.135 186.179  1.00  0.00     0.211 HD
ENDBRANCH   8  11
TORSDOF 1
ENDMDL
MODEL 9
REMARK VINA RESULT:    -4.189     12.828     13.995
REMARK INTER + INTRA:          -4.311
REMARK INTER:                  -4.311
REMARK INTRA:                   0.000
REMARK UNBOUND:                 0.000
REMARK SMILES CC1(C)[C@H]2CC[C@](C)(C2)[C@@H]1O
REMARK SMILES IDX 1 1 2 2 4 3 5 4 6 5 7 6 9 7 10 8 8 9 3 10 11 11
REMARK H PARENT 11 12
REMARK Flexibility Score: inf
ROOT
ATOM      1  C   UNL     1     187.860 192.631 188.882  1.00  0.00     0.014 C 
ATOM      2  C   UNL     1     186.328 192.488 189.053  1.00  0.00    -0.006 C 
ATOM      3  C   UNL     1     185.574 192.204 187.709  1.00  0.00    -0.002 C 
ATOM      4  C   UNL     1     186.250 191.069 186.914  1.00  0.00     0.005 C 
ATOM      5  C   UNL     1     185.978 189.834 187.787  1.00  0.00     0.010 C 
ATOM      6  C   UNL     1     185.082 190.401 188.912  1.00  0.00    -0.006 C 
ATOM      7  C   UNL     1     184.322 191.486 188.183  1.00  0.00     0.013 C 
ATOM      8  C   UNL     1     185.968 191.217 189.896  1.00  0.00     0.126 C 
ATOM      9  C   UNL     1     184.189 189.339 189.565  1.00  0.00     0.014 C 
ATOM     10  C   UNL     1     185.809 193.810 189.677  1.00  0.00     0.014 C 
ENDROOT
BRANCH   8  11
ATOM     11  O   UNL     1     185.252 191.555 191.062  1.00  0.00    -0.392 OA
ATOM     12  H   UNL     1     185.489 192.493 191.285  1.00  0.00     0.211 HD
ENDBRANCH   8  11
TORSDOF 1
ENDMDL
