MODEL 1
REMARK VINA RESULT:    -6.483      0.000      0.000
REMARK INTER + INTRA:          -9.028
REMARK INTER:                  -7.998
REMARK INTRA:                  -1.030
REMARK UNBOUND:                -1.030
REMARK SMILES CC(C)=CCC[C@@H](C)c1ccc(C)cc1
REMARK SMILES IDX 6 1 7 2 8 3 9 4 13 5 12 6 11 7 14 8 10 9 15 10 5 11 4 12
REMARK SMILES IDX 2 13 1 14 3 15
REMARK H PARENT
REMARK Flexibility Score: inf
ROOT
ATOM      1  C   UNL     1       8.500  14.575  19.856  1.00  0.00     0.012 C 
ENDROOT
BRANCH   1   2
ATOM      2  C   UNL     1       7.405  15.365  20.608  1.00  0.00     0.016 C 
ATOM      3  C   UNL     1       7.447  15.121  22.125  1.00  0.00     0.013 C 
BRANCH   2   4
ATOM      4  C   UNL     1       7.524  16.849  20.312  1.00  0.00    -0.045 A 
ATOM      5  C   UNL     1       7.849  21.065  19.433  1.00  0.00     0.044 C 
ATOM      6  C   UNL     1       7.765  19.601  19.747  1.00  0.00    -0.051 A 
ATOM      7  C   UNL     1       7.997  18.649  18.744  1.00  0.00     0.004 A 
ATOM      8  C   UNL     1       7.388  19.173  21.028  1.00  0.00     0.004 A 
ATOM      9  C   UNL     1       7.885  17.286  19.025  1.00  0.00     0.004 A 
ATOM     10  C   UNL     1       7.274  17.809  21.311  1.00  0.00     0.004 A 
ENDBRANCH   2   4
ENDBRANCH   1   2
BRANCH   1  11
ATOM     11  C   UNL     1       7.935  13.722  18.711  1.00  0.00     0.028 C 
BRANCH  11  12
ATOM     12  C   UNL     1       6.427  13.734  18.733  1.00  0.00    -0.028 C 
ATOM     13  C   UNL     1       5.653  14.353  17.814  1.00  0.00    -0.080 C 
ATOM     14  C   UNL     1       4.157  14.310  17.988  1.00  0.00     0.039 C 
ATOM     15  C   UNL     1       6.244  15.062  16.617  1.00  0.00     0.039 C 
ENDBRANCH  11  12
ENDBRANCH   1  11
TORSDOF 4
ENDMDL
MODEL 2
REMARK VINA RESULT:    -6.357      1.172      2.360
REMARK INTER + INTRA:          -8.874
REMARK INTER:                  -7.923
REMARK INTRA:                  -0.950
REMARK UNBOUND:                -1.030
REMARK SMILES CC(C)=CCC[C@@H](C)c1ccc(C)cc1
REMARK SMILES IDX 6 1 7 2 8 3 9 4 13 5 12 6 11 7 14 8 10 9 15 10 5 11 4 12
REMARK SMILES IDX 2 13 1 14 3 15
REMARK H PARENT
REMARK Flexibility Score: inf
ROOT
ATOM      1  C   UNL     1       6.402  13.803  19.503  1.00  0.00     0.012 C 
ENDROOT
BRANCH   1   2
ATOM      2  C   UNL     1       7.807  14.447  19.484  1.00  0.00     0.016 C 
ATOM      3  C   UNL     1       8.498  14.297  18.119  1.00  0.00     0.013 C 
BRANCH   2   4
ATOM      4  C   UNL     1       7.724  15.912  19.873  1.00  0.00    -0.045 A 
ATOM      5  C   UNL     1       7.499  20.071  21.015  1.00  0.00     0.044 C 
ATOM      6  C   UNL     1       7.548  18.628  20.609  1.00  0.00    -0.051 A 
ATOM      7  C   UNL     1       7.242  17.622  21.536  1.00  0.00     0.004 A 
ATOM      8  C   UNL     1       7.966  18.271  19.319  1.00  0.00     0.004 A 
ATOM      9  C   UNL     1       7.323  16.276  21.170  1.00  0.00     0.004 A 
ATOM     10  C   UNL     1       8.047  16.925  18.951  1.00  0.00     0.004 A 
ENDBRANCH   2   4
ENDBRANCH   1   2
BRANCH   1  11
ATOM     11  C   UNL     1       5.404  14.529  18.588  1.00  0.00     0.028 C 
BRANCH  11  12
ATOM     12  C   UNL     1       5.009  13.649  17.428  1.00  0.00    -0.028 C 
ATOM     13  C   UNL     1       5.185  13.974  16.128  1.00  0.00    -0.080 C 
ATOM     14  C   UNL     1       4.705  13.008  15.075  1.00  0.00     0.039 C 
ATOM     15  C   UNL     1       5.863  15.257  15.707  1.00  0.00     0.039 C 
ENDBRANCH  11  12
ENDBRANCH   1  11
TORSDOF 4
ENDMDL
MODEL 3
REMARK VINA RESULT:    -6.349      1.518      2.253
REMARK INTER + INTRA:          -8.863
REMARK INTER:                  -8.243
REMARK INTRA:                  -0.621
REMARK UNBOUND:                -1.030
REMARK SMILES CC(C)=CCC[C@@H](C)c1ccc(C)cc1
REMARK SMILES IDX 6 1 7 2 8 3 9 4 13 5 12 6 11 7 14 8 10 9 15 10 5 11 4 12
REMARK SMILES IDX 2 13 1 14 3 15
REMARK H PARENT
REMARK Flexibility Score: inf
ROOT
ATOM      1  C   UNL     1       7.655  15.119  17.612  1.00  0.00     0.012 C 
ENDROOT
BRANCH   1   2
ATOM      2  C   UNL     1       7.567  15.155  19.155  1.00  0.00     0.016 C 
ATOM      3  C   UNL     1       8.684  14.335  19.821  1.00  0.00     0.013 C 
BRANCH   2   4
ATOM      4  C   UNL     1       7.597  16.588  19.654  1.00  0.00    -0.045 A 
ATOM      5  C   UNL     1       7.697  20.654  21.109  1.00  0.00     0.044 C 
ATOM      6  C   UNL     1       7.633  19.245  20.596  1.00  0.00    -0.051 A 
ATOM      7  C   UNL     1       7.342  18.188  21.470  1.00  0.00     0.004 A 
ATOM      8  C   UNL     1       7.931  18.967  19.254  1.00  0.00     0.004 A 
ATOM      9  C   UNL     1       7.318  16.872  21.003  1.00  0.00     0.004 A 
ATOM     10  C   UNL     1       7.907  17.651  18.785  1.00  0.00     0.004 A 
ENDBRANCH   2   4
ENDBRANCH   1   2
BRANCH   1  11
ATOM     11  C   UNL     1       6.311  14.781  16.949  1.00  0.00     0.028 C 
BRANCH  11  12
ATOM     12  C   UNL     1       5.844  13.408  17.365  1.00  0.00    -0.028 C 
ATOM     13  C   UNL     1       5.110  12.582  16.585  1.00  0.00    -0.080 C 
ATOM     14  C   UNL     1       4.683  11.252  17.152  1.00  0.00     0.039 C 
ATOM     15  C   UNL     1       4.729  12.945  15.169  1.00  0.00     0.039 C 
ENDBRANCH  11  12
ENDBRANCH   1  11
TORSDOF 4
ENDMDL
MODEL 4
REMARK VINA RESULT:    -6.212      1.301      5.020
REMARK INTER + INTRA:          -8.694
REMARK INTER:                  -7.537
REMARK INTRA:                  -1.157
REMARK UNBOUND:                -1.030
REMARK SMILES CC(C)=CCC[C@@H](C)c1ccc(C)cc1
REMARK SMILES IDX 6 1 7 2 8 3 9 4 13 5 12 6 11 7 14 8 10 9 15 10 5 11 4 12
REMARK SMILES IDX 2 13 1 14 3 15
REMARK H PARENT
REMARK Flexibility Score: inf
ROOT
ATOM      1  C   UNL     1       8.956  15.132  17.406  1.00  0.00     0.012 C 
ENDROOT
BRANCH   1   2
ATOM      2  C   UNL     1       7.996  14.142  18.105  1.00  0.00     0.016 C 
ATOM      3  C   UNL     1       8.113  14.201  19.636  1.00  0.00     0.013 C 
BRANCH   2   4
ATOM      4  C   UNL     1       6.563  14.402  17.677  1.00  0.00    -0.045 A 
ATOM      5  C   UNL     1       2.496  15.139  16.423  1.00  0.00     0.044 C 
ATOM      6  C   UNL     1       3.907  14.907  16.876  1.00  0.00    -0.051 A 
ATOM      7  C   UNL     1       4.979  15.446  16.152  1.00  0.00     0.004 A 
ATOM      8  C   UNL     1       4.167  14.094  17.989  1.00  0.00     0.004 A 
ATOM      9  C   UNL     1       6.295  15.201  16.552  1.00  0.00     0.004 A 
ATOM     10  C   UNL     1       5.483  13.848  18.391  1.00  0.00     0.004 A 
ENDBRANCH   2   4
ENDBRANCH   1   2
BRANCH   1  11
ATOM     11  C   UNL     1       9.435  16.253  18.339  1.00  0.00     0.028 C 
BRANCH  11  12
ATOM     12  C   UNL     1       8.797  17.568  17.962  1.00  0.00    -0.028 C 
ATOM     13  C   UNL     1       7.982  18.282  18.771  1.00  0.00    -0.080 C 
ATOM     14  C   UNL     1       7.388  19.561  18.241  1.00  0.00     0.039 C 
ATOM     15  C   UNL     1       7.672  17.845  20.183  1.00  0.00     0.039 C 
ENDBRANCH  11  12
ENDBRANCH   1  11
TORSDOF 4
ENDMDL
MODEL 5
REMARK VINA RESULT:    -6.177      1.362      5.665
REMARK INTER + INTRA:          -8.652
REMARK INTER:                  -8.077
REMARK INTRA:                  -0.575
REMARK UNBOUND:                -1.030
REMARK SMILES CC(C)=CCC[C@@H](C)c1ccc(C)cc1
REMARK SMILES IDX 6 1 7 2 8 3 9 4 13 5 12 6 11 7 14 8 10 9 15 10 5 11 4 12
REMARK SMILES IDX 2 13 1 14 3 15
REMARK H PARENT
REMARK Flexibility Score: inf
ROOT
ATOM      1  C   UNL     1       8.831  16.826  18.371  1.00  0.00     0.012 C 
ENDROOT
BRANCH   1   2
ATOM      2  C   UNL     1       8.769  15.286  18.259  1.00  0.00     0.016 C 
ATOM      3  C   UNL     1       8.756  14.601  19.635  1.00  0.00     0.013 C 
BRANCH   2   4
ATOM      4  C   UNL     1       7.556  14.861  17.450  1.00  0.00    -0.045 A 
ATOM      5  C   UNL     1       4.087  13.648  15.182  1.00  0.00     0.044 C 
ATOM      6  C   UNL     1       5.308  14.049  15.954  1.00  0.00    -0.051 A 
ATOM      7  C   UNL     1       5.588  13.453  17.192  1.00  0.00     0.004 A 
ATOM      8  C   UNL     1       6.142  15.070  15.478  1.00  0.00     0.004 A 
ATOM      9  C   UNL     1       6.706  13.850  17.931  1.00  0.00     0.004 A 
ATOM     10  C   UNL     1       7.261  15.469  16.215  1.00  0.00     0.004 A 
ENDBRANCH   2   4
ENDBRANCH   1   2
BRANCH   1  11
ATOM     11  C   UNL     1       7.521  17.436  18.893  1.00  0.00     0.028 C 
BRANCH  11  12
ATOM     12  C   UNL     1       7.761  18.821  19.441  1.00  0.00    -0.028 C 
ATOM     13  C   UNL     1       7.555  19.180  20.728  1.00  0.00    -0.080 C 
ATOM     14  C   UNL     1       7.802  20.613  21.122  1.00  0.00     0.039 C 
ATOM     15  C   UNL     1       7.107  18.186  21.775  1.00  0.00     0.039 C 
ENDBRANCH  11  12
ENDBRANCH   1  11
TORSDOF 4
ENDMDL
MODEL 6
REMARK VINA RESULT:    -6.085      1.692      2.227
REMARK INTER + INTRA:          -8.538
REMARK INTER:                  -7.854
REMARK INTRA:                  -0.683
REMARK UNBOUND:                -1.030
REMARK SMILES CC(C)=CCC[C@@H](C)c1ccc(C)cc1
REMARK SMILES IDX 6 1 7 2 8 3 9 4 13 5 12 6 11 7 14 8 10 9 15 10 5 11 4 12
REMARK SMILES IDX 2 13 1 14 3 15
REMARK H PARENT
REMARK Flexibility Score: inf
ROOT
ATOM      1  C   UNL     1       7.187  13.916  19.261  1.00  0.00     0.012 C 
ENDROOT
BRANCH   1   2
ATOM      2  C   UNL     1       7.039  15.247  20.032  1.00  0.00     0.016 C 
ATOM      3  C   UNL     1       7.668  15.182  21.433  1.00  0.00     0.013 C 
BRANCH   2   4
ATOM      4  C   UNL     1       7.645  16.390  19.237  1.00  0.00    -0.045 A 
ATOM      5  C   UNL     1       9.356  19.626  16.944  1.00  0.00     0.044 C 
ATOM      6  C   UNL     1       8.789  18.497  17.753  1.00  0.00    -0.051 A 
ATOM      7  C   UNL     1       8.749  17.199  17.225  1.00  0.00     0.004 A 
ATOM      8  C   UNL     1       8.232  18.744  19.016  1.00  0.00     0.004 A 
ATOM      9  C   UNL     1       8.189  16.154  17.962  1.00  0.00     0.004 A 
ATOM     10  C   UNL     1       7.671  17.699  19.756  1.00  0.00     0.004 A 
ENDBRANCH   2   4
ENDBRANCH   1   2
BRANCH   1  11
ATOM     11  C   UNL     1       5.834  13.265  18.937  1.00  0.00     0.028 C 
BRANCH  11  12
ATOM     12  C   UNL     1       5.413  13.587  17.525  1.00  0.00    -0.028 C 
ATOM     13  C   UNL     1       5.138  12.661  16.579  1.00  0.00    -0.080 C 
ATOM     14  C   UNL     1       4.767  13.134  15.198  1.00  0.00     0.039 C 
ATOM     15  C   UNL     1       5.173  11.179  16.875  1.00  0.00     0.039 C 
ENDBRANCH  11  12
ENDBRANCH   1  11
TORSDOF 4
ENDMDL
MODEL 7
REMARK VINA RESULT:    -5.917      2.813      5.006
REMARK INTER + INTRA:          -8.331
REMARK INTER:                  -7.811
REMARK INTRA:                  -0.519
REMARK UNBOUND:                -1.030
REMARK SMILES CC(C)=CCC[C@@H](C)c1ccc(C)cc1
REMARK SMILES IDX 6 1 7 2 8 3 9 4 13 5 12 6 11 7 14 8 10 9 15 10 5 11 4 12
REMARK SMILES IDX 2 13 1 14 3 15
REMARK H PARENT
REMARK Flexibility Score: inf
ROOT
ATOM      1  C   UNL     1       4.478  12.928  15.599  1.00  0.00     0.012 C 
ENDROOT
BRANCH   1   2
ATOM      2  C   UNL     1       4.259  14.345  16.176  1.00  0.00     0.016 C 
ATOM      3  C   UNL     1       3.146  14.376  17.237  1.00  0.00     0.013 C 
BRANCH   2   4
ATOM      4  C   UNL     1       5.552  14.888  16.756  1.00  0.00    -0.045 A 
ATOM      5  C   UNL     1       9.232  16.406  18.432  1.00  0.00     0.044 C 
ATOM      6  C   UNL     1       7.942  15.907  17.852  1.00  0.00    -0.051 A 
ATOM      7  C   UNL     1       6.947  15.381  18.688  1.00  0.00     0.004 A 
ATOM      8  C   UNL     1       7.749  15.899  16.463  1.00  0.00     0.004 A 
ATOM      9  C   UNL     1       5.760  14.883  18.147  1.00  0.00     0.004 A 
ATOM     10  C   UNL     1       6.562  15.400  15.919  1.00  0.00     0.004 A 
ENDBRANCH   2   4
ENDBRANCH   1   2
BRANCH   1  11
ATOM     11  C   UNL     1       5.474  12.099  16.425  1.00  0.00     0.028 C 
BRANCH  11  12
ATOM     12  C   UNL     1       4.764  10.981  17.147  1.00  0.00    -0.028 C 
ATOM     13  C   UNL     1       5.244   9.723  17.268  1.00  0.00    -0.080 C 
ATOM     14  C   UNL     1       4.403   8.700  17.987  1.00  0.00     0.039 C 
ATOM     15  C   UNL     1       6.596   9.326  16.724  1.00  0.00     0.039 C 
ENDBRANCH  11  12
ENDBRANCH   1  11
TORSDOF 4
ENDMDL
MODEL 8
REMARK VINA RESULT:    -5.902      2.284      3.333
REMARK INTER + INTRA:          -8.313
REMARK INTER:                  -7.595
REMARK INTRA:                  -0.718
REMARK UNBOUND:                -1.030
REMARK SMILES CC(C)=CCC[C@@H](C)c1ccc(C)cc1
REMARK SMILES IDX 6 1 7 2 8 3 9 4 13 5 12 6 11 7 14 8 10 9 15 10 5 11 4 12
REMARK SMILES IDX 2 13 1 14 3 15
REMARK H PARENT
REMARK Flexibility Score: inf
ROOT
ATOM      1  C   UNL     1       6.119  13.772  19.000  1.00  0.00     0.012 C 
ENDROOT
BRANCH   1   2
ATOM      2  C   UNL     1       7.646  13.994  19.090  1.00  0.00     0.016 C 
ATOM      3  C   UNL     1       8.431  13.009  18.209  1.00  0.00     0.013 C 
BRANCH   2   4
ATOM      4  C   UNL     1       7.997  15.424  18.720  1.00  0.00    -0.045 A 
ATOM      5  C   UNL     1       9.004  19.499  17.703  1.00  0.00     0.044 C 
ATOM      6  C   UNL     1       8.627  18.088  18.044  1.00  0.00    -0.051 A 
ATOM      7  C   UNL     1       8.079  17.786  19.299  1.00  0.00     0.004 A 
ATOM      8  C   UNL     1       8.882  17.049  17.137  1.00  0.00     0.004 A 
ATOM      9  C   UNL     1       7.760  16.468  19.631  1.00  0.00     0.004 A 
ATOM     10  C   UNL     1       8.564  15.729  17.468  1.00  0.00     0.004 A 
ENDBRANCH   2   4
ENDBRANCH   1   2
BRANCH   1  11
ATOM     11  C   UNL     1       5.697  13.076  17.697  1.00  0.00     0.028 C 
BRANCH  11  12
ATOM     12  C   UNL     1       4.800  11.899  17.990  1.00  0.00    -0.028 C 
ATOM     13  C   UNL     1       4.993  10.651  17.505  1.00  0.00    -0.080 C 
ATOM     14  C   UNL     1       3.989   9.583  17.854  1.00  0.00     0.039 C 
ATOM     15  C   UNL     1       6.188  10.301  16.650  1.00  0.00     0.039 C 
ENDBRANCH  11  12
ENDBRANCH   1  11
TORSDOF 4
ENDMDL
MODEL 9
REMARK VINA RESULT:    -5.883      1.415      5.588
REMARK INTER + INTRA:          -8.289
REMARK INTER:                  -7.525
REMARK INTRA:                  -0.764
REMARK UNBOUND:                -1.030
REMARK SMILES CC(C)=CCC[C@@H](C)c1ccc(C)cc1
REMARK SMILES IDX 6 1 7 2 8 3 9 4 13 5 12 6 11 7 14 8 10 9 15 10 5 11 4 12
REMARK SMILES IDX 2 13 1 14 3 15
REMARK H PARENT
REMARK Flexibility Score: inf
ROOT
ATOM      1  C   UNL     1       7.313  16.301  19.970  1.00  0.00     0.012 C 
ENDROOT
BRANCH   1   2
ATOM      2  C   UNL     1       8.050  15.441  18.919  1.00  0.00     0.016 C 
ATOM      3  C   UNL     1       8.836  14.285  19.559  1.00  0.00     0.013 C 
BRANCH   2   4
ATOM      4  C   UNL     1       7.070  14.904  17.891  1.00  0.00    -0.045 A 
ATOM      5  C   UNL     1       4.259  13.365  14.996  1.00  0.00     0.044 C 
ATOM      6  C   UNL     1       5.258  13.884  15.987  1.00  0.00    -0.051 A 
ATOM      7  C   UNL     1       5.480  13.200  17.191  1.00  0.00     0.004 A 
ATOM      8  C   UNL     1       5.927  15.093  15.749  1.00  0.00     0.004 A 
ATOM      9  C   UNL     1       6.383  13.702  18.132  1.00  0.00     0.004 A 
ATOM     10  C   UNL     1       6.831  15.597  16.689  1.00  0.00     0.004 A 
ENDBRANCH   2   4
ENDBRANCH   1   2
BRANCH   1  11
ATOM     11  C   UNL     1       7.793  17.761  19.983  1.00  0.00     0.028 C 
BRANCH  11  12
ATOM     12  C   UNL     1       8.496  18.101  18.693  1.00  0.00    -0.028 C 
ATOM     13  C   UNL     1       8.613  19.351  18.191  1.00  0.00    -0.080 C 
ATOM     14  C   UNL     1       9.312  19.532  16.869  1.00  0.00     0.039 C 
ATOM     15  C   UNL     1       8.082  20.560  18.926  1.00  0.00     0.039 C 
ENDBRANCH  11  12
ENDBRANCH   1  11
TORSDOF 4
ENDMDL
