MODEL 1
REMARK VINA RESULT:    -3.301      0.000      0.000
REMARK INTER + INTRA:          -4.172
REMARK INTER:                  -4.073
REMARK INTRA:                  -0.099
REMARK UNBOUND:                -0.099
REMARK SMILES CCCCCC(=O)[O-]
REMARK SMILES IDX 4 1 5 2 6 3 7 4 8 5 3 6 2 7 1 8
REMARK H PARENT
REMARK Flexibility Score: inf
ROOT
ATOM      1  C   UNL     1      98.289 -68.474   2.909  1.00  0.00     0.006 C 
ENDROOT
BRANCH   1   2
ATOM      2  C   UNL     1      99.433 -68.183   1.929  1.00  0.00     0.053 C 
BRANCH   2   3
ATOM      3  C   UNL     1      99.136 -68.704   0.557  1.00  0.00     0.041 C 
ATOM      4  O   UNL     1      99.240 -67.946  -0.445  1.00  0.00    -0.550 OA
ATOM      5  O   UNL     1      98.710 -70.015   0.386  1.00  0.00    -0.550 OA
ENDBRANCH   2   3
ENDBRANCH   1   2
BRANCH   1   6
ATOM      6  C   UNL     1      98.717 -68.283   4.375  1.00  0.00     0.000 C 
BRANCH   6   7
ATOM      7  C   UNL     1     100.143 -68.790   4.642  1.00  0.00    -0.003 C 
ATOM      8  C   UNL     1     100.188 -69.907   5.683  1.00  0.00     0.004 C 
ENDBRANCH   6   7
ENDBRANCH   1   6
TORSDOF 4
ENDMDL
MODEL 2
REMARK VINA RESULT:    -3.241      0.261      1.158
REMARK INTER + INTRA:          -4.098
REMARK INTER:                  -4.012
REMARK INTRA:                  -0.086
REMARK UNBOUND:                -0.099
REMARK SMILES CCCCCC(=O)[O-]
REMARK SMILES IDX 4 1 5 2 6 3 7 4 8 5 3 6 2 7 1 8
REMARK H PARENT
REMARK Flexibility Score: inf
ROOT
ATOM      1  C   UNL     1      98.353 -68.626   2.854  1.00  0.00     0.006 C 
ENDROOT
BRANCH   1   2
ATOM      2  C   UNL     1      99.196 -67.986   1.743  1.00  0.00     0.053 C 
BRANCH   2   3
ATOM      3  C   UNL     1      99.121 -68.767   0.468  1.00  0.00     0.041 C 
ATOM      4  O   UNL     1      98.711 -69.958   0.477  1.00  0.00    -0.550 OA
ATOM      5  O   UNL     1      99.538 -68.193  -0.727  1.00  0.00    -0.550 OA
ENDBRANCH   2   3
ENDBRANCH   1   2
BRANCH   1   6
ATOM      6  C   UNL     1      98.738 -68.103   4.249  1.00  0.00     0.000 C 
BRANCH   6   7
ATOM      7  C   UNL     1     100.135 -68.566   4.687  1.00  0.00    -0.003 C 
ATOM      8  C   UNL     1     100.092 -69.779   5.615  1.00  0.00     0.004 C 
ENDBRANCH   6   7
ENDBRANCH   1   6
TORSDOF 4
ENDMDL
MODEL 3
REMARK VINA RESULT:    -3.234      3.852      5.154
REMARK INTER + INTRA:          -4.089
REMARK INTER:                  -4.039
REMARK INTRA:                  -0.050
REMARK UNBOUND:                -0.099
REMARK SMILES CCCCCC(=O)[O-]
REMARK SMILES IDX 4 1 5 2 6 3 7 4 8 5 3 6 2 7 1 8
REMARK H PARENT
REMARK Flexibility Score: inf
ROOT
ATOM      1  C   UNL     1     101.072 -68.854   7.434  1.00  0.00     0.006 C 
ENDROOT
BRANCH   1   2
ATOM      2  C   UNL     1     100.541 -68.278   6.115  1.00  0.00     0.053 C 
BRANCH   2   3
ATOM      3  C   UNL     1     100.022 -69.350   5.208  1.00  0.00     0.041 C 
ATOM      4  O   UNL     1     100.350 -70.552   5.396  1.00  0.00    -0.550 OA
ATOM      5  O   UNL     1      99.206 -69.020   4.133  1.00  0.00    -0.550 OA
ENDBRANCH   2   3
ENDBRANCH   1   2
BRANCH   1   6
ATOM      6  C   UNL     1     100.960 -67.849   8.593  1.00  0.00     0.000 C 
BRANCH   6   7
ATOM      7  C   UNL     1     100.600 -68.524   9.925  1.00  0.00    -0.003 C 
ATOM      8  C   UNL     1     100.161 -67.525  10.995  1.00  0.00     0.004 C 
ENDBRANCH   6   7
ENDBRANCH   1   6
TORSDOF 4
ENDMDL
MODEL 4
REMARK VINA RESULT:    -3.157      1.406      2.005
REMARK INTER + INTRA:          -3.994
REMARK INTER:                  -3.874
REMARK INTRA:                  -0.120
REMARK UNBOUND:                -0.099
REMARK SMILES CCCCCC(=O)[O-]
REMARK SMILES IDX 4 1 5 2 6 3 7 4 8 5 3 6 2 7 1 8
REMARK H PARENT
REMARK Flexibility Score: inf
ROOT
ATOM      1  C   UNL     1      99.052 -67.659   1.612  1.00  0.00     0.006 C 
ENDROOT
BRANCH   1   2
ATOM      2  C   UNL     1      99.656 -68.244   0.329  1.00  0.00     0.053 C 
BRANCH   2   3
ATOM      3  C   UNL     1      98.793 -69.322  -0.252  1.00  0.00     0.041 C 
ATOM      4  O   UNL     1      98.345 -69.212  -1.424  1.00  0.00    -0.550 OA
ATOM      5  O   UNL     1      98.452 -70.430   0.514  1.00  0.00    -0.550 OA
ENDBRANCH   2   3
ENDBRANCH   1   2
BRANCH   1   6
ATOM      6  C   UNL     1      99.735 -68.207   2.877  1.00  0.00     0.000 C 
BRANCH   6   7
ATOM      7  C   UNL     1      98.753 -68.388   4.045  1.00  0.00    -0.003 C 
ATOM      8  C   UNL     1      97.456 -67.602   3.854  1.00  0.00     0.004 C 
ENDBRANCH   6   7
ENDBRANCH   1   6
TORSDOF 4
ENDMDL
MODEL 5
REMARK VINA RESULT:    -3.112      6.197      7.702
REMARK INTER + INTRA:          -3.940
REMARK INTER:                  -3.875
REMARK INTRA:                  -0.064
REMARK UNBOUND:                -0.099
REMARK SMILES CCCCCC(=O)[O-]
REMARK SMILES IDX 4 1 5 2 6 3 7 4 8 5 3 6 2 7 1 8
REMARK H PARENT
REMARK Flexibility Score: inf
ROOT
ATOM      1  C   UNL     1     101.008 -68.825   8.375  1.00  0.00     0.006 C 
ENDROOT
BRANCH   1   2
ATOM      2  C   UNL     1     100.695 -67.532   9.139  1.00  0.00     0.053 C 
BRANCH   2   3
ATOM      3  C   UNL     1     100.242 -67.809  10.540  1.00  0.00     0.041 C 
ATOM      4  O   UNL     1     100.176 -68.995  10.961  1.00  0.00    -0.550 OA
ATOM      5  O   UNL     1      99.859 -66.762  11.369  1.00  0.00    -0.550 OA
ENDBRANCH   2   3
ENDBRANCH   1   2
BRANCH   1   6
ATOM      6  C   UNL     1     101.156 -68.583   6.862  1.00  0.00     0.000 C 
BRANCH   6   7
ATOM      7  C   UNL     1     100.329 -69.569   6.024  1.00  0.00    -0.003 C 
ATOM      8  C   UNL     1      99.546 -68.883   4.906  1.00  0.00     0.004 C 
ENDBRANCH   6   7
ENDBRANCH   1   6
TORSDOF 4
ENDMDL
MODEL 6
REMARK VINA RESULT:    -3.110      2.391      3.315
REMARK INTER + INTRA:          -3.937
REMARK INTER:                  -3.845
REMARK INTRA:                  -0.092
REMARK UNBOUND:                -0.099
REMARK SMILES CCCCCC(=O)[O-]
REMARK SMILES IDX 4 1 5 2 6 3 7 4 8 5 3 6 2 7 1 8
REMARK H PARENT
REMARK Flexibility Score: inf
ROOT
ATOM      1  C   UNL     1      99.875 -69.469   5.387  1.00  0.00     0.006 C 
ENDROOT
BRANCH   1   2
ATOM      2  C   UNL     1      99.489 -68.138   4.729  1.00  0.00     0.053 C 
BRANCH   2   3
ATOM      3  C   UNL     1      98.435 -68.320   3.680  1.00  0.00     0.041 C 
ATOM      4  O   UNL     1      98.648 -69.072   2.692  1.00  0.00    -0.550 OA
ATOM      5  O   UNL     1      97.232 -67.632   3.775  1.00  0.00    -0.550 OA
ENDBRANCH   2   3
ENDBRANCH   1   2
BRANCH   1   6
ATOM      6  C   UNL     1     101.186 -69.362   6.187  1.00  0.00     0.000 C 
BRANCH   6   7
ATOM      7  C   UNL     1     101.172 -68.194   7.184  1.00  0.00    -0.003 C 
ATOM      8  C   UNL     1     100.944 -68.649   8.625  1.00  0.00     0.004 C 
ENDBRANCH   6   7
ENDBRANCH   1   6
TORSDOF 4
ENDMDL
MODEL 7
REMARK VINA RESULT:    -3.043      3.573      6.145
REMARK INTER + INTRA:          -3.854
REMARK INTER:                  -3.732
REMARK INTRA:                  -0.122
REMARK UNBOUND:                -0.099
REMARK SMILES CCCCCC(=O)[O-]
REMARK SMILES IDX 4 1 5 2 6 3 7 4 8 5 3 6 2 7 1 8
REMARK H PARENT
REMARK Flexibility Score: inf
ROOT
ATOM      1  C   UNL     1      98.579 -67.572  -1.617  1.00  0.00     0.006 C 
ENDROOT
BRANCH   1   2
ATOM      2  C   UNL     1      98.271 -69.062  -1.415  1.00  0.00     0.053 C 
BRANCH   2   3
ATOM      3  C   UNL     1      98.702 -69.542  -0.063  1.00  0.00     0.041 C 
ATOM      4  O   UNL     1      98.086 -70.485   0.500  1.00  0.00    -0.550 OA
ATOM      5  O   UNL     1      99.760 -68.923   0.591  1.00  0.00    -0.550 OA
ENDBRANCH   2   3
ENDBRANCH   1   2
BRANCH   1   6
ATOM      6  C   UNL     1      99.305 -67.305  -2.947  1.00  0.00     0.000 C 
BRANCH   6   7
ATOM      7  C   UNL     1      98.414 -67.577  -4.168  1.00  0.00    -0.003 C 
ATOM      8  C   UNL     1      97.213 -66.635  -4.246  1.00  0.00     0.004 C 
ENDBRANCH   6   7
ENDBRANCH   1   6
TORSDOF 4
ENDMDL
MODEL 8
REMARK VINA RESULT:    -2.909      3.569      5.330
REMARK INTER + INTRA:          -3.689
REMARK INTER:                  -3.481
REMARK INTRA:                  -0.207
REMARK UNBOUND:                -0.099
REMARK SMILES CCCCCC(=O)[O-]
REMARK SMILES IDX 4 1 5 2 6 3 7 4 8 5 3 6 2 7 1 8
REMARK H PARENT
REMARK Flexibility Score: inf
ROOT
ATOM      1  C   UNL     1      98.460 -67.452  -1.586  1.00  0.00     0.006 C 
ENDROOT
BRANCH   1   2
ATOM      2  C   UNL     1      98.401 -68.981  -1.469  1.00  0.00     0.053 C 
BRANCH   2   3
ATOM      3  C   UNL     1      98.771 -69.448  -0.095  1.00  0.00     0.041 C 
ATOM      4  O   UNL     1      99.738 -68.918   0.515  1.00  0.00    -0.550 OA
ATOM      5  O   UNL     1      98.073 -70.492   0.498  1.00  0.00    -0.550 OA
ENDBRANCH   2   3
ENDBRANCH   1   2
BRANCH   1   6
ATOM      6  C   UNL     1      99.470 -66.990  -2.652  1.00  0.00     0.000 C 
BRANCH   6   7
ATOM      7  C   UNL     1     100.377 -68.131  -3.136  1.00  0.00    -0.003 C 
ATOM      8  C   UNL     1     101.825 -67.972  -2.673  1.00  0.00     0.004 C 
ENDBRANCH   6   7
ENDBRANCH   1   6
TORSDOF 4
ENDMDL
MODEL 9
REMARK VINA RESULT:    -2.721      1.776      2.176
REMARK INTER + INTRA:          -3.457
REMARK INTER:                  -3.201
REMARK INTRA:                  -0.255
REMARK UNBOUND:                -0.099
REMARK SMILES CCCCCC(=O)[O-]
REMARK SMILES IDX 4 1 5 2 6 3 7 4 8 5 3 6 2 7 1 8
REMARK H PARENT
REMARK Flexibility Score: inf
ROOT
ATOM      1  C   UNL     1      98.462 -66.315   1.583  1.00  0.00     0.006 C 
ENDROOT
BRANCH   1   2
ATOM      2  C   UNL     1      99.633 -66.635   0.644  1.00  0.00     0.053 C 
BRANCH   2   3
ATOM      3  C   UNL     1     100.200 -67.996   0.905  1.00  0.00     0.041 C 
ATOM      4  O   UNL     1     101.407 -68.126   1.242  1.00  0.00    -0.550 OA
ATOM      5  O   UNL     1      99.406 -69.125   0.742  1.00  0.00    -0.550 OA
ENDBRANCH   2   3
ENDBRANCH   1   2
BRANCH   1   6
ATOM      6  C   UNL     1      98.853 -66.448   3.065  1.00  0.00     0.000 C 
BRANCH   6   7
ATOM      7  C   UNL     1      98.053 -67.540   3.790  1.00  0.00    -0.003 C 
ATOM      8  C   UNL     1      98.944 -68.624   4.395  1.00  0.00     0.004 C 
ENDBRANCH   6   7
ENDBRANCH   1   6
TORSDOF 4
ENDMDL
