MODEL 1
REMARK VINA RESULT:    -0.912      0.000      0.000
REMARK INTER + INTRA:          -0.852
REMARK INTER:                  -1.232
REMARK INTRA:                   0.380
REMARK UNBOUND:                 0.380
REMARK SMILES C=C1CCC=C(C)CC[C@H]2[C@H]1CC2(C)C
REMARK SMILES IDX 11 1 12 2 13 3 10 4 14 5 15 6 9 7 8 8 6 9 7 10 5 11 2 13
REMARK SMILES IDX 1 14 3 15 4 16
REMARK H PARENT
REMARK Flexibility Score: 70.00
ROOT
ATOM      1  C   UNL     1       6.551   6.567  12.425  1.00  0.00     0.018 C 
ATOM      2  C   UNL     1       7.797   6.426  13.307  1.00  0.00     0.015 C 
ATOM      3  C   UNL     1       7.885   7.961  13.421  1.00  0.00    -0.031 C 
ATOM      4  C   UNL     1       6.533   8.084  12.669  1.00  0.00     0.002 C 
ATOM      5  C   UNL     1       9.125   8.524  12.696  1.00  0.00     0.011 C 
ATOM      6  C   UNL     1       7.817   8.456  14.876  1.00  0.00     0.011 C 
ENDROOT
BRANCH   4   7
ATOM      7  C   UNL     1       6.403   9.028  11.436  1.00  0.00     0.009 C 
BRANCH   7   8
ATOM      8  C   UNL     1       4.992   9.278  10.877  1.00  0.00     0.030 C 
BRANCH   8   9
ATOM      9  C   UNL     1       3.864   9.721  11.820  1.00  0.00    -0.077 C 
ATOM     10  C   UNL     1       3.262  11.073  11.502  1.00  0.00     0.039 C 
ATOM     11  C   UNL     1       3.271   9.047  12.849  1.00  0.00    -0.028 CG0
ATOM     12  G   UNL     1       3.548   7.675  13.429  1.00  0.00     0.000 G0
ENDBRANCH   8   9
ENDBRANCH   7   8
ENDBRANCH   4   7
BRANCH   1  13
ATOM     13  C   UNL     1       5.251   5.911  12.827  1.00  0.00    -0.074 C 
ATOM     14  C   UNL     1       5.182   4.891  13.701  1.00  0.00     0.008 C 
BRANCH  13  15
ATOM     15  C   UNL     1       3.995   6.623  12.389  1.00  0.00     0.035 C 
BRANCH  15  16
ATOM     16  C   UNL     1       3.559   7.668  13.440  1.00  0.00     0.032 CG0
ATOM     17  G   UNL     1       3.290   9.033  12.840  1.00  0.00     0.000 G0
ENDBRANCH  15  16
ENDBRANCH  13  15
ENDBRANCH   1  13
TORSDOF 0
ENDMDL
MODEL 2
REMARK VINA RESULT:    -0.525      2.724      5.972
REMARK INTER + INTRA:          -0.330
REMARK INTER:                  -0.858
REMARK INTRA:                   0.528
REMARK UNBOUND:                 0.380
REMARK SMILES C=C1CCC=C(C)CC[C@H]2[C@H]1CC2(C)C
REMARK SMILES IDX 11 1 12 2 13 3 10 4 14 5 15 6 9 7 8 8 6 9 7 10 5 11 2 13
REMARK SMILES IDX 1 14 3 15 4 16
REMARK H PARENT
REMARK Flexibility Score: 70.00
ROOT
ATOM      1  C   UNL     1       3.403  13.114  13.195  1.00  0.00     0.018 C 
ATOM      2  C   UNL     1       3.365  14.645  13.115  1.00  0.00     0.015 C 
ATOM      3  C   UNL     1       3.405  14.563  11.576  1.00  0.00    -0.031 C 
ATOM      4  C   UNL     1       3.275  13.019  11.666  1.00  0.00     0.002 C 
ATOM      5  C   UNL     1       4.730  15.105  11.004  1.00  0.00     0.011 C 
ATOM      6  C   UNL     1       2.192  15.236  10.912  1.00  0.00     0.011 C 
ENDROOT
BRANCH   4   7
ATOM      7  C   UNL     1       4.272  12.101  10.899  1.00  0.00     0.009 C 
BRANCH   7   8
ATOM      8  C   UNL     1       3.980  10.590  10.881  1.00  0.00     0.030 C 
BRANCH   8   9
ATOM      9  C   UNL     1       3.861   9.820  12.204  1.00  0.00    -0.077 C 
ATOM     10  C   UNL     1       5.144   9.178  12.685  1.00  0.00     0.039 C 
ATOM     11  C   UNL     1       2.795   9.696  13.049  1.00  0.00    -0.028 CG0
ATOM     12  G   UNL     1       1.380  10.228  12.948  1.00  0.00     0.000 G0
ENDBRANCH   8   9
ENDBRANCH   7   8
ENDBRANCH   4   7
BRANCH   1  13
ATOM     13  C   UNL     1       2.306  12.358  13.906  1.00  0.00    -0.074 C 
ATOM     14  C   UNL     1       2.138  12.387  15.240  1.00  0.00     0.008 C 
BRANCH  13  15
ATOM     15  C   UNL     1       1.240  11.761  13.019  1.00  0.00     0.035 C 
BRANCH  15  16
ATOM     16  C   UNL     1       1.359  10.221  12.975  1.00  0.00     0.032 CG0
ATOM     17  G   UNL     1       2.793   9.737  13.046  1.00  0.00     0.000 G0
ENDBRANCH  15  16
ENDBRANCH  13  15
ENDBRANCH   1  13
TORSDOF 0
ENDMDL
MODEL 3
REMARK VINA RESULT:    -0.354      2.020      5.686
REMARK INTER + INTRA:          -0.099
REMARK INTER:                   0.222
REMARK INTRA:                  -0.321
REMARK UNBOUND:                 0.380
REMARK SMILES C=C1CCC=C(C)CC[C@H]2[C@H]1CC2(C)C
REMARK SMILES IDX 11 1 12 2 13 3 10 4 14 5 15 6 9 7 8 8 6 9 7 10 5 11 2 13
REMARK SMILES IDX 1 14 3 15 4 16
REMARK H PARENT
REMARK Flexibility Score: 70.00
ROOT
ATOM      1  C   UNL     1       2.767  10.757  11.304  1.00  0.00     0.018 C 
ATOM      2  C   UNL     1       1.541  11.670  11.429  1.00  0.00     0.015 C 
ATOM      3  C   UNL     1       1.178  10.993  12.766  1.00  0.00    -0.031 C 
ATOM      4  C   UNL     1       2.508  10.194  12.710  1.00  0.00     0.002 C 
ATOM      5  C   UNL     1      -0.120  10.169  12.662  1.00  0.00     0.011 C 
ATOM      6  C   UNL     1       1.117  11.987  13.939  1.00  0.00     0.011 C 
ENDROOT
BRANCH   4   7
ATOM      7  C   UNL     1       2.502   8.648  12.896  1.00  0.00     0.009 C 
BRANCH   7   8
ATOM      8  C   UNL     1       3.670   8.021  13.678  1.00  0.00     0.030 C 
BRANCH   8   9
ATOM      9  C   UNL     1       4.881   7.458  12.919  1.00  0.00    -0.077 C 
ATOM     10  C   UNL     1       5.436   6.164  13.477  1.00  0.00     0.039 C 
ATOM     11  C   UNL     1       5.479   7.903  11.775  1.00  0.00    -0.028 CG0
ATOM     12  G   UNL     1       5.186   9.108  10.905  1.00  0.00     0.000 G0
ENDBRANCH   8   9
ENDBRANCH   7   8
ENDBRANCH   4   7
BRANCH   1  13
ATOM     13  C   UNL     1       4.151  11.349  11.174  1.00  0.00    -0.074 C 
ATOM     14  C   UNL     1       4.373  12.652  10.921  1.00  0.00     0.008 C 
BRANCH  13  15
ATOM     15  C   UNL     1       5.289  10.452  11.592  1.00  0.00     0.035 C 
BRANCH  15  16
ATOM     16  C   UNL     1       5.207   9.086  10.875  1.00  0.00     0.032 CG0
ATOM     17  G   UNL     1       5.480   7.916  11.797  1.00  0.00     0.000 G0
ENDBRANCH  15  16
ENDBRANCH  13  15
ENDBRANCH   1  13
TORSDOF 0
ENDMDL
MODEL 4
REMARK VINA RESULT:    -0.176      2.091      5.382
REMARK INTER + INTRA:           0.142
REMARK INTER:                   0.641
REMARK INTRA:                  -0.499
REMARK UNBOUND:                 0.380
REMARK SMILES C=C1CCC=C(C)CC[C@H]2[C@H]1CC2(C)C
REMARK SMILES IDX 11 1 12 2 13 3 10 4 14 5 15 6 9 7 8 8 6 9 7 10 5 11 2 13
REMARK SMILES IDX 1 14 3 15 4 16
REMARK H PARENT
REMARK Flexibility Score: 70.00
ROOT
ATOM      1  C   UNL     1       2.349  11.665  13.088  1.00  0.00     0.018 C 
ATOM      2  C   UNL     1       2.070  13.168  13.215  1.00  0.00     0.015 C 
ATOM      3  C   UNL     1       3.051  13.443  12.057  1.00  0.00    -0.031 C 
ATOM      4  C   UNL     1       3.196  11.914  11.831  1.00  0.00     0.002 C 
ATOM      5  C   UNL     1       4.314  14.187  12.536  1.00  0.00     0.011 C 
ATOM      6  C   UNL     1       2.387  14.171  10.875  1.00  0.00     0.011 C 
ENDROOT
BRANCH   4   7
ATOM      7  C   UNL     1       4.609  11.264  11.753  1.00  0.00     0.009 C 
BRANCH   7   8
ATOM      8  C   UNL     1       4.721   9.884  11.081  1.00  0.00     0.030 C 
BRANCH   8   9
ATOM      9  C   UNL     1       4.770   8.616  11.946  1.00  0.00    -0.077 C 
ATOM     10  C   UNL     1       5.917   7.678  11.635  1.00  0.00     0.039 C 
ATOM     11  C   UNL     1       3.986   8.248  13.002  1.00  0.00    -0.028 CG0
ATOM     12  G   UNL     1       2.794   8.931  13.640  1.00  0.00     0.000 G0
ENDBRANCH   8   9
ENDBRANCH   7   8
ENDBRANCH   4   7
BRANCH   1  13
ATOM     13  C   UNL     1       1.219  10.697  12.830  1.00  0.00    -0.074 C 
ATOM     14  C   UNL     1      -0.020  11.088  12.480  1.00  0.00     0.008 C 
BRANCH  13  15
ATOM     15  C   UNL     1       1.610   9.242  12.738  1.00  0.00     0.035 C 
BRANCH  15  16
ATOM     16  C   UNL     1       2.796   8.930  13.678  1.00  0.00     0.032 CG0
ATOM     17  G   UNL     1       3.957   8.268  12.965  1.00  0.00     0.000 G0
ENDBRANCH  15  16
ENDBRANCH  13  15
ENDBRANCH   1  13
TORSDOF 0
ENDMDL
MODEL 5
REMARK VINA RESULT:     0.826      1.639      2.842
REMARK INTER + INTRA:           1.496
REMARK INTER:                   1.698
REMARK INTRA:                  -0.203
REMARK UNBOUND:                 0.380
REMARK SMILES C=C1CCC=C(C)CC[C@H]2[C@H]1CC2(C)C
REMARK SMILES IDX 11 1 12 2 13 3 10 4 14 5 15 6 9 7 8 8 6 9 7 10 5 11 2 13
REMARK SMILES IDX 1 14 3 15 4 16
REMARK H PARENT
REMARK Flexibility Score: 70.00
ROOT
ATOM      1  C   UNL     1       3.909   8.037  12.363  1.00  0.00     0.018 C 
ATOM      2  C   UNL     1       5.067   7.042  12.500  1.00  0.00     0.015 C 
ATOM      3  C   UNL     1       6.072   8.181  12.238  1.00  0.00    -0.031 C 
ATOM      4  C   UNL     1       4.905   9.203  12.267  1.00  0.00     0.002 C 
ATOM      5  C   UNL     1       6.799   8.009  10.889  1.00  0.00     0.011 C 
ATOM      6  C   UNL     1       7.073   8.370  13.391  1.00  0.00     0.011 C 
ENDROOT
BRANCH   4   7
ATOM      7  C   UNL     1       4.731  10.227  11.106  1.00  0.00     0.009 C 
BRANCH   7   8
ATOM      8  C   UNL     1       4.394  11.681  11.485  1.00  0.00     0.030 C 
BRANCH   8   9
ATOM      9  C   UNL     1       2.927  12.128  11.568  1.00  0.00    -0.077 C 
ATOM     10  C   UNL     1       2.680  13.573  11.194  1.00  0.00     0.039 C 
ATOM     11  C   UNL     1       1.807  11.399  11.850  1.00  0.00    -0.028 CG0
ATOM     12  G   UNL     1       1.638   9.938  12.214  1.00  0.00     0.000 G0
ENDBRANCH   8   9
ENDBRANCH   7   8
ENDBRANCH   4   7
BRANCH   1  13
ATOM     13  C   UNL     1       2.922   8.223  13.491  1.00  0.00    -0.074 C 
ATOM     14  C   UNL     1       2.790   7.348  14.505  1.00  0.00     0.008 C 
BRANCH  13  15
ATOM     15  C   UNL     1       2.258   9.576  13.565  1.00  0.00     0.035 C 
BRANCH  15  16
ATOM     16  C   UNL     1       1.612   9.947  12.211  1.00  0.00     0.032 CG0
ATOM     17  G   UNL     1       1.814  11.401  11.838  1.00  0.00     0.000 G0
ENDBRANCH  15  16
ENDBRANCH  13  15
ENDBRANCH   1  13
TORSDOF 0
ENDMDL
MODEL 6
REMARK VINA RESULT:     0.868      4.349      6.589
REMARK INTER + INTRA:           1.553
REMARK INTER:                   0.112
REMARK INTRA:                   1.440
REMARK UNBOUND:                 0.380
REMARK SMILES C=C1CCC=C(C)CC[C@H]2[C@H]1CC2(C)C
REMARK SMILES IDX 11 1 12 2 13 3 10 4 14 5 15 6 9 7 8 8 6 9 7 10 5 11 2 13
REMARK SMILES IDX 1 14 3 15 4 16
REMARK H PARENT
REMARK Flexibility Score: 70.00
ROOT
ATOM      1  C   UNL     1       1.431  11.991  13.802  1.00  0.00     0.018 C 
ATOM      2  C   UNL     1       1.460  10.507  13.420  1.00  0.00     0.015 C 
ATOM      3  C   UNL     1       2.062  10.876  12.049  1.00  0.00    -0.031 C 
ATOM      4  C   UNL     1       2.182  12.353  12.511  1.00  0.00     0.002 C 
ATOM      5  C   UNL     1       1.079  10.598  10.894  1.00  0.00     0.011 C 
ATOM      6  C   UNL     1       3.424  10.206  11.797  1.00  0.00     0.011 C 
ENDROOT
BRANCH   4   7
ATOM      7  C   UNL     1       1.614  13.500  11.625  1.00  0.00     0.009 C 
BRANCH   7   8
ATOM      8  C   UNL     1       2.625  14.418  10.914  1.00  0.00     0.030 C 
BRANCH   8   9
ATOM      9  C   UNL     1       3.800  15.014  11.703  1.00  0.00    -0.077 C 
ATOM     10  C   UNL     1       4.331  16.324  11.161  1.00  0.00     0.039 C 
ATOM     11  C   UNL     1       4.381  14.584  12.862  1.00  0.00    -0.028 CG0
ATOM     12  G   UNL     1       4.101  13.370  13.723  1.00  0.00     0.000 G0
ENDBRANCH   8   9
ENDBRANCH   7   8
ENDBRANCH   4   7
BRANCH   1  13
ATOM     13  C   UNL     1       2.155  12.477  15.036  1.00  0.00    -0.074 C 
ATOM     14  C   UNL     1       2.178  11.792  16.194  1.00  0.00     0.008 C 
BRANCH  13  15
ATOM     15  C   UNL     1       3.072  13.659  14.835  1.00  0.00     0.035 C 
BRANCH  15  16
ATOM     16  C   UNL     1       4.109  13.370  13.727  1.00  0.00     0.032 CG0
ATOM     17  G   UNL     1       4.389  14.572  12.850  1.00  0.00     0.000 G0
ENDBRANCH  15  16
ENDBRANCH  13  15
ENDBRANCH   1  13
TORSDOF 0
ENDMDL
MODEL 7
REMARK VINA RESULT:     1.160      1.950      4.717
REMARK INTER + INTRA:           1.946
REMARK INTER:                   1.171
REMARK INTRA:                   0.776
REMARK UNBOUND:                 0.380
REMARK SMILES C=C1CCC=C(C)CC[C@H]2[C@H]1CC2(C)C
REMARK SMILES IDX 11 1 12 2 13 3 10 4 14 5 15 6 9 7 8 8 6 9 7 10 5 11 2 13
REMARK SMILES IDX 1 14 3 15 4 16
REMARK H PARENT
REMARK Flexibility Score: 70.00
ROOT
ATOM      1  C   UNL     1       5.994   8.280  11.622  1.00  0.00     0.018 C 
ATOM      2  C   UNL     1       5.516   9.551  10.909  1.00  0.00     0.015 C 
ATOM      3  C   UNL     1       4.230   9.539  11.759  1.00  0.00    -0.031 C 
ATOM      4  C   UNL     1       4.799   8.355  12.585  1.00  0.00     0.002 C 
ATOM      5  C   UNL     1       2.979   9.241  10.908  1.00  0.00     0.011 C 
ATOM      6  C   UNL     1       4.050  10.824  12.585  1.00  0.00     0.011 C 
ENDROOT
BRANCH   4   7
ATOM      7  C   UNL     1       3.947   7.069  12.802  1.00  0.00     0.009 C 
BRANCH   7   8
ATOM      8  C   UNL     1       4.660   5.712  12.668  1.00  0.00     0.030 C 
BRANCH   8   9
ATOM      9  C   UNL     1       5.911   5.420  13.510  1.00  0.00    -0.077 C 
ATOM     10  C   UNL     1       5.633   4.909  14.907  1.00  0.00     0.039 C 
ATOM     11  C   UNL     1       7.230   5.475  13.161  1.00  0.00    -0.028 CG0
ATOM     12  G   UNL     1       7.899   5.878  11.863  1.00  0.00     0.000 G0
ENDBRANCH   8   9
ENDBRANCH   7   8
ENDBRANCH   4   7
BRANCH   1  13
ATOM     13  C   UNL     1       7.315   8.266  12.355  1.00  0.00    -0.074 C 
ATOM     14  C   UNL     1       7.501   8.858  13.549  1.00  0.00     0.008 C 
BRANCH  13  15
ATOM     15  C   UNL     1       8.363   7.334  11.798  1.00  0.00     0.035 C 
BRANCH  15  16
ATOM     16  C   UNL     1       7.885   5.866  11.860  1.00  0.00     0.032 CG0
ATOM     17  G   UNL     1       7.245   5.508  13.185  1.00  0.00     0.000 G0
ENDBRANCH  15  16
ENDBRANCH  13  15
ENDBRANCH   1  13
TORSDOF 0
ENDMDL
