MODEL 1
REMARK VINA RESULT:    -5.257      0.000      0.000
REMARK INTER + INTRA:          -9.039
REMARK INTER:                  -7.716
REMARK INTRA:                  -1.323
REMARK UNBOUND:                -1.323
REMARK SMILES Cc1cc2c(C(C)C)c(O)c(O)c(C=O)c2c(O)c1-c1c(C)cc2c(C(C)C)c(O)c(O)c(C=O)c2c1O
REMARK SMILES IDX 1 1 2 2 3 3 4 4 16 5 13 6 11 7 9 8 5 9 17 10 19 11 20 12
REMARK SMILES IDX 37 13 21 14 36 15 23 16 22 17 24 18 33 19 25 20 31 21 29 22
REMARK SMILES IDX 38 23 34 25 35 26 26 27 27 28 28 29 32 30 30 32 18 34 6 36
REMARK SMILES IDX 7 37 8 38 14 39 15 40 10 41 12 43
REMARK H PARENT 38 24 32 31 30 33 18 35 10 42 12 44
REMARK Flexibility Score: inf
ROOT
ATOM      1  C   UNL     1     144.035 143.000 134.242  1.00  0.00     0.045 C 
ATOM      2  C   UNL     1     142.646 143.464 134.612  1.00  0.00    -0.039 A 
ATOM      3  C   UNL     1     142.366 143.771 135.944  1.00  0.00     0.013 A 
ATOM      4  C   UNL     1     141.092 144.222 136.356  1.00  0.00    -0.006 A 
ATOM      5  C   UNL     1     140.039 144.278 135.391  1.00  0.00     0.039 A 
ATOM      6  C   UNL     1     138.739 144.685 135.814  1.00  0.00     0.072 A 
ATOM      7  C   UNL     1     138.467 144.843 137.186  1.00  0.00     0.169 A 
ATOM      8  C   UNL     1     139.498 144.750 138.127  1.00  0.00     0.162 A 
ATOM      9  C   UNL     1     140.838 144.577 137.716  1.00  0.00     0.008 A 
ATOM     10  C   UNL     1     140.308 143.872 134.050  1.00  0.00     0.132 A 
ATOM     11  C   UNL     1     141.614 143.508 133.660  1.00  0.00     0.031 A 
ENDROOT
BRANCH  11  12
ATOM     12  C   UNL     1     141.888 143.122 132.251  1.00  0.00     0.031 A 
ATOM     13  C   UNL     1     142.252 144.111 131.325  1.00  0.00     0.132 A 
ATOM     14  C   UNL     1     141.708 141.796 131.829  1.00  0.00    -0.039 A 
ATOM     15  C   UNL     1     142.598 143.757 129.988  1.00  0.00     0.039 A 
ATOM     16  C   UNL     1     141.859 141.480 130.475  1.00  0.00     0.013 A 
ATOM     17  C   UNL     1     141.249 140.729 132.792  1.00  0.00     0.045 C 
ATOM     18  C   UNL     1     142.336 142.427 129.539  1.00  0.00    -0.006 A 
ATOM     19  C   UNL     1     143.177 144.689 129.084  1.00  0.00     0.072 A 
ATOM     20  C   UNL     1     142.535 142.088 128.163  1.00  0.00     0.008 A 
ATOM     21  C   UNL     1     143.182 144.401 127.705  1.00  0.00     0.169 A 
ATOM     22  C   UNL     1     142.808 143.130 127.249  1.00  0.00     0.162 A 
BRANCH  13  23
ATOM     23  O   UNL     1     142.176 145.442 131.753  1.00  0.00    -0.507 OA
ATOM     24  H   UNL     1     141.726 145.718 132.616  1.00  0.00     0.293 HD
ENDBRANCH  13  23
BRANCH  19  25
ATOM     25  C   UNL     1     143.919 145.878 129.565  1.00  0.00     0.264 C 
ATOM     26  O   UNL     1     145.087 146.110 129.153  1.00  0.00    -0.298 OA
ENDBRANCH  19  25
BRANCH  20  27
ATOM     27  C   UNL     1     142.409 140.640 127.655  1.00  0.00     0.017 C 
ATOM     28  C   UNL     1     141.101 140.449 126.883  1.00  0.00     0.012 C 
ATOM     29  C   UNL     1     143.619 140.157 126.832  1.00  0.00     0.012 C 
ENDBRANCH  20  27
BRANCH  21  30
ATOM     30  O   UNL     1     143.591 145.342 126.753  1.00  0.00    -0.504 OA
ATOM     31  H   UNL     1     143.075 145.564 125.913  1.00  0.00     0.293 HD
ENDBRANCH  21  30
BRANCH  22  32
ATOM     32  O   UNL     1     142.724 142.893 125.875  1.00  0.00    -0.504 OA
ATOM     33  H   UNL     1     142.899 141.985 125.462  1.00  0.00     0.293 HD
ENDBRANCH  22  32
ENDBRANCH  11  12
BRANCH  10  34
ATOM     34  O   UNL     1     139.269 143.787 133.116  1.00  0.00    -0.507 OA
ATOM     35  H   UNL     1     139.212 143.080 132.394  1.00  0.00     0.293 HD
ENDBRANCH  10  34
BRANCH   9  36
ATOM     36  C   UNL     1     141.975 144.736 138.741  1.00  0.00     0.017 C 
ATOM     37  C   UNL     1     141.974 143.576 139.742  1.00  0.00     0.012 C 
ATOM     38  C   UNL     1     141.979 146.097 139.463  1.00  0.00     0.012 C 
ENDBRANCH   9  36
BRANCH   6  39
ATOM     39  C   UNL     1     137.658 144.999 134.856  1.00  0.00     0.264 C 
ATOM     40  O   UNL     1     136.662 144.235 134.748  1.00  0.00    -0.298 OA
ENDBRANCH   6  39
BRANCH   8  41
ATOM     41  O   UNL     1     139.192 144.839 139.487  1.00  0.00    -0.504 OA
ATOM     42  H   UNL     1     138.608 144.164 139.966  1.00  0.00     0.293 HD
ENDBRANCH   8  41
BRANCH   7  43
ATOM     43  O   UNL     1     137.177 145.125 137.651  1.00  0.00    -0.504 OA
ATOM     44  H   UNL     1     136.839 146.056 137.857  1.00  0.00     0.293 HD
ENDBRANCH   7  43
TORSDOF 11
ENDMDL
MODEL 2
REMARK VINA RESULT:    -5.164      9.562     16.072
REMARK INTER + INTRA:          -8.903
REMARK INTER:                  -7.731
REMARK INTRA:                  -1.172
REMARK UNBOUND:                -1.323
REMARK SMILES Cc1cc2c(C(C)C)c(O)c(O)c(C=O)c2c(O)c1-c1c(C)cc2c(C(C)C)c(O)c(O)c(C=O)c2c1O
REMARK SMILES IDX 1 1 2 2 3 3 4 4 16 5 13 6 11 7 9 8 5 9 17 10 19 11 20 12
REMARK SMILES IDX 37 13 21 14 36 15 23 16 22 17 24 18 33 19 25 20 31 21 29 22
REMARK SMILES IDX 38 23 34 25 35 26 26 27 27 28 28 29 32 30 30 32 18 34 6 36
REMARK SMILES IDX 7 37 8 38 14 39 15 40 10 41 12 43
REMARK H PARENT 38 24 32 31 30 33 18 35 10 42 12 44
REMARK Flexibility Score: inf
ROOT
ATOM      1  C   UNL     1     127.197 143.120 137.578  1.00  0.00     0.045 C 
ATOM      2  C   UNL     1     128.592 143.552 137.191  1.00  0.00    -0.039 A 
ATOM      3  C   UNL     1     128.871 143.822 135.851  1.00  0.00     0.013 A 
ATOM      4  C   UNL     1     130.151 144.242 135.423  1.00  0.00    -0.006 A 
ATOM      5  C   UNL     1     131.208 144.305 136.383  1.00  0.00     0.039 A 
ATOM      6  C   UNL     1     132.513 144.680 135.945  1.00  0.00     0.072 A 
ATOM      7  C   UNL     1     132.782 144.799 134.568  1.00  0.00     0.169 A 
ATOM      8  C   UNL     1     131.746 144.701 133.634  1.00  0.00     0.162 A 
ATOM      9  C   UNL     1     130.405 144.559 134.053  1.00  0.00     0.008 A 
ATOM     10  C   UNL     1     130.938 143.936 137.734  1.00  0.00     0.132 A 
ATOM     11  C   UNL     1     129.628 143.602 138.138  1.00  0.00     0.031 A 
ENDROOT
BRANCH  11  12
ATOM     12  C   UNL     1     129.354 143.256 139.557  1.00  0.00     0.031 A 
ATOM     13  C   UNL     1     129.023 144.275 140.462  1.00  0.00     0.132 A 
ATOM     14  C   UNL     1     129.501 141.935 140.008  1.00  0.00    -0.039 A 
ATOM     15  C   UNL     1     128.677 143.960 141.809  1.00  0.00     0.039 A 
ATOM     16  C   UNL     1     129.352 141.654 141.369  1.00  0.00     0.013 A 
ATOM     17  C   UNL     1     129.926 140.835 139.066  1.00  0.00     0.045 C 
ATOM     18  C   UNL     1     128.906 142.635 142.286  1.00  0.00    -0.006 A 
ATOM     19  C   UNL     1     128.129 144.928 142.696  1.00  0.00     0.072 A 
ATOM     20  C   UNL     1     128.708 142.332 143.671  1.00  0.00     0.008 A 
ATOM     21  C   UNL     1     128.125 144.671 144.081  1.00  0.00     0.169 A 
ATOM     22  C   UNL     1     128.469 143.401 144.563  1.00  0.00     0.162 A 
BRANCH  13  23
ATOM     23  O   UNL     1     129.131 145.593 140.004  1.00  0.00    -0.507 OA
ATOM     24  H   UNL     1     128.348 146.233 139.978  1.00  0.00     0.293 HD
ENDBRANCH  13  23
BRANCH  19  25
ATOM     25  C   UNL     1     127.415 146.125 142.192  1.00  0.00     0.264 C 
ATOM     26  O   UNL     1     126.183 146.070 141.935  1.00  0.00    -0.298 OA
ENDBRANCH  19  25
BRANCH  20  27
ATOM     27  C   UNL     1     128.799 140.893 144.211  1.00  0.00     0.017 C 
ATOM     28  C   UNL     1     130.136 140.664 144.922  1.00  0.00     0.012 C 
ATOM     29  C   UNL     1     127.613 140.483 145.107  1.00  0.00     0.012 C 
ENDBRANCH  20  27
BRANCH  21  30
ATOM     30  O   UNL     1     127.749 145.644 145.014  1.00  0.00    -0.504 OA
ATOM     31  H   UNL     1     127.237 145.452 145.863  1.00  0.00     0.293 HD
ENDBRANCH  21  30
BRANCH  22  32
ATOM     32  O   UNL     1     128.556 143.193 145.941  1.00  0.00    -0.504 OA
ATOM     33  H   UNL     1     129.159 142.494 146.355  1.00  0.00     0.293 HD
ENDBRANCH  22  32
ENDBRANCH  11  12
BRANCH  10  34
ATOM     34  O   UNL     1     131.980 143.857 138.666  1.00  0.00    -0.507 OA
ATOM     35  H   UNL     1     132.435 142.994 138.935  1.00  0.00     0.293 HD
ENDBRANCH  10  34
BRANCH   9  36
ATOM     36  C   UNL     1     129.267 144.712 133.029  1.00  0.00     0.017 C 
ATOM     37  C   UNL     1     129.250 143.532 132.052  1.00  0.00     0.012 C 
ATOM     38  C   UNL     1     129.277 146.058 132.280  1.00  0.00     0.012 C 
ENDBRANCH   9  36
BRANCH   6  39
ATOM     39  C   UNL     1     133.603 145.000 136.890  1.00  0.00     0.264 C 
ATOM     40  O   UNL     1     134.560 144.197 137.053  1.00  0.00    -0.298 OA
ENDBRANCH   6  39
BRANCH   8  41
ATOM     41  O   UNL     1     132.048 144.751 132.270  1.00  0.00    -0.504 OA
ATOM     42  H   UNL     1     131.674 145.457 131.648  1.00  0.00     0.293 HD
ENDBRANCH   8  41
BRANCH   7  43
ATOM     43  O   UNL     1     134.075 145.049 134.092  1.00  0.00    -0.504 OA
ATOM     44  H   UNL     1     134.645 144.365 133.612  1.00  0.00     0.293 HD
ENDBRANCH   7  43
TORSDOF 11
ENDMDL
MODEL 3
REMARK VINA RESULT:    -5.140      1.677      2.168
REMARK INTER + INTRA:          -8.867
REMARK INTER:                  -7.747
REMARK INTRA:                  -1.121
REMARK UNBOUND:                -1.323
REMARK SMILES Cc1cc2c(C(C)C)c(O)c(O)c(C=O)c2c(O)c1-c1c(C)cc2c(C(C)C)c(O)c(O)c(C=O)c2c1O
REMARK SMILES IDX 1 1 2 2 3 3 4 4 16 5 13 6 11 7 9 8 5 9 17 10 19 11 20 12
REMARK SMILES IDX 37 13 21 14 36 15 23 16 22 17 24 18 33 19 25 20 31 21 29 22
REMARK SMILES IDX 38 23 34 25 35 26 26 27 27 28 28 29 32 30 30 32 18 34 6 36
REMARK SMILES IDX 7 37 8 38 14 39 15 40 10 41 12 43
REMARK H PARENT 38 24 32 31 30 33 18 35 10 42 12 44
REMARK Flexibility Score: inf
ROOT
ATOM      1  C   UNL     1     143.214 142.298 135.146  1.00  0.00     0.045 C 
ATOM      2  C   UNL     1     142.132 143.097 135.834  1.00  0.00    -0.039 A 
ATOM      3  C   UNL     1     142.114 143.155 137.228  1.00  0.00     0.013 A 
ATOM      4  C   UNL     1     141.139 143.895 137.933  1.00  0.00    -0.006 A 
ATOM      5  C   UNL     1     140.090 144.526 137.195  1.00  0.00     0.039 A 
ATOM      6  C   UNL     1     139.075 145.231 137.907  1.00  0.00     0.072 A 
ATOM      7  C   UNL     1     139.013 145.140 139.311  1.00  0.00     0.169 A 
ATOM      8  C   UNL     1     140.026 144.489 140.023  1.00  0.00     0.162 A 
ATOM      9  C   UNL     1     141.164 143.981 139.359  1.00  0.00     0.008 A 
ATOM     10  C   UNL     1     140.061 144.383 135.776  1.00  0.00     0.132 A 
ATOM     11  C   UNL     1     141.100 143.707 135.102  1.00  0.00     0.031 A 
ENDROOT
BRANCH  11  12
ATOM     12  C   UNL     1     141.076 143.597 133.620  1.00  0.00     0.031 A 
ATOM     13  C   UNL     1     141.799 144.520 132.851  1.00  0.00     0.132 A 
ATOM     14  C   UNL     1     140.276 142.631 132.991  1.00  0.00    -0.039 A 
ATOM     15  C   UNL     1     141.858 144.389 131.432  1.00  0.00     0.039 A 
ATOM     16  C   UNL     1     140.179 142.622 131.596  1.00  0.00     0.013 A 
ATOM     17  C   UNL     1     139.435 141.673 133.799  1.00  0.00     0.045 C 
ATOM     18  C   UNL     1     140.983 143.462 130.790  1.00  0.00    -0.006 A 
ATOM     19  C   UNL     1     142.747 145.163 130.636  1.00  0.00     0.072 A 
ATOM     20  C   UNL     1     140.917 143.417 129.361  1.00  0.00     0.008 A 
ATOM     21  C   UNL     1     142.533 145.248 129.246  1.00  0.00     0.169 A 
ATOM     22  C   UNL     1     141.584 144.423 128.628  1.00  0.00     0.162 A 
BRANCH  13  23
ATOM     23  O   UNL     1     142.376 145.601 133.528  1.00  0.00    -0.507 OA
ATOM     24  H   UNL     1     142.118 145.859 134.472  1.00  0.00     0.293 HD
ENDBRANCH  13  23
BRANCH  19  25
ATOM     25  C   UNL     1     143.983 145.750 131.203  1.00  0.00     0.264 C 
ATOM     26  O   UNL     1     144.946 145.008 131.535  1.00  0.00    -0.298 OA
ENDBRANCH  19  25
BRANCH  20  27
ATOM     27  C   UNL     1     140.102 142.343 128.617  1.00  0.00     0.017 C 
ATOM     28  C   UNL     1     138.823 142.944 128.028  1.00  0.00     0.012 C 
ATOM     29  C   UNL     1     140.904 141.578 127.546  1.00  0.00     0.012 C 
ENDBRANCH  20  27
BRANCH  21  30
ATOM     30  O   UNL     1     143.271 146.117 128.435  1.00  0.00    -0.504 OA
ATOM     31  H   UNL     1     143.279 147.122 128.535  1.00  0.00     0.293 HD
ENDBRANCH  21  30
BRANCH  22  32
ATOM     32  O   UNL     1     141.316 144.590 127.267  1.00  0.00    -0.504 OA
ATOM     33  H   UNL     1     141.493 145.455 126.773  1.00  0.00     0.293 HD
ENDBRANCH  22  32
ENDBRANCH  11  12
BRANCH  10  34
ATOM     34  O   UNL     1     138.976 144.873 135.039  1.00  0.00    -0.507 OA
ATOM     35  H   UNL     1     138.707 145.848 135.009  1.00  0.00     0.293 HD
ENDBRANCH  10  34
BRANCH   9  36
ATOM     36  C   UNL     1     142.375 143.504 140.181  1.00  0.00     0.017 C 
ATOM     37  C   UNL     1     142.090 142.149 140.837  1.00  0.00     0.012 C 
ATOM     38  C   UNL     1     142.872 144.532 141.215  1.00  0.00     0.012 C 
ENDBRANCH   9  36
BRANCH   6  39
ATOM     39  C   UNL     1     138.095 146.105 137.230  1.00  0.00     0.264 C 
ATOM     40  O   UNL     1     136.892 145.747 137.120  1.00  0.00    -0.298 OA
ENDBRANCH   6  39
BRANCH   8  41
ATOM     41  O   UNL     1     139.907 144.350 141.408  1.00  0.00    -0.504 OA
ATOM     42  H   UNL     1     140.705 144.337 142.032  1.00  0.00     0.293 HD
ENDBRANCH   8  41
BRANCH   7  43
ATOM     43  O   UNL     1     137.966 145.719 140.039  1.00  0.00    -0.504 OA
ATOM     44  H   UNL     1     137.074 145.272 140.201  1.00  0.00     0.293 HD
ENDBRANCH   7  43
TORSDOF 11
ENDMDL
MODEL 4
REMARK VINA RESULT:    -5.116      2.674      8.791
REMARK INTER + INTRA:          -8.832
REMARK INTER:                  -7.587
REMARK INTRA:                  -1.245
REMARK UNBOUND:                -1.323
REMARK SMILES Cc1cc2c(C(C)C)c(O)c(O)c(C=O)c2c(O)c1-c1c(C)cc2c(C(C)C)c(O)c(O)c(C=O)c2c1O
REMARK SMILES IDX 1 1 2 2 3 3 4 4 16 5 13 6 11 7 9 8 5 9 17 10 19 11 20 12
REMARK SMILES IDX 37 13 21 14 36 15 23 16 22 17 24 18 33 19 25 20 31 21 29 22
REMARK SMILES IDX 38 23 34 25 35 26 26 27 27 28 28 29 32 30 30 32 18 34 6 36
REMARK SMILES IDX 7 37 8 38 14 39 15 40 10 41 12 43
REMARK H PARENT 38 24 32 31 30 33 18 35 10 42 12 44
REMARK Flexibility Score: inf
ROOT
ATOM      1  C   UNL     1     140.292 146.081 131.413  1.00  0.00     0.045 C 
ATOM      2  C   UNL     1     140.969 144.733 131.493  1.00  0.00    -0.039 A 
ATOM      3  C   UNL     1     142.093 144.490 130.704  1.00  0.00     0.013 A 
ATOM      4  C   UNL     1     142.781 143.257 130.741  1.00  0.00    -0.006 A 
ATOM      5  C   UNL     1     142.252 142.201 131.545  1.00  0.00     0.039 A 
ATOM      6  C   UNL     1     142.915 140.937 131.545  1.00  0.00     0.072 A 
ATOM      7  C   UNL     1     143.953 140.692 130.626  1.00  0.00     0.169 A 
ATOM      8  C   UNL     1     144.440 141.723 129.817  1.00  0.00     0.162 A 
ATOM      9  C   UNL     1     143.958 143.043 129.959  1.00  0.00     0.008 A 
ATOM     10  C   UNL     1     141.048 142.425 132.277  1.00  0.00     0.132 A 
ATOM     11  C   UNL     1     140.438 143.697 132.280  1.00  0.00     0.031 A 
ENDROOT
BRANCH  11  12
ATOM     12  C   UNL     1     139.204 143.928 133.076  1.00  0.00     0.031 A 
ATOM     13  C   UNL     1     139.316 144.322 134.418  1.00  0.00     0.132 A 
ATOM     14  C   UNL     1     137.941 143.678 132.519  1.00  0.00    -0.039 A 
ATOM     15  C   UNL     1     138.150 144.628 135.180  1.00  0.00     0.039 A 
ATOM     16  C   UNL     1     136.802 143.790 133.323  1.00  0.00     0.013 A 
ATOM     17  C   UNL     1     137.801 143.185 131.100  1.00  0.00     0.045 C 
ATOM     18  C   UNL     1     136.870 144.296 134.642  1.00  0.00    -0.006 A 
ATOM     19  C   UNL     1     138.222 145.235 136.464  1.00  0.00     0.072 A 
ATOM     20  C   UNL     1     135.697 144.454 135.445  1.00  0.00     0.008 A 
ATOM     21  C   UNL     1     137.094 145.203 137.307  1.00  0.00     0.169 A 
ATOM     22  C   UNL     1     135.860 144.760 136.815  1.00  0.00     0.162 A 
BRANCH  13  23
ATOM     23  O   UNL     1     140.598 144.318 134.978  1.00  0.00    -0.507 OA
ATOM     24  H   UNL     1     140.795 143.943 135.897  1.00  0.00     0.293 HD
ENDBRANCH  13  23
BRANCH  19  25
ATOM     25  C   UNL     1     139.396 146.041 136.875  1.00  0.00     0.264 C 
ATOM     26  O   UNL     1     140.172 145.622 137.775  1.00  0.00    -0.298 OA
ENDBRANCH  19  25
BRANCH  20  27
ATOM     27  C   UNL     1     134.283 144.251 134.872  1.00  0.00     0.017 C 
ATOM     28  C   UNL     1     133.699 142.911 135.330  1.00  0.00     0.012 C 
ATOM     29  C   UNL     1     133.313 145.411 135.166  1.00  0.00     0.012 C 
ENDBRANCH  20  27
BRANCH  21  30
ATOM     30  O   UNL     1     137.150 145.639 138.636  1.00  0.00    -0.504 OA
ATOM     31  H   UNL     1     137.880 146.226 139.013  1.00  0.00     0.293 HD
ENDBRANCH  21  30
BRANCH  22  32
ATOM     32  O   UNL     1     134.777 144.642 137.690  1.00  0.00    -0.504 OA
ATOM     33  H   UNL     1     133.890 144.238 137.417  1.00  0.00     0.293 HD
ENDBRANCH  22  32
ENDBRANCH  11  12
BRANCH  10  34
ATOM     34  O   UNL     1     140.433 141.373 132.965  1.00  0.00    -0.507 OA
ATOM     35  H   UNL     1     140.831 140.917 133.776  1.00  0.00     0.293 HD
ENDBRANCH  10  34
BRANCH   9  36
ATOM     36  C   UNL     1     144.682 144.199 129.248  1.00  0.00     0.017 C 
ATOM     37  C   UNL     1     145.285 145.174 130.264  1.00  0.00     0.012 C 
ATOM     38  C   UNL     1     143.812 144.938 128.214  1.00  0.00     0.012 C 
ENDBRANCH   9  36
BRANCH   6  39
ATOM     39  C   UNL     1     142.586 139.872 132.515  1.00  0.00     0.264 C 
ATOM     40  O   UNL     1     143.484 139.382 133.251  1.00  0.00    -0.298 OA
ENDBRANCH   6  39
BRANCH   8  41
ATOM     41  O   UNL     1     145.420 141.438 128.863  1.00  0.00    -0.504 OA
ATOM     42  H   UNL     1     145.220 141.357 127.874  1.00  0.00     0.293 HD
ENDBRANCH   8  41
BRANCH   7  43
ATOM     43  O   UNL     1     144.549 139.430 130.513  1.00  0.00    -0.504 OA
ATOM     44  H   UNL     1     144.806 139.000 129.634  1.00  0.00     0.293 HD
ENDBRANCH   7  43
TORSDOF 11
ENDMDL
MODEL 5
REMARK VINA RESULT:    -5.105      9.809     12.113
REMARK INTER + INTRA:          -8.815
REMARK INTER:                  -7.384
REMARK INTRA:                  -1.432
REMARK UNBOUND:                -1.323
REMARK SMILES Cc1cc2c(C(C)C)c(O)c(O)c(C=O)c2c(O)c1-c1c(C)cc2c(C(C)C)c(O)c(O)c(C=O)c2c1O
REMARK SMILES IDX 1 1 2 2 3 3 4 4 16 5 13 6 11 7 9 8 5 9 17 10 19 11 20 12
REMARK SMILES IDX 37 13 21 14 36 15 23 16 22 17 24 18 33 19 25 20 31 21 29 22
REMARK SMILES IDX 38 23 34 25 35 26 26 27 27 28 28 29 32 30 30 32 18 34 6 36
REMARK SMILES IDX 7 37 8 38 14 39 15 40 10 41 12 43
REMARK H PARENT 38 24 32 31 30 33 18 35 10 42 12 44
REMARK Flexibility Score: inf
ROOT
ATOM      1  C   UNL     1     128.639 146.125 133.717  1.00  0.00     0.045 C 
ATOM      2  C   UNL     1     129.159 144.949 134.510  1.00  0.00    -0.039 A 
ATOM      3  C   UNL     1     128.911 144.892 135.881  1.00  0.00     0.013 A 
ATOM      4  C   UNL     1     129.358 143.815 136.679  1.00  0.00    -0.006 A 
ATOM      5  C   UNL     1     130.163 142.801 136.073  1.00  0.00     0.039 A 
ATOM      6  C   UNL     1     130.658 141.738 136.886  1.00  0.00     0.072 A 
ATOM      7  C   UNL     1     130.508 141.799 138.285  1.00  0.00     0.169 A 
ATOM      8  C   UNL     1     129.748 142.816 138.871  1.00  0.00     0.162 A 
ATOM      9  C   UNL     1     129.054 143.751 138.074  1.00  0.00     0.008 A 
ATOM     10  C   UNL     1     130.492 142.915 134.689  1.00  0.00     0.132 A 
ATOM     11  C   UNL     1     129.957 143.961 133.909  1.00  0.00     0.031 A 
ENDROOT
BRANCH  11  12
ATOM     12  C   UNL     1     130.279 144.047 132.460  1.00  0.00     0.031 A 
ATOM     13  C   UNL     1     129.475 143.363 131.536  1.00  0.00     0.132 A 
ATOM     14  C   UNL     1     131.420 144.737 132.025  1.00  0.00    -0.039 A 
ATOM     15  C   UNL     1     129.713 143.493 130.137  1.00  0.00     0.039 A 
ATOM     16  C   UNL     1     131.766 144.706 130.670  1.00  0.00     0.013 A 
ATOM     17  C   UNL     1     132.337 145.421 133.009  1.00  0.00     0.045 C 
ATOM     18  C   UNL     1     130.917 144.125 129.699  1.00  0.00    -0.006 A 
ATOM     19  C   UNL     1     128.800 142.999 129.164  1.00  0.00     0.072 A 
ATOM     20  C   UNL     1     131.250 144.136 128.308  1.00  0.00     0.008 A 
ATOM     21  C   UNL     1     129.230 142.845 127.831  1.00  0.00     0.169 A 
ATOM     22  C   UNL     1     130.468 143.357 127.426  1.00  0.00     0.162 A 
BRANCH  13  23
ATOM     23  O   UNL     1     128.503 142.499 132.054  1.00  0.00    -0.507 OA
ATOM     24  H   UNL     1     127.541 142.501 131.740  1.00  0.00     0.293 HD
ENDBRANCH  13  23
BRANCH  19  25
ATOM     25  C   UNL     1     127.367 142.797 129.478  1.00  0.00     0.264 C 
ATOM     26  O   UNL     1     126.930 141.644 129.743  1.00  0.00    -0.298 OA
ENDBRANCH  19  25
BRANCH  20  27
ATOM     27  C   UNL     1     132.456 144.925 127.766  1.00  0.00     0.017 C 
ATOM     28  C   UNL     1     133.551 143.973 127.277  1.00  0.00     0.012 C 
ATOM     29  C   UNL     1     132.093 145.960 126.683  1.00  0.00     0.012 C 
ENDBRANCH  20  27
BRANCH  21  30
ATOM     30  O   UNL     1     128.434 142.217 126.865  1.00  0.00    -0.504 OA
ATOM     31  H   UNL     1     128.154 141.248 126.900  1.00  0.00     0.293 HD
ENDBRANCH  21  30
BRANCH  22  32
ATOM     32  O   UNL     1     130.920 143.109 126.127  1.00  0.00    -0.504 OA
ATOM     33  H   UNL     1     130.299 143.055 125.329  1.00  0.00     0.293 HD
ENDBRANCH  22  32
ENDBRANCH  11  12
BRANCH  10  34
ATOM     34  O   UNL     1     131.387 142.013 134.100  1.00  0.00    -0.507 OA
ATOM     35  H   UNL     1     131.117 141.303 133.432  1.00  0.00     0.293 HD
ENDBRANCH  10  34
BRANCH   9  36
ATOM     36  C   UNL     1     128.026 144.693 138.725  1.00  0.00     0.017 C 
ATOM     37  C   UNL     1     128.723 145.749 139.589  1.00  0.00     0.012 C 
ATOM     38  C   UNL     1     126.924 143.963 139.516  1.00  0.00     0.012 C 
ENDBRANCH   9  36
BRANCH   6  39
ATOM     39  C   UNL     1     131.291 140.532 136.312  1.00  0.00     0.264 C 
ATOM     40  O   UNL     1     132.533 140.354 136.419  1.00  0.00    -0.298 OA
ENDBRANCH   6  39
BRANCH   8  41
ATOM     41  O   UNL     1     129.674 142.896 140.264  1.00  0.00    -0.504 OA
ATOM     42  H   UNL     1     129.884 143.743 140.780  1.00  0.00     0.293 HD
ENDBRANCH   8  41
BRANCH   7  43
ATOM     43  O   UNL     1     131.082 140.838 139.126  1.00  0.00    -0.504 OA
ATOM     44  H   UNL     1     130.893 140.767 140.117  1.00  0.00     0.293 HD
ENDBRANCH   7  43
TORSDOF 11
ENDMDL
MODEL 6
REMARK VINA RESULT:    -5.066      2.210      3.245
REMARK INTER + INTRA:          -8.758
REMARK INTER:                  -7.590
REMARK INTRA:                  -1.168
REMARK UNBOUND:                -1.323
REMARK SMILES Cc1cc2c(C(C)C)c(O)c(O)c(C=O)c2c(O)c1-c1c(C)cc2c(C(C)C)c(O)c(O)c(C=O)c2c1O
REMARK SMILES IDX 1 1 2 2 3 3 4 4 16 5 13 6 11 7 9 8 5 9 17 10 19 11 20 12
REMARK SMILES IDX 37 13 21 14 36 15 23 16 22 17 24 18 33 19 25 20 31 21 29 22
REMARK SMILES IDX 38 23 34 25 35 26 26 27 27 28 28 29 32 30 30 32 18 34 6 36
REMARK SMILES IDX 7 37 8 38 14 39 15 40 10 41 12 43
REMARK H PARENT 38 24 32 31 30 33 18 35 10 42 12 44
REMARK Flexibility Score: inf
ROOT
ATOM      1  C   UNL     1     139.734 145.793 133.887  1.00  0.00     0.045 C 
ATOM      2  C   UNL     1     140.353 144.723 134.755  1.00  0.00    -0.039 A 
ATOM      3  C   UNL     1     140.208 144.806 136.140  1.00  0.00     0.013 A 
ATOM      4  C   UNL     1     140.751 143.832 137.008  1.00  0.00    -0.006 A 
ATOM      5  C   UNL     1     141.546 142.784 136.451  1.00  0.00     0.039 A 
ATOM      6  C   UNL     1     142.138 141.828 137.330  1.00  0.00     0.072 A 
ATOM      7  C   UNL     1     142.089 142.033 138.722  1.00  0.00     0.169 A 
ATOM      8  C   UNL     1     141.337 143.084 139.256  1.00  0.00     0.162 A 
ATOM      9  C   UNL     1     140.552 143.909 138.421  1.00  0.00     0.008 A 
ATOM     10  C   UNL     1     141.770 142.759 135.042  1.00  0.00     0.132 A 
ATOM     11  C   UNL     1     141.141 143.701 134.201  1.00  0.00     0.031 A 
ENDROOT
BRANCH  11  12
ATOM     12  C   UNL     1     141.352 143.641 132.730  1.00  0.00     0.031 A 
ATOM     13  C   UNL     1     142.355 144.430 132.148  1.00  0.00     0.132 A 
ATOM     14  C   UNL     1     140.507 142.866 131.922  1.00  0.00    -0.039 A 
ATOM     15  C   UNL     1     142.631 144.332 130.752  1.00  0.00     0.039 A 
ATOM     16  C   UNL     1     140.651 142.917 130.532  1.00  0.00     0.013 A 
ATOM     17  C   UNL     1     139.378 142.065 132.521  1.00  0.00     0.045 C 
ATOM     18  C   UNL     1     141.722 143.610 129.920  1.00  0.00    -0.006 A 
ATOM     19  C   UNL     1     143.770 144.944 130.161  1.00  0.00     0.072 A 
ATOM     20  C   UNL     1     141.895 143.621 128.500  1.00  0.00     0.008 A 
ATOM     21  C   UNL     1     143.817 145.109 128.762  1.00  0.00     0.169 A 
ATOM     22  C   UNL     1     142.853 144.501 127.949  1.00  0.00     0.162 A 
BRANCH  13  23
ATOM     23  O   UNL     1     142.996 145.359 132.975  1.00  0.00    -0.507 OA
ATOM     24  H   UNL     1     143.691 145.097 133.661  1.00  0.00     0.293 HD
ENDBRANCH  13  23
BRANCH  19  25
ATOM     25  C   UNL     1     144.978 145.265 130.957  1.00  0.00     0.264 C 
ATOM     26  O   UNL     1     146.125 144.982 130.516  1.00  0.00    -0.298 OA
ENDBRANCH  19  25
BRANCH  20  27
ATOM     27  C   UNL     1     141.037 142.746 127.568  1.00  0.00     0.017 C 
ATOM     28  C   UNL     1     139.865 143.550 126.998  1.00  0.00     0.012 C 
ATOM     29  C   UNL     1     141.835 142.052 126.448  1.00  0.00     0.012 C 
ENDBRANCH  20  27
BRANCH  21  30
ATOM     30  O   UNL     1     144.832 145.843 128.137  1.00  0.00    -0.504 OA
ATOM     31  H   UNL     1     144.835 146.849 128.047  1.00  0.00     0.293 HD
ENDBRANCH  21  30
BRANCH  22  32
ATOM     32  O   UNL     1     142.858 144.756 126.575  1.00  0.00    -0.504 OA
ATOM     33  H   UNL     1     143.540 145.356 126.129  1.00  0.00     0.293 HD
ENDBRANCH  22  32
ENDBRANCH  11  12
BRANCH  10  34
ATOM     34  O   UNL     1     142.651 141.826 134.483  1.00  0.00    -0.507 OA
ATOM     35  H   UNL     1     143.375 142.061 133.816  1.00  0.00     0.293 HD
ENDBRANCH  10  34
BRANCH   9  36
ATOM     36  C   UNL     1     139.541 144.885 139.048  1.00  0.00     0.017 C 
ATOM     37  C   UNL     1     140.260 146.062 139.716  1.00  0.00     0.012 C 
ATOM     38  C   UNL     1     138.546 144.216 140.016  1.00  0.00     0.012 C 
ENDBRANCH   9  36
BRANCH   6  39
ATOM     39  C   UNL     1     142.771 140.587 136.837  1.00  0.00     0.264 C 
ATOM     40  O   UNL     1     144.025 140.460 136.858  1.00  0.00    -0.298 OA
ENDBRANCH   6  39
BRANCH   8  41
ATOM     41  O   UNL     1     141.362 143.310 140.635  1.00  0.00    -0.504 OA
ATOM     42  H   UNL     1     141.621 142.596 141.306  1.00  0.00     0.293 HD
ENDBRANCH   8  41
BRANCH   7  43
ATOM     43  O   UNL     1     142.757 141.183 139.612  1.00  0.00    -0.504 OA
ATOM     44  H   UNL     1     143.754 141.013 139.594  1.00  0.00     0.293 HD
ENDBRANCH   7  43
TORSDOF 11
ENDMDL
MODEL 7
REMARK VINA RESULT:    -5.048      2.630      9.202
REMARK INTER + INTRA:          -8.732
REMARK INTER:                  -7.572
REMARK INTRA:                  -1.160
REMARK UNBOUND:                -1.323
REMARK SMILES Cc1cc2c(C(C)C)c(O)c(O)c(C=O)c2c(O)c1-c1c(C)cc2c(C(C)C)c(O)c(O)c(C=O)c2c1O
REMARK SMILES IDX 1 1 2 2 3 3 4 4 16 5 13 6 11 7 9 8 5 9 17 10 19 11 20 12
REMARK SMILES IDX 37 13 21 14 36 15 23 16 22 17 24 18 33 19 25 20 31 21 29 22
REMARK SMILES IDX 38 23 34 25 35 26 26 27 27 28 28 29 32 30 30 32 18 34 6 36
REMARK SMILES IDX 7 37 8 38 14 39 15 40 10 41 12 43
REMARK H PARENT 38 24 32 31 30 33 18 35 10 42 12 44
REMARK Flexibility Score: inf
ROOT
ATOM      1  C   UNL     1     139.039 143.135 133.067  1.00  0.00     0.045 C 
ATOM      2  C   UNL     1     140.238 143.668 132.319  1.00  0.00    -0.039 A 
ATOM      3  C   UNL     1     140.170 143.797 130.932  1.00  0.00     0.013 A 
ATOM      4  C   UNL     1     141.250 144.301 130.174  1.00  0.00    -0.006 A 
ATOM      5  C   UNL     1     142.477 144.602 130.843  1.00  0.00     0.039 A 
ATOM      6  C   UNL     1     143.586 145.063 130.073  1.00  0.00     0.072 A 
ATOM      7  C   UNL     1     143.521 145.037 128.667  1.00  0.00     0.169 A 
ATOM      8  C   UNL     1     142.326 144.706 128.020  1.00  0.00     0.162 A 
ATOM      9  C   UNL     1     141.145 144.470 128.758  1.00  0.00     0.008 A 
ATOM     10  C   UNL     1     142.570 144.378 132.249  1.00  0.00     0.132 A 
ATOM     11  C   UNL     1     141.443 143.953 132.983  1.00  0.00     0.031 A 
ENDROOT
BRANCH  11  12
ATOM     12  C   UNL     1     141.544 143.759 134.454  1.00  0.00     0.031 A 
ATOM     13  C   UNL     1     141.924 142.506 134.957  1.00  0.00     0.132 A 
ATOM     14  C   UNL     1     141.185 144.792 135.333  1.00  0.00    -0.039 A 
ATOM     15  C   UNL     1     142.105 142.317 136.358  1.00  0.00     0.039 A 
ATOM     16  C   UNL     1     141.176 144.549 136.710  1.00  0.00     0.013 A 
ATOM     17  C   UNL     1     140.706 146.125 134.813  1.00  0.00     0.045 C 
ATOM     18  C   UNL     1     141.664 143.337 137.254  1.00  0.00    -0.006 A 
ATOM     19  C   UNL     1     142.695 141.138 136.893  1.00  0.00     0.072 A 
ATOM     20  C   UNL     1     141.698 143.110 138.666  1.00  0.00     0.008 A 
ATOM     21  C   UNL     1     142.543 140.851 138.264  1.00  0.00     0.169 A 
ATOM     22  C   UNL     1     141.995 141.807 139.127  1.00  0.00     0.162 A 
BRANCH  13  23
ATOM     23  O   UNL     1     142.030 141.456 134.038  1.00  0.00    -0.507 OA
ATOM     24  H   UNL     1     141.362 140.697 133.991  1.00  0.00     0.293 HD
ENDBRANCH  13  23
BRANCH  19  25
ATOM     25  C   UNL     1     143.601 140.289 136.084  1.00  0.00     0.264 C 
ATOM     26  O   UNL     1     144.753 140.002 136.507  1.00  0.00    -0.298 OA
ENDBRANCH  19  25
BRANCH  20  27
ATOM     27  C   UNL     1     141.373 144.223 139.679  1.00  0.00     0.017 C 
ATOM     28  C   UNL     1     142.334 145.403 139.514  1.00  0.00     0.012 C 
ATOM     29  C   UNL     1     139.905 144.690 139.647  1.00  0.00     0.012 C 
ENDBRANCH  20  27
BRANCH  21  30
ATOM     30  O   UNL     1     142.960 139.634 138.816  1.00  0.00    -0.504 OA
ATOM     31  H   UNL     1     143.867 139.219 138.661  1.00  0.00     0.293 HD
ENDBRANCH  21  30
BRANCH  22  32
ATOM     32  O   UNL     1     141.761 141.470 140.462  1.00  0.00    -0.504 OA
ATOM     33  H   UNL     1     140.903 141.033 140.778  1.00  0.00     0.293 HD
ENDBRANCH  22  32
ENDBRANCH  11  12
BRANCH  10  34
ATOM     34  O   UNL     1     143.795 144.534 132.909  1.00  0.00    -0.507 OA
ATOM     35  H   UNL     1     144.085 143.978 133.703  1.00  0.00     0.293 HD
ENDBRANCH  10  34
BRANCH   9  36
ATOM     36  C   UNL     1     139.797 144.363 128.025  1.00  0.00     0.017 C 
ATOM     37  C   UNL     1     138.847 145.483 128.464  1.00  0.00     0.012 C 
ATOM     38  C   UNL     1     139.126 142.982 128.150  1.00  0.00     0.012 C 
ENDBRANCH   9  36
BRANCH   6  39
ATOM     39  C   UNL     1     144.805 145.619 130.697  1.00  0.00     0.264 C 
ATOM     40  O   UNL     1     145.898 144.996 130.624  1.00  0.00    -0.298 OA
ENDBRANCH   6  39
BRANCH   8  41
ATOM     41  O   UNL     1     142.305 144.618 126.626  1.00  0.00    -0.504 OA
ATOM     42  H   UNL     1     141.448 144.560 126.089  1.00  0.00     0.293 HD
ENDBRANCH   8  41
BRANCH   7  43
ATOM     43  O   UNL     1     144.627 145.369 127.875  1.00  0.00    -0.504 OA
ATOM     44  H   UNL     1     145.165 144.698 127.343  1.00  0.00     0.293 HD
ENDBRANCH   7  43
TORSDOF 11
ENDMDL
MODEL 8
REMARK VINA RESULT:    -5.046      1.335      9.318
REMARK INTER + INTRA:          -8.730
REMARK INTER:                  -7.239
REMARK INTRA:                  -1.490
REMARK UNBOUND:                -1.323
REMARK SMILES Cc1cc2c(C(C)C)c(O)c(O)c(C=O)c2c(O)c1-c1c(C)cc2c(C(C)C)c(O)c(O)c(C=O)c2c1O
REMARK SMILES IDX 1 1 2 2 3 3 4 4 16 5 13 6 11 7 9 8 5 9 17 10 19 11 20 12
REMARK SMILES IDX 37 13 21 14 36 15 23 16 22 17 24 18 33 19 25 20 31 21 29 22
REMARK SMILES IDX 38 23 34 25 35 26 26 27 27 28 28 29 32 30 30 32 18 34 6 36
REMARK SMILES IDX 7 37 8 38 14 39 15 40 10 41 12 43
REMARK H PARENT 38 24 32 31 30 33 18 35 10 42 12 44
REMARK Flexibility Score: inf
ROOT
ATOM      1  C   UNL     1     140.510 140.384 133.717  1.00  0.00     0.045 C 
ATOM      2  C   UNL     1     141.288 141.373 132.881  1.00  0.00    -0.039 A 
ATOM      3  C   UNL     1     141.618 141.038 131.568  1.00  0.00     0.013 A 
ATOM      4  C   UNL     1     142.333 141.922 130.728  1.00  0.00    -0.006 A 
ATOM      5  C   UNL     1     142.805 143.156 131.274  1.00  0.00     0.039 A 
ATOM      6  C   UNL     1     143.570 144.028 130.443  1.00  0.00     0.072 A 
ATOM      7  C   UNL     1     144.003 143.587 129.178  1.00  0.00     0.169 A 
ATOM      8  C   UNL     1     143.565 142.361 128.667  1.00  0.00     0.162 A 
ATOM      9  C   UNL     1     142.621 141.581 129.371  1.00  0.00     0.008 A 
ATOM     10  C   UNL     1     142.544 143.449 132.646  1.00  0.00     0.132 A 
ATOM     11  C   UNL     1     141.756 142.579 133.427  1.00  0.00     0.031 A 
ENDROOT
BRANCH  11  12
ATOM     12  C   UNL     1     141.461 142.916 134.845  1.00  0.00     0.031 A 
ATOM     13  C   UNL     1     140.320 143.673 135.149  1.00  0.00     0.132 A 
ATOM     14  C   UNL     1     142.355 142.550 135.863  1.00  0.00    -0.039 A 
ATOM     15  C   UNL     1     139.972 143.940 136.505  1.00  0.00     0.039 A 
ATOM     16  C   UNL     1     142.116 142.978 137.172  1.00  0.00     0.013 A 
ATOM     17  C   UNL     1     143.625 141.797 135.549  1.00  0.00     0.045 C 
ATOM     18  C   UNL     1     140.920 143.642 137.531  1.00  0.00    -0.006 A 
ATOM     19  C   UNL     1     138.720 144.511 136.868  1.00  0.00     0.072 A 
ATOM     20  C   UNL     1     140.656 144.036 138.881  1.00  0.00     0.008 A 
ATOM     21  C   UNL     1     138.561 145.065 138.153  1.00  0.00     0.169 A 
ATOM     22  C   UNL     1     139.548 144.877 139.129  1.00  0.00     0.162 A 
BRANCH  13  23
ATOM     23  O   UNL     1     139.606 144.210 134.072  1.00  0.00    -0.507 OA
ATOM     24  H   UNL     1     138.620 144.042 133.927  1.00  0.00     0.293 HD
ENDBRANCH  13  23
BRANCH  19  25
ATOM     25  C   UNL     1     137.533 144.395 135.990  1.00  0.00     0.264 C 
ATOM     26  O   UNL     1     137.088 145.406 135.384  1.00  0.00    -0.298 OA
ENDBRANCH  19  25
BRANCH  20  27
ATOM     27  C   UNL     1     141.570 143.614 140.046  1.00  0.00     0.017 C 
ATOM     28  C   UNL     1     142.415 144.797 140.528  1.00  0.00     0.012 C 
ATOM     29  C   UNL     1     140.825 142.946 141.218  1.00  0.00     0.012 C 
ENDBRANCH  20  27
BRANCH  21  30
ATOM     30  O   UNL     1     137.413 145.780 138.514  1.00  0.00    -0.504 OA
ATOM     31  H   UNL     1     137.286 146.242 139.403  1.00  0.00     0.293 HD
ENDBRANCH  21  30
BRANCH  22  32
ATOM     32  O   UNL     1     139.419 145.514 140.365  1.00  0.00    -0.504 OA
ATOM     33  H   UNL     1     139.226 146.504 140.457  1.00  0.00     0.293 HD
ENDBRANCH  22  32
ENDBRANCH  11  12
BRANCH  10  34
ATOM     34  O   UNL     1     143.107 144.583 133.244  1.00  0.00    -0.507 OA
ATOM     35  H   UNL     1     144.034 144.931 133.038  1.00  0.00     0.293 HD
ENDBRANCH  10  34
BRANCH   9  36
ATOM     36  C   UNL     1     141.963 140.374 128.678  1.00  0.00     0.017 C 
ATOM     37  C   UNL     1     142.972 139.237 128.488  1.00  0.00     0.012 C 
ATOM     38  C   UNL     1     141.259 140.723 127.353  1.00  0.00     0.012 C 
ENDBRANCH   9  36
BRANCH   6  39
ATOM     39  C   UNL     1     143.894 145.414 130.839  1.00  0.00     0.264 C 
ATOM     40  O   UNL     1     145.054 145.708 131.232  1.00  0.00    -0.298 OA
ENDBRANCH   6  39
BRANCH   8  41
ATOM     41  O   UNL     1     144.065 141.913 127.442  1.00  0.00    -0.504 OA
ATOM     42  H   UNL     1     145.045 141.710 127.287  1.00  0.00     0.293 HD
ENDBRANCH   8  41
BRANCH   7  43
ATOM     43  O   UNL     1     144.853 144.365 128.382  1.00  0.00    -0.504 OA
ATOM     44  H   UNL     1     145.373 144.008 127.591  1.00  0.00     0.293 HD
ENDBRANCH   7  43
TORSDOF 11
ENDMDL
MODEL 9
REMARK VINA RESULT:    -3.809      2.519      4.566
REMARK INTER + INTRA:          -6.914
REMARK INTER:                  -5.721
REMARK INTRA:                  -1.192
REMARK UNBOUND:                -1.323
REMARK SMILES Cc1cc2c(C(C)C)c(O)c(O)c(C=O)c2c(O)c1-c1c(C)cc2c(C(C)C)c(O)c(O)c(C=O)c2c1O
REMARK SMILES IDX 1 1 2 2 3 3 4 4 16 5 13 6 11 7 9 8 5 9 17 10 19 11 20 12
REMARK SMILES IDX 37 13 21 14 36 15 23 16 22 17 24 18 33 19 25 20 31 21 29 22
REMARK SMILES IDX 38 23 34 25 35 26 26 27 27 28 28 29 32 30 30 32 18 34 6 36
REMARK SMILES IDX 7 37 8 38 14 39 15 40 10 41 12 43
REMARK H PARENT 38 24 32 31 30 33 18 35 10 42 12 44
REMARK Flexibility Score: inf
ROOT
ATOM      1  C   UNL     1     138.563 143.737 132.625  1.00  0.00     0.045 C 
ATOM      2  C   UNL     1     139.117 144.006 134.005  1.00  0.00    -0.039 A 
ATOM      3  C   UNL     1     138.241 144.371 135.027  1.00  0.00     0.013 A 
ATOM      4  C   UNL     1     138.691 144.623 136.343  1.00  0.00    -0.006 A 
ATOM      5  C   UNL     1     140.096 144.589 136.605  1.00  0.00     0.039 A 
ATOM      6  C   UNL     1     140.558 144.893 137.921  1.00  0.00     0.072 A 
ATOM      7  C   UNL     1     139.658 145.398 138.879  1.00  0.00     0.169 A 
ATOM      8  C   UNL     1     138.289 145.462 138.599  1.00  0.00     0.162 A 
ATOM      9  C   UNL     1     137.774 144.951 137.388  1.00  0.00     0.008 A 
ATOM     10  C   UNL     1     140.993 144.307 135.532  1.00  0.00     0.132 A 
ATOM     11  C   UNL     1     140.499 143.978 134.253  1.00  0.00     0.031 A 
ENDROOT
BRANCH  11  12
ATOM     12  C   UNL     1     141.444 143.650 133.153  1.00  0.00     0.031 A 
ATOM     13  C   UNL     1     141.777 142.310 132.910  1.00  0.00     0.132 A 
ATOM     14  C   UNL     1     142.060 144.673 132.417  1.00  0.00    -0.039 A 
ATOM     15  C   UNL     1     142.617 141.963 131.812  1.00  0.00     0.039 A 
ATOM     16  C   UNL     1     143.032 144.345 131.467  1.00  0.00     0.013 A 
ATOM     17  C   UNL     1     141.769 146.125 132.709  1.00  0.00     0.045 C 
ATOM     18  C   UNL     1     143.306 143.003 131.117  1.00  0.00    -0.006 A 
ATOM     19  C   UNL     1     142.805 140.615 131.397  1.00  0.00     0.072 A 
ATOM     20  C   UNL     1     144.268 142.671 130.110  1.00  0.00     0.008 A 
ATOM     21  C   UNL     1     143.885 140.297 130.551  1.00  0.00     0.169 A 
ATOM     22  C   UNL     1     144.643 141.317 129.963  1.00  0.00     0.162 A 
BRANCH  13  23
ATOM     23  O   UNL     1     141.320 141.362 133.832  1.00  0.00    -0.507 OA
ATOM     24  H   UNL     1     140.342 141.249 134.066  1.00  0.00     0.293 HD
ENDBRANCH  13  23
BRANCH  19  25
ATOM     25  C   UNL     1     141.804 139.565 131.699  1.00  0.00     0.264 C 
ATOM     26  O   UNL     1     142.080 138.634 132.502  1.00  0.00    -0.298 OA
ENDBRANCH  19  25
BRANCH  20  27
ATOM     27  C   UNL     1     144.931 143.747 129.232  1.00  0.00     0.017 C 
ATOM     28  C   UNL     1     143.873 144.573 128.494  1.00  0.00     0.012 C 
ATOM     29  C   UNL     1     145.918 144.656 129.991  1.00  0.00     0.012 C 
ENDBRANCH  20  27
BRANCH  21  30
ATOM     30  O   UNL     1     144.217 138.973 130.239  1.00  0.00    -0.504 OA
ATOM     31  H   UNL     1     143.725 138.164 130.590  1.00  0.00     0.293 HD
ENDBRANCH  21  30
BRANCH  22  32
ATOM     32  O   UNL     1     145.770 140.984 129.207  1.00  0.00    -0.504 OA
ATOM     33  H   UNL     1     145.748 140.305 128.456  1.00  0.00     0.293 HD
ENDBRANCH  22  32
ENDBRANCH  11  12
BRANCH  10  34
ATOM     34  O   UNL     1     142.376 144.398 135.727  1.00  0.00    -0.507 OA
ATOM     35  H   UNL     1     142.970 145.072 135.261  1.00  0.00     0.293 HD
ENDBRANCH  10  34
BRANCH   9  36
ATOM     36  C   UNL     1     136.253 144.797 137.212  1.00  0.00     0.017 C 
ATOM     37  C   UNL     1     135.827 143.336 137.394  1.00  0.00     0.012 C 
ATOM     38  C   UNL     1     135.716 145.374 135.889  1.00  0.00     0.012 C 
ENDBRANCH   9  36
BRANCH   6  39
ATOM     39  C   UNL     1     141.953 144.654 138.344  1.00  0.00     0.264 C 
ATOM     40  O   UNL     1     142.742 145.622 138.512  1.00  0.00    -0.298 OA
ENDBRANCH   6  39
BRANCH   8  41
ATOM     41  O   UNL     1     137.426 146.032 139.539  1.00  0.00    -0.504 OA
ATOM     42  H   UNL     1     136.449 146.221 139.347  1.00  0.00     0.293 HD
ENDBRANCH   8  41
BRANCH   7  43
ATOM     43  O   UNL     1     140.091 145.819 140.142  1.00  0.00    -0.504 OA
ATOM     44  H   UNL     1     139.769 145.421 141.014  1.00  0.00     0.293 HD
ENDBRANCH   7  43
TORSDOF 11
ENDMDL
