MODEL 1
REMARK VINA RESULT:    -8.013      0.000      0.000
REMARK INTER + INTRA:          -9.601
REMARK INTER:                  -9.652
REMARK INTRA:                   0.051
REMARK UNBOUND:                 0.051
REMARK SMILES O=c1c(O)c(-c2ccc(O)c(O)c2)oc2cc(O)cc(O)c12
REMARK SMILES IDX 5 1 3 2 2 3 1 4 22 5 20 6 19 7 17 8 16 9 15 10 14 11 6 12
REMARK SMILES IDX 7 13 8 14 9 15 13 16 11 17 10 18 12 20 4 22 21 24 18 26
REMARK H PARENT 10 19 12 21 4 23 21 25 18 27
REMARK Flexibility Score: inf
ROOT
ATOM      1  C   UNL     1      39.793 -12.400   9.018  1.00  0.00     0.180 A 
ATOM      2  C   UNL     1      40.220 -11.067   9.153  1.00  0.00     0.208 A 
ATOM      3  C   UNL     1      41.317 -10.784   9.981  1.00  0.00     0.238 A 
ATOM      4  O   UNL     1      41.727  -9.596  10.054  1.00  0.00    -0.285 OA
ATOM      5  C   UNL     1      41.964 -11.833  10.678  1.00  0.00     0.111 A 
ATOM      6  C   UNL     1      43.059 -11.655  11.575  1.00  0.00     0.134 A 
ATOM      7  C   UNL     1      43.704 -12.779  12.107  1.00  0.00     0.093 A 
ATOM      8  C   UNL     1      43.252 -14.070  11.826  1.00  0.00     0.123 A 
ATOM      9  C   UNL     1      42.147 -14.251  10.999  1.00  0.00     0.094 A 
ATOM     10  C   UNL     1      41.505 -13.152  10.424  1.00  0.00     0.146 A 
ATOM     11  O   UNL     1      40.461 -13.370   9.632  1.00  0.00    -0.452 OA
ENDROOT
BRANCH   1  12
ATOM     12  C   UNL     1      38.630 -12.775   8.182  1.00  0.00     0.025 A 
ATOM     13  C   UNL     1      37.434 -12.049   8.297  1.00  0.00     0.016 A 
ATOM     14  C   UNL     1      36.330 -12.373   7.503  1.00  0.00     0.051 A 
ATOM     15  C   UNL     1      36.408 -13.414   6.574  1.00  0.00     0.157 A 
ATOM     16  C   UNL     1      38.714 -13.807   7.232  1.00  0.00     0.062 A 
ATOM     17  C   UNL     1      37.607 -14.132   6.432  1.00  0.00     0.158 A 
BRANCH  15  18
ATOM     18  O   UNL     1      35.291 -13.715   5.797  1.00  0.00    -0.504 OA
ATOM     19  H   UNL     1      35.176 -13.355   4.857  1.00  0.00     0.293 HD
ENDBRANCH  15  18
BRANCH  17  20
ATOM     20  O   UNL     1      37.698 -15.163   5.496  1.00  0.00    -0.504 OA
ATOM     21  H   UNL     1      37.692 -14.976   4.500  1.00  0.00     0.293 HD
ENDBRANCH  17  20
ENDBRANCH   1  12
BRANCH   2  22
ATOM     22  O   UNL     1      39.580 -10.049   8.438  1.00  0.00    -0.502 OA
ATOM     23  H   UNL     1      39.854  -9.078   8.515  1.00  0.00     0.293 HD
ENDBRANCH   2  22
BRANCH   6  24
ATOM     24  O   UNL     1      43.531 -10.407  11.994  1.00  0.00    -0.507 OA
ATOM     25  H   UNL     1      43.847 -10.198  12.929  1.00  0.00     0.293 HD
ENDBRANCH   6  24
BRANCH   8  26
ATOM     26  O   UNL     1      43.891 -15.181  12.372  1.00  0.00    -0.508 OA
ATOM     27  H   UNL     1      44.869 -15.153  12.638  1.00  0.00     0.293 HD
ENDBRANCH   8  26
TORSDOF 6
ENDMDL
MODEL 2
REMARK VINA RESULT:    -7.703      1.240      1.252
REMARK INTER + INTRA:          -9.228
REMARK INTER:                  -8.905
REMARK INTRA:                  -0.323
REMARK UNBOUND:                 0.051
REMARK SMILES O=c1c(O)c(-c2ccc(O)c(O)c2)oc2cc(O)cc(O)c12
REMARK SMILES IDX 5 1 3 2 2 3 1 4 22 5 20 6 19 7 17 8 16 9 15 10 14 11 6 12
REMARK SMILES IDX 7 13 8 14 9 15 13 16 11 17 10 18 12 20 4 22 21 24 18 26
REMARK H PARENT 10 19 12 21 4 23 21 25 18 27
REMARK Flexibility Score: inf
ROOT
ATOM      1  C   UNL     1      39.949 -12.040   8.967  1.00  0.00     0.180 A 
ATOM      2  C   UNL     1      40.354 -10.832   9.561  1.00  0.00     0.208 A 
ATOM      3  C   UNL     1      41.398 -10.851  10.499  1.00  0.00     0.238 A 
ATOM      4  O   UNL     1      41.792  -9.760  10.987  1.00  0.00    -0.285 OA
ATOM      5  C   UNL     1      42.013 -12.079  10.845  1.00  0.00     0.111 A 
ATOM      6  C   UNL     1      43.052 -12.221  11.812  1.00  0.00     0.134 A 
ATOM      7  C   UNL     1      43.676 -13.464  11.978  1.00  0.00     0.093 A 
ATOM      8  C   UNL     1      43.254 -14.583  11.257  1.00  0.00     0.123 A 
ATOM      9  C   UNL     1      42.200 -14.468  10.354  1.00  0.00     0.094 A 
ATOM     10  C   UNL     1      41.583 -13.233  10.140  1.00  0.00     0.146 A 
ATOM     11  O   UNL     1      40.589 -13.166   9.262  1.00  0.00    -0.452 OA
ENDROOT
BRANCH   1  12
ATOM     12  C   UNL     1      38.840 -12.104   7.988  1.00  0.00     0.025 A 
ATOM     13  C   UNL     1      37.526 -12.294   8.442  1.00  0.00     0.016 A 
ATOM     14  C   UNL     1      36.463 -12.336   7.537  1.00  0.00     0.051 A 
ATOM     15  C   UNL     1      36.692 -12.174   6.168  1.00  0.00     0.157 A 
ATOM     16  C   UNL     1      39.067 -11.919   6.612  1.00  0.00     0.062 A 
ATOM     17  C   UNL     1      38.000 -11.960   5.702  1.00  0.00     0.158 A 
BRANCH  15  18
ATOM     18  O   UNL     1      35.612 -12.223   5.288  1.00  0.00    -0.504 OA
ATOM     19  H   UNL     1      34.656 -12.310   5.613  1.00  0.00     0.293 HD
ENDBRANCH  15  18
BRANCH  17  20
ATOM     20  O   UNL     1      38.235 -11.783   4.338  1.00  0.00    -0.504 OA
ATOM     21  H   UNL     1      38.321 -12.571   3.708  1.00  0.00     0.293 HD
ENDBRANCH  17  20
ENDBRANCH   1  12
BRANCH   2  22
ATOM     22  O   UNL     1      39.748  -9.628   9.189  1.00  0.00    -0.502 OA
ATOM     23  H   UNL     1      39.608  -9.365   8.222  1.00  0.00     0.293 HD
ENDBRANCH   2  22
BRANCH   6  24
ATOM     24  O   UNL     1      43.486 -11.188  12.649  1.00  0.00    -0.507 OA
ATOM     25  H   UNL     1      43.214 -10.221  12.556  1.00  0.00     0.293 HD
ENDBRANCH   6  24
BRANCH   8  26
ATOM     26  O   UNL     1      43.870 -15.820  11.440  1.00  0.00    -0.508 OA
ATOM     27  H   UNL     1      43.381 -16.597  11.871  1.00  0.00     0.293 HD
ENDBRANCH   8  26
TORSDOF 6
ENDMDL
MODEL 3
REMARK VINA RESULT:    -7.535      1.852      6.808
REMARK INTER + INTRA:          -9.026
REMARK INTER:                  -8.822
REMARK INTRA:                  -0.204
REMARK UNBOUND:                 0.051
REMARK SMILES O=c1c(O)c(-c2ccc(O)c(O)c2)oc2cc(O)cc(O)c12
REMARK SMILES IDX 5 1 3 2 2 3 1 4 22 5 20 6 19 7 17 8 16 9 15 10 14 11 6 12
REMARK SMILES IDX 7 13 8 14 9 15 13 16 11 17 10 18 12 20 4 22 21 24 18 26
REMARK H PARENT 10 19 12 21 4 23 21 25 18 27
REMARK Flexibility Score: inf
ROOT
ATOM      1  C   UNL     1      41.061 -12.532   8.719  1.00  0.00     0.180 A 
ATOM      2  C   UNL     1      41.568 -11.569   7.831  1.00  0.00     0.208 A 
ATOM      3  C   UNL     1      40.736 -11.073   6.815  1.00  0.00     0.238 A 
ATOM      4  O   UNL     1      41.179 -10.171   6.057  1.00  0.00    -0.285 OA
ATOM      5  C   UNL     1      39.412 -11.558   6.689  1.00  0.00     0.111 A 
ATOM      6  C   UNL     1      38.494 -11.156   5.673  1.00  0.00     0.134 A 
ATOM      7  C   UNL     1      37.168 -11.604   5.724  1.00  0.00     0.093 A 
ATOM      8  C   UNL     1      36.745 -12.490   6.717  1.00  0.00     0.123 A 
ATOM      9  C   UNL     1      37.648 -12.935   7.678  1.00  0.00     0.094 A 
ATOM     10  C   UNL     1      38.968 -12.478   7.675  1.00  0.00     0.146 A 
ATOM     11  O   UNL     1      39.794 -12.919   8.617  1.00  0.00    -0.452 OA
ENDROOT
BRANCH   1  12
ATOM     12  C   UNL     1      41.885 -13.120   9.800  1.00  0.00     0.025 A 
ATOM     13  C   UNL     1      42.313 -14.452   9.696  1.00  0.00     0.016 A 
ATOM     14  C   UNL     1      43.109 -15.020  10.694  1.00  0.00     0.051 A 
ATOM     15  C   UNL     1      43.501 -14.264  11.802  1.00  0.00     0.157 A 
ATOM     16  C   UNL     1      42.298 -12.354  10.905  1.00  0.00     0.062 A 
ATOM     17  C   UNL     1      43.098 -12.922  11.907  1.00  0.00     0.158 A 
BRANCH  15  18
ATOM     18  O   UNL     1      44.293 -14.858  12.784  1.00  0.00    -0.504 OA
ATOM     19  H   UNL     1      44.074 -14.786  13.770  1.00  0.00     0.293 HD
ENDBRANCH  15  18
BRANCH  17  20
ATOM     20  O   UNL     1      43.497 -12.157  13.002  1.00  0.00    -0.504 OA
ATOM     21  H   UNL     1      42.968 -11.348  13.305  1.00  0.00     0.293 HD
ENDBRANCH  17  20
ENDBRANCH   1  12
BRANCH   2  22
ATOM     22  O   UNL     1      42.872 -11.087   7.986  1.00  0.00    -0.502 OA
ATOM     23  H   UNL     1      43.114 -10.116   7.836  1.00  0.00     0.293 HD
ENDBRANCH   2  22
BRANCH   6  24
ATOM     24  O   UNL     1      38.839 -10.347   4.585  1.00  0.00    -0.507 OA
ATOM     25  H   UNL     1      39.781 -10.203   4.253  1.00  0.00     0.293 HD
ENDBRANCH   6  24
BRANCH   8  26
ATOM     26  O   UNL     1      35.427 -12.943   6.750  1.00  0.00    -0.508 OA
ATOM     27  H   UNL     1      34.645 -12.299   6.735  1.00  0.00     0.293 HD
ENDBRANCH   8  26
TORSDOF 6
ENDMDL
MODEL 4
REMARK VINA RESULT:    -7.490      5.717     11.690
REMARK INTER + INTRA:          -8.971
REMARK INTER:                  -8.648
REMARK INTRA:                  -0.323
REMARK UNBOUND:                 0.051
REMARK SMILES O=c1c(O)c(-c2ccc(O)c(O)c2)oc2cc(O)cc(O)c12
REMARK SMILES IDX 5 1 3 2 2 3 1 4 22 5 20 6 19 7 17 8 16 9 15 10 14 11 6 12
REMARK SMILES IDX 7 13 8 14 9 15 13 16 11 17 10 18 12 20 4 22 21 24 18 26
REMARK H PARENT 10 19 12 21 4 23 21 25 18 27
REMARK Flexibility Score: inf
ROOT
ATOM      1  C   UNL     1      34.216 -13.963   2.780  1.00  0.00     0.180 A 
ATOM      2  C   UNL     1      34.577 -14.352   1.479  1.00  0.00     0.208 A 
ATOM      3  C   UNL     1      33.568 -14.696   0.566  1.00  0.00     0.238 A 
ATOM      4  O   UNL     1      33.894 -14.990  -0.613  1.00  0.00    -0.285 OA
ATOM      5  C   UNL     1      32.211 -14.664   0.970  1.00  0.00     0.111 A 
ATOM      6  C   UNL     1      31.109 -15.032   0.140  1.00  0.00     0.134 A 
ATOM      7  C   UNL     1      29.802 -14.836   0.603  1.00  0.00     0.093 A 
ATOM      8  C   UNL     1      29.558 -14.347   1.888  1.00  0.00     0.123 A 
ATOM      9  C   UNL     1      30.627 -14.042   2.727  1.00  0.00     0.094 A 
ATOM     10  C   UNL     1      31.942 -14.192   2.281  1.00  0.00     0.146 A 
ATOM     11  O   UNL     1      32.932 -13.879   3.110  1.00  0.00    -0.452 OA
ENDROOT
BRANCH   1  12
ATOM     12  C   UNL     1      35.224 -13.610   3.806  1.00  0.00     0.025 A 
ATOM     13  C   UNL     1      35.758 -14.615   4.626  1.00  0.00     0.016 A 
ATOM     14  C   UNL     1      36.726 -14.307   5.585  1.00  0.00     0.051 A 
ATOM     15  C   UNL     1      37.185 -12.995   5.731  1.00  0.00     0.157 A 
ATOM     16  C   UNL     1      35.702 -12.294   3.939  1.00  0.00     0.062 A 
ATOM     17  C   UNL     1      36.675 -11.982   4.901  1.00  0.00     0.158 A 
BRANCH  15  18
ATOM     18  O   UNL     1      38.149 -12.716   6.698  1.00  0.00    -0.504 OA
ATOM     19  H   UNL     1      38.920 -13.346   6.887  1.00  0.00     0.293 HD
ENDBRANCH  15  18
BRANCH  17  20
ATOM     20  O   UNL     1      37.138 -10.673   5.030  1.00  0.00    -0.504 OA
ATOM     21  H   UNL     1      38.129 -10.459   5.033  1.00  0.00     0.293 HD
ENDBRANCH  17  20
ENDBRANCH   1  12
BRANCH   2  22
ATOM     22  O   UNL     1      35.921 -14.355   1.094  1.00  0.00    -0.502 OA
ATOM     23  H   UNL     1      36.258 -14.884   0.299  1.00  0.00     0.293 HD
ENDBRANCH   2  22
BRANCH   6  24
ATOM     24  O   UNL     1      31.244 -15.613  -1.124  1.00  0.00    -0.507 OA
ATOM     25  H   UNL     1      32.111 -15.960  -1.507  1.00  0.00     0.293 HD
ENDBRANCH   6  24
BRANCH   8  26
ATOM     26  O   UNL     1      28.253 -14.170   2.346  1.00  0.00    -0.508 OA
ATOM     27  H   UNL     1      27.880 -14.723   3.109  1.00  0.00     0.293 HD
ENDBRANCH   8  26
TORSDOF 6
ENDMDL
MODEL 5
REMARK VINA RESULT:    -7.441      3.252      4.580
REMARK INTER + INTRA:          -8.913
REMARK INTER:                  -8.618
REMARK INTRA:                  -0.295
REMARK UNBOUND:                 0.051
REMARK SMILES O=c1c(O)c(-c2ccc(O)c(O)c2)oc2cc(O)cc(O)c12
REMARK SMILES IDX 5 1 3 2 2 3 1 4 22 5 20 6 19 7 17 8 16 9 15 10 14 11 6 12
REMARK SMILES IDX 7 13 8 14 9 15 13 16 11 17 10 18 12 20 4 22 21 24 18 26
REMARK H PARENT 10 19 12 21 4 23 21 25 18 27
REMARK Flexibility Score: inf
ROOT
ATOM      1  C   UNL     1      42.239 -11.389   8.866  1.00  0.00     0.180 A 
ATOM      2  C   UNL     1      41.820 -12.730   8.918  1.00  0.00     0.208 A 
ATOM      3  C   UNL     1      42.198 -13.519  10.016  1.00  0.00     0.238 A 
ATOM      4  O   UNL     1      41.774 -14.702  10.083  1.00  0.00    -0.285 OA
ATOM      5  C   UNL     1      43.003 -12.964  11.040  1.00  0.00     0.111 A 
ATOM      6  C   UNL     1      43.477 -13.683  12.177  1.00  0.00     0.134 A 
ATOM      7  C   UNL     1      44.157 -12.997  13.193  1.00  0.00     0.093 A 
ATOM      8  C   UNL     1      44.434 -11.633  13.080  1.00  0.00     0.123 A 
ATOM      9  C   UNL     1      44.028 -10.935  11.946  1.00  0.00     0.094 A 
ATOM     10  C   UNL     1      43.316 -11.584  10.933  1.00  0.00     0.146 A 
ATOM     11  O   UNL     1      42.937 -10.878   9.873  1.00  0.00    -0.452 OA
ENDROOT
BRANCH   1  12
ATOM     12  C   UNL     1      41.902 -10.502   7.730  1.00  0.00     0.025 A 
ATOM     13  C   UNL     1      40.916  -9.516   7.891  1.00  0.00     0.016 A 
ATOM     14  C   UNL     1      40.597  -8.655   6.838  1.00  0.00     0.051 A 
ATOM     15  C   UNL     1      41.267  -8.753   5.615  1.00  0.00     0.157 A 
ATOM     16  C   UNL     1      42.590 -10.586   6.506  1.00  0.00     0.062 A 
ATOM     17  C   UNL     1      42.272  -9.720   5.449  1.00  0.00     0.158 A 
BRANCH  15  18
ATOM     18  O   UNL     1      40.926  -7.881   4.583  1.00  0.00    -0.504 OA
ATOM     19  H   UNL     1      40.230  -8.117   3.886  1.00  0.00     0.293 HD
ENDBRANCH  15  18
BRANCH  17  20
ATOM     20  O   UNL     1      42.956  -9.815   4.236  1.00  0.00    -0.504 OA
ATOM     21  H   UNL     1      43.544  -9.062   3.899  1.00  0.00     0.293 HD
ENDBRANCH  17  20
ENDBRANCH   1  12
BRANCH   2  22
ATOM     22  O   UNL     1      41.008 -13.252   7.907  1.00  0.00    -0.502 OA
ATOM     23  H   UNL     1      41.251 -14.089   7.392  1.00  0.00     0.293 HD
ENDBRANCH   2  22
BRANCH   6  24
ATOM     24  O   UNL     1      43.333 -15.063  12.345  1.00  0.00    -0.507 OA
ATOM     25  H   UNL     1      43.742 -15.596  13.098  1.00  0.00     0.293 HD
ENDBRANCH   6  24
BRANCH   8  26
ATOM     26  O   UNL     1      45.125 -10.963  14.088  1.00  0.00    -0.508 OA
ATOM     27  H   UNL     1      45.808 -11.437  14.668  1.00  0.00     0.293 HD
ENDBRANCH   8  26
TORSDOF 6
ENDMDL
MODEL 6
REMARK VINA RESULT:    -7.418      1.388      1.677
REMARK INTER + INTRA:          -8.885
REMARK INTER:                  -8.622
REMARK INTRA:                  -0.263
REMARK UNBOUND:                 0.051
REMARK SMILES O=c1c(O)c(-c2ccc(O)c(O)c2)oc2cc(O)cc(O)c12
REMARK SMILES IDX 5 1 3 2 2 3 1 4 22 5 20 6 19 7 17 8 16 9 15 10 14 11 6 12
REMARK SMILES IDX 7 13 8 14 9 15 13 16 11 17 10 18 12 20 4 22 21 24 18 26
REMARK H PARENT 10 19 12 21 4 23 21 25 18 27
REMARK Flexibility Score: inf
ROOT
ATOM      1  C   UNL     1      40.184 -11.782   8.774  1.00  0.00     0.180 A 
ATOM      2  C   UNL     1      40.555 -10.625   9.480  1.00  0.00     0.208 A 
ATOM      3  C   UNL     1      41.505 -10.730  10.508  1.00  0.00     0.238 A 
ATOM      4  O   UNL     1      41.873  -9.682  11.100  1.00  0.00    -0.285 OA
ATOM      5  C   UNL     1      42.060 -11.993  10.829  1.00  0.00     0.111 A 
ATOM      6  C   UNL     1      42.999 -12.222  11.878  1.00  0.00     0.134 A 
ATOM      7  C   UNL     1      43.580 -13.489  12.020  1.00  0.00     0.093 A 
ATOM      8  C   UNL     1      43.205 -14.549  11.193  1.00  0.00     0.123 A 
ATOM      9  C   UNL     1      42.244 -14.351  10.205  1.00  0.00     0.094 A 
ATOM     10  C   UNL     1      41.675 -13.089  10.015  1.00  0.00     0.146 A 
ATOM     11  O   UNL     1      40.770 -12.941   9.054  1.00  0.00    -0.452 OA
ENDROOT
BRANCH   1  12
ATOM     12  C   UNL     1      39.172 -11.756   7.693  1.00  0.00     0.025 A 
ATOM     13  C   UNL     1      39.525 -11.267   6.426  1.00  0.00     0.016 A 
ATOM     14  C   UNL     1      38.591 -11.253   5.387  1.00  0.00     0.051 A 
ATOM     15  C   UNL     1      37.297 -11.739   5.592  1.00  0.00     0.157 A 
ATOM     16  C   UNL     1      37.876 -12.265   7.892  1.00  0.00     0.062 A 
ATOM     17  C   UNL     1      36.937 -12.253   6.849  1.00  0.00     0.158 A 
BRANCH  15  18
ATOM     18  O   UNL     1      36.386 -11.710   4.537  1.00  0.00    -0.504 OA
ATOM     19  H   UNL     1      35.968 -12.554   4.163  1.00  0.00     0.293 HD
ENDBRANCH  15  18
BRANCH  17  20
ATOM     20  O   UNL     1      35.652 -12.753   7.057  1.00  0.00    -0.504 OA
ATOM     21  H   UNL     1      35.259 -12.837   7.988  1.00  0.00     0.293 HD
ENDBRANCH  17  20
ENDBRANCH   1  12
BRANCH   2  22
ATOM     22  O   UNL     1      40.011  -9.385   9.132  1.00  0.00    -0.502 OA
ATOM     23  H   UNL     1      40.407  -8.802   8.405  1.00  0.00     0.293 HD
ENDBRANCH   2  22
BRANCH   6  24
ATOM     24  O   UNL     1      43.373 -11.255  12.817  1.00  0.00    -0.507 OA
ATOM     25  H   UNL     1      44.144 -10.613  12.704  1.00  0.00     0.293 HD
ENDBRANCH   6  24
BRANCH   8  26
ATOM     26  O   UNL     1      43.776 -15.811  11.352  1.00  0.00    -0.508 OA
ATOM     27  H   UNL     1      44.388 -16.208  10.648  1.00  0.00     0.293 HD
ENDBRANCH   8  26
TORSDOF 6
ENDMDL
MODEL 7
REMARK VINA RESULT:    -7.369      2.248      7.021
REMARK INTER + INTRA:          -8.825
REMARK INTER:                  -8.870
REMARK INTRA:                   0.045
REMARK UNBOUND:                 0.051
REMARK SMILES O=c1c(O)c(-c2ccc(O)c(O)c2)oc2cc(O)cc(O)c12
REMARK SMILES IDX 5 1 3 2 2 3 1 4 22 5 20 6 19 7 17 8 16 9 15 10 14 11 6 12
REMARK SMILES IDX 7 13 8 14 9 15 13 16 11 17 10 18 12 20 4 22 21 24 18 26
REMARK H PARENT 10 19 12 21 4 23 21 25 18 27
REMARK Flexibility Score: inf
ROOT
ATOM      1  C   UNL     1      41.042 -12.254   9.195  1.00  0.00     0.180 A 
ATOM      2  C   UNL     1      39.840 -12.982   9.171  1.00  0.00     0.208 A 
ATOM      3  C   UNL     1      38.949 -12.789   8.104  1.00  0.00     0.238 A 
ATOM      4  O   UNL     1      37.900 -13.484   8.059  1.00  0.00    -0.285 OA
ATOM      5  C   UNL     1      39.262 -11.859   7.083  1.00  0.00     0.111 A 
ATOM      6  C   UNL     1      38.414 -11.554   5.976  1.00  0.00     0.134 A 
ATOM      7  C   UNL     1      38.884 -10.714   4.958  1.00  0.00     0.093 A 
ATOM      8  C   UNL     1      40.144 -10.119   5.040  1.00  0.00     0.123 A 
ATOM      9  C   UNL     1      40.955 -10.363   6.145  1.00  0.00     0.094 A 
ATOM     10  C   UNL     1      40.529 -11.225   7.159  1.00  0.00     0.146 A 
ATOM     11  O   UNL     1      41.338 -11.438   8.190  1.00  0.00    -0.452 OA
ENDROOT
BRANCH   1  12
ATOM     12  C   UNL     1      42.020 -12.385  10.299  1.00  0.00     0.025 A 
ATOM     13  C   UNL     1      42.498 -11.232  10.940  1.00  0.00     0.016 A 
ATOM     14  C   UNL     1      43.406 -11.334  11.998  1.00  0.00     0.051 A 
ATOM     15  C   UNL     1      43.838 -12.587  12.441  1.00  0.00     0.157 A 
ATOM     16  C   UNL     1      42.440 -13.646  10.760  1.00  0.00     0.062 A 
ATOM     17  C   UNL     1      43.349 -13.750  11.823  1.00  0.00     0.158 A 
BRANCH  15  18
ATOM     18  O   UNL     1      44.745 -12.658  13.497  1.00  0.00    -0.504 OA
ATOM     19  H   UNL     1      45.343 -13.463  13.640  1.00  0.00     0.293 HD
ENDBRANCH  15  18
BRANCH  17  20
ATOM     20  O   UNL     1      43.765 -15.005  12.269  1.00  0.00    -0.504 OA
ATOM     21  H   UNL     1      44.413 -15.105  13.042  1.00  0.00     0.293 HD
ENDBRANCH  17  20
ENDBRANCH   1  12
BRANCH   2  22
ATOM     22  O   UNL     1      39.560 -13.912  10.177  1.00  0.00    -0.502 OA
ATOM     23  H   UNL     1      39.690 -14.907  10.049  1.00  0.00     0.293 HD
ENDBRANCH   2  22
BRANCH   6  24
ATOM     24  O   UNL     1      37.104 -12.023   5.844  1.00  0.00    -0.507 OA
ATOM     25  H   UNL     1      36.695 -12.752   6.410  1.00  0.00     0.293 HD
ENDBRANCH   6  24
BRANCH   8  26
ATOM     26  O   UNL     1      40.596  -9.272   4.030  1.00  0.00    -0.508 OA
ATOM     27  H   UNL     1      41.447  -8.730   4.134  1.00  0.00     0.293 HD
ENDBRANCH   8  26
TORSDOF 6
ENDMDL
MODEL 8
REMARK VINA RESULT:    -7.282      7.035     10.250
REMARK INTER + INTRA:          -8.721
REMARK INTER:                  -8.400
REMARK INTRA:                  -0.321
REMARK UNBOUND:                 0.051
REMARK SMILES O=c1c(O)c(-c2ccc(O)c(O)c2)oc2cc(O)cc(O)c12
REMARK SMILES IDX 5 1 3 2 2 3 1 4 22 5 20 6 19 7 17 8 16 9 15 10 14 11 6 12
REMARK SMILES IDX 7 13 8 14 9 15 13 16 11 17 10 18 12 20 4 22 21 24 18 26
REMARK H PARENT 10 19 12 21 4 23 21 25 18 27
REMARK Flexibility Score: inf
ROOT
ATOM      1  C   UNL     1      33.613 -14.098   1.824  1.00  0.00     0.180 A 
ATOM      2  C   UNL     1      34.330 -14.997   2.632  1.00  0.00     0.208 A 
ATOM      3  C   UNL     1      35.482 -14.547   3.296  1.00  0.00     0.238 A 
ATOM      4  O   UNL     1      36.088 -15.342   4.061  1.00  0.00    -0.285 OA
ATOM      5  C   UNL     1      35.911 -13.208   3.133  1.00  0.00     0.111 A 
ATOM      6  C   UNL     1      37.085 -12.655   3.727  1.00  0.00     0.134 A 
ATOM      7  C   UNL     1      37.342 -11.284   3.603  1.00  0.00     0.093 A 
ATOM      8  C   UNL     1      36.501 -10.459   2.852  1.00  0.00     0.123 A 
ATOM      9  C   UNL     1      35.385 -11.001   2.219  1.00  0.00     0.094 A 
ATOM     10  C   UNL     1      35.083 -12.358   2.355  1.00  0.00     0.146 A 
ATOM     11  O   UNL     1      34.003 -12.831   1.743  1.00  0.00    -0.452 OA
ENDROOT
BRANCH   1  12
ATOM     12  C   UNL     1      32.404 -14.505   1.073  1.00  0.00     0.025 A 
ATOM     13  C   UNL     1      32.536 -15.000  -0.234  1.00  0.00     0.016 A 
ATOM     14  C   UNL     1      31.410 -15.409  -0.954  1.00  0.00     0.051 A 
ATOM     15  C   UNL     1      30.139 -15.345  -0.376  1.00  0.00     0.157 A 
ATOM     16  C   UNL     1      31.127 -14.461   1.661  1.00  0.00     0.062 A 
ATOM     17  C   UNL     1      29.996 -14.874   0.940  1.00  0.00     0.158 A 
BRANCH  15  18
ATOM     18  O   UNL     1      29.034 -15.758  -1.118  1.00  0.00    -0.504 OA
ATOM     19  H   UNL     1      28.480 -16.564  -0.855  1.00  0.00     0.293 HD
ENDBRANCH  15  18
BRANCH  17  20
ATOM     20  O   UNL     1      28.733 -14.821   1.529  1.00  0.00    -0.504 OA
ATOM     21  H   UNL     1      28.401 -13.986   1.999  1.00  0.00     0.293 HD
ENDBRANCH  17  20
ENDBRANCH   1  12
BRANCH   2  22
ATOM     22  O   UNL     1      33.876 -16.310   2.797  1.00  0.00    -0.502 OA
ATOM     23  H   UNL     1      34.505 -17.101   2.841  1.00  0.00     0.293 HD
ENDBRANCH   2  22
BRANCH   6  24
ATOM     24  O   UNL     1      38.038 -13.408   4.420  1.00  0.00    -0.507 OA
ATOM     25  H   UNL     1      39.022 -13.437   4.195  1.00  0.00     0.293 HD
ENDBRANCH   6  24
BRANCH   8  26
ATOM     26  O   UNL     1      36.772  -9.099   2.720  1.00  0.00    -0.508 OA
ATOM     27  H   UNL     1      37.710  -8.761   2.532  1.00  0.00     0.293 HD
ENDBRANCH   8  26
TORSDOF 6
ENDMDL
MODEL 9
REMARK VINA RESULT:    -7.191      6.363      9.466
REMARK INTER + INTRA:          -8.612
REMARK INTER:                  -8.344
REMARK INTRA:                  -0.268
REMARK UNBOUND:                 0.051
REMARK SMILES O=c1c(O)c(-c2ccc(O)c(O)c2)oc2cc(O)cc(O)c12
REMARK SMILES IDX 5 1 3 2 2 3 1 4 22 5 20 6 19 7 17 8 16 9 15 10 14 11 6 12
REMARK SMILES IDX 7 13 8 14 9 15 13 16 11 17 10 18 12 20 4 22 21 24 18 26
REMARK H PARENT 10 19 12 21 4 23 21 25 18 27
REMARK Flexibility Score: inf
ROOT
ATOM      1  C   UNL     1      34.602 -13.308   1.830  1.00  0.00     0.180 A 
ATOM      2  C   UNL     1      35.449 -13.810   0.827  1.00  0.00     0.208 A 
ATOM      3  C   UNL     1      36.824 -13.534   0.894  1.00  0.00     0.238 A 
ATOM      4  O   UNL     1      37.583 -14.032   0.023  1.00  0.00    -0.285 OA
ATOM      5  C   UNL     1      37.333 -12.745   1.954  1.00  0.00     0.111 A 
ATOM      6  C   UNL     1      38.702 -12.369   2.099  1.00  0.00     0.134 A 
ATOM      7  C   UNL     1      39.114 -11.697   3.257  1.00  0.00     0.093 A 
ATOM      8  C   UNL     1      38.195 -11.331   4.243  1.00  0.00     0.123 A 
ATOM      9  C   UNL     1      36.847 -11.641   4.082  1.00  0.00     0.094 A 
ATOM     10  C   UNL     1      36.412 -12.343   2.955  1.00  0.00     0.146 A 
ATOM     11  O   UNL     1      35.119 -12.627   2.847  1.00  0.00    -0.452 OA
ENDROOT
BRANCH   1  12
ATOM     12  C   UNL     1      33.140 -13.536   1.814  1.00  0.00     0.025 A 
ATOM     13  C   UNL     1      32.629 -14.780   2.217  1.00  0.00     0.016 A 
ATOM     14  C   UNL     1      31.251 -15.009   2.230  1.00  0.00     0.051 A 
ATOM     15  C   UNL     1      30.362 -13.998   1.856  1.00  0.00     0.157 A 
ATOM     16  C   UNL     1      32.243 -12.513   1.459  1.00  0.00     0.062 A 
ATOM     17  C   UNL     1      30.859 -12.741   1.473  1.00  0.00     0.158 A 
BRANCH  15  18
ATOM     18  O   UNL     1      28.992 -14.256   1.876  1.00  0.00    -0.504 OA
ATOM     19  H   UNL     1      28.509 -14.533   2.723  1.00  0.00     0.293 HD
ENDBRANCH  15  18
BRANCH  17  20
ATOM     20  O   UNL     1      29.977 -11.722   1.112  1.00  0.00    -0.504 OA
ATOM     21  H   UNL     1      30.083 -10.778   1.467  1.00  0.00     0.293 HD
ENDBRANCH  17  20
ENDBRANCH   1  12
BRANCH   2  22
ATOM     22  O   UNL     1      34.929 -14.605  -0.199  1.00  0.00    -0.502 OA
ATOM     23  H   UNL     1      35.066 -14.388  -1.178  1.00  0.00     0.293 HD
ENDBRANCH   2  22
BRANCH   6  24
ATOM     24  O   UNL     1      39.684 -12.606   1.132  1.00  0.00    -0.507 OA
ATOM     25  H   UNL     1      40.183 -13.476   1.021  1.00  0.00     0.293 HD
ENDBRANCH   6  24
BRANCH   8  26
ATOM     26  O   UNL     1      38.612 -10.648   5.384  1.00  0.00    -0.508 OA
ATOM     27  H   UNL     1      38.158  -9.794   5.685  1.00  0.00     0.293 HD
ENDBRANCH   8  26
TORSDOF 6
ENDMDL
