MODEL 1
REMARK VINA RESULT:    -6.395      0.000      0.000
REMARK INTER + INTRA:         -18.470
REMARK INTER:                 -16.115
REMARK INTRA:                  -2.355
REMARK UNBOUND:                -2.355
REMARK SMILES CCCCCCCCCCCCCCCCCCCCCCCCCCCC(=O)[O-]
REMARK SMILES IDX 15 1 16 2 17 3 18 4 19 5 20 6 21 7 22 8 23 9 24 10 25 11
REMARK SMILES IDX 26 12 27 13 28 14 29 15 30 16 14 17 13 18 12 19 11 20 10 21
REMARK SMILES IDX 9 22 8 23 7 24 6 25 5 26 4 27 3 28 2 29 1 30
REMARK H PARENT
REMARK Flexibility Score: inf
ROOT
ATOM      1  C   UNL     1     -21.954 -21.637  31.156  1.00  0.00     0.000 C 
ENDROOT
BRANCH   1   2
ATOM      2  C   UNL     1     -22.933 -22.779  31.488  1.00  0.00     0.000 C 
BRANCH   2   3
ATOM      3  C   UNL     1     -22.566 -24.158  30.902  1.00  0.00     0.000 C 
BRANCH   3   4
ATOM      4  C   UNL     1     -21.984 -24.137  29.477  1.00  0.00     0.000 C 
BRANCH   4   5
ATOM      5  C   UNL     1     -23.014 -24.523  28.403  1.00  0.00     0.000 C 
BRANCH   5   6
ATOM      6  C   UNL     1     -23.747 -25.836  28.732  1.00  0.00     0.000 C 
BRANCH   6   7
ATOM      7  C   UNL     1     -25.163 -25.659  29.320  1.00  0.00     0.000 C 
BRANCH   7   8
ATOM      8  C   UNL     1     -25.372 -26.254  30.728  1.00  0.00     0.000 C 
BRANCH   8   9
ATOM      9  C   UNL     1     -25.171 -27.777  30.836  1.00  0.00     0.000 C 
BRANCH   9  10
ATOM     10  C   UNL     1     -26.469 -28.568  30.599  1.00  0.00     0.000 C 
BRANCH  10  11
ATOM     11  C   UNL     1     -26.425 -29.423  29.319  1.00  0.00     0.000 C 
BRANCH  11  12
ATOM     12  C   UNL     1     -27.099 -28.791  28.083  1.00  0.00     0.006 C 
BRANCH  12  13
ATOM     13  C   UNL     1     -26.124 -28.369  26.972  1.00  0.00     0.053 C 
BRANCH  13  14
ATOM     14  C   UNL     1     -26.662 -28.673  25.607  1.00  0.00     0.041 C 
ATOM     15  O   UNL     1     -27.884 -28.502  25.356  1.00  0.00    -0.550 OA
ATOM     16  O   UNL     1     -25.808 -29.114  24.604  1.00  0.00    -0.550 OA
ENDBRANCH  13  14
ENDBRANCH  12  13
ENDBRANCH  11  12
ENDBRANCH  10  11
ENDBRANCH   9  10
ENDBRANCH   8   9
ENDBRANCH   7   8
ENDBRANCH   6   7
ENDBRANCH   5   6
ENDBRANCH   4   5
ENDBRANCH   3   4
ENDBRANCH   2   3
ENDBRANCH   1   2
BRANCH   1  17
ATOM     17  C   UNL     1     -22.513 -20.649  30.119  1.00  0.00     0.000 C 
BRANCH  17  18
ATOM     18  C   UNL     1     -21.712 -20.647  28.803  1.00  0.00     0.000 C 
BRANCH  18  19
ATOM     19  C   UNL     1     -21.082 -19.296  28.417  1.00  0.00     0.000 C 
BRANCH  19  20
ATOM     20  C   UNL     1     -20.774 -18.410  29.636  1.00  0.00     0.000 C 
BRANCH  20  21
ATOM     21  C   UNL     1     -19.394 -18.701  30.252  1.00  0.00     0.000 C 
BRANCH  21  22
ATOM     22  C   UNL     1     -18.987 -17.774  31.413  1.00  0.00    -0.000 C 
BRANCH  22  23
ATOM     23  C   UNL     1     -17.832 -16.808  31.071  1.00  0.00    -0.000 C 
BRANCH  23  24
ATOM     24  C   UNL     1     -18.329 -15.543  30.347  1.00  0.00    -0.000 C 
BRANCH  24  25
ATOM     25  C   UNL     1     -17.593 -15.287  29.021  1.00  0.00    -0.000 C 
BRANCH  25  26
ATOM     26  C   UNL     1     -18.076 -16.212  27.891  1.00  0.00    -0.000 C 
BRANCH  26  27
ATOM     27  C   UNL     1     -17.116 -16.230  26.690  1.00  0.00    -0.000 C 
BRANCH  27  28
ATOM     28  C   UNL     1     -17.380 -15.084  25.702  1.00  0.00    -0.000 C 
BRANCH  28  29
ATOM     29  C   UNL     1     -16.787 -15.400  24.325  1.00  0.00    -0.003 C 
ATOM     30  C   UNL     1     -15.779 -16.544  24.406  1.00  0.00     0.004 C 
ENDBRANCH  28  29
ENDBRANCH  27  28
ENDBRANCH  26  27
ENDBRANCH  25  26
ENDBRANCH  24  25
ENDBRANCH  23  24
ENDBRANCH  22  23
ENDBRANCH  21  22
ENDBRANCH  20  21
ENDBRANCH  19  20
ENDBRANCH  18  19
ENDBRANCH  17  18
ENDBRANCH   1  17
TORSDOF 26
ENDMDL
MODEL 2
REMARK VINA RESULT:    -6.388      4.403     12.425
REMARK INTER + INTRA:         -18.454
REMARK INTER:                 -16.159
REMARK INTRA:                  -2.295
REMARK UNBOUND:                -2.355
REMARK SMILES CCCCCCCCCCCCCCCCCCCCCCCCCCCC(=O)[O-]
REMARK SMILES IDX 15 1 16 2 17 3 18 4 19 5 20 6 21 7 22 8 23 9 24 10 25 11
REMARK SMILES IDX 26 12 27 13 28 14 29 15 30 16 14 17 13 18 12 19 11 20 10 21
REMARK SMILES IDX 9 22 8 23 7 24 6 25 5 26 4 27 3 28 2 29 1 30
REMARK H PARENT
REMARK Flexibility Score: inf
ROOT
ATOM      1  C   UNL     1     -21.712 -23.312  28.746  1.00  0.00     0.000 C 
ENDROOT
BRANCH   1   2
ATOM      2  C   UNL     1     -22.024 -21.860  28.336  1.00  0.00     0.000 C 
BRANCH   2   3
ATOM      3  C   UNL     1     -22.306 -20.889  29.500  1.00  0.00     0.000 C 
BRANCH   3   4
ATOM      4  C   UNL     1     -21.994 -21.433  30.906  1.00  0.00     0.000 C 
BRANCH   4   5
ATOM      5  C   UNL     1     -21.025 -20.535  31.695  1.00  0.00     0.000 C 
BRANCH   5   6
ATOM      6  C   UNL     1     -21.137 -19.053  31.297  1.00  0.00     0.000 C 
BRANCH   6   7
ATOM      7  C   UNL     1     -19.841 -18.233  31.473  1.00  0.00     0.000 C 
BRANCH   7   8
ATOM      8  C   UNL     1     -18.684 -18.617  30.527  1.00  0.00     0.000 C 
BRANCH   8   9
ATOM      9  C   UNL     1     -18.955 -18.388  29.029  1.00  0.00     0.000 C 
BRANCH   9  10
ATOM     10  C   UNL     1     -19.251 -16.916  28.694  1.00  0.00     0.000 C 
BRANCH  10  11
ATOM     11  C   UNL     1     -18.068 -15.981  29.002  1.00  0.00     0.000 C 
BRANCH  11  12
ATOM     12  C   UNL     1     -17.425 -15.306  27.773  1.00  0.00     0.006 C 
BRANCH  12  13
ATOM     13  C   UNL     1     -17.446 -16.158  26.494  1.00  0.00     0.053 C 
BRANCH  13  14
ATOM     14  C   UNL     1     -17.402 -15.315  25.257  1.00  0.00     0.041 C 
ATOM     15  O   UNL     1     -16.320 -14.785  24.890  1.00  0.00    -0.550 OA
ATOM     16  O   UNL     1     -18.548 -15.140  24.491  1.00  0.00    -0.550 OA
ENDBRANCH  13  14
ENDBRANCH  12  13
ENDBRANCH  11  12
ENDBRANCH  10  11
ENDBRANCH   9  10
ENDBRANCH   8   9
ENDBRANCH   7   8
ENDBRANCH   6   7
ENDBRANCH   5   6
ENDBRANCH   4   5
ENDBRANCH   3   4
ENDBRANCH   2   3
ENDBRANCH   1   2
BRANCH   1  17
ATOM     17  C   UNL     1     -22.658 -24.336  28.098  1.00  0.00     0.000 C 
BRANCH  17  18
ATOM     18  C   UNL     1     -23.527 -25.083  29.128  1.00  0.00     0.000 C 
BRANCH  18  19
ATOM     19  C   UNL     1     -23.238 -24.747  30.602  1.00  0.00     0.000 C 
BRANCH  19  20
ATOM     20  C   UNL     1     -23.978 -25.674  31.582  1.00  0.00     0.000 C 
BRANCH  20  21
ATOM     21  C   UNL     1     -25.508 -25.597  31.436  1.00  0.00     0.000 C 
BRANCH  21  22
ATOM     22  C   UNL     1     -26.235 -26.956  31.441  1.00  0.00    -0.000 C 
BRANCH  22  23
ATOM     23  C   UNL     1     -25.495 -28.067  30.665  1.00  0.00    -0.000 C 
BRANCH  23  24
ATOM     24  C   UNL     1     -26.448 -29.182  30.198  1.00  0.00    -0.000 C 
BRANCH  24  25
ATOM     25  C   UNL     1     -26.859 -29.036  28.724  1.00  0.00    -0.000 C 
BRANCH  25  26
ATOM     26  C   UNL     1     -25.965 -28.047  27.957  1.00  0.00    -0.000 C 
BRANCH  26  27
ATOM     27  C   UNL     1     -26.262 -28.028  26.448  1.00  0.00    -0.000 C 
BRANCH  27  28
ATOM     28  C   UNL     1     -27.496 -28.862  26.075  1.00  0.00    -0.000 C 
BRANCH  28  29
ATOM     29  C   UNL     1     -27.631 -28.992  24.554  1.00  0.00    -0.003 C 
ATOM     30  C   UNL     1     -28.688 -28.034  24.010  1.00  0.00     0.004 C 
ENDBRANCH  28  29
ENDBRANCH  27  28
ENDBRANCH  26  27
ENDBRANCH  25  26
ENDBRANCH  24  25
ENDBRANCH  23  24
ENDBRANCH  22  23
ENDBRANCH  21  22
ENDBRANCH  20  21
ENDBRANCH  19  20
ENDBRANCH  18  19
ENDBRANCH  17  18
ENDBRANCH   1  17
TORSDOF 26
ENDMDL
MODEL 3
REMARK VINA RESULT:    -6.302      1.220      2.037
REMARK INTER + INTRA:         -18.236
REMARK INTER:                 -16.021
REMARK INTRA:                  -2.215
REMARK UNBOUND:                -2.355
REMARK SMILES CCCCCCCCCCCCCCCCCCCCCCCCCCCC(=O)[O-]
REMARK SMILES IDX 15 1 16 2 17 3 18 4 19 5 20 6 21 7 22 8 23 9 24 10 25 11
REMARK SMILES IDX 26 12 27 13 28 14 29 15 30 16 14 17 13 18 12 19 11 20 10 21
REMARK SMILES IDX 9 22 8 23 7 24 6 25 5 26 4 27 3 28 2 29 1 30
REMARK H PARENT
REMARK Flexibility Score: inf
ROOT
ATOM      1  C   UNL     1     -22.043 -21.780  28.559  1.00  0.00     0.000 C 
ENDROOT
BRANCH   1   2
ATOM      2  C   UNL     1     -21.801 -23.276  28.835  1.00  0.00     0.000 C 
BRANCH   2   3
ATOM      3  C   UNL     1     -22.810 -24.242  28.179  1.00  0.00     0.000 C 
BRANCH   3   4
ATOM      4  C   UNL     1     -23.299 -25.394  29.075  1.00  0.00     0.000 C 
BRANCH   4   5
ATOM      5  C   UNL     1     -23.032 -25.148  30.569  1.00  0.00     0.000 C 
BRANCH   5   6
ATOM      6  C   UNL     1     -24.328 -24.972  31.380  1.00  0.00     0.000 C 
BRANCH   6   7
ATOM      7  C   UNL     1     -25.543 -25.758  30.842  1.00  0.00     0.000 C 
BRANCH   7   8
ATOM      8  C   UNL     1     -25.620 -27.234  31.282  1.00  0.00     0.000 C 
BRANCH   8   9
ATOM      9  C   UNL     1     -26.063 -28.225  30.190  1.00  0.00     0.000 C 
BRANCH   9  10
ATOM     10  C   UNL     1     -25.875 -27.668  28.768  1.00  0.00     0.000 C 
BRANCH  10  11
ATOM     11  C   UNL     1     -26.655 -28.463  27.705  1.00  0.00     0.000 C 
BRANCH  11  12
ATOM     12  C   UNL     1     -26.405 -28.030  26.245  1.00  0.00     0.006 C 
BRANCH  12  13
ATOM     13  C   UNL     1     -26.831 -29.064  25.191  1.00  0.00     0.053 C 
BRANCH  13  14
ATOM     14  C   UNL     1     -28.253 -28.876  24.762  1.00  0.00     0.041 C 
ATOM     15  O   UNL     1     -29.178 -29.504  25.343  1.00  0.00    -0.550 OA
ATOM     16  O   UNL     1     -28.563 -27.984  23.743  1.00  0.00    -0.550 OA
ENDBRANCH  13  14
ENDBRANCH  12  13
ENDBRANCH  11  12
ENDBRANCH  10  11
ENDBRANCH   9  10
ENDBRANCH   8   9
ENDBRANCH   7   8
ENDBRANCH   6   7
ENDBRANCH   5   6
ENDBRANCH   4   5
ENDBRANCH   3   4
ENDBRANCH   2   3
ENDBRANCH   1   2
BRANCH   1  17
ATOM     17  C   UNL     1     -22.667 -21.041  29.754  1.00  0.00     0.000 C 
BRANCH  17  18
ATOM     18  C   UNL     1     -22.299 -21.677  31.108  1.00  0.00     0.000 C 
BRANCH  18  19
ATOM     19  C   UNL     1     -21.022 -21.126  31.770  1.00  0.00     0.000 C 
BRANCH  19  20
ATOM     20  C   UNL     1     -20.870 -19.605  31.602  1.00  0.00     0.000 C 
BRANCH  20  21
ATOM     21  C   UNL     1     -19.464 -19.194  31.132  1.00  0.00     0.000 C 
BRANCH  21  22
ATOM     22  C   UNL     1     -19.086 -17.725  31.404  1.00  0.00    -0.000 C 
BRANCH  22  23
ATOM     23  C   UNL     1     -19.666 -16.727  30.379  1.00  0.00    -0.000 C 
BRANCH  23  24
ATOM     24  C   UNL     1     -19.888 -17.374  29.000  1.00  0.00    -0.000 C 
BRANCH  24  25
ATOM     25  C   UNL     1     -18.704 -17.160  28.043  1.00  0.00    -0.000 C 
BRANCH  25  26
ATOM     26  C   UNL     1     -17.840 -15.949  28.435  1.00  0.00    -0.000 C 
BRANCH  26  27
ATOM     27  C   UNL     1     -17.085 -15.347  27.238  1.00  0.00    -0.000 C 
BRANCH  27  28
ATOM     28  C   UNL     1     -17.830 -15.540  25.909  1.00  0.00    -0.000 C 
BRANCH  28  29
ATOM     29  C   UNL     1     -16.969 -15.082  24.727  1.00  0.00    -0.003 C 
ATOM     30  C   UNL     1     -15.871 -16.096  24.417  1.00  0.00     0.004 C 
ENDBRANCH  28  29
ENDBRANCH  27  28
ENDBRANCH  26  27
ENDBRANCH  25  26
ENDBRANCH  24  25
ENDBRANCH  23  24
ENDBRANCH  22  23
ENDBRANCH  21  22
ENDBRANCH  20  21
ENDBRANCH  19  20
ENDBRANCH  18  19
ENDBRANCH  17  18
ENDBRANCH   1  17
TORSDOF 26
ENDMDL
MODEL 4
REMARK VINA RESULT:    -6.211      4.388     12.157
REMARK INTER + INTRA:         -18.005
REMARK INTER:                 -16.483
REMARK INTRA:                  -1.523
REMARK UNBOUND:                -2.355
REMARK SMILES CCCCCCCCCCCCCCCCCCCCCCCCCCCC(=O)[O-]
REMARK SMILES IDX 15 1 16 2 17 3 18 4 19 5 20 6 21 7 22 8 23 9 24 10 25 11
REMARK SMILES IDX 26 12 27 13 28 14 29 15 30 16 14 17 13 18 12 19 11 20 10 21
REMARK SMILES IDX 9 22 8 23 7 24 6 25 5 26 4 27 3 28 2 29 1 30
REMARK H PARENT
REMARK Flexibility Score: inf
ROOT
ATOM      1  C   UNL     1     -22.106 -23.446  29.018  1.00  0.00     0.000 C 
ENDROOT
BRANCH   1   2
ATOM      2  C   UNL     1     -22.340 -22.238  28.093  1.00  0.00     0.000 C 
BRANCH   2   3
ATOM      3  C   UNL     1     -22.381 -20.864  28.794  1.00  0.00     0.000 C 
BRANCH   3   4
ATOM      4  C   UNL     1     -21.444 -19.794  28.206  1.00  0.00     0.000 C 
BRANCH   4   5
ATOM      5  C   UNL     1     -20.859 -18.855  29.275  1.00  0.00     0.000 C 
BRANCH   5   6
ATOM      6  C   UNL     1     -21.132 -19.349  30.707  1.00  0.00     0.000 C 
BRANCH   6   7
ATOM      7  C   UNL     1     -20.037 -18.997  31.736  1.00  0.00     0.000 C 
BRANCH   7   8
ATOM      8  C   UNL     1     -18.773 -18.333  31.152  1.00  0.00     0.000 C 
BRANCH   8   9
ATOM      9  C   UNL     1     -18.785 -16.793  31.134  1.00  0.00     0.000 C 
BRANCH   9  10
ATOM     10  C   UNL     1     -18.019 -16.205  29.937  1.00  0.00     0.000 C 
BRANCH  10  11
ATOM     11  C   UNL     1     -18.327 -16.928  28.613  1.00  0.00     0.000 C 
BRANCH  11  12
ATOM     12  C   UNL     1     -18.395 -16.019  27.368  1.00  0.00     0.006 C 
BRANCH  12  13
ATOM     13  C   UNL     1     -17.042 -15.774  26.683  1.00  0.00     0.053 C 
BRANCH  13  14
ATOM     14  C   UNL     1     -17.205 -15.267  25.283  1.00  0.00     0.041 C 
ATOM     15  O   UNL     1     -16.198 -14.901  24.620  1.00  0.00    -0.550 OA
ATOM     16  O   UNL     1     -18.464 -15.229  24.697  1.00  0.00    -0.550 OA
ENDBRANCH  13  14
ENDBRANCH  12  13
ENDBRANCH  11  12
ENDBRANCH  10  11
ENDBRANCH   9  10
ENDBRANCH   8   9
ENDBRANCH   7   8
ENDBRANCH   6   7
ENDBRANCH   5   6
ENDBRANCH   4   5
ENDBRANCH   3   4
ENDBRANCH   2   3
ENDBRANCH   1   2
BRANCH   1  17
ATOM     17  C   UNL     1     -21.539 -23.050  30.392  1.00  0.00     0.000 C 
BRANCH  17  18
ATOM     18  C   UNL     1     -22.628 -22.584  31.376  1.00  0.00     0.000 C 
BRANCH  18  19
ATOM     19  C   UNL     1     -23.655 -23.657  31.781  1.00  0.00     0.000 C 
BRANCH  19  20
ATOM     20  C   UNL     1     -23.127 -25.090  31.594  1.00  0.00     0.000 C 
BRANCH  20  21
ATOM     21  C   UNL     1     -24.227 -26.156  31.743  1.00  0.00     0.000 C 
BRANCH  21  22
ATOM     22  C   UNL     1     -25.518 -25.878  30.950  1.00  0.00    -0.000 C 
BRANCH  22  23
ATOM     23  C   UNL     1     -25.287 -25.602  29.449  1.00  0.00    -0.000 C 
BRANCH  23  24
ATOM     24  C   UNL     1     -24.579 -26.774  28.745  1.00  0.00    -0.000 C 
BRANCH  24  25
ATOM     25  C   UNL     1     -25.440 -27.414  27.643  1.00  0.00    -0.000 C 
BRANCH  25  26
ATOM     26  C   UNL     1     -26.502 -28.373  28.208  1.00  0.00    -0.000 C 
BRANCH  26  27
ATOM     27  C   UNL     1     -27.315 -29.071  27.105  1.00  0.00    -0.000 C 
BRANCH  27  28
ATOM     28  C   UNL     1     -26.822 -28.723  25.693  1.00  0.00    -0.000 C 
BRANCH  28  29
ATOM     29  C   UNL     1     -27.867 -29.102  24.638  1.00  0.00    -0.003 C 
ATOM     30  C   UNL     1     -28.542 -27.862  24.059  1.00  0.00     0.004 C 
ENDBRANCH  28  29
ENDBRANCH  27  28
ENDBRANCH  26  27
ENDBRANCH  25  26
ENDBRANCH  24  25
ENDBRANCH  23  24
ENDBRANCH  22  23
ENDBRANCH  21  22
ENDBRANCH  20  21
ENDBRANCH  19  20
ENDBRANCH  18  19
ENDBRANCH  17  18
ENDBRANCH   1  17
TORSDOF 26
ENDMDL
MODEL 5
REMARK VINA RESULT:    -5.937      4.451     12.373
REMARK INTER + INTRA:         -17.317
REMARK INTER:                 -15.346
REMARK INTRA:                  -1.971
REMARK UNBOUND:                -2.355
REMARK SMILES CCCCCCCCCCCCCCCCCCCCCCCCCCCC(=O)[O-]
REMARK SMILES IDX 15 1 16 2 17 3 18 4 19 5 20 6 21 7 22 8 23 9 24 10 25 11
REMARK SMILES IDX 26 12 27 13 28 14 29 15 30 16 14 17 13 18 12 19 11 20 10 21
REMARK SMILES IDX 9 22 8 23 7 24 6 25 5 26 4 27 3 28 2 29 1 30
REMARK H PARENT
REMARK Flexibility Score: inf
ROOT
ATOM      1  C   UNL     1     -22.505 -22.095  32.214  1.00  0.00     0.000 C 
ENDROOT
BRANCH   1   2
ATOM      2  C   UNL     1     -21.056 -21.604  32.032  1.00  0.00     0.000 C 
BRANCH   2   3
ATOM      3  C   UNL     1     -20.903 -20.229  31.349  1.00  0.00     0.000 C 
BRANCH   3   4
ATOM      4  C   UNL     1     -21.892 -19.946  30.205  1.00  0.00     0.000 C 
BRANCH   4   5
ATOM      5  C   UNL     1     -21.198 -19.752  28.846  1.00  0.00     0.000 C 
BRANCH   5   6
ATOM      6  C   UNL     1     -20.683 -18.315  28.645  1.00  0.00     0.000 C 
BRANCH   6   7
ATOM      7  C   UNL     1     -19.292 -18.034  29.251  1.00  0.00     0.000 C 
BRANCH   7   8
ATOM      8  C   UNL     1     -19.261 -16.969  30.367  1.00  0.00     0.000 C 
BRANCH   8   9
ATOM      9  C   UNL     1     -18.012 -16.069  30.384  1.00  0.00     0.000 C 
BRANCH   9  10
ATOM     10  C   UNL     1     -18.005 -15.036  29.245  1.00  0.00     0.000 C 
BRANCH  10  11
ATOM     11  C   UNL     1     -17.139 -15.468  28.048  1.00  0.00     0.000 C 
BRANCH  11  12
ATOM     12  C   UNL     1     -17.919 -16.029  26.841  1.00  0.00     0.006 C 
BRANCH  12  13
ATOM     13  C   UNL     1     -17.677 -15.280  25.521  1.00  0.00     0.053 C 
BRANCH  13  14
ATOM     14  C   UNL     1     -16.311 -15.547  24.966  1.00  0.00     0.041 C 
ATOM     15  O   UNL     1     -16.065 -16.639  24.388  1.00  0.00    -0.550 OA
ATOM     16  O   UNL     1     -15.319 -14.579  25.059  1.00  0.00    -0.550 OA
ENDBRANCH  13  14
ENDBRANCH  12  13
ENDBRANCH  11  12
ENDBRANCH  10  11
ENDBRANCH   9  10
ENDBRANCH   8   9
ENDBRANCH   7   8
ENDBRANCH   6   7
ENDBRANCH   5   6
ENDBRANCH   4   5
ENDBRANCH   3   4
ENDBRANCH   2   3
ENDBRANCH   1   2
BRANCH   1  17
ATOM     17  C   UNL     1     -22.836 -23.323  31.350  1.00  0.00     0.000 C 
BRANCH  17  18
ATOM     18  C   UNL     1     -21.642 -23.794  30.497  1.00  0.00     0.000 C 
BRANCH  18  19
ATOM     19  C   UNL     1     -21.750 -23.496  28.991  1.00  0.00     0.000 C 
BRANCH  19  20
ATOM     20  C   UNL     1     -22.992 -24.130  28.343  1.00  0.00     0.000 C 
BRANCH  20  21
ATOM     21  C   UNL     1     -23.496 -25.368  29.105  1.00  0.00     0.000 C 
BRANCH  21  22
ATOM     22  C   UNL     1     -25.028 -25.522  29.164  1.00  0.00    -0.000 C 
BRANCH  22  23
ATOM     23  C   UNL     1     -25.579 -25.789  30.581  1.00  0.00    -0.000 C 
BRANCH  23  24
ATOM     24  C   UNL     1     -25.242 -27.207  31.078  1.00  0.00    -0.000 C 
BRANCH  24  25
ATOM     25  C   UNL     1     -25.238 -28.249  29.948  1.00  0.00    -0.000 C 
BRANCH  25  26
ATOM     26  C   UNL     1     -26.467 -29.174  29.994  1.00  0.00    -0.000 C 
BRANCH  26  27
ATOM     27  C   UNL     1     -27.128 -29.350  28.617  1.00  0.00    -0.000 C 
BRANCH  27  28
ATOM     28  C   UNL     1     -26.878 -28.157  27.682  1.00  0.00    -0.000 C 
BRANCH  28  29
ATOM     29  C   UNL     1     -26.338 -28.626  26.326  1.00  0.00    -0.003 C 
ATOM     30  C   UNL     1     -27.461 -28.761  25.301  1.00  0.00     0.004 C 
ENDBRANCH  28  29
ENDBRANCH  27  28
ENDBRANCH  26  27
ENDBRANCH  25  26
ENDBRANCH  24  25
ENDBRANCH  23  24
ENDBRANCH  22  23
ENDBRANCH  21  22
ENDBRANCH  20  21
ENDBRANCH  19  20
ENDBRANCH  18  19
ENDBRANCH  17  18
ENDBRANCH   1  17
TORSDOF 26
ENDMDL
MODEL 6
REMARK VINA RESULT:    -5.891      1.198      1.838
REMARK INTER + INTRA:         -17.201
REMARK INTER:                 -15.511
REMARK INTRA:                  -1.690
REMARK UNBOUND:                -2.355
REMARK SMILES CCCCCCCCCCCCCCCCCCCCCCCCCCCC(=O)[O-]
REMARK SMILES IDX 15 1 16 2 17 3 18 4 19 5 20 6 21 7 22 8 23 9 24 10 25 11
REMARK SMILES IDX 26 12 27 13 28 14 29 15 30 16 14 17 13 18 12 19 11 20 10 21
REMARK SMILES IDX 9 22 8 23 7 24 6 25 5 26 4 27 3 28 2 29 1 30
REMARK H PARENT
REMARK Flexibility Score: inf
ROOT
ATOM      1  C   UNL     1     -22.008 -23.200  29.420  1.00  0.00     0.000 C 
ENDROOT
BRANCH   1   2
ATOM      2  C   UNL     1     -21.584 -22.525  30.738  1.00  0.00     0.000 C 
BRANCH   2   3
ATOM      3  C   UNL     1     -22.660 -22.494  31.843  1.00  0.00     0.000 C 
BRANCH   3   4
ATOM      4  C   UNL     1     -23.729 -23.599  31.756  1.00  0.00     0.000 C 
BRANCH   4   5
ATOM      5  C   UNL     1     -23.128 -25.001  31.563  1.00  0.00     0.000 C 
BRANCH   5   6
ATOM      6  C   UNL     1     -24.193 -26.111  31.604  1.00  0.00     0.000 C 
BRANCH   6   7
ATOM      7  C   UNL     1     -25.555 -25.728  30.989  1.00  0.00     0.000 C 
BRANCH   7   8
ATOM      8  C   UNL     1     -25.613 -25.750  29.448  1.00  0.00     0.000 C 
BRANCH   8   9
ATOM      9  C   UNL     1     -24.464 -26.506  28.756  1.00  0.00     0.000 C 
BRANCH   9  10
ATOM     10  C   UNL     1     -24.961 -27.630  27.831  1.00  0.00     0.000 C 
BRANCH  10  11
ATOM     11  C   UNL     1     -26.211 -28.345  28.374  1.00  0.00     0.000 C 
BRANCH  11  12
ATOM     12  C   UNL     1     -27.228 -28.795  27.304  1.00  0.00     0.006 C 
BRANCH  12  13
ATOM     13  C   UNL     1     -26.771 -28.569  25.855  1.00  0.00     0.053 C 
BRANCH  13  14
ATOM     14  C   UNL     1     -27.910 -28.660  24.886  1.00  0.00     0.041 C 
ATOM     15  O   UNL     1     -28.339 -27.623  24.315  1.00  0.00    -0.550 OA
ATOM     16  O   UNL     1     -28.477 -29.893  24.589  1.00  0.00    -0.550 OA
ENDBRANCH  13  14
ENDBRANCH  12  13
ENDBRANCH  11  12
ENDBRANCH  10  11
ENDBRANCH   9  10
ENDBRANCH   8   9
ENDBRANCH   7   8
ENDBRANCH   6   7
ENDBRANCH   5   6
ENDBRANCH   4   5
ENDBRANCH   3   4
ENDBRANCH   2   3
ENDBRANCH   1   2
BRANCH   1  17
ATOM     17  C   UNL     1     -22.246 -22.195  28.280  1.00  0.00     0.000 C 
BRANCH  17  18
ATOM     18  C   UNL     1     -22.396 -20.747  28.781  1.00  0.00     0.000 C 
BRANCH  18  19
ATOM     19  C   UNL     1     -21.432 -19.726  28.149  1.00  0.00     0.000 C 
BRANCH  19  20
ATOM     20  C   UNL     1     -20.879 -18.716  29.168  1.00  0.00     0.000 C 
BRANCH  20  21
ATOM     21  C   UNL     1     -21.029 -19.193  30.623  1.00  0.00     0.000 C 
BRANCH  21  22
ATOM     22  C   UNL     1     -20.010 -18.598  31.616  1.00  0.00    -0.000 C 
BRANCH  22  23
ATOM     23  C   UNL     1     -18.638 -18.273  30.988  1.00  0.00    -0.000 C 
BRANCH  23  24
ATOM     24  C   UNL     1     -18.239 -16.801  31.196  1.00  0.00    -0.000 C 
BRANCH  24  25
ATOM     25  C   UNL     1     -18.566 -15.917  29.982  1.00  0.00    -0.000 C 
BRANCH  25  26
ATOM     26  C   UNL     1     -18.217 -16.597  28.647  1.00  0.00    -0.000 C 
BRANCH  26  27
ATOM     27  C   UNL     1     -17.429 -15.675  27.701  1.00  0.00    -0.000 C 
BRANCH  27  28
ATOM     28  C   UNL     1     -17.769 -15.909  26.222  1.00  0.00    -0.000 C 
BRANCH  28  29
ATOM     29  C   UNL     1     -16.898 -15.036  25.313  1.00  0.00    -0.003 C 
ATOM     30  C   UNL     1     -16.017 -15.890  24.406  1.00  0.00     0.004 C 
ENDBRANCH  28  29
ENDBRANCH  27  28
ENDBRANCH  26  27
ENDBRANCH  25  26
ENDBRANCH  24  25
ENDBRANCH  23  24
ENDBRANCH  22  23
ENDBRANCH  21  22
ENDBRANCH  20  21
ENDBRANCH  19  20
ENDBRANCH  18  19
ENDBRANCH  17  18
ENDBRANCH   1  17
TORSDOF 26
ENDMDL
MODEL 7
REMARK VINA RESULT:    -4.969      4.397     11.710
REMARK INTER + INTRA:         -14.877
REMARK INTER:                 -13.230
REMARK INTRA:                  -1.647
REMARK UNBOUND:                -2.355
REMARK SMILES CCCCCCCCCCCCCCCCCCCCCCCCCCCC(=O)[O-]
REMARK SMILES IDX 15 1 16 2 17 3 18 4 19 5 20 6 21 7 22 8 23 9 24 10 25 11
REMARK SMILES IDX 26 12 27 13 28 14 29 15 30 16 14 17 13 18 12 19 11 20 10 21
REMARK SMILES IDX 9 22 8 23 7 24 6 25 5 26 4 27 3 28 2 29 1 30
REMARK H PARENT
REMARK Flexibility Score: inf
ROOT
ATOM      1  C   UNL     1     -23.122 -24.069  28.436  1.00  0.00     0.000 C 
ENDROOT
BRANCH   1   2
ATOM      2  C   UNL     1     -21.944 -23.106  28.671  1.00  0.00     0.000 C 
BRANCH   2   3
ATOM      3  C   UNL     1     -22.014 -21.772  27.898  1.00  0.00     0.000 C 
BRANCH   3   4
ATOM      4  C   UNL     1     -22.212 -20.516  28.766  1.00  0.00     0.000 C 
BRANCH   4   5
ATOM      5  C   UNL     1     -20.995 -19.575  28.748  1.00  0.00     0.000 C 
BRANCH   5   6
ATOM      6  C   UNL     1     -20.884 -18.729  30.028  1.00  0.00     0.000 C 
BRANCH   6   7
ATOM      7  C   UNL     1     -19.785 -19.182  31.013  1.00  0.00     0.000 C 
BRANCH   7   8
ATOM      8  C   UNL     1     -18.814 -18.076  31.473  1.00  0.00     0.000 C 
BRANCH   8   9
ATOM      9  C   UNL     1     -19.223 -16.640  31.094  1.00  0.00     0.000 C 
BRANCH   9  10
ATOM     10  C   UNL     1     -18.227 -15.970  30.132  1.00  0.00     0.000 C 
BRANCH  10  11
ATOM     11  C   UNL     1     -18.355 -16.479  28.685  1.00  0.00     0.000 C 
BRANCH  11  12
ATOM     12  C   UNL     1     -17.575 -15.667  27.631  1.00  0.00     0.006 C 
BRANCH  12  13
ATOM     13  C   UNL     1     -17.425 -16.366  26.271  1.00  0.00     0.053 C 
BRANCH  13  14
ATOM     14  C   UNL     1     -17.316 -15.385  25.143  1.00  0.00     0.041 C 
ATOM     15  O   UNL     1     -18.343 -15.048  24.497  1.00  0.00    -0.550 OA
ATOM     16  O   UNL     1     -16.087 -14.820  24.827  1.00  0.00    -0.550 OA
ENDBRANCH  13  14
ENDBRANCH  12  13
ENDBRANCH  11  12
ENDBRANCH  10  11
ENDBRANCH   9  10
ENDBRANCH   8   9
ENDBRANCH   7   8
ENDBRANCH   6   7
ENDBRANCH   5   6
ENDBRANCH   4   5
ENDBRANCH   3   4
ENDBRANCH   2   3
ENDBRANCH   1   2
BRANCH   1  17
ATOM     17  C   UNL     1     -22.749 -25.543  28.665  1.00  0.00     0.000 C 
BRANCH  17  18
ATOM     18  C   UNL     1     -23.901 -26.510  28.334  1.00  0.00     0.000 C 
BRANCH  18  19
ATOM     19  C   UNL     1     -25.314 -25.907  28.420  1.00  0.00     0.000 C 
BRANCH  19  20
ATOM     20  C   UNL     1     -26.400 -26.845  27.865  1.00  0.00     0.000 C 
BRANCH  20  21
ATOM     21  C   UNL     1     -26.079 -28.332  28.098  1.00  0.00     0.000 C 
BRANCH  21  22
ATOM     22  C   UNL     1     -26.765 -28.965  29.324  1.00  0.00    -0.000 C 
BRANCH  22  23
ATOM     23  C   UNL     1     -25.987 -28.780  30.644  1.00  0.00    -0.000 C 
BRANCH  23  24
ATOM     24  C   UNL     1     -26.212 -27.388  31.261  1.00  0.00    -0.000 C 
BRANCH  24  25
ATOM     25  C   UNL     1     -24.904 -26.719  31.716  1.00  0.00    -0.000 C 
BRANCH  25  26
ATOM     26  C   UNL     1     -24.967 -25.184  31.632  1.00  0.00    -0.000 C 
BRANCH  26  27
ATOM     27  C   UNL     1     -23.575 -24.532  31.672  1.00  0.00    -0.000 C 
BRANCH  27  28
ATOM     28  C   UNL     1     -23.594 -23.127  32.293  1.00  0.00    -0.000 C 
BRANCH  28  29
ATOM     29  C   UNL     1     -22.664 -22.178  31.531  1.00  0.00    -0.003 C 
ATOM     30  C   UNL     1     -21.456 -21.788  32.379  1.00  0.00     0.004 C 
ENDBRANCH  28  29
ENDBRANCH  27  28
ENDBRANCH  26  27
ENDBRANCH  25  26
ENDBRANCH  24  25
ENDBRANCH  23  24
ENDBRANCH  22  23
ENDBRANCH  21  22
ENDBRANCH  20  21
ENDBRANCH  19  20
ENDBRANCH  18  19
ENDBRANCH  17  18
ENDBRANCH   1  17
TORSDOF 26
ENDMDL
MODEL 8
REMARK VINA RESULT:    -4.883      3.531      5.538
REMARK INTER + INTRA:         -14.660
REMARK INTER:                 -13.487
REMARK INTRA:                  -1.173
REMARK UNBOUND:                -2.355
REMARK SMILES CCCCCCCCCCCCCCCCCCCCCCCCCCCC(=O)[O-]
REMARK SMILES IDX 15 1 16 2 17 3 18 4 19 5 20 6 21 7 22 8 23 9 24 10 25 11
REMARK SMILES IDX 26 12 27 13 28 14 29 15 30 16 14 17 13 18 12 19 11 20 10 21
REMARK SMILES IDX 9 22 8 23 7 24 6 25 5 26 4 27 3 28 2 29 1 30
REMARK H PARENT
REMARK Flexibility Score: inf
ROOT
ATOM      1  C   UNL     1     -23.324 -25.699  29.092  1.00  0.00     0.000 C 
ENDROOT
BRANCH   1   2
ATOM      2  C   UNL     1     -24.766 -25.592  29.622  1.00  0.00     0.000 C 
BRANCH   2   3
ATOM      3  C   UNL     1     -25.815 -26.433  28.865  1.00  0.00     0.000 C 
BRANCH   3   4
ATOM      4  C   UNL     1     -25.807 -27.939  29.181  1.00  0.00     0.000 C 
BRANCH   4   5
ATOM      5  C   UNL     1     -26.768 -28.744  28.289  1.00  0.00     0.000 C 
BRANCH   5   6
ATOM      6  C   UNL     1     -27.025 -28.064  26.933  1.00  0.00     0.000 C 
BRANCH   6   7
ATOM      7  C   UNL     1     -26.621 -28.900  25.700  1.00  0.00     0.000 C 
BRANCH   7   8
ATOM      8  C   UNL     1     -27.739 -29.127  24.661  1.00  0.00     0.000 C 
BRANCH   8   9
ATOM      9  C   UNL     1     -28.422 -27.850  24.139  1.00  0.00     0.000 C 
BRANCH   9  10
ATOM     10  C   UNL     1     -29.454 -28.134  23.035  1.00  0.00     0.000 C 
BRANCH  10  11
ATOM     11  C   UNL     1     -29.185 -27.341  21.743  1.00  0.00     0.000 C 
BRANCH  11  12
ATOM     12  C   UNL     1     -30.309 -27.400  20.688  1.00  0.00     0.006 C 
BRANCH  12  13
ATOM     13  C   UNL     1     -30.055 -26.545  19.437  1.00  0.00     0.053 C 
BRANCH  13  14
ATOM     14  C   UNL     1     -30.804 -27.058  18.245  1.00  0.00     0.041 C 
ATOM     15  O   UNL     1     -31.144 -28.268  18.184  1.00  0.00    -0.550 OA
ATOM     16  O   UNL     1     -31.153 -26.192  17.216  1.00  0.00    -0.550 OA
ENDBRANCH  13  14
ENDBRANCH  12  13
ENDBRANCH  11  12
ENDBRANCH  10  11
ENDBRANCH   9  10
ENDBRANCH   8   9
ENDBRANCH   7   8
ENDBRANCH   6   7
ENDBRANCH   5   6
ENDBRANCH   4   5
ENDBRANCH   3   4
ENDBRANCH   2   3
ENDBRANCH   1   2
BRANCH   1  17
ATOM     17  C   UNL     1     -22.841 -24.414  28.400  1.00  0.00     0.000 C 
BRANCH  17  18
ATOM     18  C   UNL     1     -21.706 -23.711  29.169  1.00  0.00     0.000 C 
BRANCH  18  19
ATOM     19  C   UNL     1     -21.964 -23.490  30.670  1.00  0.00     0.000 C 
BRANCH  19  20
ATOM     20  C   UNL     1     -22.406 -22.053  30.996  1.00  0.00     0.000 C 
BRANCH  20  21
ATOM     21  C   UNL     1     -22.257 -21.098  29.799  1.00  0.00     0.000 C 
BRANCH  21  22
ATOM     22  C   UNL     1     -21.655 -19.719  30.132  1.00  0.00    -0.000 C 
BRANCH  22  23
ATOM     23  C   UNL     1     -20.681 -19.183  29.060  1.00  0.00    -0.000 C 
BRANCH  23  24
ATOM     24  C   UNL     1     -20.510 -17.656  29.144  1.00  0.00    -0.000 C 
BRANCH  24  25
ATOM     25  C   UNL     1     -19.419 -17.232  30.141  1.00  0.00    -0.000 C 
BRANCH  25  26
ATOM     26  C   UNL     1     -18.254 -16.492  29.460  1.00  0.00    -0.000 C 
BRANCH  26  27
ATOM     27  C   UNL     1     -18.292 -16.610  27.927  1.00  0.00    -0.000 C 
BRANCH  27  28
ATOM     28  C   UNL     1     -17.504 -15.495  27.225  1.00  0.00    -0.000 C 
BRANCH  28  29
ATOM     29  C   UNL     1     -17.727 -15.536  25.710  1.00  0.00    -0.003 C 
ATOM     30  C   UNL     1     -16.456 -15.158  24.954  1.00  0.00     0.004 C 
ENDBRANCH  28  29
ENDBRANCH  27  28
ENDBRANCH  26  27
ENDBRANCH  25  26
ENDBRANCH  24  25
ENDBRANCH  23  24
ENDBRANCH  22  23
ENDBRANCH  21  22
ENDBRANCH  20  21
ENDBRANCH  19  20
ENDBRANCH  18  19
ENDBRANCH  17  18
ENDBRANCH   1  17
TORSDOF 26
ENDMDL
MODEL 9
REMARK VINA RESULT:    -4.771      5.344     13.405
REMARK INTER + INTRA:         -14.377
REMARK INTER:                 -13.634
REMARK INTRA:                  -0.743
REMARK UNBOUND:                -2.355
REMARK SMILES CCCCCCCCCCCCCCCCCCCCCCCCCCCC(=O)[O-]
REMARK SMILES IDX 15 1 16 2 17 3 18 4 19 5 20 6 21 7 22 8 23 9 24 10 25 11
REMARK SMILES IDX 26 12 27 13 28 14 29 15 30 16 14 17 13 18 12 19 11 20 10 21
REMARK SMILES IDX 9 22 8 23 7 24 6 25 5 26 4 27 3 28 2 29 1 30
REMARK H PARENT
REMARK Flexibility Score: inf
ROOT
ATOM      1  C   UNL     1     -20.121 -18.792  31.171  1.00  0.00     0.000 C 
ENDROOT
BRANCH   1   2
ATOM      2  C   UNL     1     -20.194 -17.597  30.202  1.00  0.00     0.000 C 
BRANCH   2   3
ATOM      3  C   UNL     1     -19.801 -17.903  28.742  1.00  0.00     0.000 C 
BRANCH   3   4
ATOM      4  C   UNL     1     -18.374 -17.488  28.340  1.00  0.00     0.000 C 
BRANCH   4   5
ATOM      5  C   UNL     1     -18.220 -15.968  28.161  1.00  0.00     0.000 C 
BRANCH   5   6
ATOM      6  C   UNL     1     -17.097 -15.601  27.174  1.00  0.00     0.000 C 
BRANCH   6   7
ATOM      7  C   UNL     1     -17.519 -15.578  25.690  1.00  0.00     0.000 C 
BRANCH   7   8
ATOM      8  C   UNL     1     -16.386 -15.285  24.686  1.00  0.00     0.000 C 
BRANCH   8   9
ATOM      9  C   UNL     1     -15.859 -16.507  23.911  1.00  0.00     0.000 C 
BRANCH   9  10
ATOM     10  C   UNL     1     -14.856 -16.127  22.808  1.00  0.00     0.000 C 
BRANCH  10  11
ATOM     11  C   UNL     1     -15.088 -16.898  21.495  1.00  0.00     0.000 C 
BRANCH  11  12
ATOM     12  C   UNL     1     -14.043 -16.641  20.389  1.00  0.00     0.006 C 
BRANCH  12  13
ATOM     13  C   UNL     1     -13.841 -17.816  19.419  1.00  0.00     0.053 C 
BRANCH  13  14
ATOM     14  C   UNL     1     -13.217 -17.378  18.129  1.00  0.00     0.041 C 
ATOM     15  O   UNL     1     -13.642 -17.832  17.034  1.00  0.00    -0.550 OA
ATOM     16  O   UNL     1     -12.188 -16.445  18.133  1.00  0.00    -0.550 OA
ENDBRANCH  13  14
ENDBRANCH  12  13
ENDBRANCH  11  12
ENDBRANCH  10  11
ENDBRANCH   9  10
ENDBRANCH   8   9
ENDBRANCH   7   8
ENDBRANCH   6   7
ENDBRANCH   5   6
ENDBRANCH   4   5
ENDBRANCH   3   4
ENDBRANCH   2   3
ENDBRANCH   1   2
BRANCH   1  17
ATOM     17  C   UNL     1     -21.326 -19.739  31.049  1.00  0.00     0.000 C 
BRANCH  17  18
ATOM     18  C   UNL     1     -21.088 -21.100  31.730  1.00  0.00     0.000 C 
BRANCH  18  19
ATOM     19  C   UNL     1     -21.795 -22.299  31.072  1.00  0.00     0.000 C 
BRANCH  19  20
ATOM     20  C   UNL     1     -22.087 -22.075  29.578  1.00  0.00     0.000 C 
BRANCH  20  21
ATOM     21  C   UNL     1     -21.854 -23.337  28.729  1.00  0.00     0.000 C 
BRANCH  21  22
ATOM     22  C   UNL     1     -22.957 -24.409  28.833  1.00  0.00    -0.000 C 
BRANCH  22  23
ATOM     23  C   UNL     1     -23.103 -25.024  30.241  1.00  0.00    -0.000 C 
BRANCH  23  24
ATOM     24  C   UNL     1     -24.550 -25.461  30.536  1.00  0.00    -0.000 C 
BRANCH  24  25
ATOM     25  C   UNL     1     -24.773 -26.967  30.321  1.00  0.00    -0.000 C 
BRANCH  25  26
ATOM     26  C   UNL     1     -26.058 -27.265  29.528  1.00  0.00    -0.000 C 
BRANCH  26  27
ATOM     27  C   UNL     1     -25.797 -27.432  28.022  1.00  0.00    -0.000 C 
BRANCH  27  28
ATOM     28  C   UNL     1     -26.441 -28.702  27.445  1.00  0.00    -0.000 C 
BRANCH  28  29
ATOM     29  C   UNL     1     -27.199 -28.393  26.150  1.00  0.00    -0.003 C 
ATOM     30  C   UNL     1     -26.598 -29.144  24.965  1.00  0.00     0.004 C 
ENDBRANCH  28  29
ENDBRANCH  27  28
ENDBRANCH  26  27
ENDBRANCH  25  26
ENDBRANCH  24  25
ENDBRANCH  23  24
ENDBRANCH  22  23
ENDBRANCH  21  22
ENDBRANCH  20  21
ENDBRANCH  19  20
ENDBRANCH  18  19
ENDBRANCH  17  18
ENDBRANCH   1  17
TORSDOF 26
ENDMDL
