MODEL 1
REMARK VINA RESULT:    -5.512      0.000      0.000
REMARK INTER + INTRA:         -10.581
REMARK INTER:                  -8.573
REMARK INTRA:                  -2.008
REMARK UNBOUND:                -2.008
REMARK SMILES C[C@@]12C[C@@]3(O)O[C@@H](O1)[C@]1(COC(=O)c4ccccc4)[C@H]3C[C@@]12O[C@@H]1O[C@H](CO)[C@@H](O)[C@H](O)[C@H]1O
REMARK SMILES IDX 1 1 2 2 3 3 4 4 20 5 21 6 22 7 9 8 7 9 8 10 6 11 23 12 24 13
REMARK SMILES IDX 33 14 25 15 31 16 26 17 29 18 34 19 32 21 27 23 28 24 30 26
REMARK SMILES IDX 5 28 10 30 11 31 12 32 13 33 14 34 15 35 19 36 16 37 18 38
REMARK SMILES IDX 17 39
REMARK H PARENT 34 20 32 22 28 25 30 27 5 29
REMARK Flexibility Score: inf
ROOT
ATOM      1  C   UNL     1      15.700  52.773  33.720  1.00  0.00     0.046 C 
ATOM      2  C   UNL     1      14.707  53.462  34.653  1.00  0.00     0.104 C 
ATOM      3  C   UNL     1      14.258  52.504  35.818  1.00  0.00     0.104 C 
ATOM      4  C   UNL     1      13.198  53.352  36.608  1.00  0.00     0.175 C 
ATOM      5  C   UNL     1      12.145  53.974  35.629  1.00  0.00     0.070 C 
ATOM      6  C   UNL     1      12.119  53.281  34.261  1.00  0.00     0.050 C 
ATOM      7  C   UNL     1      13.425  54.048  33.949  1.00  0.00     0.115 C 
ATOM      8  C   UNL     1      13.032  55.053  35.027  1.00  0.00     0.096 C 
ATOM      9  C   UNL     1      14.226  55.207  35.949  1.00  0.00     0.267 C 
ATOM     10  O   UNL     1      15.308  54.576  35.284  1.00  0.00    -0.342 OA
ATOM     11  O   UNL     1      13.903  54.466  37.117  1.00  0.00    -0.320 OA
ENDROOT
BRANCH   7  12
ATOM     12  O   UNL     1      13.579  54.661  32.677  1.00  0.00    -0.339 OA
BRANCH  12  13
ATOM     13  C   UNL     1      13.139  53.833  31.610  1.00  0.00     0.282 C 
ATOM     14  C   UNL     1      11.912  54.460  30.910  1.00  0.00     0.202 C 
ATOM     15  O   UNL     1      14.216  53.619  30.709  1.00  0.00    -0.341 OA
ATOM     16  C   UNL     1      12.248  55.807  30.224  1.00  0.00     0.179 C 
ATOM     17  C   UNL     1      14.504  54.696  29.817  1.00  0.00     0.178 C 
ATOM     18  C   UNL     1      13.771  56.033  30.106  1.00  0.00     0.177 C 
BRANCH  14  19
ATOM     19  O   UNL     1      11.354  53.549  29.993  1.00  0.00    -0.385 OA
ATOM     20  H   UNL     1      11.979  52.783  29.904  1.00  0.00     0.211 HD
ENDBRANCH  14  19
BRANCH  16  21
ATOM     21  O   UNL     1      11.677  56.858  30.964  1.00  0.00    -0.387 OA
ATOM     22  H   UNL     1      10.705  56.866  30.760  1.00  0.00     0.211 HD
ENDBRANCH  16  21
BRANCH  17  23
ATOM     23  C   UNL     1      16.025  54.898  29.781  1.00  0.00     0.191 C 
BRANCH  23  24
ATOM     24  O   UNL     1      16.416  55.436  28.543  1.00  0.00    -0.394 OA
ATOM     25  H   UNL     1      17.370  55.194  28.402  1.00  0.00     0.210 HD
ENDBRANCH  23  24
ENDBRANCH  17  23
BRANCH  18  26
ATOM     26  O   UNL     1      14.027  56.942  29.066  1.00  0.00    -0.387 OA
ATOM     27  H   UNL     1      14.433  57.748  29.480  1.00  0.00     0.211 HD
ENDBRANCH  18  26
ENDBRANCH  12  13
ENDBRANCH   7  12
BRANCH   4  28
ATOM     28  O   UNL     1      12.599  52.628  37.649  1.00  0.00    -0.365 OA
ATOM     29  H   UNL     1      13.111  51.781  37.733  1.00  0.00     0.214 HD
ENDBRANCH   4  28
BRANCH   8  30
ATOM     30  C   UNL     1      12.313  56.341  34.585  1.00  0.00     0.249 C 
BRANCH  30  31
ATOM     31  O   UNL     1      13.205  57.443  34.711  1.00  0.00    -0.461 OA
BRANCH  31  32
ATOM     32  C   UNL     1      13.754  58.111  33.612  1.00  0.00     0.338 C 
ATOM     33  O   UNL     1      13.001  58.672  32.769  1.00  0.00    -0.246 OA
BRANCH  32  34
ATOM     34  C   UNL     1      15.224  58.166  33.452  1.00  0.00     0.060 A 
ATOM     35  C   UNL     1      15.944  59.279  33.928  1.00  0.00     0.015 A 
ATOM     36  C   UNL     1      15.922  57.116  32.823  1.00  0.00     0.015 A 
ATOM     37  C   UNL     1      17.332  59.341  33.769  1.00  0.00     0.001 A 
ATOM     38  C   UNL     1      17.310  57.186  32.665  1.00  0.00     0.001 A 
ATOM     39  C   UNL     1      18.014  58.298  33.136  1.00  0.00     0.000 A 
ENDBRANCH  32  34
ENDBRANCH  31  32
ENDBRANCH  30  31
ENDBRANCH   8  30
TORSDOF 12
ENDMDL
MODEL 2
REMARK VINA RESULT:    -5.289      1.808      5.703
REMARK INTER + INTRA:         -10.235
REMARK INTER:                  -8.869
REMARK INTRA:                  -1.365
REMARK UNBOUND:                -2.008
REMARK SMILES C[C@@]12C[C@@]3(O)O[C@@H](O1)[C@]1(COC(=O)c4ccccc4)[C@H]3C[C@@]12O[C@@H]1O[C@H](CO)[C@@H](O)[C@H](O)[C@H]1O
REMARK SMILES IDX 1 1 2 2 3 3 4 4 20 5 21 6 22 7 9 8 7 9 8 10 6 11 23 12 24 13
REMARK SMILES IDX 33 14 25 15 31 16 26 17 29 18 34 19 32 21 27 23 28 24 30 26
REMARK SMILES IDX 5 28 10 30 11 31 12 32 13 33 14 34 15 35 19 36 16 37 18 38
REMARK SMILES IDX 17 39
REMARK H PARENT 34 20 32 22 28 25 30 27 5 29
REMARK Flexibility Score: inf
ROOT
ATOM      1  C   UNL     1      14.624  59.889  30.118  1.00  0.00     0.046 C 
ATOM      2  C   UNL     1      15.066  59.669  31.564  1.00  0.00     0.104 C 
ATOM      3  C   UNL     1      16.111  60.756  32.014  1.00  0.00     0.104 C 
ATOM      4  C   UNL     1      16.495  60.320  33.474  1.00  0.00     0.175 C 
ATOM      5  C   UNL     1      16.851  58.796  33.521  1.00  0.00     0.070 C 
ATOM      6  C   UNL     1      17.173  58.215  32.137  1.00  0.00     0.050 C 
ATOM      7  C   UNL     1      15.650  58.239  31.873  1.00  0.00     0.115 C 
ATOM      8  C   UNL     1      15.440  58.247  33.384  1.00  0.00     0.096 C 
ATOM      9  C   UNL     1      14.492  59.388  33.696  1.00  0.00     0.267 C 
ATOM     10  O   UNL     1      13.968  59.804  32.446  1.00  0.00    -0.342 OA
ATOM     11  O   UNL     1      15.305  60.424  34.228  1.00  0.00    -0.320 OA
ENDROOT
BRANCH   7  12
ATOM     12  O   UNL     1      15.039  57.116  31.255  1.00  0.00    -0.339 OA
BRANCH  12  13
ATOM     13  C   UNL     1      15.769  56.640  30.134  1.00  0.00     0.282 C 
ATOM     14  C   UNL     1      16.101  55.139  30.302  1.00  0.00     0.202 C 
ATOM     15  O   UNL     1      15.027  56.893  28.949  1.00  0.00    -0.341 OA
ATOM     16  C   UNL     1      14.831  54.254  30.325  1.00  0.00     0.179 C 
ATOM     17  C   UNL     1      13.949  55.994  28.688  1.00  0.00     0.178 C 
ATOM     18  C   UNL     1      13.581  55.019  29.838  1.00  0.00     0.177 C 
BRANCH  14  19
ATOM     19  O   UNL     1      16.993  54.720  29.298  1.00  0.00    -0.385 OA
ATOM     20  H   UNL     1      17.802  54.353  29.741  1.00  0.00     0.211 HD
ENDBRANCH  14  19
BRANCH  16  21
ATOM     21  O   UNL     1      14.613  53.791  31.635  1.00  0.00    -0.387 OA
ATOM     22  H   UNL     1      15.443  53.330  31.925  1.00  0.00     0.211 HD
ENDBRANCH  16  21
BRANCH  17  23
ATOM     23  C   UNL     1      12.729  56.819  28.255  1.00  0.00     0.191 C 
BRANCH  23  24
ATOM     24  O   UNL     1      11.728  56.764  29.239  1.00  0.00    -0.394 OA
ATOM     25  H   UNL     1      12.029  57.327  30.001  1.00  0.00     0.210 HD
ENDBRANCH  23  24
ENDBRANCH  17  23
BRANCH  18  26
ATOM     26  O   UNL     1      12.621  54.100  29.383  1.00  0.00    -0.387 OA
ATOM     27  H   UNL     1      12.662  53.316  29.992  1.00  0.00     0.211 HD
ENDBRANCH  18  26
ENDBRANCH  12  13
ENDBRANCH   7  12
BRANCH   4  28
ATOM     28  O   UNL     1      17.502  61.124  34.026  1.00  0.00    -0.365 OA
ATOM     29  H   UNL     1      18.365  60.681  33.812  1.00  0.00     0.214 HD
ENDBRANCH   4  28
BRANCH   8  30
ATOM     30  C   UNL     1      15.175  56.900  34.083  1.00  0.00     0.249 C 
BRANCH  30  31
ATOM     31  O   UNL     1      13.777  56.752  34.301  1.00  0.00    -0.461 OA
BRANCH  31  32
ATOM     32  C   UNL     1      13.104  55.536  34.140  1.00  0.00     0.338 C 
ATOM     33  O   UNL     1      12.398  55.333  33.113  1.00  0.00    -0.246 OA
BRANCH  32  34
ATOM     34  C   UNL     1      13.235  54.487  35.175  1.00  0.00     0.060 A 
ATOM     35  C   UNL     1      12.229  54.326  36.147  1.00  0.00     0.015 A 
ATOM     36  C   UNL     1      14.362  53.641  35.208  1.00  0.00     0.015 A 
ATOM     37  C   UNL     1      12.353  53.343  37.135  1.00  0.00     0.001 A 
ATOM     38  C   UNL     1      14.481  52.663  36.200  1.00  0.00     0.001 A 
ATOM     39  C   UNL     1      13.479  52.515  37.162  1.00  0.00     0.000 A 
ENDBRANCH  32  34
ENDBRANCH  31  32
ENDBRANCH  30  31
ENDBRANCH   8  30
TORSDOF 12
ENDMDL
MODEL 3
REMARK VINA RESULT:    -5.187      1.980      5.295
REMARK INTER + INTRA:         -10.076
REMARK INTER:                  -8.313
REMARK INTRA:                  -1.763
REMARK UNBOUND:                -2.008
REMARK SMILES C[C@@]12C[C@@]3(O)O[C@@H](O1)[C@]1(COC(=O)c4ccccc4)[C@H]3C[C@@]12O[C@@H]1O[C@H](CO)[C@@H](O)[C@H](O)[C@H]1O
REMARK SMILES IDX 1 1 2 2 3 3 4 4 20 5 21 6 22 7 9 8 7 9 8 10 6 11 23 12 24 13
REMARK SMILES IDX 33 14 25 15 31 16 26 17 29 18 34 19 32 21 27 23 28 24 30 26
REMARK SMILES IDX 5 28 10 30 11 31 12 32 13 33 14 34 15 35 19 36 16 37 18 38
REMARK SMILES IDX 17 39
REMARK H PARENT 34 20 32 22 28 25 30 27 5 29
REMARK Flexibility Score: inf
ROOT
ATOM      1  C   UNL     1      15.456  54.652  30.811  1.00  0.00     0.046 C 
ATOM      2  C   UNL     1      13.930  54.633  30.883  1.00  0.00     0.104 C 
ATOM      3  C   UNL     1      13.309  53.883  29.647  1.00  0.00     0.104 C 
ATOM      4  C   UNL     1      11.760  54.037  29.860  1.00  0.00     0.175 C 
ATOM      5  C   UNL     1      11.388  55.528  30.165  1.00  0.00     0.070 C 
ATOM      6  C   UNL     1      12.490  56.514  29.756  1.00  0.00     0.050 C 
ATOM      7  C   UNL     1      13.251  56.048  31.018  1.00  0.00     0.115 C 
ATOM      8  C   UNL     1      11.914  55.587  31.591  1.00  0.00     0.096 C 
ATOM      9  C   UNL     1      12.097  54.154  32.052  1.00  0.00     0.267 C 
ATOM     10  O   UNL     1      13.495  53.918  32.024  1.00  0.00    -0.342 OA
ATOM     11  O   UNL     1      11.470  53.352  31.061  1.00  0.00    -0.320 OA
ENDROOT
BRANCH   7  12
ATOM     12  O   UNL     1      13.879  57.018  31.843  1.00  0.00    -0.339 OA
BRANCH  12  13
ATOM     13  C   UNL     1      14.386  58.122  31.108  1.00  0.00     0.282 C 
ATOM     14  C   UNL     1      13.888  59.453  31.717  1.00  0.00     0.202 C 
ATOM     15  O   UNL     1      15.804  58.049  31.071  1.00  0.00    -0.341 OA
ATOM     16  C   UNL     1      14.424  59.681  33.151  1.00  0.00     0.179 C 
ATOM     17  C   UNL     1      16.478  58.470  32.257  1.00  0.00     0.178 C 
ATOM     18  C   UNL     1      15.581  58.720  33.498  1.00  0.00     0.177 C 
BRANCH  14  19
ATOM     19  O   UNL     1      14.218  60.530  30.873  1.00  0.00    -0.385 OA
ATOM     20  H   UNL     1      13.931  61.368  31.321  1.00  0.00     0.211 HD
ENDBRANCH  14  19
BRANCH  16  21
ATOM     21  O   UNL     1      13.376  59.501  34.071  1.00  0.00    -0.387 OA
ATOM     22  H   UNL     1      12.599  60.020  33.736  1.00  0.00     0.211 HD
ENDBRANCH  16  21
BRANCH  17  23
ATOM     23  C   UNL     1      17.582  57.451  32.572  1.00  0.00     0.191 C 
BRANCH  23  24
ATOM     24  O   UNL     1      18.728  58.105  33.053  1.00  0.00    -0.394 OA
ATOM     25  H   UNL     1      19.439  57.419  33.159  1.00  0.00     0.210 HD
ENDBRANCH  23  24
ENDBRANCH  17  23
BRANCH  18  26
ATOM     26  O   UNL     1      16.354  59.276  34.531  1.00  0.00    -0.387 OA
ATOM     27  H   UNL     1      17.229  59.527  34.133  1.00  0.00     0.211 HD
ENDBRANCH  18  26
ENDBRANCH  12  13
ENDBRANCH   7  12
BRANCH   4  28
ATOM     28  O   UNL     1      11.017  53.507  28.796  1.00  0.00    -0.365 OA
ATOM     29  H   UNL     1      10.606  52.666  29.131  1.00  0.00     0.214 HD
ENDBRANCH   4  28
BRANCH   8  30
ATOM     30  C   UNL     1      11.167  56.542  32.541  1.00  0.00     0.249 C 
BRANCH  30  31
ATOM     31  O   UNL     1      11.023  55.921  33.812  1.00  0.00    -0.461 OA
BRANCH  31  32
ATOM     32  C   UNL     1      11.854  56.205  34.901  1.00  0.00     0.338 C 
ATOM     33  O   UNL     1      11.940  57.384  35.343  1.00  0.00    -0.246 OA
BRANCH  32  34
ATOM     34  C   UNL     1      12.622  55.112  35.537  1.00  0.00     0.060 A 
ATOM     35  C   UNL     1      13.999  54.972  35.275  1.00  0.00     0.015 A 
ATOM     36  C   UNL     1      11.993  54.197  36.405  1.00  0.00     0.015 A 
ATOM     37  C   UNL     1      14.727  53.934  35.865  1.00  0.00     0.001 A 
ATOM     38  C   UNL     1      12.727  53.160  36.989  1.00  0.00     0.001 A 
ATOM     39  C   UNL     1      14.092  53.028  36.718  1.00  0.00     0.000 A 
ENDBRANCH  32  34
ENDBRANCH  31  32
ENDBRANCH  30  31
ENDBRANCH   8  30
TORSDOF 12
ENDMDL
MODEL 4
REMARK VINA RESULT:    -5.099      2.610      5.929
REMARK INTER + INTRA:          -9.939
REMARK INTER:                  -9.179
REMARK INTRA:                  -0.760
REMARK UNBOUND:                -2.008
REMARK SMILES C[C@@]12C[C@@]3(O)O[C@@H](O1)[C@]1(COC(=O)c4ccccc4)[C@H]3C[C@@]12O[C@@H]1O[C@H](CO)[C@@H](O)[C@H](O)[C@H]1O
REMARK SMILES IDX 1 1 2 2 3 3 4 4 20 5 21 6 22 7 9 8 7 9 8 10 6 11 23 12 24 13
REMARK SMILES IDX 33 14 25 15 31 16 26 17 29 18 34 19 32 21 27 23 28 24 30 26
REMARK SMILES IDX 5 28 10 30 11 31 12 32 13 33 14 34 15 35 19 36 16 37 18 38
REMARK SMILES IDX 17 39
REMARK H PARENT 34 20 32 22 28 25 30 27 5 29
REMARK Flexibility Score: inf
ROOT
ATOM      1  C   UNL     1      12.215  57.450  34.872  1.00  0.00     0.046 C 
ATOM      2  C   UNL     1      12.578  55.968  34.805  1.00  0.00     0.104 C 
ATOM      3  C   UNL     1      12.375  55.267  36.199  1.00  0.00     0.104 C 
ATOM      4  C   UNL     1      12.868  53.796  35.949  1.00  0.00     0.175 C 
ATOM      5  C   UNL     1      14.267  53.792  35.245  1.00  0.00     0.070 C 
ATOM      6  C   UNL     1      15.001  55.134  35.370  1.00  0.00     0.050 C 
ATOM      7  C   UNL     1      14.034  55.660  34.285  1.00  0.00     0.115 C 
ATOM      8  C   UNL     1      13.804  54.213  33.859  1.00  0.00     0.096 C 
ATOM      9  C   UNL     1      12.305  53.996  33.810  1.00  0.00     0.267 C 
ATOM     10  O   UNL     1      11.727  55.287  33.904  1.00  0.00    -0.342 OA
ATOM     11  O   UNL     1      11.989  53.258  34.982  1.00  0.00    -0.320 OA
ENDROOT
BRANCH   7  12
ATOM     12  O   UNL     1      14.550  56.453  33.226  1.00  0.00    -0.339 OA
BRANCH  12  13
ATOM     13  C   UNL     1      15.818  57.018  33.528  1.00  0.00     0.282 C 
ATOM     14  C   UNL     1      16.730  56.997  32.280  1.00  0.00     0.202 C 
ATOM     15  O   UNL     1      15.637  58.333  34.034  1.00  0.00    -0.341 OA
ATOM     16  C   UNL     1      16.186  57.888  31.137  1.00  0.00     0.179 C 
ATOM     17  C   UNL     1      15.367  59.341  33.061  1.00  0.00     0.178 C 
ATOM     18  C   UNL     1      15.071  58.839  31.623  1.00  0.00     0.177 C 
BRANCH  14  19
ATOM     19  O   UNL     1      18.043  57.363  32.628  1.00  0.00    -0.385 OA
ATOM     20  H   UNL     1      18.641  57.111  31.877  1.00  0.00     0.211 HD
ENDBRANCH  14  19
BRANCH  16  21
ATOM     21  O   UNL     1      15.685  57.069  30.110  1.00  0.00    -0.387 OA
ATOM     22  H   UNL     1      15.018  56.459  30.520  1.00  0.00     0.211 HD
ENDBRANCH  16  21
BRANCH  17  23
ATOM     23  C   UNL     1      14.222  60.220  33.583  1.00  0.00     0.191 C 
BRANCH  23  24
ATOM     24  O   UNL     1      13.097  60.103  32.750  1.00  0.00    -0.394 OA
ATOM     25  H   UNL     1      12.322  60.488  33.240  1.00  0.00     0.210 HD
ENDBRANCH  23  24
ENDBRANCH  17  23
BRANCH  18  26
ATOM     26  O   UNL     1      14.984  59.937  30.752  1.00  0.00    -0.387 OA
ATOM     27  H   UNL     1      14.177  60.453  31.018  1.00  0.00     0.211 HD
ENDBRANCH  18  26
ENDBRANCH  12  13
ENDBRANCH   7  12
BRANCH   4  28
ATOM     28  O   UNL     1      12.853  53.020  37.117  1.00  0.00    -0.365 OA
ATOM     29  H   UNL     1      12.228  52.266  36.946  1.00  0.00     0.214 HD
ENDBRANCH   4  28
BRANCH   8  30
ATOM     30  C   UNL     1      14.634  53.667  32.682  1.00  0.00     0.249 C 
BRANCH  30  31
ATOM     31  O   UNL     1      14.044  52.461  32.212  1.00  0.00    -0.461 OA
BRANCH  31  32
ATOM     32  C   UNL     1      14.639  51.647  31.242  1.00  0.00     0.338 C 
ATOM     33  O   UNL     1      15.011  52.140  30.141  1.00  0.00    -0.246 OA
BRANCH  32  34
ATOM     34  C   UNL     1      14.838  50.208  31.521  1.00  0.00     0.060 A 
ATOM     35  C   UNL     1      13.870  49.489  32.248  1.00  0.00     0.015 A 
ATOM     36  C   UNL     1      15.994  49.538  31.071  1.00  0.00     0.015 A 
ATOM     37  C   UNL     1      14.059  48.131  32.524  1.00  0.00     0.001 A 
ATOM     38  C   UNL     1      16.178  48.181  31.354  1.00  0.00     0.001 A 
ATOM     39  C   UNL     1      15.213  47.479  32.080  1.00  0.00     0.000 A 
ENDBRANCH  32  34
ENDBRANCH  31  32
ENDBRANCH  30  31
ENDBRANCH   8  30
TORSDOF 12
ENDMDL
MODEL 5
REMARK VINA RESULT:    -4.995      3.806      6.286
REMARK INTER + INTRA:          -9.776
REMARK INTER:                  -8.693
REMARK INTRA:                  -1.083
REMARK UNBOUND:                -2.008
REMARK SMILES C[C@@]12C[C@@]3(O)O[C@@H](O1)[C@]1(COC(=O)c4ccccc4)[C@H]3C[C@@]12O[C@@H]1O[C@H](CO)[C@@H](O)[C@H](O)[C@H]1O
REMARK SMILES IDX 1 1 2 2 3 3 4 4 20 5 21 6 22 7 9 8 7 9 8 10 6 11 23 12 24 13
REMARK SMILES IDX 33 14 25 15 31 16 26 17 29 18 34 19 32 21 27 23 28 24 30 26
REMARK SMILES IDX 5 28 10 30 11 31 12 32 13 33 14 34 15 35 19 36 16 37 18 38
REMARK SMILES IDX 17 39
REMARK H PARENT 34 20 32 22 28 25 30 27 5 29
REMARK Flexibility Score: inf
ROOT
ATOM      1  C   UNL     1      16.951  48.606  28.766  1.00  0.00     0.046 C 
ATOM      2  C   UNL     1      15.904  49.046  29.788  1.00  0.00     0.104 C 
ATOM      3  C   UNL     1      14.748  47.986  29.913  1.00  0.00     0.104 C 
ATOM      4  C   UNL     1      13.750  48.645  30.932  1.00  0.00     0.175 C 
ATOM      5  C   UNL     1      13.441  50.126  30.526  1.00  0.00     0.070 C 
ATOM      6  C   UNL     1      13.796  50.431  29.065  1.00  0.00     0.050 C 
ATOM      7  C   UNL     1      15.271  50.465  29.525  1.00  0.00     0.115 C 
ATOM      8  C   UNL     1      14.770  50.738  30.940  1.00  0.00     0.096 C 
ATOM      9  C   UNL     1      15.449  49.738  31.854  1.00  0.00     0.267 C 
ATOM     10  O   UNL     1      16.477  49.144  31.077  1.00  0.00    -0.342 OA
ATOM     11  O   UNL     1      14.463  48.758  32.147  1.00  0.00    -0.320 OA
ENDROOT
BRANCH   7  12
ATOM     12  O   UNL     1      16.119  51.501  29.050  1.00  0.00    -0.339 OA
BRANCH  12  13
ATOM     13  C   UNL     1      15.766  51.947  27.749  1.00  0.00     0.282 C 
ATOM     14  C   UNL     1      15.663  53.490  27.716  1.00  0.00     0.202 C 
ATOM     15  O   UNL     1      16.714  51.456  26.811  1.00  0.00    -0.341 OA
ATOM     16  C   UNL     1      17.022  54.178  27.992  1.00  0.00     0.179 C 
ATOM     17  C   UNL     1      17.959  52.153  26.764  1.00  0.00     0.178 C 
ATOM     18  C   UNL     1      18.203  53.188  27.894  1.00  0.00     0.177 C 
BRANCH  14  19
ATOM     19  O   UNL     1      15.117  53.917  26.491  1.00  0.00    -0.385 OA
ATOM     20  H   UNL     1      15.490  54.814  26.286  1.00  0.00     0.211 HD
ENDBRANCH  14  19
BRANCH  16  21
ATOM     21  O   UNL     1      16.998  54.749  29.276  1.00  0.00    -0.387 OA
ATOM     22  H   UNL     1      16.054  54.984  29.476  1.00  0.00     0.211 HD
ENDBRANCH  16  21
BRANCH  17  23
ATOM     23  C   UNL     1      19.089  51.116  26.714  1.00  0.00     0.191 C 
BRANCH  23  24
ATOM     24  O   UNL     1      19.621  50.911  27.999  1.00  0.00    -0.394 OA
ATOM     25  H   UNL     1      20.584  51.152  27.964  1.00  0.00     0.210 HD
ENDBRANCH  23  24
ENDBRANCH  17  23
BRANCH  18  26
ATOM     26  O   UNL     1      19.385  53.901  27.628  1.00  0.00    -0.387 OA
ATOM     27  H   UNL     1      19.310  54.770  28.103  1.00  0.00     0.211 HD
ENDBRANCH  18  26
ENDBRANCH  12  13
ENDBRANCH   7  12
BRANCH   4  28
ATOM     28  O   UNL     1      12.586  47.885  31.111  1.00  0.00    -0.365 OA
ATOM     29  H   UNL     1      11.823  48.478  30.883  1.00  0.00     0.214 HD
ENDBRANCH   4  28
BRANCH   8  30
ATOM     30  C   UNL     1      14.714  52.202  31.416  1.00  0.00     0.249 C 
BRANCH  30  31
ATOM     31  O   UNL     1      15.212  52.282  32.746  1.00  0.00    -0.461 OA
BRANCH  31  32
ATOM     32  C   UNL     1      15.037  53.405  33.562  1.00  0.00     0.338 C 
ATOM     33  O   UNL     1      15.575  54.504  33.253  1.00  0.00    -0.246 OA
BRANCH  32  34
ATOM     34  C   UNL     1      14.206  53.298  34.781  1.00  0.00     0.060 A 
ATOM     35  C   UNL     1      14.650  52.524  35.871  1.00  0.00     0.015 A 
ATOM     36  C   UNL     1      12.965  53.960  34.871  1.00  0.00     0.015 A 
ATOM     37  C   UNL     1      13.863  52.411  37.022  1.00  0.00     0.001 A 
ATOM     38  C   UNL     1      12.182  53.839  36.023  1.00  0.00     0.001 A 
ATOM     39  C   UNL     1      12.630  53.065  37.097  1.00  0.00     0.000 A 
ENDBRANCH  32  34
ENDBRANCH  31  32
ENDBRANCH  30  31
ENDBRANCH   8  30
TORSDOF 12
ENDMDL
MODEL 6
REMARK VINA RESULT:    -4.782      1.953      5.678
REMARK INTER + INTRA:          -9.446
REMARK INTER:                  -8.181
REMARK INTRA:                  -1.264
REMARK UNBOUND:                -2.008
REMARK SMILES C[C@@]12C[C@@]3(O)O[C@@H](O1)[C@]1(COC(=O)c4ccccc4)[C@H]3C[C@@]12O[C@@H]1O[C@H](CO)[C@@H](O)[C@H](O)[C@H]1O
REMARK SMILES IDX 1 1 2 2 3 3 4 4 20 5 21 6 22 7 9 8 7 9 8 10 6 11 23 12 24 13
REMARK SMILES IDX 33 14 25 15 31 16 26 17 29 18 34 19 32 21 27 23 28 24 30 26
REMARK SMILES IDX 5 28 10 30 11 31 12 32 13 33 14 34 15 35 19 36 16 37 18 38
REMARK SMILES IDX 17 39
REMARK H PARENT 34 20 32 22 28 25 30 27 5 29
REMARK Flexibility Score: inf
ROOT
ATOM      1  C   UNL     1      12.882  59.848  32.630  1.00  0.00     0.046 C 
ATOM      2  C   UNL     1      14.332  59.444  32.891  1.00  0.00     0.104 C 
ATOM      3  C   UNL     1      15.254  60.708  33.067  1.00  0.00     0.104 C 
ATOM      4  C   UNL     1      16.691  60.097  33.243  1.00  0.00     0.175 C 
ATOM      5  C   UNL     1      16.984  59.039  32.126  1.00  0.00     0.070 C 
ATOM      6  C   UNL     1      16.043  59.167  30.921  1.00  0.00     0.050 C 
ATOM      7  C   UNL     1      14.967  58.496  31.804  1.00  0.00     0.115 C 
ATOM      8  C   UNL     1      16.096  57.924  32.656  1.00  0.00     0.096 C 
ATOM      9  C   UNL     1      15.780  58.262  34.099  1.00  0.00     0.267 C 
ATOM     10  O   UNL     1      14.438  58.720  34.101  1.00  0.00    -0.342 OA
ATOM     11  O   UNL     1      16.640  59.340  34.436  1.00  0.00    -0.320 OA
ENDROOT
BRANCH   7  12
ATOM     12  O   UNL     1      14.152  57.477  31.244  1.00  0.00    -0.339 OA
BRANCH  12  13
ATOM     13  C   UNL     1      13.314  57.953  30.200  1.00  0.00     0.282 C 
ATOM     14  C   UNL     1      14.065  57.924  28.849  1.00  0.00     0.202 C 
ATOM     15  O   UNL     1      12.123  57.180  30.166  1.00  0.00    -0.341 OA
ATOM     16  C   UNL     1      14.430  56.486  28.408  1.00  0.00     0.179 C 
ATOM     17  C   UNL     1      12.234  55.895  29.554  1.00  0.00     0.178 C 
ATOM     18  C   UNL     1      13.674  55.418  29.228  1.00  0.00     0.177 C 
BRANCH  14  19
ATOM     19  O   UNL     1      13.313  58.583  27.858  1.00  0.00    -0.385 OA
ATOM     20  H   UNL     1      13.448  58.101  27.001  1.00  0.00     0.211 HD
ENDBRANCH  14  19
BRANCH  16  21
ATOM     21  O   UNL     1      15.815  56.294  28.558  1.00  0.00    -0.387 OA
ATOM     22  H   UNL     1      16.194  56.165  27.649  1.00  0.00     0.211 HD
ENDBRANCH  16  21
BRANCH  17  23
ATOM     23  C   UNL     1      11.503  54.876  30.440  1.00  0.00     0.191 C 
BRANCH  23  24
ATOM     24  O   UNL     1      11.988  54.937  31.757  1.00  0.00    -0.394 OA
ATOM     25  H   UNL     1      12.973  54.812  31.718  1.00  0.00     0.210 HD
ENDBRANCH  23  24
ENDBRANCH  17  23
BRANCH  18  26
ATOM     26  O   UNL     1      13.616  54.222  28.493  1.00  0.00    -0.387 OA
ATOM     27  H   UNL     1      14.551  53.979  28.264  1.00  0.00     0.211 HD
ENDBRANCH  18  26
ENDBRANCH  12  13
ENDBRANCH   7  12
BRANCH   4  28
ATOM     28  O   UNL     1      17.686  61.081  33.324  1.00  0.00    -0.365 OA
ATOM     29  H   UNL     1      18.474  60.651  33.748  1.00  0.00     0.214 HD
ENDBRANCH   4  28
BRANCH   8  30
ATOM     30  C   UNL     1      16.571  56.490  32.356  1.00  0.00     0.249 C 
BRANCH  30  31
ATOM     31  O   UNL     1      16.214  55.641  33.440  1.00  0.00    -0.461 OA
BRANCH  31  32
ATOM     32  C   UNL     1      15.182  54.699  33.365  1.00  0.00     0.338 C 
ATOM     33  O   UNL     1      14.894  54.161  32.261  1.00  0.00    -0.246 OA
BRANCH  32  34
ATOM     34  C   UNL     1      14.441  54.331  34.591  1.00  0.00     0.060 A 
ATOM     35  C   UNL     1      13.444  55.187  35.097  1.00  0.00     0.015 A 
ATOM     36  C   UNL     1      14.720  53.128  35.271  1.00  0.00     0.015 A 
ATOM     37  C   UNL     1      12.748  54.849  36.262  1.00  0.00     0.001 A 
ATOM     38  C   UNL     1      14.023  52.797  36.437  1.00  0.00     0.001 A 
ATOM     39  C   UNL     1      13.039  53.657  36.932  1.00  0.00     0.000 A 
ENDBRANCH  32  34
ENDBRANCH  31  32
ENDBRANCH  30  31
ENDBRANCH   8  30
TORSDOF 12
ENDMDL
MODEL 7
REMARK VINA RESULT:    -4.778      6.158      8.826
REMARK INTER + INTRA:          -9.439
REMARK INTER:                  -8.369
REMARK INTRA:                  -1.070
REMARK UNBOUND:                -2.008
REMARK SMILES C[C@@]12C[C@@]3(O)O[C@@H](O1)[C@]1(COC(=O)c4ccccc4)[C@H]3C[C@@]12O[C@@H]1O[C@H](CO)[C@@H](O)[C@H](O)[C@H]1O
REMARK SMILES IDX 1 1 2 2 3 3 4 4 20 5 21 6 22 7 9 8 7 9 8 10 6 11 23 12 24 13
REMARK SMILES IDX 33 14 25 15 31 16 26 17 29 18 34 19 32 21 27 23 28 24 30 26
REMARK SMILES IDX 5 28 10 30 11 31 12 32 13 33 14 34 15 35 19 36 16 37 18 38
REMARK SMILES IDX 17 39
REMARK H PARENT 34 20 32 22 28 25 30 27 5 29
REMARK Flexibility Score: inf
ROOT
ATOM      1  C   UNL     1      14.636  45.867  28.998  1.00  0.00     0.046 C 
ATOM      2  C   UNL     1      14.916  47.323  29.364  1.00  0.00     0.104 C 
ATOM      3  C   UNL     1      16.277  47.816  28.747  1.00  0.00     0.104 C 
ATOM      4  C   UNL     1      16.422  49.283  29.291  1.00  0.00     0.175 C 
ATOM      5  C   UNL     1      16.179  49.326  30.837  1.00  0.00     0.070 C 
ATOM      6  C   UNL     1      16.304  47.948  31.501  1.00  0.00     0.050 C 
ATOM      7  C   UNL     1      14.911  47.637  30.908  1.00  0.00     0.115 C 
ATOM      8  C   UNL     1      14.669  49.141  30.818  1.00  0.00     0.096 C 
ATOM      9  C   UNL     1      14.209  49.434  29.404  1.00  0.00     0.267 C 
ATOM     10  O   UNL     1      13.921  48.171  28.824  1.00  0.00    -0.342 OA
ATOM     11  O   UNL     1      15.333  50.001  28.746  1.00  0.00    -0.320 OA
ENDROOT
BRANCH   7  12
ATOM     12  O   UNL     1      13.944  46.989  31.721  1.00  0.00    -0.339 OA
BRANCH  12  13
ATOM     13  C   UNL     1      14.513  46.368  32.865  1.00  0.00     0.282 C 
ATOM     14  C   UNL     1      13.627  46.613  34.109  1.00  0.00     0.202 C 
ATOM     15  O   UNL     1      14.697  44.984  32.605  1.00  0.00    -0.341 OA
ATOM     16  C   UNL     1      12.234  45.952  33.980  1.00  0.00     0.179 C 
ATOM     17  C   UNL     1      13.525  44.175  32.691  1.00  0.00     0.178 C 
ATOM     18  C   UNL     1      12.179  44.936  32.818  1.00  0.00     0.177 C 
BRANCH  14  19
ATOM     19  O   UNL     1      14.289  46.178  35.273  1.00  0.00    -0.385 OA
ATOM     20  H   UNL     1      14.889  45.429  35.022  1.00  0.00     0.211 HD
ENDBRANCH  14  19
BRANCH  16  21
ATOM     21  O   UNL     1      11.266  46.950  33.772  1.00  0.00    -0.387 OA
ATOM     22  H   UNL     1      11.219  47.115  32.794  1.00  0.00     0.211 HD
ENDBRANCH  16  21
BRANCH  17  23
ATOM     23  C   UNL     1      13.507  43.223  31.487  1.00  0.00     0.191 C 
BRANCH  23  24
ATOM     24  O   UNL     1      12.902  42.004  31.837  1.00  0.00    -0.394 OA
ATOM     25  H   UNL     1      12.541  42.105  32.757  1.00  0.00     0.210 HD
ENDBRANCH  23  24
ENDBRANCH  17  23
BRANCH  18  26
ATOM     26  O   UNL     1      11.141  44.018  33.052  1.00  0.00    -0.387 OA
ATOM     27  H   UNL     1      11.546  43.238  33.515  1.00  0.00     0.211 HD
ENDBRANCH  18  26
ENDBRANCH  12  13
ENDBRANCH   7  12
BRANCH   4  28
ATOM     28  O   UNL     1      17.638  49.875  28.923  1.00  0.00    -0.365 OA
ATOM     29  H   UNL     1      18.089  50.141  29.766  1.00  0.00     0.214 HD
ENDBRANCH   4  28
BRANCH   8  30
ATOM     30  C   UNL     1      13.896  49.818  31.965  1.00  0.00     0.249 C 
BRANCH  30  31
ATOM     31  O   UNL     1      13.453  51.100  31.538  1.00  0.00    -0.461 OA
BRANCH  31  32
ATOM     32  C   UNL     1      14.156  52.280  31.807  1.00  0.00     0.338 C 
ATOM     33  O   UNL     1      14.634  52.963  30.859  1.00  0.00    -0.246 OA
BRANCH  32  34
ATOM     34  C   UNL     1      14.323  52.727  33.207  1.00  0.00     0.060 A 
ATOM     35  C   UNL     1      15.573  52.600  33.843  1.00  0.00     0.015 A 
ATOM     36  C   UNL     1      13.242  53.278  33.924  1.00  0.00     0.015 A 
ATOM     37  C   UNL     1      15.735  53.011  35.170  1.00  0.00     0.001 A 
ATOM     38  C   UNL     1      13.410  53.683  35.252  1.00  0.00     0.001 A 
ATOM     39  C   UNL     1      14.653  53.548  35.874  1.00  0.00     0.000 A 
ENDBRANCH  32  34
ENDBRANCH  31  32
ENDBRANCH  30  31
ENDBRANCH   8  30
TORSDOF 12
ENDMDL
MODEL 8
REMARK VINA RESULT:    -4.745      2.524      5.670
REMARK INTER + INTRA:          -9.388
REMARK INTER:                  -9.450
REMARK INTRA:                   0.062
REMARK UNBOUND:                -2.008
REMARK SMILES C[C@@]12C[C@@]3(O)O[C@@H](O1)[C@]1(COC(=O)c4ccccc4)[C@H]3C[C@@]12O[C@@H]1O[C@H](CO)[C@@H](O)[C@H](O)[C@H]1O
REMARK SMILES IDX 1 1 2 2 3 3 4 4 20 5 21 6 22 7 9 8 7 9 8 10 6 11 23 12 24 13
REMARK SMILES IDX 33 14 25 15 31 16 26 17 29 18 34 19 32 21 27 23 28 24 30 26
REMARK SMILES IDX 5 28 10 30 11 31 12 32 13 33 14 34 15 35 19 36 16 37 18 38
REMARK SMILES IDX 17 39
REMARK H PARENT 34 20 32 22 28 25 30 27 5 29
REMARK Flexibility Score: inf
ROOT
ATOM      1  C   UNL     1      12.722  57.277  34.985  1.00  0.00     0.046 C 
ATOM      2  C   UNL     1      12.904  55.761  35.037  1.00  0.00     0.104 C 
ATOM      3  C   UNL     1      12.387  55.170  36.401  1.00  0.00     0.104 C 
ATOM      4  C   UNL     1      12.728  53.640  36.296  1.00  0.00     0.175 C 
ATOM      5  C   UNL     1      14.213  53.434  35.843  1.00  0.00     0.070 C 
ATOM      6  C   UNL     1      15.077  54.686  36.040  1.00  0.00     0.050 C 
ATOM      7  C   UNL     1      14.376  55.257  34.787  1.00  0.00     0.115 C 
ATOM      8  C   UNL     1      14.043  53.824  34.383  1.00  0.00     0.096 C 
ATOM      9  C   UNL     1      12.557  53.779  34.086  1.00  0.00     0.267 C 
ATOM     10  O   UNL     1      12.135  55.132  34.031  1.00  0.00    -0.342 OA
ATOM     11  O   UNL     1      11.962  53.152  35.214  1.00  0.00    -0.320 OA
ENDROOT
BRANCH   7  12
ATOM     12  O   UNL     1      15.154  55.921  33.802  1.00  0.00    -0.339 OA
BRANCH  12  13
ATOM     13  C   UNL     1      14.729  57.257  33.573  1.00  0.00     0.282 C 
ATOM     14  C   UNL     1      15.948  58.184  33.361  1.00  0.00     0.202 C 
ATOM     15  O   UNL     1      13.840  57.282  32.465  1.00  0.00    -0.341 OA
ATOM     16  C   UNL     1      16.748  57.823  32.086  1.00  0.00     0.179 C 
ATOM     17  C   UNL     1      14.451  57.205  31.177  1.00  0.00     0.178 C 
ATOM     18  C   UNL     1      15.965  56.867  31.160  1.00  0.00     0.177 C 
BRANCH  14  19
ATOM     19  O   UNL     1      15.539  59.531  33.339  1.00  0.00    -0.385 OA
ATOM     20  H   UNL     1      15.924  59.954  32.528  1.00  0.00     0.211 HD
ENDBRANCH  14  19
BRANCH  16  21
ATOM     21  O   UNL     1      17.963  57.220  32.459  1.00  0.00    -0.387 OA
ATOM     22  H   UNL     1      18.055  57.327  33.441  1.00  0.00     0.211 HD
ENDBRANCH  16  21
BRANCH  17  23
ATOM     23  C   UNL     1      13.654  56.208  30.325  1.00  0.00     0.191 C 
BRANCH  23  24
ATOM     24  O   UNL     1      14.109  54.898  30.554  1.00  0.00    -0.394 OA
ATOM     25  H   UNL     1      13.334  54.288  30.428  1.00  0.00     0.210 HD
ENDBRANCH  23  24
ENDBRANCH  17  23
BRANCH  18  26
ATOM     26  O   UNL     1      16.457  56.983  29.849  1.00  0.00    -0.387 OA
ATOM     27  H   UNL     1      17.374  57.356  29.918  1.00  0.00     0.211 HD
ENDBRANCH  18  26
ENDBRANCH  12  13
ENDBRANCH   7  12
BRANCH   4  28
ATOM     28  O   UNL     1      12.424  52.941  37.472  1.00  0.00    -0.365 OA
ATOM     29  H   UNL     1      12.640  51.987  37.297  1.00  0.00     0.214 HD
ENDBRANCH   4  28
BRANCH   8  30
ATOM     30  C   UNL     1      14.982  53.117  33.387  1.00  0.00     0.249 C 
BRANCH  30  31
ATOM     31  O   UNL     1      14.203  52.397  32.439  1.00  0.00    -0.461 OA
BRANCH  31  32
ATOM     32  C   UNL     1      14.766  51.624  31.418  1.00  0.00     0.338 C 
ATOM     33  O   UNL     1      15.131  52.167  30.339  1.00  0.00    -0.246 OA
BRANCH  32  34
ATOM     34  C   UNL     1      14.941  50.169  31.618  1.00  0.00     0.060 A 
ATOM     35  C   UNL     1      16.082  49.519  31.107  1.00  0.00     0.015 A 
ATOM     36  C   UNL     1      13.976  49.413  32.313  1.00  0.00     0.015 A 
ATOM     37  C   UNL     1      16.248  48.142  31.283  1.00  0.00     0.001 A 
ATOM     38  C   UNL     1      14.146  48.035  32.482  1.00  0.00     0.001 A 
ATOM     39  C   UNL     1      15.279  47.400  31.967  1.00  0.00     0.000 A 
ENDBRANCH  32  34
ENDBRANCH  31  32
ENDBRANCH  30  31
ENDBRANCH   8  30
TORSDOF 12
ENDMDL
MODEL 9
REMARK VINA RESULT:    -4.596      7.218     10.593
REMARK INTER + INTRA:          -9.157
REMARK INTER:                  -7.850
REMARK INTRA:                  -1.307
REMARK UNBOUND:                -2.008
REMARK SMILES C[C@@]12C[C@@]3(O)O[C@@H](O1)[C@]1(COC(=O)c4ccccc4)[C@H]3C[C@@]12O[C@@H]1O[C@H](CO)[C@@H](O)[C@H](O)[C@H]1O
REMARK SMILES IDX 1 1 2 2 3 3 4 4 20 5 21 6 22 7 9 8 7 9 8 10 6 11 23 12 24 13
REMARK SMILES IDX 33 14 25 15 31 16 26 17 29 18 34 19 32 21 27 23 28 24 30 26
REMARK SMILES IDX 5 28 10 30 11 31 12 32 13 33 14 34 15 35 19 36 16 37 18 38
REMARK SMILES IDX 17 39
REMARK H PARENT 34 20 32 22 28 25 30 27 5 29
REMARK Flexibility Score: inf
ROOT
ATOM      1  C   UNL     1      13.423  48.390  27.083  1.00  0.00     0.046 C 
ATOM      2  C   UNL     1      14.171  49.175  28.159  1.00  0.00     0.104 C 
ATOM      3  C   UNL     1      14.672  50.562  27.611  1.00  0.00     0.104 C 
ATOM      4  C   UNL     1      15.471  51.172  28.818  1.00  0.00     0.175 C 
ATOM      5  C   UNL     1      16.482  50.126  29.398  1.00  0.00     0.070 C 
ATOM      6  C   UNL     1      16.774  48.975  28.426  1.00  0.00     0.050 C 
ATOM      7  C   UNL     1      15.386  48.415  28.815  1.00  0.00     0.115 C 
ATOM      8  C   UNL     1      15.475  49.229  30.102  1.00  0.00     0.096 C 
ATOM      9  C   UNL     1      14.187  50.021  30.218  1.00  0.00     0.267 C 
ATOM     10  O   UNL     1      13.313  49.477  29.242  1.00  0.00    -0.342 OA
ATOM     11  O   UNL     1      14.523  51.351  29.851  1.00  0.00    -0.320 OA
ENDROOT
BRANCH   7  12
ATOM     12  O   UNL     1      15.250  47.025  29.071  1.00  0.00    -0.339 OA
BRANCH  12  13
ATOM     13  C   UNL     1      15.777  46.218  28.027  1.00  0.00     0.282 C 
ATOM     14  C   UNL     1      17.216  45.767  28.367  1.00  0.00     0.202 C 
ATOM     15  O   UNL     1      14.909  45.115  27.804  1.00  0.00    -0.341 OA
ATOM     16  C   UNL     1      17.266  44.848  29.612  1.00  0.00     0.179 C 
ATOM     17  C   UNL     1      15.010  44.046  28.745  1.00  0.00     0.178 C 
ATOM     18  C   UNL     1      15.867  44.328  30.007  1.00  0.00     0.177 C 
BRANCH  14  19
ATOM     19  O   UNL     1      17.808  45.145  27.253  1.00  0.00    -0.385 OA
ATOM     20  H   UNL     1      17.660  44.167  27.333  1.00  0.00     0.211 HD
ENDBRANCH  14  19
BRANCH  16  21
ATOM     21  O   UNL     1      17.821  45.560  30.690  1.00  0.00    -0.387 OA
ATOM     22  H   UNL     1      17.088  45.728  31.339  1.00  0.00     0.211 HD
ENDBRANCH  16  21
BRANCH  17  23
ATOM     23  C   UNL     1      13.590  43.609  29.130  1.00  0.00     0.191 C 
BRANCH  23  24
ATOM     24  O   UNL     1      13.251  44.112  30.397  1.00  0.00    -0.394 OA
ATOM     25  H   UNL     1      13.277  45.104  30.340  1.00  0.00     0.210 HD
ENDBRANCH  23  24
ENDBRANCH  17  23
BRANCH  18  26
ATOM     26  O   UNL     1      16.004  43.146  30.754  1.00  0.00    -0.387 OA
ATOM     27  H   UNL     1      16.898  43.179  31.184  1.00  0.00     0.211 HD
ENDBRANCH  18  26
ENDBRANCH  12  13
ENDBRANCH   7  12
BRANCH   4  28
ATOM     28  O   UNL     1      16.086  52.389  28.495  1.00  0.00    -0.365 OA
ATOM     29  H   UNL     1      16.388  52.311  27.551  1.00  0.00     0.214 HD
ENDBRANCH   4  28
BRANCH   8  30
ATOM     30  C   UNL     1      15.982  48.520  31.371  1.00  0.00     0.249 C 
BRANCH  30  31
ATOM     31  O   UNL     1      14.868  48.095  32.147  1.00  0.00    -0.461 OA
BRANCH  31  32
ATOM     32  C   UNL     1      14.884  46.940  32.938  1.00  0.00     0.338 C 
ATOM     33  O   UNL     1      15.923  46.225  32.996  1.00  0.00    -0.246 OA
BRANCH  32  34
ATOM     34  C   UNL     1      13.680  46.571  33.713  1.00  0.00     0.060 A 
ATOM     35  C   UNL     1      13.807  45.824  34.900  1.00  0.00     0.015 A 
ATOM     36  C   UNL     1      12.395  46.953  33.278  1.00  0.00     0.015 A 
ATOM     37  C   UNL     1      12.671  45.462  35.632  1.00  0.00     0.001 A 
ATOM     38  C   UNL     1      11.263  46.584  34.012  1.00  0.00     0.001 A 
ATOM     39  C   UNL     1      11.400  45.840  35.186  1.00  0.00     0.000 A 
ENDBRANCH  32  34
ENDBRANCH  31  32
ENDBRANCH  30  31
ENDBRANCH   8  30
TORSDOF 12
ENDMDL
