MODEL 1
REMARK VINA RESULT:    -4.124      0.000      0.000
REMARK INTER + INTRA:          -6.588
REMARK INTER:                  -5.570
REMARK INTRA:                  -1.018
REMARK UNBOUND:                -1.018
REMARK SMILES CC(=O)CCC=C(C)CCC=C(C)C
REMARK SMILES IDX 7 1 6 2 8 3 9 4 10 5 11 6 13 7 12 8 14 9 5 10 4 11 2 12 3 13
REMARK SMILES IDX 1 14
REMARK H PARENT
REMARK Flexibility Score: inf
ROOT
ATOM      1  C   UNL     1      -0.723   7.015 -10.015  1.00  0.00    -0.077 C 
ATOM      2  C   UNL     1      -0.165   7.191 -11.235  1.00  0.00    -0.028 C 
ATOM      3  C   UNL     1       0.113   6.909  -8.762  1.00  0.00     0.039 C 
ENDROOT
BRANCH   1   4
ATOM      4  C   UNL     1      -2.229   6.918  -9.905  1.00  0.00     0.034 C 
BRANCH   4   5
ATOM      5  C   UNL     1      -2.894   7.252 -11.246  1.00  0.00     0.032 C 
BRANCH   5   6
ATOM      6  C   UNL     1      -4.023   8.237 -11.070  1.00  0.00    -0.028 C 
ATOM      7  C   UNL     1      -2.490  10.181 -11.402  1.00  0.00     0.039 C 
ATOM      8  C   UNL     1      -3.848   9.575 -11.140  1.00  0.00    -0.080 C 
ATOM      9  C   UNL     1      -5.043  10.472 -10.951  1.00  0.00     0.039 C 
ENDBRANCH   5   6
ENDBRANCH   4   5
ENDBRANCH   1   4
BRANCH   2  10
ATOM     10  C   UNL     1       1.314   7.369 -11.494  1.00  0.00     0.035 C 
BRANCH  10  11
ATOM     11  C   UNL     1       1.666   8.850 -11.671  1.00  0.00     0.079 C 
BRANCH  11  12
ATOM     12  C   UNL     1       2.527   9.358 -10.546  1.00  0.00     0.130 C 
ATOM     13  O   UNL     1       3.739   9.207 -10.594  1.00  0.00    -0.300 OA
ATOM     14  C   UNL     1       1.915  10.083  -9.387  1.00  0.00     0.087 C 
ENDBRANCH  11  12
ENDBRANCH  10  11
ENDBRANCH   2  10
TORSDOF 6
ENDMDL
MODEL 2
REMARK VINA RESULT:    -4.093      1.478      1.954
REMARK INTER + INTRA:          -6.547
REMARK INTER:                  -5.400
REMARK INTRA:                  -1.147
REMARK UNBOUND:                -1.018
REMARK SMILES CC(=O)CCC=C(C)CCC=C(C)C
REMARK SMILES IDX 7 1 6 2 8 3 9 4 10 5 11 6 13 7 12 8 14 9 5 10 4 11 2 12 3 13
REMARK SMILES IDX 1 14
REMARK H PARENT
REMARK Flexibility Score: inf
ROOT
ATOM      1  C   UNL     1       0.585   7.581  -8.973  1.00  0.00    -0.077 C 
ATOM      2  C   UNL     1       1.429   7.750 -10.016  1.00  0.00    -0.028 C 
ATOM      3  C   UNL     1       0.810   8.264  -7.644  1.00  0.00     0.039 C 
ENDROOT
BRANCH   1   4
ATOM      4  C   UNL     1      -0.618   6.679  -9.141  1.00  0.00     0.034 C 
BRANCH   4   5
ATOM      5  C   UNL     1      -1.189   6.795 -10.559  1.00  0.00     0.032 C 
BRANCH   5   6
ATOM      6  C   UNL     1      -2.607   7.310 -10.541  1.00  0.00    -0.028 C 
ATOM      7  C   UNL     1      -1.853   9.644 -11.012  1.00  0.00     0.039 C 
ATOM      8  C   UNL     1      -2.920   8.608 -10.748  1.00  0.00    -0.080 C 
ATOM      9  C   UNL     1      -4.369   9.019 -10.710  1.00  0.00     0.039 C 
ENDBRANCH   5   6
ENDBRANCH   4   5
ENDBRANCH   1   4
BRANCH   2  10
ATOM     10  C   UNL     1       2.631   8.666 -10.019  1.00  0.00     0.035 C 
BRANCH  10  11
ATOM     11  C   UNL     1       2.426   9.839 -10.984  1.00  0.00     0.079 C 
BRANCH  11  12
ATOM     12  C   UNL     1       1.890  11.056 -10.279  1.00  0.00     0.130 C 
ATOM     13  O   UNL     1       1.019  11.729 -10.809  1.00  0.00    -0.300 OA
ATOM     14  C   UNL     1       2.389  11.426  -8.915  1.00  0.00     0.087 C 
ENDBRANCH  11  12
ENDBRANCH  10  11
ENDBRANCH   2  10
TORSDOF 6
ENDMDL
MODEL 3
REMARK VINA RESULT:    -4.087      2.994      5.951
REMARK INTER + INTRA:          -6.538
REMARK INTER:                  -5.839
REMARK INTRA:                  -0.700
REMARK UNBOUND:                -1.018
REMARK SMILES CC(=O)CCC=C(C)CCC=C(C)C
REMARK SMILES IDX 7 1 6 2 8 3 9 4 10 5 11 6 13 7 12 8 14 9 5 10 4 11 2 12 3 13
REMARK SMILES IDX 1 14
REMARK H PARENT
REMARK Flexibility Score: inf
ROOT
ATOM      1  C   UNL     1      -2.617   7.669 -10.360  1.00  0.00    -0.077 C 
ATOM      2  C   UNL     1      -3.579   8.609 -10.512  1.00  0.00    -0.028 C 
ATOM      3  C   UNL     1      -2.375   6.598 -11.397  1.00  0.00     0.039 C 
ENDROOT
BRANCH   1   4
ATOM      4  C   UNL     1      -1.762   7.691  -9.112  1.00  0.00     0.034 C 
BRANCH   4   5
ATOM      5  C   UNL     1      -0.550   6.764  -9.268  1.00  0.00     0.032 C 
BRANCH   5   6
ATOM      6  C   UNL     1       0.746   7.532  -9.182  1.00  0.00    -0.028 C 
ATOM      7  C   UNL     1       1.077   7.414 -11.654  1.00  0.00     0.039 C 
ATOM      8  C   UNL     1       1.494   7.834 -10.265  1.00  0.00    -0.080 C 
ATOM      9  C   UNL     1       2.772   8.608 -10.069  1.00  0.00     0.039 C 
ENDBRANCH   5   6
ENDBRANCH   4   5
ENDBRANCH   1   4
BRANCH   2  10
ATOM     10  C   UNL     1      -4.464   8.753 -11.728  1.00  0.00     0.035 C 
BRANCH  10  11
ATOM     11  C   UNL     1      -4.618  10.226 -12.125  1.00  0.00     0.079 C 
BRANCH  11  12
ATOM     12  C   UNL     1      -5.512  10.971 -11.170  1.00  0.00     0.130 C 
ATOM     13  O   UNL     1      -6.530  10.439 -10.752  1.00  0.00    -0.300 OA
ATOM     14  C   UNL     1      -5.143  12.344 -10.698  1.00  0.00     0.087 C 
ENDBRANCH  11  12
ENDBRANCH  10  11
ENDBRANCH   2  10
TORSDOF 6
ENDMDL
MODEL 4
REMARK VINA RESULT:    -4.051     15.978     17.429
REMARK INTER + INTRA:          -6.491
REMARK INTER:                  -5.560
REMARK INTRA:                  -0.931
REMARK UNBOUND:                -1.018
REMARK SMILES CC(=O)CCC=C(C)CCC=C(C)C
REMARK SMILES IDX 7 1 6 2 8 3 9 4 10 5 11 6 13 7 12 8 14 9 5 10 4 11 2 12 3 13
REMARK SMILES IDX 1 14
REMARK H PARENT
REMARK Flexibility Score: inf
ROOT
ATOM      1  C   UNL     1       2.902  13.274   5.324  1.00  0.00    -0.077 C 
ATOM      2  C   UNL     1       2.809  12.451   6.394  1.00  0.00    -0.028 C 
ATOM      3  C   UNL     1       4.125  14.122   5.072  1.00  0.00     0.039 C 
ENDROOT
BRANCH   1   4
ATOM      4  C   UNL     1       1.743  13.347   4.354  1.00  0.00     0.034 C 
BRANCH   4   5
ATOM      5  C   UNL     1       0.406  13.345   5.103  1.00  0.00     0.032 C 
BRANCH   5   6
ATOM      6  C   UNL     1      -0.451  12.170   4.697  1.00  0.00    -0.028 C 
ATOM      7  C   UNL     1      -0.612  11.366   7.056  1.00  0.00     0.039 C 
ATOM      8  C   UNL     1      -0.920  11.264   5.581  1.00  0.00    -0.080 C 
ATOM      9  C   UNL     1      -1.769  10.128   5.072  1.00  0.00     0.039 C 
ENDBRANCH   5   6
ENDBRANCH   4   5
ENDBRANCH   1   4
BRANCH   2  10
ATOM     10  C   UNL     1       3.905  12.224   7.410  1.00  0.00     0.035 C 
BRANCH  10  11
ATOM     11  C   UNL     1       4.302  10.745   7.469  1.00  0.00     0.079 C 
BRANCH  11  12
ATOM     12  C   UNL     1       5.369  10.413   6.460  1.00  0.00     0.130 C 
ATOM     13  O   UNL     1       5.236   9.436   5.737  1.00  0.00    -0.300 OA
ATOM     14  C   UNL     1       6.573  11.291   6.308  1.00  0.00     0.087 C 
ENDBRANCH  11  12
ENDBRANCH  10  11
ENDBRANCH   2  10
TORSDOF 6
ENDMDL
MODEL 5
REMARK VINA RESULT:    -3.858     15.811     18.065
REMARK INTER + INTRA:          -6.229
REMARK INTER:                  -5.617
REMARK INTRA:                  -0.612
REMARK UNBOUND:                -1.018
REMARK SMILES CC(=O)CCC=C(C)CCC=C(C)C
REMARK SMILES IDX 7 1 6 2 8 3 9 4 10 5 11 6 13 7 12 8 14 9 5 10 4 11 2 12 3 13
REMARK SMILES IDX 1 14
REMARK H PARENT
REMARK Flexibility Score: inf
ROOT
ATOM      1  C   UNL     1       1.917  13.531   5.523  1.00  0.00    -0.077 C 
ATOM      2  C   UNL     1       1.199  13.350   4.390  1.00  0.00    -0.028 C 
ATOM      3  C   UNL     1       1.293  13.401   6.892  1.00  0.00     0.039 C 
ENDROOT
BRANCH   1   4
ATOM      4  C   UNL     1       3.386  13.875   5.413  1.00  0.00     0.034 C 
BRANCH   4   5
ATOM      5  C   UNL     1       4.187  13.194   6.530  1.00  0.00     0.032 C 
BRANCH   5   6
ATOM      6  C   UNL     1       5.339  12.395   5.971  1.00  0.00    -0.028 C 
ATOM      7  C   UNL     1       4.744  10.408   7.361  1.00  0.00     0.039 C 
ATOM      8  C   UNL     1       5.600  11.124   6.344  1.00  0.00    -0.080 C 
ATOM      9  C   UNL     1       6.776  10.414   5.724  1.00  0.00     0.039 C 
ENDBRANCH   5   6
ENDBRANCH   4   5
ENDBRANCH   1   4
BRANCH   2  10
ATOM     10  C   UNL     1      -0.255  12.941   4.341  1.00  0.00     0.035 C 
BRANCH  10  11
ATOM     11  C   UNL     1      -0.400  11.418   4.426  1.00  0.00     0.079 C 
BRANCH  11  12
ATOM     12  C   UNL     1      -1.527  11.014   5.339  1.00  0.00     0.130 C 
ATOM     13  O   UNL     1      -1.454   9.968   5.966  1.00  0.00    -0.300 OA
ATOM     14  C   UNL     1      -2.719  11.904   5.516  1.00  0.00     0.087 C 
ENDBRANCH  11  12
ENDBRANCH  10  11
ENDBRANCH   2  10
TORSDOF 6
ENDMDL
MODEL 6
REMARK VINA RESULT:    -3.844      1.519      2.254
REMARK INTER + INTRA:          -6.210
REMARK INTER:                  -5.084
REMARK INTRA:                  -1.126
REMARK UNBOUND:                -1.018
REMARK SMILES CC(=O)CCC=C(C)CCC=C(C)C
REMARK SMILES IDX 7 1 6 2 8 3 9 4 10 5 11 6 13 7 12 8 14 9 5 10 4 11 2 12 3 13
REMARK SMILES IDX 1 14
REMARK H PARENT
REMARK Flexibility Score: inf
ROOT
ATOM      1  C   UNL     1      -2.254   8.089  -9.946  1.00  0.00    -0.077 C 
ATOM      2  C   UNL     1      -1.445   7.524 -10.871  1.00  0.00    -0.028 C 
ATOM      3  C   UNL     1      -1.891   8.122  -8.480  1.00  0.00     0.039 C 
ENDROOT
BRANCH   1   4
ATOM      4  C   UNL     1      -3.564   8.701 -10.393  1.00  0.00     0.034 C 
BRANCH   4   5
ATOM      5  C   UNL     1      -3.391   9.437 -11.727  1.00  0.00     0.032 C 
BRANCH   5   6
ATOM      6  C   UNL     1      -3.419  10.934 -11.538  1.00  0.00    -0.028 C 
ATOM      7  C   UNL     1      -0.933  11.086 -11.715  1.00  0.00     0.039 C 
ATOM      8  C   UNL     1      -2.304  11.694 -11.532  1.00  0.00    -0.080 C 
ATOM      9  C   UNL     1      -2.442  13.182 -11.336  1.00  0.00     0.039 C 
ENDBRANCH   5   6
ENDBRANCH   4   5
ENDBRANCH   1   4
BRANCH   2  10
ATOM     10  C   UNL     1      -0.083   6.933 -10.586  1.00  0.00     0.035 C 
BRANCH  10  11
ATOM     11  C   UNL     1       1.027   7.955 -10.858  1.00  0.00     0.079 C 
BRANCH  11  12
ATOM     12  C   UNL     1       1.990   8.054  -9.706  1.00  0.00     0.130 C 
ATOM     13  O   UNL     1       3.006   8.723  -9.821  1.00  0.00    -0.300 OA
ATOM     14  C   UNL     1       1.693   7.371  -8.406  1.00  0.00     0.087 C 
ENDBRANCH  11  12
ENDBRANCH  10  11
ENDBRANCH   2  10
TORSDOF 6
ENDMDL
MODEL 7
REMARK VINA RESULT:    -3.824      2.640      5.100
REMARK INTER + INTRA:          -6.183
REMARK INTER:                  -5.027
REMARK INTRA:                  -1.156
REMARK UNBOUND:                -1.018
REMARK SMILES CC(=O)CCC=C(C)CCC=C(C)C
REMARK SMILES IDX 7 1 6 2 8 3 9 4 10 5 11 6 13 7 12 8 14 9 5 10 4 11 2 12 3 13
REMARK SMILES IDX 1 14
REMARK H PARENT
REMARK Flexibility Score: inf
ROOT
ATOM      1  C   UNL     1       0.119   7.481  -9.280  1.00  0.00    -0.077 C 
ATOM      2  C   UNL     1      -0.744   6.999 -10.204  1.00  0.00    -0.028 C 
ATOM      3  C   UNL     1      -0.359   8.125  -8.000  1.00  0.00     0.039 C 
ENDROOT
BRANCH   1   4
ATOM      4  C   UNL     1       1.606   7.375  -9.540  1.00  0.00     0.034 C 
BRANCH   4   5
ATOM      5  C   UNL     1       2.006   8.215 -10.758  1.00  0.00     0.032 C 
BRANCH   5   6
ATOM      6  C   UNL     1       2.295   9.644 -10.370  1.00  0.00    -0.028 C 
ATOM      7  C   UNL     1       0.152  10.439 -11.375  1.00  0.00     0.039 C 
ATOM      8  C   UNL     1       1.455  10.665 -10.646  1.00  0.00    -0.080 C 
ATOM      9  C   UNL     1       1.839  12.056 -10.212  1.00  0.00     0.039 C 
ENDBRANCH   5   6
ENDBRANCH   4   5
ENDBRANCH   1   4
BRANCH   2  10
ATOM     10  C   UNL     1      -2.248   6.977 -10.056  1.00  0.00     0.035 C 
BRANCH  10  11
ATOM     11  C   UNL     1      -2.936   7.348 -11.375  1.00  0.00     0.079 C 
BRANCH  11  12
ATOM     12  C   UNL     1      -3.890   8.498 -11.203  1.00  0.00     0.130 C 
ATOM     13  O   UNL     1      -4.946   8.508 -11.819  1.00  0.00    -0.300 OA
ATOM     14  C   UNL     1      -3.575   9.613 -10.252  1.00  0.00     0.087 C 
ENDBRANCH  11  12
ENDBRANCH  10  11
ENDBRANCH   2  10
TORSDOF 6
ENDMDL
MODEL 8
REMARK VINA RESULT:    -3.801      1.424      2.340
REMARK INTER + INTRA:          -6.152
REMARK INTER:                  -5.493
REMARK INTRA:                  -0.659
REMARK UNBOUND:                -1.018
REMARK SMILES CC(=O)CCC=C(C)CCC=C(C)C
REMARK SMILES IDX 7 1 6 2 8 3 9 4 10 5 11 6 13 7 12 8 14 9 5 10 4 11 2 12 3 13
REMARK SMILES IDX 1 14
REMARK H PARENT
REMARK Flexibility Score: inf
ROOT
ATOM      1  C   UNL     1      -1.915   7.831  -9.892  1.00  0.00    -0.077 C 
ATOM      2  C   UNL     1      -1.059   7.728  -8.849  1.00  0.00    -0.028 C 
ATOM      3  C   UNL     1      -1.818   6.926 -11.098  1.00  0.00     0.039 C 
ENDROOT
BRANCH   1   4
ATOM      4  C   UNL     1      -2.999   8.885  -9.849  1.00  0.00     0.034 C 
BRANCH   4   5
ATOM      5  C   UNL     1      -3.474   9.233 -11.265  1.00  0.00     0.032 C 
BRANCH   5   6
ATOM      6  C   UNL     1      -4.897   9.736 -11.259  1.00  0.00    -0.028 C 
ATOM      7  C   UNL     1      -4.152  12.094 -11.609  1.00  0.00     0.039 C 
ATOM      8  C   UNL     1      -5.216  11.039 -11.417  1.00  0.00    -0.080 C 
ATOM      9  C   UNL     1      -6.669  11.437 -11.397  1.00  0.00     0.039 C 
ENDBRANCH   5   6
ENDBRANCH   4   5
ENDBRANCH   1   4
BRANCH   2  10
ATOM     10  C   UNL     1       0.029   6.686  -8.720  1.00  0.00     0.035 C 
BRANCH  10  11
ATOM     11  C   UNL     1       1.398   7.344  -8.519  1.00  0.00     0.079 C 
BRANCH  11  12
ATOM     12  C   UNL     1       1.907   7.975  -9.787  1.00  0.00     0.130 C 
ATOM     13  O   UNL     1       1.973   7.311 -10.811  1.00  0.00    -0.300 OA
ATOM     14  C   UNL     1       2.297   9.422  -9.813  1.00  0.00     0.087 C 
ENDBRANCH  11  12
ENDBRANCH  10  11
ENDBRANCH   2  10
TORSDOF 6
ENDMDL
MODEL 9
REMARK VINA RESULT:    -3.788     15.799     17.130
REMARK INTER + INTRA:          -6.134
REMARK INTER:                  -5.471
REMARK INTRA:                  -0.664
REMARK UNBOUND:                -1.018
REMARK SMILES CC(=O)CCC=C(C)CCC=C(C)C
REMARK SMILES IDX 7 1 6 2 8 3 9 4 10 5 11 6 13 7 12 8 14 9 5 10 4 11 2 12 3 13
REMARK SMILES IDX 1 14
REMARK H PARENT
REMARK Flexibility Score: inf
ROOT
ATOM      1  C   UNL     1       2.012  12.981   5.787  1.00  0.00    -0.077 C 
ATOM      2  C   UNL     1       3.354  13.142   5.723  1.00  0.00    -0.028 C 
ATOM      3  C   UNL     1       1.361  12.117   6.840  1.00  0.00     0.039 C 
ENDROOT
BRANCH   1   4
ATOM      4  C   UNL     1       1.140  13.686   4.771  1.00  0.00     0.034 C 
BRANCH   4   5
ATOM      5  C   UNL     1       0.152  12.704   4.130  1.00  0.00     0.032 C 
BRANCH   5   6
ATOM      6  C   UNL     1      -1.259  12.958   4.599  1.00  0.00    -0.028 C 
ATOM      7  C   UNL     1      -1.584  10.554   5.191  1.00  0.00     0.039 C 
ATOM      8  C   UNL     1      -2.058  11.984   5.086  1.00  0.00    -0.080 C 
ATOM      9  C   UNL     1      -3.452  12.344   5.530  1.00  0.00     0.039 C 
ENDBRANCH   5   6
ENDBRANCH   4   5
ENDBRANCH   1   4
BRANCH   2  10
ATOM     10  C   UNL     1       4.345  12.557   6.703  1.00  0.00     0.035 C 
BRANCH  10  11
ATOM     11  C   UNL     1       5.699  12.304   6.031  1.00  0.00     0.079 C 
BRANCH  11  12
ATOM     12  C   UNL     1       6.125  10.866   6.158  1.00  0.00     0.130 C 
ATOM     13  O   UNL     1       7.160  10.491   5.626  1.00  0.00    -0.300 OA
ATOM     14  C   UNL     1       5.312   9.899   6.963  1.00  0.00     0.087 C 
ENDBRANCH  11  12
ENDBRANCH  10  11
ENDBRANCH   2  10
TORSDOF 6
ENDMDL
