MODEL 1
REMARK VINA RESULT:    82.328      0.000      0.000
REMARK INTER + INTRA:         129.222
REMARK INTER:                 130.457
REMARK INTRA:                  -1.235
REMARK UNBOUND:                -1.235
REMARK SMILES C[C@@H]1O[C@@H](O[C@@H]2[C@H](Oc3cc(O)c4c(c3)O[C@@H](c3ccc(O)cc3)CC4=O)O[C@H](CO)[C@@H](O)[C@H]2O)[C@H](O)[C@H](O)[C@@H]1O
REMARK SMILES IDX 6 1 34 2 32 3 29 4 28 5 7 6 5 7 4 8 1 9 2 10 40 11 3 12
REMARK SMILES IDX 38 13 36 14 41 15 39 17 37 19 35 21 8 23 9 24 10 25 15 26
REMARK SMILES IDX 11 27 14 28 13 29 16 30 26 31 17 32 27 33 25 34 12 35 18 37
REMARK SMILES IDX 19 38 24 39 20 40 23 41 21 42 22 43 33 45 30 47 31 48
REMARK H PARENT 41 16 39 18 37 20 35 22 12 36 22 44 33 46 31 49
REMARK Flexibility Score: inf
ROOT
ATOM      1  C   UNL     1      10.391  16.898  21.179  1.00  0.00     0.221 C 
ATOM      2  C   UNL     1       9.890  16.140  22.450  1.00  0.00     0.181 C 
ATOM      3  C   UNL     1      11.047  15.182  22.869  1.00  0.00     0.177 C 
ATOM      4  C   UNL     1      12.474  15.798  22.547  1.00  0.00     0.179 C 
ATOM      5  O   UNL     1      12.689  16.067  21.117  1.00  0.00    -0.332 OA
ATOM      6  C   UNL     1      11.490  16.065  20.387  1.00  0.00     0.339 C 
ENDROOT
BRANCH   1   7
ATOM      7  O   UNL     1       9.400  17.700  20.395  1.00  0.00    -0.337 OA
BRANCH   7   8
ATOM      8  C   UNL     1       8.449  18.440  21.186  1.00  0.00     0.282 C 
ATOM      9  C   UNL     1       5.600  18.311  18.929  1.00  0.00     0.041 C 
ATOM     10  C   UNL     1       6.684  19.110  19.816  1.00  0.00     0.150 C 
ATOM     11  C   UNL     1       6.641  20.670  20.234  1.00  0.00     0.174 C 
ATOM     12  O   UNL     1       7.106  18.158  20.820  1.00  0.00    -0.344 OA
ATOM     13  C   UNL     1       7.786  21.057  21.385  1.00  0.00     0.179 C 
ATOM     14  C   UNL     1       8.552  19.791  22.102  1.00  0.00     0.202 C 
BRANCH  11  15
ATOM     15  O   UNL     1       5.326  21.100  20.560  1.00  0.00    -0.388 OA
ATOM     16  H   UNL     1       4.865  22.026  20.122  1.00  0.00     0.211 HD
ENDBRANCH  11  15
BRANCH  13  17
ATOM     17  O   UNL     1       7.307  22.000  22.304  1.00  0.00    -0.387 OA
ATOM     18  H   UNL     1       8.027  22.757  22.284  1.00  0.00     0.211 HD
ENDBRANCH  13  17
BRANCH  14  19
ATOM     19  O   UNL     1       8.073  19.613  23.365  1.00  0.00    -0.385 OA
ATOM     20  H   UNL     1       7.164  19.201  23.401  1.00  0.00     0.211 HD
ENDBRANCH  14  19
ENDBRANCH   7   8
ENDBRANCH   1   7
BRANCH   2  21
ATOM     21  O   UNL     1       9.476  17.024  23.433  1.00  0.00    -0.387 OA
ATOM     22  H   UNL     1       8.859  16.559  24.049  1.00  0.00     0.211 HD
ENDBRANCH   2  21
BRANCH   6  23
ATOM     23  O   UNL     1      11.066  14.735  19.990  1.00  0.00    -0.462 OA
BRANCH  23  24
ATOM     24  C   UNL     1      11.113  14.256  18.723  1.00  0.00     0.130 A 
ATOM     25  C   UNL     1      12.150  14.693  17.879  1.00  0.00     0.093 A 
ATOM     26  C   UNL     1      10.501  13.068  18.385  1.00  0.00     0.094 A 
ATOM     27  C   UNL     1      13.096  13.744  17.435  1.00  0.00     0.133 A 
ATOM     28  C   UNL     1      11.394  12.119  17.865  1.00  0.00     0.138 A 
ATOM     29  C   UNL     1      12.682  12.382  17.521  1.00  0.00     0.102 A 
ATOM     30  O   UNL     1      10.856  10.811  17.780  1.00  0.00    -0.484 OA
ATOM     31  C   UNL     1      13.609  11.253  17.109  1.00  0.00     0.174 C 
ATOM     32  C   UNL     1      11.725   9.669  17.503  1.00  0.00     0.211 C 
ATOM     33  O   UNL     1      14.861  11.378  17.207  1.00  0.00    -0.294 OA
ATOM     34  C   UNL     1      12.960  10.061  16.669  1.00  0.00     0.131 C 
BRANCH  27  35
ATOM     35  O   UNL     1      14.279  14.206  16.809  1.00  0.00    -0.507 OA
ATOM     36  H   UNL     1      15.254  14.174  17.214  1.00  0.00     0.293 HD
ENDBRANCH  27  35
BRANCH  32  37
ATOM     37  C   UNL     1      10.854   8.646  16.844  1.00  0.00    -0.007 A 
ATOM     38  C   UNL     1       9.826   9.013  15.893  1.00  0.00     0.011 A 
ATOM     39  C   UNL     1      11.140   7.244  16.932  1.00  0.00     0.011 A 
ATOM     40  C   UNL     1       9.117   8.073  15.166  1.00  0.00     0.046 A 
ATOM     41  C   UNL     1      10.419   6.319  16.201  1.00  0.00     0.046 A 
ATOM     42  C   UNL     1       9.505   6.777  15.231  1.00  0.00     0.115 A 
BRANCH  42  43
ATOM     43  O   UNL     1       8.837   5.876  14.397  1.00  0.00    -0.508 OA
ATOM     44  H   UNL     1       9.377   5.471  13.540  1.00  0.00     0.293 HD
ENDBRANCH  42  43
ENDBRANCH  32  37
ENDBRANCH  23  24
ENDBRANCH   6  23
BRANCH   3  45
ATOM     45  O   UNL     1      10.716  14.012  23.653  1.00  0.00    -0.387 OA
ATOM     46  H   UNL     1      10.134  14.408  24.381  1.00  0.00     0.211 HD
ENDBRANCH   3  45
BRANCH   4  47
ATOM     47  C   UNL     1      13.669  15.155  23.126  1.00  0.00     0.191 C 
BRANCH  47  48
ATOM     48  O   UNL     1      13.436  15.005  24.508  1.00  0.00    -0.394 OA
ATOM     49  H   UNL     1      12.480  14.977  24.701  1.00  0.00     0.210 HD
ENDBRANCH  47  48
ENDBRANCH   4  47
TORSDOF 14
ENDMDL
MODEL 2
REMARK VINA RESULT:    84.586      2.923      6.647
REMARK INTER + INTRA:         132.800
REMARK INTER:                 134.241
REMARK INTRA:                  -1.440
REMARK UNBOUND:                -1.235
REMARK SMILES C[C@@H]1O[C@@H](O[C@@H]2[C@H](Oc3cc(O)c4c(c3)O[C@@H](c3ccc(O)cc3)CC4=O)O[C@H](CO)[C@@H](O)[C@H]2O)[C@H](O)[C@H](O)[C@@H]1O
REMARK SMILES IDX 6 1 34 2 32 3 29 4 28 5 7 6 5 7 4 8 1 9 2 10 40 11 3 12
REMARK SMILES IDX 38 13 36 14 41 15 39 17 37 19 35 21 8 23 9 24 10 25 15 26
REMARK SMILES IDX 11 27 14 28 13 29 16 30 26 31 17 32 27 33 25 34 12 35 18 37
REMARK SMILES IDX 19 38 24 39 20 40 23 41 21 42 22 43 33 45 30 47 31 48
REMARK H PARENT 41 16 39 18 37 20 35 22 12 36 22 44 33 46 31 49
REMARK Flexibility Score: inf
ROOT
ATOM      1  C   UNL     1      12.561  13.856  22.422  1.00  0.00     0.221 C 
ATOM      2  C   UNL     1      12.525  15.322  22.962  1.00  0.00     0.181 C 
ATOM      3  C   UNL     1      11.045  15.796  22.827  1.00  0.00     0.177 C 
ATOM      4  C   UNL     1      10.018  14.607  23.042  1.00  0.00     0.179 C 
ATOM      5  O   UNL     1      10.168  13.517  22.064  1.00  0.00    -0.332 OA
ATOM      6  C   UNL     1      11.393  13.577  21.382  1.00  0.00     0.339 C 
ENDROOT
BRANCH   1   7
ATOM      7  O   UNL     1      13.896  13.221  22.184  1.00  0.00    -0.337 OA
BRANCH   7   8
ATOM      8  C   UNL     1      14.379  12.390  23.259  1.00  0.00     0.282 C 
ATOM      9  C   UNL     1      15.766  14.979  25.406  1.00  0.00     0.041 C 
ATOM     10  C   UNL     1      15.887  13.620  24.546  1.00  0.00     0.150 C 
ATOM     11  C   UNL     1      17.089  12.542  24.592  1.00  0.00     0.174 C 
ATOM     12  O   UNL     1      14.535  13.113  24.472  1.00  0.00    -0.344 OA
ATOM     13  C   UNL     1      16.722  11.136  23.772  1.00  0.00     0.179 C 
ATOM     14  C   UNL     1      15.154  10.951  23.312  1.00  0.00     0.202 C 
BRANCH  11  15
ATOM     15  O   UNL     1      17.567  12.332  25.915  1.00  0.00    -0.388 OA
ATOM     16  H   UNL     1      17.625  11.312  26.383  1.00  0.00     0.211 HD
ENDBRANCH  11  15
BRANCH  13  17
ATOM     17  O   UNL     1      17.242  10.004  24.414  1.00  0.00    -0.387 OA
ATOM     18  H   UNL     1      16.535   9.787  25.151  1.00  0.00     0.211 HD
ENDBRANCH  13  17
BRANCH  14  19
ATOM     19  O   UNL     1      14.536  10.046  24.122  1.00  0.00    -0.385 OA
ATOM     20  H   UNL     1      15.164   9.481  24.654  1.00  0.00     0.211 HD
ENDBRANCH  14  19
ENDBRANCH   7   8
ENDBRANCH   1   7
BRANCH   2  21
ATOM     21  O   UNL     1      13.052  15.401  24.241  1.00  0.00    -0.387 OA
ATOM     22  H   UNL     1      14.012  15.170  24.211  1.00  0.00     0.211 HD
ENDBRANCH   2  21
BRANCH   6  23
ATOM     23  O   UNL     1      11.368  14.483  20.247  1.00  0.00    -0.462 OA
BRANCH  23  24
ATOM     24  C   UNL     1      11.339  14.093  18.949  1.00  0.00     0.130 A 
ATOM     25  C   UNL     1      12.269  14.659  18.059  1.00  0.00     0.093 A 
ATOM     26  C   UNL     1      10.783  12.888  18.577  1.00  0.00     0.094 A 
ATOM     27  C   UNL     1      13.235  13.813  17.473  1.00  0.00     0.133 A 
ATOM     28  C   UNL     1      11.691  12.043  17.921  1.00  0.00     0.138 A 
ATOM     29  C   UNL     1      12.924  12.422  17.495  1.00  0.00     0.102 A 
ATOM     30  O   UNL     1      11.237  10.708  17.786  1.00  0.00    -0.484 OA
ATOM     31  C   UNL     1      13.886  11.394  16.930  1.00  0.00     0.174 C 
ATOM     32  C   UNL     1      12.154   9.653  17.359  1.00  0.00     0.211 C 
ATOM     33  O   UNL     1      15.131  11.603  16.936  1.00  0.00    -0.294 OA
ATOM     34  C   UNL     1      13.284  10.189  16.460  1.00  0.00     0.131 C 
BRANCH  27  35
ATOM     35  O   UNL     1      14.328  14.402  16.790  1.00  0.00    -0.507 OA
ATOM     36  H   UNL     1      14.278  15.201  16.103  1.00  0.00     0.293 HD
ENDBRANCH  27  35
BRANCH  32  37
ATOM     37  C   UNL     1      11.301   8.614  16.701  1.00  0.00    -0.007 A 
ATOM     38  C   UNL     1      11.101   7.305  17.286  1.00  0.00     0.011 A 
ATOM     39  C   UNL     1      10.451   8.931  15.592  1.00  0.00     0.011 A 
ATOM     40  C   UNL     1      10.200   6.391  16.769  1.00  0.00     0.046 A 
ATOM     41  C   UNL     1       9.559   8.004  15.087  1.00  0.00     0.046 A 
ATOM     42  C   UNL     1       9.366   6.793  15.780  1.00  0.00     0.115 A 
BRANCH  42  43
ATOM     43  O   UNL     1       8.395   5.878  15.363  1.00  0.00    -0.508 OA
ATOM     44  H   UNL     1       8.729   4.920  14.962  1.00  0.00     0.293 HD
ENDBRANCH  42  43
ENDBRANCH  32  37
ENDBRANCH  23  24
ENDBRANCH   6  23
BRANCH   3  45
ATOM     45  O   UNL     1      10.789  17.218  22.746  1.00  0.00    -0.387 OA
ATOM     46  H   UNL     1      10.300  17.291  21.862  1.00  0.00     0.211 HD
ENDBRANCH   3  45
BRANCH   4  47
ATOM     47  C   UNL     1       8.590  14.929  23.224  1.00  0.00     0.191 C 
BRANCH  47  48
ATOM     48  O   UNL     1       7.857  13.759  22.941  1.00  0.00    -0.394 OA
ATOM     49  H   UNL     1       6.937  13.972  22.694  1.00  0.00     0.210 HD
ENDBRANCH  47  48
ENDBRANCH   4  47
TORSDOF 14
ENDMDL
