MODEL 1
REMARK VINA RESULT:    -4.035      0.000      0.000
REMARK INTER + INTRA:          -5.587
REMARK INTER:                  -5.451
REMARK INTRA:                  -0.137
REMARK UNBOUND:                -0.137
REMARK SMILES C=C1C(=O)O[C@H]2[C@H]1CCC(C)=CCC[C@@]1(C)O[C@@H]21
REMARK SMILES IDX 6 1 7 2 2 3 1 4 3 5 4 6 5 7 8 8 9 9 10 10 11 11 12 12 18 14
REMARK SMILES IDX 15 15 17 16 16 17 14 18 13 19
REMARK H PARENT
REMARK Flexibility Score: 70.00
ROOT
ATOM      1  C   UNL     1      16.241 -52.303   7.350  1.00  0.00     0.216 C 
ATOM      2  C   UNL     1      14.766 -51.944   7.765  1.00  0.00     0.070 C 
ATOM      3  C   UNL     1      14.138 -53.291   7.982  1.00  0.00     0.037 C 
ATOM      4  C   UNL     1      12.877 -53.525   8.346  1.00  0.00     0.021 C 
ATOM      5  C   UNL     1      15.191 -54.274   7.949  1.00  0.00     0.334 C 
ATOM      6  O   UNL     1      15.053 -55.506   8.178  1.00  0.00    -0.247 OA
ATOM      7  O   UNL     1      16.402 -53.683   7.668  1.00  0.00    -0.455 OA
ENDROOT
BRANCH   2   8
ATOM      8  C   UNL     1      14.020 -51.088   6.699  1.00  0.00     0.017 C 
BRANCH   8   9
ATOM      9  C   UNL     1      14.065 -49.576   7.018  1.00  0.00     0.031 C 
BRANCH   9  10
ATOM     10  C   UNL     1      14.264 -48.728   5.776  1.00  0.00    -0.077 C 
ATOM     11  C   UNL     1      13.103 -48.551   4.835  1.00  0.00     0.039 C 
ATOM     12  C   UNL     1      15.444 -48.136   5.463  1.00  0.00    -0.028 CG0
ATOM     13  G   UNL     1      16.717 -48.264   6.270  1.00  0.00     0.000 G0
ENDBRANCH   9  10
ENDBRANCH   8   9
ENDBRANCH   2   8
BRANCH   1  14
ATOM     14  C   UNL     1      17.347 -51.485   8.057  1.00  0.00     0.192 C 
ATOM     15  C   UNL     1      17.894 -50.227   7.438  1.00  0.00     0.096 C 
ATOM     16  O   UNL     1      16.911 -50.202   8.447  1.00  0.00    -0.362 OA
ATOM     17  C   UNL     1      19.232 -49.705   7.963  1.00  0.00     0.045 C 
BRANCH  15  18
ATOM     18  C   UNL     1      17.372 -49.645   6.103  1.00  0.00     0.042 C 
BRANCH  18  19
ATOM     19  C   UNL     1      16.730 -48.250   6.255  1.00  0.00     0.030 CG0
ATOM     20  G   UNL     1      15.454 -48.137   5.449  1.00  0.00     0.000 G0
ENDBRANCH  18  19
ENDBRANCH  15  18
ENDBRANCH   1  14
TORSDOF 0
ENDMDL
MODEL 2
REMARK VINA RESULT:    -3.680     11.813     12.772
REMARK INTER + INTRA:          -5.107
REMARK INTER:                  -5.238
REMARK INTRA:                   0.131
REMARK UNBOUND:                -0.137
REMARK SMILES C=C1C(=O)O[C@H]2[C@H]1CCC(C)=CCC[C@@]1(C)O[C@@H]21
REMARK SMILES IDX 6 1 7 2 2 3 1 4 3 5 4 6 5 7 8 8 9 9 10 10 11 11 12 12 18 14
REMARK SMILES IDX 15 15 17 16 16 17 14 18 13 19
REMARK H PARENT
REMARK Flexibility Score: 70.00
ROOT
ATOM      1  C   UNL     1      16.612 -54.344  -3.581  1.00  0.00     0.216 C 
ATOM      2  C   UNL     1      15.181 -53.688  -3.535  1.00  0.00     0.070 C 
ATOM      3  C   UNL     1      15.275 -52.753  -2.364  1.00  0.00     0.037 C 
ATOM      4  C   UNL     1      14.305 -51.961  -1.906  1.00  0.00     0.021 C 
ATOM      5  C   UNL     1      16.657 -52.693  -1.961  1.00  0.00     0.334 C 
ATOM      6  O   UNL     1      17.129 -51.944  -1.064  1.00  0.00    -0.247 OA
ATOM      7  O   UNL     1      17.424 -53.547  -2.721  1.00  0.00    -0.455 OA
ENDROOT
BRANCH   2   8
ATOM      8  C   UNL     1      14.034 -54.731  -3.393  1.00  0.00     0.017 C 
BRANCH   8   9
ATOM      9  C   UNL     1      14.548 -56.115  -2.934  1.00  0.00     0.031 C 
BRANCH   9  10
ATOM     10  C   UNL     1      13.809 -57.258  -3.604  1.00  0.00    -0.077 C 
ATOM     11  C   UNL     1      12.889 -58.105  -2.766  1.00  0.00     0.039 C 
ATOM     12  C   UNL     1      13.950 -57.565  -4.918  1.00  0.00    -0.028 CG0
ATOM     13  G   UNL     1      14.875 -56.850  -5.878  1.00  0.00     0.000 G0
ENDBRANCH   9  10
ENDBRANCH   8   9
ENDBRANCH   2   8
BRANCH   1  14
ATOM     14  C   UNL     1      17.267 -54.411  -4.981  1.00  0.00     0.192 C 
ATOM     15  C   UNL     1      17.144 -55.646  -5.832  1.00  0.00     0.096 C 
ATOM     16  O   UNL     1      16.320 -54.519  -6.020  1.00  0.00    -0.362 OA
ATOM     17  C   UNL     1      18.128 -55.805  -6.991  1.00  0.00     0.045 C 
BRANCH  15  18
ATOM     18  C   UNL     1      16.336 -56.893  -5.402  1.00  0.00     0.042 C 
BRANCH  18  19
ATOM     19  C   UNL     1      14.872 -56.869  -5.890  1.00  0.00     0.030 CG0
ATOM     20  G   UNL     1      13.950 -57.564  -4.912  1.00  0.00     0.000 G0
ENDBRANCH  18  19
ENDBRANCH  15  18
ENDBRANCH   1  14
TORSDOF 0
ENDMDL
MODEL 3
REMARK VINA RESULT:    -3.636      2.518      4.857
REMARK INTER + INTRA:          -5.048
REMARK INTER:                  -5.319
REMARK INTRA:                   0.271
REMARK UNBOUND:                -0.137
REMARK SMILES C=C1C(=O)O[C@H]2[C@H]1CCC(C)=CCC[C@@]1(C)O[C@@H]21
REMARK SMILES IDX 6 1 7 2 2 3 1 4 3 5 4 6 5 7 8 8 9 9 10 10 11 11 12 12 18 14
REMARK SMILES IDX 15 15 17 16 16 17 14 18 13 19
REMARK H PARENT
REMARK Flexibility Score: 70.00
ROOT
ATOM      1  C   UNL     1      16.329 -49.686   6.859  1.00  0.00     0.216 C 
ATOM      2  C   UNL     1      16.131 -49.768   8.419  1.00  0.00     0.070 C 
ATOM      3  C   UNL     1      17.539 -49.862   8.934  1.00  0.00     0.037 C 
ATOM      4  C   UNL     1      17.907 -49.960  10.212  1.00  0.00     0.021 C 
ATOM      5  C   UNL     1      18.427 -49.604   7.829  1.00  0.00     0.334 C 
ATOM      6  O   UNL     1      19.682 -49.515   7.901  1.00  0.00    -0.247 OA
ATOM      7  O   UNL     1      17.716 -49.423   6.665  1.00  0.00    -0.455 OA
ENDROOT
BRANCH   2   8
ATOM      8  C   UNL     1      15.238 -50.965   8.861  1.00  0.00     0.017 C 
BRANCH   8   9
ATOM      9  C   UNL     1      15.370 -52.180   7.915  1.00  0.00     0.031 C 
BRANCH   9  10
ATOM     10  C   UNL     1      14.034 -52.840   7.631  1.00  0.00    -0.077 C 
ATOM     11  C   UNL     1      13.918 -54.330   7.813  1.00  0.00     0.039 C 
ATOM     12  C   UNL     1      12.944 -52.155   7.203  1.00  0.00    -0.028 CG0
ATOM     13  G   UNL     1      12.913 -50.670   6.918  1.00  0.00     0.000 G0
ENDBRANCH   9  10
ENDBRANCH   8   9
ENDBRANCH   2   8
BRANCH   1  14
ATOM     14  C   UNL     1      15.498 -48.596   6.142  1.00  0.00     0.192 C 
ATOM     15  C   UNL     1      14.180 -48.929   5.497  1.00  0.00     0.096 C 
ATOM     16  O   UNL     1      14.264 -48.346   6.776  1.00  0.00    -0.362 OA
ATOM     17  C   UNL     1      13.622 -47.935   4.477  1.00  0.00     0.045 C 
BRANCH  15  18
ATOM     18  C   UNL     1      13.549 -50.340   5.541  1.00  0.00     0.042 C 
BRANCH  18  19
ATOM     19  C   UNL     1      12.892 -50.672   6.897  1.00  0.00     0.030 CG0
ATOM     20  G   UNL     1      12.958 -52.154   7.197  1.00  0.00     0.000 G0
ENDBRANCH  18  19
ENDBRANCH  15  18
ENDBRANCH   1  14
TORSDOF 0
ENDMDL
MODEL 4
REMARK VINA RESULT:    -3.629      2.275      4.505
REMARK INTER + INTRA:          -5.039
REMARK INTER:                  -5.581
REMARK INTRA:                   0.542
REMARK UNBOUND:                -0.137
REMARK SMILES C=C1C(=O)O[C@H]2[C@H]1CCC(C)=CCC[C@@]1(C)O[C@@H]21
REMARK SMILES IDX 6 1 7 2 2 3 1 4 3 5 4 6 5 7 8 8 9 9 10 10 11 11 12 12 18 14
REMARK SMILES IDX 15 15 17 16 16 17 14 18 13 19
REMARK H PARENT
REMARK Flexibility Score: 70.00
ROOT
ATOM      1  C   UNL     1      16.013 -49.814   7.949  1.00  0.00     0.216 C 
ATOM      2  C   UNL     1      16.071 -49.628   6.386  1.00  0.00     0.070 C 
ATOM      3  C   UNL     1      17.532 -49.395   6.127  1.00  0.00     0.037 C 
ATOM      4  C   UNL     1      18.097 -49.174   4.940  1.00  0.00     0.021 C 
ATOM      5  C   UNL     1      18.243 -49.672   7.349  1.00  0.00     0.334 C 
ATOM      6  O   UNL     1      19.495 -49.666   7.488  1.00  0.00    -0.247 OA
ATOM      7  O   UNL     1      17.366 -49.992   8.361  1.00  0.00    -0.455 OA
ENDROOT
BRANCH   2   8
ATOM      8  C   UNL     1      15.167 -48.468   5.875  1.00  0.00     0.017 C 
BRANCH   8   9
ATOM      9  C   UNL     1      15.286 -47.198   6.747  1.00  0.00     0.031 C 
BRANCH   9  10
ATOM     10  C   UNL     1      13.934 -46.594   7.078  1.00  0.00    -0.077 C 
ATOM     11  C   UNL     1      13.525 -45.326   6.379  1.00  0.00     0.039 C 
ATOM     12  C   UNL     1      13.083 -47.133   7.986  1.00  0.00    -0.028 CG0
ATOM     13  G   UNL     1      13.368 -48.368   8.813  1.00  0.00     0.000 G0
ENDBRANCH   9  10
ENDBRANCH   8   9
ENDBRANCH   2   8
BRANCH   1  14
ATOM     14  C   UNL     1      15.168 -51.012   8.443  1.00  0.00     0.192 C 
ATOM     15  C   UNL     1      13.671 -50.911   8.545  1.00  0.00     0.096 C 
ATOM     16  O   UNL     1      14.309 -51.520   7.448  1.00  0.00    -0.362 OA
ATOM     17  C   UNL     1      12.951 -51.949   9.406  1.00  0.00     0.045 C 
BRANCH  15  18
ATOM     18  C   UNL     1      12.877 -49.650   8.131  1.00  0.00     0.042 C 
BRANCH  18  19
ATOM     19  C   UNL     1      13.363 -48.365   8.834  1.00  0.00     0.030 CG0
ATOM     20  G   UNL     1      13.078 -47.135   8.001  1.00  0.00     0.000 G0
ENDBRANCH  18  19
ENDBRANCH  15  18
ENDBRANCH   1  14
TORSDOF 0
ENDMDL
MODEL 5
REMARK VINA RESULT:    -3.627      2.401      4.887
REMARK INTER + INTRA:          -5.036
REMARK INTER:                  -5.284
REMARK INTRA:                   0.248
REMARK UNBOUND:                -0.137
REMARK SMILES C=C1C(=O)O[C@H]2[C@H]1CCC(C)=CCC[C@@]1(C)O[C@@H]21
REMARK SMILES IDX 6 1 7 2 2 3 1 4 3 5 4 6 5 7 8 8 9 9 10 10 11 11 12 12 18 14
REMARK SMILES IDX 15 15 17 16 16 17 14 18 13 19
REMARK H PARENT
REMARK Flexibility Score: 70.00
ROOT
ATOM      1  C   UNL     1      15.492 -48.591   6.995  1.00  0.00     0.216 C 
ATOM      2  C   UNL     1      14.708 -49.218   5.781  1.00  0.00     0.070 C 
ATOM      3  C   UNL     1      13.767 -48.117   5.382  1.00  0.00     0.037 C 
ATOM      4  C   UNL     1      12.875 -48.162   4.393  1.00  0.00     0.021 C 
ATOM      5  C   UNL     1      14.149 -46.931   6.106  1.00  0.00     0.334 C 
ATOM      6  O   UNL     1      13.640 -45.788   5.963  1.00  0.00    -0.247 OA
ATOM      7  O   UNL     1      15.192 -47.198   6.963  1.00  0.00    -0.455 OA
ENDROOT
BRANCH   2   8
ATOM      8  C   UNL     1      13.977 -50.544   6.144  1.00  0.00     0.017 C 
BRANCH   8   9
ATOM      9  C   UNL     1      13.999 -50.834   7.662  1.00  0.00     0.031 C 
BRANCH   9  10
ATOM     10  C   UNL     1      14.149 -52.313   7.967  1.00  0.00    -0.077 C 
ATOM     11  C   UNL     1      12.924 -53.089   8.369  1.00  0.00     0.039 C 
ATOM     12  C   UNL     1      15.337 -52.965   7.912  1.00  0.00    -0.028 CG0
ATOM     13  G   UNL     1      16.664 -52.318   7.582  1.00  0.00     0.000 G0
ENDBRANCH   9  10
ENDBRANCH   8   9
ENDBRANCH   2   8
BRANCH   1  14
ATOM     14  C   UNL     1      17.027 -48.783   6.963  1.00  0.00     0.192 C 
ATOM     15  C   UNL     1      17.675 -49.943   7.669  1.00  0.00     0.096 C 
ATOM     16  O   UNL     1      17.415 -49.957   6.285  1.00  0.00    -0.362 OA
ATOM     17  C   UNL     1      19.176 -49.852   7.944  1.00  0.00     0.045 C 
BRANCH  15  18
ATOM     18  C   UNL     1      16.874 -51.030   8.423  1.00  0.00     0.042 C 
BRANCH  18  19
ATOM     19  C   UNL     1      16.677 -52.322   7.603  1.00  0.00     0.030 CG0
ATOM     20  G   UNL     1      15.345 -52.973   7.904  1.00  0.00     0.000 G0
ENDBRANCH  18  19
ENDBRANCH  15  18
ENDBRANCH   1  14
TORSDOF 0
ENDMDL
MODEL 6
REMARK VINA RESULT:    -3.399      2.970      5.140
REMARK INTER + INTRA:          -4.728
REMARK INTER:                  -5.189
REMARK INTRA:                   0.461
REMARK UNBOUND:                -0.137
REMARK SMILES C=C1C(=O)O[C@H]2[C@H]1CCC(C)=CCC[C@@]1(C)O[C@@H]21
REMARK SMILES IDX 6 1 7 2 2 3 1 4 3 5 4 6 5 7 8 8 9 9 10 10 11 11 12 12 18 14
REMARK SMILES IDX 15 15 17 16 16 17 14 18 13 19
REMARK H PARENT
REMARK Flexibility Score: 70.00
ROOT
ATOM      1  C   UNL     1      15.647 -49.512   6.758  1.00  0.00     0.216 C 
ATOM      2  C   UNL     1      16.614 -50.549   7.443  1.00  0.00     0.070 C 
ATOM      3  C   UNL     1      17.785 -50.590   6.503  1.00  0.00     0.037 C 
ATOM      4  C   UNL     1      18.882 -51.336   6.640  1.00  0.00     0.021 C 
ATOM      5  C   UNL     1      17.618 -49.523   5.549  1.00  0.00     0.334 C 
ATOM      6  O   UNL     1      18.449 -49.196   4.660  1.00  0.00    -0.247 OA
ATOM      7  O   UNL     1      16.430 -48.862   5.760  1.00  0.00    -0.455 OA
ENDROOT
BRANCH   2   8
ATOM      8  C   UNL     1      15.959 -51.945   7.663  1.00  0.00     0.017 C 
BRANCH   8   9
ATOM      9  C   UNL     1      14.521 -52.017   7.102  1.00  0.00     0.031 C 
BRANCH   9  10
ATOM     10  C   UNL     1      13.599 -52.846   7.977  1.00  0.00    -0.077 C 
ATOM     11  C   UNL     1      13.447 -54.311   7.670  1.00  0.00     0.039 C 
ATOM     12  C   UNL     1      12.892 -52.327   9.011  1.00  0.00    -0.028 CG0
ATOM     13  G   UNL     1      12.890 -50.868   9.411  1.00  0.00     0.000 G0
ENDBRANCH   9  10
ENDBRANCH   8   9
ENDBRANCH   2   8
BRANCH   1  14
ATOM     14  C   UNL     1      15.039 -48.448   7.703  1.00  0.00     0.192 C 
ATOM     15  C   UNL     1      13.703 -48.669   8.357  1.00  0.00     0.096 C 
ATOM     16  O   UNL     1      14.916 -48.906   9.031  1.00  0.00    -0.362 OA
ATOM     17  C   UNL     1      12.987 -47.445   8.930  1.00  0.00     0.045 C 
BRANCH  15  18
ATOM     18  C   UNL     1      12.875 -49.963   8.176  1.00  0.00     0.042 C 
BRANCH  18  19
ATOM     19  C   UNL     1      12.903 -50.883   9.415  1.00  0.00     0.030 CG0
ATOM     20  G   UNL     1      12.863 -52.344   9.021  1.00  0.00     0.000 G0
ENDBRANCH  18  19
ENDBRANCH  15  18
ENDBRANCH   1  14
TORSDOF 0
ENDMDL
MODEL 7
REMARK VINA RESULT:    -3.393      9.820     10.787
REMARK INTER + INTRA:          -4.720
REMARK INTER:                  -4.867
REMARK INTRA:                   0.147
REMARK UNBOUND:                -0.137
REMARK SMILES C=C1C(=O)O[C@H]2[C@H]1CCC(C)=CCC[C@@]1(C)O[C@@H]21
REMARK SMILES IDX 6 1 7 2 2 3 1 4 3 5 4 6 5 7 8 8 9 9 10 10 11 11 12 12 18 14
REMARK SMILES IDX 15 15 17 16 16 17 14 18 13 19
REMARK H PARENT
REMARK Flexibility Score: 70.00
ROOT
ATOM      1  C   UNL     1      14.030 -55.373  -2.513  1.00  0.00     0.216 C 
ATOM      2  C   UNL     1      14.150 -54.463  -3.793  1.00  0.00     0.070 C 
ATOM      3  C   UNL     1      13.955 -55.437  -4.919  1.00  0.00     0.037 C 
ATOM      4  C   UNL     1      13.975 -55.153  -6.221  1.00  0.00     0.021 C 
ATOM      5  C   UNL     1      13.521 -56.687  -4.347  1.00  0.00     0.334 C 
ATOM      6  O   UNL     1      13.177 -57.711  -4.995  1.00  0.00    -0.247 OA
ATOM      7  O   UNL     1      13.489 -56.608  -2.973  1.00  0.00    -0.455 OA
ENDROOT
BRANCH   2   8
ATOM      8  C   UNL     1      15.504 -53.699  -3.875  1.00  0.00     0.017 C 
BRANCH   8   9
ATOM      9  C   UNL     1      16.567 -54.274  -2.911  1.00  0.00     0.031 C 
BRANCH   9  10
ATOM     10  C   UNL     1      17.430 -53.192  -2.289  1.00  0.00    -0.077 C 
ATOM     11  C   UNL     1      18.873 -53.100  -2.706  1.00  0.00     0.039 C 
ATOM     12  C   UNL     1      16.969 -52.316  -1.362  1.00  0.00    -0.028 CG0
ATOM     13  G   UNL     1      15.565 -52.314  -0.797  1.00  0.00     0.000 G0
ENDBRANCH   9  10
ENDBRANCH   8   9
ENDBRANCH   2   8
BRANCH   1  14
ATOM     14  C   UNL     1      13.132 -54.813  -1.384  1.00  0.00     0.192 C 
ATOM     15  C   UNL     1      13.723 -54.019  -0.250  1.00  0.00     0.096 C 
ATOM     16  O   UNL     1      13.106 -53.403  -1.357  1.00  0.00    -0.362 OA
ATOM     17  C   UNL     1      12.875 -53.853   1.012  1.00  0.00     0.045 C 
BRANCH  15  18
ATOM     18  C   UNL     1      15.227 -53.671  -0.154  1.00  0.00     0.042 C 
BRANCH  18  19
ATOM     19  C   UNL     1      15.577 -52.301  -0.774  1.00  0.00     0.030 CG0
ATOM     20  G   UNL     1      16.972 -52.299  -1.360  1.00  0.00     0.000 G0
ENDBRANCH  18  19
ENDBRANCH  15  18
ENDBRANCH   1  14
TORSDOF 0
ENDMDL
MODEL 8
REMARK VINA RESULT:    -3.316      2.580      5.260
REMARK INTER + INTRA:          -4.616
REMARK INTER:                  -4.867
REMARK INTRA:                   0.251
REMARK UNBOUND:                -0.137
REMARK SMILES C=C1C(=O)O[C@H]2[C@H]1CCC(C)=CCC[C@@]1(C)O[C@@H]21
REMARK SMILES IDX 6 1 7 2 2 3 1 4 3 5 4 6 5 7 8 8 9 9 10 10 11 11 12 12 18 14
REMARK SMILES IDX 15 15 17 16 16 17 14 18 13 19
REMARK H PARENT
REMARK Flexibility Score: 70.00
ROOT
ATOM      1  C   UNL     1      14.348 -50.606   6.861  1.00  0.00     0.216 C 
ATOM      2  C   UNL     1      14.791 -49.249   7.525  1.00  0.00     0.070 C 
ATOM      3  C   UNL     1      14.435 -48.230   6.481  1.00  0.00     0.037 C 
ATOM      4  C   UNL     1      14.622 -46.913   6.567  1.00  0.00     0.021 C 
ATOM      5  C   UNL     1      13.654 -48.895   5.469  1.00  0.00     0.334 C 
ATOM      6  O   UNL     1      13.106 -48.338   4.480  1.00  0.00    -0.247 OA
ATOM      7  O   UNL     1      13.543 -50.239   5.744  1.00  0.00    -0.455 OA
ENDROOT
BRANCH   2   8
ATOM      8  C   UNL     1      16.299 -49.221   7.915  1.00  0.00     0.017 C 
BRANCH   8   9
ATOM      9  C   UNL     1      16.773 -50.556   8.534  1.00  0.00     0.031 C 
BRANCH   9  10
ATOM     10  C   UNL     1      17.653 -51.352   7.589  1.00  0.00    -0.077 C 
ATOM     11  C   UNL     1      18.719 -50.622   6.817  1.00  0.00     0.039 C 
ATOM     12  C   UNL     1      17.514 -52.687   7.393  1.00  0.00    -0.028 CG0
ATOM     13  G   UNL     1      16.459 -53.552   8.047  1.00  0.00     0.000 G0
ENDBRANCH   9  10
ENDBRANCH   8   9
ENDBRANCH   2   8
BRANCH   1  14
ATOM     14  C   UNL     1      13.546 -51.561   7.776  1.00  0.00     0.192 C 
ATOM     15  C   UNL     1      13.936 -53.007   7.915  1.00  0.00     0.096 C 
ATOM     16  O   UNL     1      14.304 -52.036   8.866  1.00  0.00    -0.362 OA
ATOM     17  C   UNL     1      12.894 -53.968   8.487  1.00  0.00     0.045 C 
BRANCH  15  18
ATOM     18  C   UNL     1      15.166 -53.624   7.208  1.00  0.00     0.042 C 
BRANCH  18  19
ATOM     19  C   UNL     1      16.455 -53.555   8.054  1.00  0.00     0.030 CG0
ATOM     20  G   UNL     1      17.511 -52.701   7.388  1.00  0.00     0.000 G0
ENDBRANCH  18  19
ENDBRANCH  15  18
ENDBRANCH   1  14
TORSDOF 0
ENDMDL
MODEL 9
REMARK VINA RESULT:    -3.074      2.820      4.606
REMARK INTER + INTRA:          -4.288
REMARK INTER:                  -5.531
REMARK INTRA:                   1.243
REMARK UNBOUND:                -0.137
REMARK SMILES C=C1C(=O)O[C@H]2[C@H]1CCC(C)=CCC[C@@]1(C)O[C@@H]21
REMARK SMILES IDX 6 1 7 2 2 3 1 4 3 5 4 6 5 7 8 8 9 9 10 10 11 11 12 12 18 14
REMARK SMILES IDX 15 15 17 16 16 17 14 18 13 19
REMARK H PARENT
REMARK Flexibility Score: 70.00
ROOT
ATOM      1  C   UNL     1      16.141 -49.363   5.887  1.00  0.00     0.216 C 
ATOM      2  C   UNL     1      15.656 -50.032   7.227  1.00  0.00     0.070 C 
ATOM      3  C   UNL     1      16.942 -50.306   7.953  1.00  0.00     0.037 C 
ATOM      4  C   UNL     1      17.065 -50.879   9.151  1.00  0.00     0.021 C 
ATOM      5  C   UNL     1      18.000 -49.642   7.235  1.00  0.00     0.334 C 
ATOM      6  O   UNL     1      19.205 -49.578   7.597  1.00  0.00    -0.247 OA
ATOM      7  O   UNL     1      17.513 -49.036   6.099  1.00  0.00    -0.455 OA
ENDROOT
BRANCH   2   8
ATOM      8  C   UNL     1      14.801 -51.313   6.996  1.00  0.00     0.017 C 
BRANCH   8   9
ATOM      9  C   UNL     1      13.300 -51.081   7.286  1.00  0.00     0.031 C 
BRANCH   9  10
ATOM     10  C   UNL     1      13.040 -50.717   8.736  1.00  0.00    -0.077 C 
ATOM     11  C   UNL     1      12.942 -51.828   9.746  1.00  0.00     0.039 C 
ATOM     12  C   UNL     1      12.875 -49.440   9.163  1.00  0.00    -0.028 CG0
ATOM     13  G   UNL     1      12.887 -48.220   8.267  1.00  0.00     0.000 G0
ENDBRANCH   9  10
ENDBRANCH   8   9
ENDBRANCH   2   8
BRANCH   1  14
ATOM     14  C   UNL     1      15.373 -48.087   5.466  1.00  0.00     0.192 C 
ATOM     15  C   UNL     1      14.494 -47.357   6.445  1.00  0.00     0.096 C 
ATOM     16  O   UNL     1      15.808 -46.937   6.157  1.00  0.00    -0.362 OA
ATOM     17  C   UNL     1      13.468 -46.376   5.876  1.00  0.00     0.045 C 
BRANCH  15  18
ATOM     18  C   UNL     1      14.331 -47.788   7.921  1.00  0.00     0.042 C 
BRANCH  18  19
ATOM     19  C   UNL     1      12.893 -48.223   8.274  1.00  0.00     0.030 CG0
ATOM     20  G   UNL     1      12.886 -49.452   9.157  1.00  0.00     0.000 G0
ENDBRANCH  18  19
ENDBRANCH  15  18
ENDBRANCH   1  14
TORSDOF 0
ENDMDL
