MODEL 1
REMARK VINA RESULT:    -3.266      0.000      0.000
REMARK INTER + INTRA:          -4.910
REMARK INTER:                  -4.412
REMARK INTRA:                  -0.498
REMARK UNBOUND:                -0.498
REMARK SMILES [NH3+]CCCC[C@H]([NH3+])C(=O)[O-]
REMARK SMILES IDX 4 1 3 2 2 3 1 4 5 8 6 9 7 10 8 14 9 15 10 16
REMARK H PARENT 1 5 1 6 1 7 7 11 7 12 7 13
REMARK Flexibility Score: inf
ROOT
ATOM      1  C   UNL     1       7.558  -1.594   0.110  1.00  0.00     0.012 C 
ENDROOT
BRANCH   1   2
ATOM      2  C   UNL     1       7.103  -2.135   1.478  1.00  0.00     0.061 C 
BRANCH   2   3
ATOM      3  C   UNL     1       5.579  -2.279   1.643  1.00  0.00     0.258 C 
BRANCH   3   4
ATOM      4  N   UNL     1       5.016  -1.256   2.528  1.00  0.00    -0.358 N 
ATOM      5  H   UNL     1       5.309  -1.430   3.516  1.00  0.00     0.344 HD
ATOM      6  H   UNL     1       5.380  -0.320   2.238  1.00  0.00     0.344 HD
ATOM      7  H   UNL     1       3.972  -1.247   2.459  1.00  0.00     0.344 HD
ENDBRANCH   3   4
ENDBRANCH   2   3
ENDBRANCH   1   2
BRANCH   1   8
ATOM      8  C   UNL     1       7.384  -0.069  -0.017  1.00  0.00     0.072 C 
BRANCH   8   9
ATOM      9  C   UNL     1       6.357   0.312  -1.106  1.00  0.00     0.227 C 
BRANCH   9  10
ATOM     10  N   UNL     1       7.011   1.048  -2.193  1.00  0.00    -0.350 N 
ATOM     11  H   UNL     1       6.323   1.691  -2.651  1.00  0.00     0.345 HD
ATOM     12  H   UNL     1       7.815   1.611  -1.826  1.00  0.00     0.345 HD
ATOM     13  H   UNL     1       7.363   0.380  -2.914  1.00  0.00     0.345 HD
ENDBRANCH   9  10
BRANCH   9  14
ATOM     14  C   UNL     1       5.235   1.136  -0.528  1.00  0.00     0.099 C 
ATOM     15  O   UNL     1       5.027   1.138   0.714  1.00  0.00    -0.544 OA
ATOM     16  O   UNL     1       4.423   1.897  -1.360  1.00  0.00    -0.544 OA
ENDBRANCH   9  14
ENDBRANCH   8   9
ENDBRANCH   1   8
TORSDOF 7
ENDMDL
MODEL 2
REMARK VINA RESULT:    -3.249      1.894      3.798
REMARK INTER + INTRA:          -4.887
REMARK INTER:                  -4.331
REMARK INTRA:                  -0.556
REMARK UNBOUND:                -0.498
REMARK SMILES [NH3+]CCCC[C@H]([NH3+])C(=O)[O-]
REMARK SMILES IDX 4 1 3 2 2 3 1 4 5 8 6 9 7 10 8 14 9 15 10 16
REMARK H PARENT 1 5 1 6 1 7 7 11 7 12 7 13
REMARK Flexibility Score: inf
ROOT
ATOM      1  C   UNL     1       7.337  -1.903   0.343  1.00  0.00     0.012 C 
ENDROOT
BRANCH   1   2
ATOM      2  C   UNL     1       7.646  -0.405   0.172  1.00  0.00     0.061 C 
BRANCH   2   3
ATOM      3  C   UNL     1       6.770   0.323  -0.864  1.00  0.00     0.258 C 
BRANCH   3   4
ATOM      4  N   UNL     1       5.540   0.858  -0.275  1.00  0.00    -0.358 N 
ATOM      5  H   UNL     1       4.703   0.450  -0.750  1.00  0.00     0.344 HD
ATOM      6  H   UNL     1       5.504   0.591   0.736  1.00  0.00     0.344 HD
ATOM      7  H   UNL     1       5.522   1.901  -0.349  1.00  0.00     0.344 HD
ENDBRANCH   3   4
ENDBRANCH   2   3
ENDBRANCH   1   2
BRANCH   1   8
ATOM      8  C   UNL     1       7.056  -2.292   1.806  1.00  0.00     0.072 C 
BRANCH   8   9
ATOM      9  C   UNL     1       5.546  -2.276   2.133  1.00  0.00     0.227 C 
BRANCH   9  10
ATOM     10  N   UNL     1       4.754  -2.428   0.908  1.00  0.00    -0.350 N 
ATOM     11  H   UNL     1       5.323  -2.137   0.079  1.00  0.00     0.345 HD
ATOM     12  H   UNL     1       4.451  -3.423   0.785  1.00  0.00     0.345 HD
ATOM     13  H   UNL     1       3.908  -1.817   0.953  1.00  0.00     0.345 HD
ENDBRANCH   9  10
BRANCH   9  14
ATOM     14  C   UNL     1       5.159  -1.002   2.841  1.00  0.00     0.099 C 
ATOM     15  O   UNL     1       4.429  -0.154   2.263  1.00  0.00    -0.544 OA
ATOM     16  O   UNL     1       5.606  -0.754   4.133  1.00  0.00    -0.544 OA
ENDBRANCH   9  14
ENDBRANCH   8   9
ENDBRANCH   1   8
TORSDOF 7
ENDMDL
MODEL 3
REMARK VINA RESULT:    -3.035      2.097      4.105
REMARK INTER + INTRA:          -4.597
REMARK INTER:                  -4.064
REMARK INTRA:                  -0.533
REMARK UNBOUND:                -0.498
REMARK SMILES [NH3+]CCCC[C@H]([NH3+])C(=O)[O-]
REMARK SMILES IDX 4 1 3 2 2 3 1 4 5 8 6 9 7 10 8 14 9 15 10 16
REMARK H PARENT 1 5 1 6 1 7 7 11 7 12 7 13
REMARK Flexibility Score: inf
ROOT
ATOM      1  C   UNL     1       7.390  -1.897   0.435  1.00  0.00     0.012 C 
ENDROOT
BRANCH   1   2
ATOM      2  C   UNL     1       7.531  -0.367   0.346  1.00  0.00     0.061 C 
BRANCH   2   3
ATOM      3  C   UNL     1       6.716   0.294  -0.781  1.00  0.00     0.258 C 
BRANCH   3   4
ATOM      4  N   UNL     1       5.409   0.765  -0.319  1.00  0.00    -0.358 N 
ATOM      5  H   UNL     1       5.242   1.746  -0.640  1.00  0.00     0.344 HD
ATOM      6  H   UNL     1       4.664   0.156  -0.730  1.00  0.00     0.344 HD
ATOM      7  H   UNL     1       5.348   0.713   0.724  1.00  0.00     0.344 HD
ENDBRANCH   3   4
ENDBRANCH   2   3
ENDBRANCH   1   2
BRANCH   1   8
ATOM      8  C   UNL     1       7.013  -2.381   1.847  1.00  0.00     0.072 C 
BRANCH   8   9
ATOM      9  C   UNL     1       5.923  -1.499   2.495  1.00  0.00     0.227 C 
BRANCH   9  10
ATOM     10  N   UNL     1       6.068  -1.494   3.954  1.00  0.00    -0.350 N 
ATOM     11  H   UNL     1       6.776  -0.778   4.239  1.00  0.00     0.345 HD
ATOM     12  H   UNL     1       5.153  -1.274   4.415  1.00  0.00     0.345 HD
ATOM     13  H   UNL     1       6.400  -2.429   4.282  1.00  0.00     0.345 HD
ENDBRANCH   9  10
BRANCH   9  14
ATOM     14  C   UNL     1       4.545  -1.977   2.116  1.00  0.00     0.099 C 
ATOM     15  O   UNL     1       3.947  -1.468   1.131  1.00  0.00    -0.544 OA
ATOM     16  O   UNL     1       3.923  -2.980   2.851  1.00  0.00    -0.544 OA
ENDBRANCH   9  14
ENDBRANCH   8   9
ENDBRANCH   1   8
TORSDOF 7
ENDMDL
MODEL 4
REMARK VINA RESULT:    -2.980      1.929      2.248
REMARK INTER + INTRA:          -4.523
REMARK INTER:                  -4.420
REMARK INTRA:                  -0.103
REMARK UNBOUND:                -0.498
REMARK SMILES [NH3+]CCCC[C@H]([NH3+])C(=O)[O-]
REMARK SMILES IDX 4 1 3 2 2 3 1 4 5 8 6 9 7 10 8 14 9 15 10 16
REMARK H PARENT 1 5 1 6 1 7 7 11 7 12 7 13
REMARK Flexibility Score: inf
ROOT
ATOM      1  C   UNL     1       6.991  -2.183   1.867  1.00  0.00     0.012 C 
ENDROOT
BRANCH   1   2
ATOM      2  C   UNL     1       5.559  -2.153   2.432  1.00  0.00     0.061 C 
BRANCH   2   3
ATOM      3  C   UNL     1       5.368  -1.249   3.664  1.00  0.00     0.258 C 
BRANCH   3   4
ATOM      4  N   UNL     1       6.255  -1.620   4.769  1.00  0.00    -0.358 N 
ATOM      5  H   UNL     1       5.754  -1.529   5.682  1.00  0.00     0.344 HD
ATOM      6  H   UNL     1       6.543  -2.619   4.652  1.00  0.00     0.344 HD
ATOM      7  H   UNL     1       7.111  -1.021   4.768  1.00  0.00     0.344 HD
ENDBRANCH   3   4
ENDBRANCH   2   3
ENDBRANCH   1   2
BRANCH   1   8
ATOM      8  C   UNL     1       7.082  -1.617   0.438  1.00  0.00     0.072 C 
BRANCH   8   9
ATOM      9  C   UNL     1       5.803  -0.851   0.032  1.00  0.00     0.227 C 
BRANCH   9  10
ATOM     10  N   UNL     1       5.056  -1.602  -0.983  1.00  0.00    -0.350 N 
ATOM     11  H   UNL     1       4.590  -2.429  -0.542  1.00  0.00     0.345 HD
ATOM     12  H   UNL     1       4.328  -0.996  -1.430  1.00  0.00     0.345 HD
ATOM     13  H   UNL     1       5.709  -1.951  -1.720  1.00  0.00     0.345 HD
ENDBRANCH   9  10
BRANCH   9  14
ATOM     14  C   UNL     1       6.137   0.524  -0.488  1.00  0.00     0.099 C 
ATOM     15  O   UNL     1       6.852   0.654  -1.516  1.00  0.00    -0.544 OA
ATOM     16  O   UNL     1       5.661   1.655   0.163  1.00  0.00    -0.544 OA
ENDBRANCH   9  14
ENDBRANCH   8   9
ENDBRANCH   1   8
TORSDOF 7
ENDMDL
MODEL 5
REMARK VINA RESULT:    -2.956      7.280      9.137
REMARK INTER + INTRA:          -4.490
REMARK INTER:                  -3.897
REMARK INTRA:                  -0.594
REMARK UNBOUND:                -0.498
REMARK SMILES [NH3+]CCCC[C@H]([NH3+])C(=O)[O-]
REMARK SMILES IDX 4 1 3 2 2 3 1 4 5 8 6 9 7 10 8 14 9 15 10 16
REMARK H PARENT 1 5 1 6 1 7 7 11 7 12 7 13
REMARK Flexibility Score: inf
ROOT
ATOM      1  C   UNL     1       7.625   5.992  -6.817  1.00  0.00     0.012 C 
ENDROOT
BRANCH   1   2
ATOM      2  C   UNL     1       6.830   7.093  -7.542  1.00  0.00     0.061 C 
BRANCH   2   3
ATOM      3  C   UNL     1       5.739   6.580  -8.500  1.00  0.00     0.258 C 
BRANCH   3   4
ATOM      4  N   UNL     1       4.462   6.357  -7.819  1.00  0.00    -0.358 N 
ATOM      5  H   UNL     1       4.573   5.641  -7.066  1.00  0.00     0.344 HD
ATOM      6  H   UNL     1       4.152   7.252  -7.377  1.00  0.00     0.344 HD
ATOM      7  H   UNL     1       3.732   6.049  -8.502  1.00  0.00     0.344 HD
ENDBRANCH   3   4
ENDBRANCH   2   3
ENDBRANCH   1   2
BRANCH   1   8
ATOM      8  C   UNL     1       7.313   5.923  -5.311  1.00  0.00     0.072 C 
BRANCH   8   9
ATOM      9  C   UNL     1       6.426   4.709  -4.954  1.00  0.00     0.227 C 
BRANCH   9  10
ATOM     10  N   UNL     1       6.260   3.836  -6.120  1.00  0.00    -0.350 N 
ATOM     11  H   UNL     1       6.198   2.837  -5.811  1.00  0.00     0.345 HD
ATOM     12  H   UNL     1       5.391   4.086  -6.648  1.00  0.00     0.345 HD
ATOM     13  H   UNL     1       7.085   3.929  -6.755  1.00  0.00     0.345 HD
ENDBRANCH   9  10
BRANCH   9  14
ATOM     14  C   UNL     1       5.078   5.154  -4.448  1.00  0.00     0.099 C 
ATOM     15  O   UNL     1       4.408   4.404  -3.691  1.00  0.00    -0.544 OA
ATOM     16  O   UNL     1       4.565   6.393  -4.814  1.00  0.00    -0.544 OA
ENDBRANCH   9  14
ENDBRANCH   8   9
ENDBRANCH   1   8
TORSDOF 7
ENDMDL
MODEL 6
REMARK VINA RESULT:    -2.883      1.761      1.973
REMARK INTER + INTRA:          -4.393
REMARK INTER:                  -4.232
REMARK INTRA:                  -0.161
REMARK UNBOUND:                -0.498
REMARK SMILES [NH3+]CCCC[C@H]([NH3+])C(=O)[O-]
REMARK SMILES IDX 4 1 3 2 2 3 1 4 5 8 6 9 7 10 8 14 9 15 10 16
REMARK H PARENT 1 5 1 6 1 7 7 11 7 12 7 13
REMARK Flexibility Score: inf
ROOT
ATOM      1  C   UNL     1       6.643  -1.568   0.083  1.00  0.00     0.012 C 
ENDROOT
BRANCH   1   2
ATOM      2  C   UNL     1       6.934  -2.037   1.520  1.00  0.00     0.061 C 
BRANCH   2   3
ATOM      3  C   UNL     1       5.724  -2.000   2.471  1.00  0.00     0.258 C 
BRANCH   3   4
ATOM      4  N   UNL     1       6.085  -1.539   3.813  1.00  0.00    -0.358 N 
ATOM      5  H   UNL     1       5.876  -2.280   4.520  1.00  0.00     0.344 HD
ATOM      6  H   UNL     1       7.112  -1.342   3.839  1.00  0.00     0.344 HD
ATOM      7  H   UNL     1       5.568  -0.661   4.050  1.00  0.00     0.344 HD
ENDBRANCH   3   4
ENDBRANCH   2   3
ENDBRANCH   1   2
BRANCH   1   8
ATOM      8  C   UNL     1       7.396  -0.278  -0.289  1.00  0.00     0.072 C 
BRANCH   8   9
ATOM      9  C   UNL     1       6.433   0.875  -0.651  1.00  0.00     0.227 C 
BRANCH   9  10
ATOM     10  N   UNL     1       5.166   0.732   0.074  1.00  0.00    -0.350 N 
ATOM     11  H   UNL     1       4.391   1.175  -0.473  1.00  0.00     0.345 HD
ATOM     12  H   UNL     1       4.942  -0.280   0.229  1.00  0.00     0.345 HD
ATOM     13  H   UNL     1       5.229   1.213   0.999  1.00  0.00     0.345 HD
ENDBRANCH   9  10
BRANCH   9  14
ATOM     14  C   UNL     1       6.175   0.918  -2.135  1.00  0.00     0.099 C 
ATOM     15  O   UNL     1       5.109   0.441  -2.606  1.00  0.00    -0.544 OA
ATOM     16  O   UNL     1       7.111   1.481  -2.995  1.00  0.00    -0.544 OA
ENDBRANCH   9  14
ENDBRANCH   8   9
ENDBRANCH   1   8
TORSDOF 7
ENDMDL
MODEL 7
REMARK VINA RESULT:    -2.869     12.770     13.935
REMARK INTER + INTRA:          -4.373
REMARK INTER:                  -3.813
REMARK INTRA:                  -0.561
REMARK UNBOUND:                -0.498
REMARK SMILES [NH3+]CCCC[C@H]([NH3+])C(=O)[O-]
REMARK SMILES IDX 4 1 3 2 2 3 1 4 5 8 6 9 7 10 8 14 9 15 10 16
REMARK H PARENT 1 5 1 6 1 7 7 11 7 12 7 13
REMARK Flexibility Score: inf
ROOT
ATOM      1  C   UNL     1      -7.329   0.248  -0.865  1.00  0.00     0.012 C 
ENDROOT
BRANCH   1   2
ATOM      2  C   UNL     1      -5.901   0.798  -1.030  1.00  0.00     0.061 C 
BRANCH   2   3
ATOM      3  C   UNL     1      -4.846  -0.250  -1.433  1.00  0.00     0.258 C 
BRANCH   3   4
ATOM      4  N   UNL     1      -4.680  -0.342  -2.885  1.00  0.00    -0.358 N 
ATOM      5  H   UNL     1      -5.584  -0.607  -3.338  1.00  0.00     0.344 HD
ATOM      6  H   UNL     1      -4.391   0.593  -3.254  1.00  0.00     0.344 HD
ATOM      7  H   UNL     1      -3.940  -1.041  -3.125  1.00  0.00     0.344 HD
ENDBRANCH   3   4
ENDBRANCH   2   3
ENDBRANCH   1   2
BRANCH   1   8
ATOM      8  C   UNL     1      -8.180   0.403  -2.138  1.00  0.00     0.072 C 
BRANCH   8   9
ATOM      9  C   UNL     1      -8.580  -0.962  -2.741  1.00  0.00     0.227 C 
BRANCH   9  10
ATOM     10  N   UNL     1      -7.993  -2.058  -1.963  1.00  0.00    -0.350 N 
ATOM     11  H   UNL     1      -7.279  -2.562  -2.540  1.00  0.00     0.345 HD
ATOM     12  H   UNL     1      -7.537  -1.692  -1.095  1.00  0.00     0.345 HD
ATOM     13  H   UNL     1      -8.736  -2.742  -1.695  1.00  0.00     0.345 HD
ENDBRANCH   9  10
BRANCH   9  14
ATOM     14  C   UNL     1      -8.148  -1.065  -4.182  1.00  0.00     0.099 C 
ATOM     15  O   UNL     1      -8.773  -1.814  -4.978  1.00  0.00    -0.544 OA
ATOM     16  O   UNL     1      -7.058  -0.335  -4.641  1.00  0.00    -0.544 OA
ENDBRANCH   9  14
ENDBRANCH   8   9
ENDBRANCH   1   8
TORSDOF 7
ENDMDL
MODEL 8
REMARK VINA RESULT:    -2.833      2.199      4.488
REMARK INTER + INTRA:          -4.325
REMARK INTER:                  -3.873
REMARK INTRA:                  -0.452
REMARK UNBOUND:                -0.498
REMARK SMILES [NH3+]CCCC[C@H]([NH3+])C(=O)[O-]
REMARK SMILES IDX 4 1 3 2 2 3 1 4 5 8 6 9 7 10 8 14 9 15 10 16
REMARK H PARENT 1 5 1 6 1 7 7 11 7 12 7 13
REMARK Flexibility Score: inf
ROOT
ATOM      1  C   UNL     1       4.397  -0.068  -2.201  1.00  0.00     0.012 C 
ENDROOT
BRANCH   1   2
ATOM      2  C   UNL     1       4.870   1.328  -2.644  1.00  0.00     0.061 C 
BRANCH   2   3
ATOM      3  C   UNL     1       6.019   1.327  -3.670  1.00  0.00     0.258 C 
BRANCH   3   4
ATOM      4  N   UNL     1       7.331   1.474  -3.035  1.00  0.00    -0.358 N 
ATOM      5  H   UNL     1       7.376   2.371  -2.500  1.00  0.00     0.344 HD
ATOM      6  H   UNL     1       7.473   0.685  -2.364  1.00  0.00     0.344 HD
ATOM      7  H   UNL     1       8.090   1.446  -3.754  1.00  0.00     0.344 HD
ENDBRANCH   3   4
ENDBRANCH   2   3
ENDBRANCH   1   2
BRANCH   1   8
ATOM      8  C   UNL     1       4.567  -0.305  -0.689  1.00  0.00     0.072 C 
BRANCH   8   9
ATOM      9  C   UNL     1       5.723  -1.282  -0.378  1.00  0.00     0.227 C 
BRANCH   9  10
ATOM     10  N   UNL     1       5.388  -2.121   0.777  1.00  0.00    -0.350 N 
ATOM     11  H   UNL     1       6.265  -2.420   1.265  1.00  0.00     0.345 HD
ATOM     12  H   UNL     1       4.781  -1.597   1.450  1.00  0.00     0.345 HD
ATOM     13  H   UNL     1       4.884  -2.979   0.459  1.00  0.00     0.345 HD
ENDBRANCH   9  10
BRANCH   9  14
ATOM     14  C   UNL     1       7.006  -0.535  -0.118  1.00  0.00     0.099 C 
ATOM     15  O   UNL     1       8.101  -1.155  -0.076  1.00  0.00    -0.544 OA
ATOM     16  O   UNL     1       6.990   0.840   0.080  1.00  0.00    -0.544 OA
ENDBRANCH   9  14
ENDBRANCH   8   9
ENDBRANCH   1   8
TORSDOF 7
ENDMDL
MODEL 9
REMARK VINA RESULT:    -2.827      8.134      8.836
REMARK INTER + INTRA:          -4.317
REMARK INTER:                  -3.762
REMARK INTRA:                  -0.554
REMARK UNBOUND:                -0.498
REMARK SMILES [NH3+]CCCC[C@H]([NH3+])C(=O)[O-]
REMARK SMILES IDX 4 1 3 2 2 3 1 4 5 8 6 9 7 10 8 14 9 15 10 16
REMARK H PARENT 1 5 1 6 1 7 7 11 7 12 7 13
REMARK Flexibility Score: inf
ROOT
ATOM      1  C   UNL     1       7.016   5.667  -5.268  1.00  0.00     0.012 C 
ENDROOT
BRANCH   1   2
ATOM      2  C   UNL     1       7.737   5.628  -6.627  1.00  0.00     0.061 C 
BRANCH   2   3
ATOM      3  C   UNL     1       7.168   4.612  -7.634  1.00  0.00     0.258 C 
BRANCH   3   4
ATOM      4  N   UNL     1       6.454   3.516  -6.975  1.00  0.00    -0.358 N 
ATOM      5  H   UNL     1       5.992   3.858  -6.102  1.00  0.00     0.344 HD
ATOM      6  H   UNL     1       5.713   3.157  -7.620  1.00  0.00     0.344 HD
ATOM      7  H   UNL     1       7.112   2.734  -6.750  1.00  0.00     0.344 HD
ENDBRANCH   3   4
ENDBRANCH   2   3
ENDBRANCH   1   2
BRANCH   1   8
ATOM      8  C   UNL     1       5.865   6.688  -5.231  1.00  0.00     0.072 C 
BRANCH   8   9
ATOM      9  C   UNL     1       4.541   6.057  -4.746  1.00  0.00     0.227 C 
BRANCH   9  10
ATOM     10  N   UNL     1       4.797   4.771  -4.089  1.00  0.00    -0.350 N 
ATOM     11  H   UNL     1       5.437   4.191  -4.681  1.00  0.00     0.345 HD
ATOM     12  H   UNL     1       5.235   4.916  -3.149  1.00  0.00     0.345 HD
ATOM     13  H   UNL     1       3.900   4.247  -3.971  1.00  0.00     0.345 HD
ENDBRANCH   9  10
BRANCH   9  14
ATOM     14  C   UNL     1       3.580   5.868  -5.891  1.00  0.00     0.099 C 
ATOM     15  O   UNL     1       3.761   4.940  -6.723  1.00  0.00    -0.544 OA
ATOM     16  O   UNL     1       2.489   6.716  -6.039  1.00  0.00    -0.544 OA
ENDBRANCH   9  14
ENDBRANCH   8   9
ENDBRANCH   1   8
TORSDOF 7
ENDMDL
