MODEL 1
REMARK VINA RESULT:    -5.035      0.000      0.000
REMARK INTER + INTRA:          -5.330
REMARK INTER:                  -5.330
REMARK INTRA:                   0.000
REMARK UNBOUND:                 0.000
REMARK SMILES O=c1ccc2cc(O)c(O)cc2o1
REMARK SMILES IDX 4 1 3 2 2 3 1 4 13 5 12 6 11 7 9 8 7 9 6 10 5 11 8 12 10 14
REMARK H PARENT 8 13 10 15
REMARK Flexibility Score: inf
ROOT
ATOM      1  C   UNL     1      -8.363  -7.445  90.484  1.00  0.00     0.019 A 
ATOM      2  C   UNL     1      -9.456  -6.649  90.824  1.00  0.00     0.094 A 
ATOM      3  C   UNL     1     -10.747  -7.131  90.577  1.00  0.00     0.336 A 
ATOM      4  O   UNL     1     -11.748  -6.428  90.876  1.00  0.00    -0.246 OA
ATOM      5  O   UNL     1     -10.924  -8.330  90.028  1.00  0.00    -0.423 OA
ATOM      6  C   UNL     1      -9.909  -9.120  89.689  1.00  0.00     0.142 A 
ATOM      7  C   UNL     1     -10.156 -10.371  89.115  1.00  0.00     0.098 A 
ATOM      8  C   UNL     1      -9.089 -11.208  88.757  1.00  0.00     0.161 A 
ATOM      9  C   UNL     1      -7.764 -10.788  88.974  1.00  0.00     0.158 A 
ATOM     10  C   UNL     1      -7.513  -9.536  89.550  1.00  0.00     0.062 A 
ATOM     11  C   UNL     1      -8.578  -8.700  89.909  1.00  0.00     0.022 A 
ENDROOT
BRANCH   9  12
ATOM     12  O   UNL     1      -6.685 -11.601  88.627  1.00  0.00    -0.504 OA
ATOM     13  H   UNL     1      -6.414 -12.402  89.184  1.00  0.00     0.293 HD
ENDBRANCH   9  12
BRANCH   8  14
ATOM     14  O   UNL     1      -9.341 -12.454  88.184  1.00  0.00    -0.504 OA
ATOM     15  H   UNL     1      -8.841 -13.284  88.478  1.00  0.00     0.293 HD
ENDBRANCH   8  14
TORSDOF 2
ENDMDL
MODEL 2
REMARK VINA RESULT:    -4.784      7.296      8.041
REMARK INTER + INTRA:          -5.064
REMARK INTER:                  -5.064
REMARK INTRA:                   0.000
REMARK UNBOUND:                 0.000
REMARK SMILES O=c1ccc2cc(O)c(O)cc2o1
REMARK SMILES IDX 4 1 3 2 2 3 1 4 13 5 12 6 11 7 9 8 7 9 6 10 5 11 8 12 10 14
REMARK H PARENT 8 13 10 15
REMARK Flexibility Score: inf
ROOT
ATOM      1  C   UNL     1     -13.522 -10.654  97.991  1.00  0.00     0.019 A 
ATOM      2  C   UNL     1     -14.434  -9.736  98.511  1.00  0.00     0.094 A 
ATOM      3  C   UNL     1     -15.294  -9.064  97.634  1.00  0.00     0.336 A 
ATOM      4  O   UNL     1     -16.124  -8.231  98.083  1.00  0.00    -0.246 OA
ATOM      5  O   UNL     1     -15.240  -9.302  96.326  1.00  0.00    -0.423 OA
ATOM      6  C   UNL     1     -14.386 -10.169  95.790  1.00  0.00     0.142 A 
ATOM      7  C   UNL     1     -14.376 -10.377  94.407  1.00  0.00     0.098 A 
ATOM      8  C   UNL     1     -13.477 -11.291  93.836  1.00  0.00     0.161 A 
ATOM      9  C   UNL     1     -12.582 -12.002  94.657  1.00  0.00     0.158 A 
ATOM     10  C   UNL     1     -12.591 -11.796  96.043  1.00  0.00     0.062 A 
ATOM     11  C   UNL     1     -13.488 -10.884  96.613  1.00  0.00     0.022 A 
ENDROOT
BRANCH   9  12
ATOM     12  O   UNL     1     -11.680 -12.916  94.115  1.00  0.00    -0.504 OA
ATOM     13  H   UNL     1     -11.969 -13.639  93.468  1.00  0.00     0.293 HD
ENDBRANCH   9  12
BRANCH   8  14
ATOM     14  O   UNL     1     -13.470 -11.495  92.457  1.00  0.00    -0.504 OA
ATOM     15  H   UNL     1     -13.221 -10.755  91.812  1.00  0.00     0.293 HD
ENDBRANCH   8  14
TORSDOF 2
ENDMDL
MODEL 3
REMARK VINA RESULT:    -4.719      1.274      2.315
REMARK INTER + INTRA:          -4.995
REMARK INTER:                  -4.995
REMARK INTRA:                   0.000
REMARK UNBOUND:                 0.000
REMARK SMILES O=c1ccc2cc(O)c(O)cc2o1
REMARK SMILES IDX 4 1 3 2 2 3 1 4 13 5 12 6 11 7 9 8 7 9 6 10 5 11 8 12 10 14
REMARK H PARENT 8 13 10 15
REMARK Flexibility Score: inf
ROOT
ATOM      1  C   UNL     1     -10.839  -7.995  90.168  1.00  0.00     0.019 A 
ATOM      2  C   UNL     1     -10.475  -6.766  90.719  1.00  0.00     0.094 A 
ATOM      3  C   UNL     1      -9.117  -6.472  90.881  1.00  0.00     0.336 A 
ATOM      4  O   UNL     1      -8.767  -5.370  91.377  1.00  0.00    -0.246 OA
ATOM      5  O   UNL     1      -8.189  -7.353  90.513  1.00  0.00    -0.423 OA
ATOM      6  C   UNL     1      -8.493  -8.535  89.983  1.00  0.00     0.142 A 
ATOM      7  C   UNL     1      -7.474  -9.420  89.616  1.00  0.00     0.098 A 
ATOM      8  C   UNL     1      -7.790 -10.667  89.056  1.00  0.00     0.161 A 
ATOM      9  C   UNL     1      -9.136 -11.031  88.864  1.00  0.00     0.158 A 
ATOM     10  C   UNL     1     -10.157 -10.146  89.231  1.00  0.00     0.062 A 
ATOM     11  C   UNL     1      -9.843  -8.900  89.790  1.00  0.00     0.022 A 
ENDROOT
BRANCH   9  12
ATOM     12  O   UNL     1      -9.476 -12.264  88.310  1.00  0.00    -0.504 OA
ATOM     13  H   UNL     1      -8.807 -12.827  87.800  1.00  0.00     0.293 HD
ENDBRANCH   9  12
BRANCH   8  14
ATOM     14  O   UNL     1      -6.771 -11.546  88.691  1.00  0.00    -0.504 OA
ATOM     15  H   UNL     1      -6.955 -12.523  88.499  1.00  0.00     0.293 HD
ENDBRANCH   8  14
TORSDOF 2
ENDMDL
MODEL 4
REMARK VINA RESULT:    -4.681      7.539      8.388
REMARK INTER + INTRA:          -4.955
REMARK INTER:                  -4.955
REMARK INTRA:                   0.000
REMARK UNBOUND:                 0.000
REMARK SMILES O=c1ccc2cc(O)c(O)cc2o1
REMARK SMILES IDX 4 1 3 2 2 3 1 4 13 5 12 6 11 7 9 8 7 9 6 10 5 11 8 12 10 14
REMARK H PARENT 8 13 10 15
REMARK Flexibility Score: inf
ROOT
ATOM      1  C   UNL     1     -15.182  -9.298  96.614  1.00  0.00     0.019 A 
ATOM      2  C   UNL     1     -15.146  -9.209  98.005  1.00  0.00     0.094 A 
ATOM      3  C   UNL     1     -14.238 -10.006  98.711  1.00  0.00     0.336 A 
ATOM      4  O   UNL     1     -14.190  -9.942  99.967  1.00  0.00    -0.246 OA
ATOM      5  O   UNL     1     -13.422 -10.833  98.062  1.00  0.00    -0.423 OA
ATOM      6  C   UNL     1     -13.423 -10.947  96.737  1.00  0.00     0.142 A 
ATOM      7  C   UNL     1     -12.542 -11.834  96.110  1.00  0.00     0.098 A 
ATOM      8  C   UNL     1     -12.539 -11.958  94.713  1.00  0.00     0.161 A 
ATOM      9  C   UNL     1     -13.426 -11.189  93.937  1.00  0.00     0.158 A 
ATOM     10  C   UNL     1     -14.310 -10.300  94.563  1.00  0.00     0.062 A 
ATOM     11  C   UNL     1     -14.313 -10.175  95.958  1.00  0.00     0.022 A 
ENDROOT
BRANCH   9  12
ATOM     12  O   UNL     1     -13.444 -11.293  92.547  1.00  0.00    -0.504 OA
ATOM     13  H   UNL     1     -14.188 -10.897  91.987  1.00  0.00     0.293 HD
ENDBRANCH   9  12
BRANCH   8  14
ATOM     14  O   UNL     1     -11.659 -12.843  94.092  1.00  0.00    -0.504 OA
ATOM     15  H   UNL     1     -11.709 -13.842  94.252  1.00  0.00     0.293 HD
ENDBRANCH   8  14
TORSDOF 2
ENDMDL
MODEL 5
REMARK VINA RESULT:    -4.639      7.917      9.697
REMARK INTER + INTRA:          -4.911
REMARK INTER:                  -4.911
REMARK INTRA:                   0.000
REMARK UNBOUND:                 0.000
REMARK SMILES O=c1ccc2cc(O)c(O)cc2o1
REMARK SMILES IDX 4 1 3 2 2 3 1 4 13 5 12 6 11 7 9 8 7 9 6 10 5 11 8 12 10 14
REMARK H PARENT 8 13 10 15
REMARK Flexibility Score: inf
ROOT
ATOM      1  C   UNL     1     -13.981 -10.291  94.683  1.00  0.00     0.019 A 
ATOM      2  C   UNL     1     -12.975 -11.047  94.083  1.00  0.00     0.094 A 
ATOM      3  C   UNL     1     -12.078 -11.748  94.897  1.00  0.00     0.336 A 
ATOM      4  O   UNL     1     -11.162 -12.436  94.376  1.00  0.00    -0.246 OA
ATOM      5  O   UNL     1     -12.186 -11.691  96.222  1.00  0.00    -0.423 OA
ATOM      6  C   UNL     1     -13.131 -10.982  96.834  1.00  0.00     0.142 A 
ATOM      7  C   UNL     1     -13.196 -10.960  98.231  1.00  0.00     0.098 A 
ATOM      8  C   UNL     1     -14.190 -10.214  98.881  1.00  0.00     0.161 A 
ATOM      9  C   UNL     1     -15.127  -9.484  98.126  1.00  0.00     0.158 A 
ATOM     10  C   UNL     1     -15.065  -9.504  96.727  1.00  0.00     0.062 A 
ATOM     11  C   UNL     1     -14.072 -10.250  96.077  1.00  0.00     0.022 A 
ENDROOT
BRANCH   9  12
ATOM     12  O   UNL     1     -16.125  -8.735  98.747  1.00  0.00    -0.504 OA
ATOM     13  H   UNL     1     -15.912  -7.952  99.352  1.00  0.00     0.293 HD
ENDBRANCH   9  12
BRANCH   8  14
ATOM     14  O   UNL     1     -14.251 -10.195 100.274  1.00  0.00    -0.504 OA
ATOM     15  H   UNL     1     -13.542  -9.733 100.830  1.00  0.00     0.293 HD
ENDBRANCH   8  14
TORSDOF 2
ENDMDL
MODEL 6
REMARK VINA RESULT:    -4.589      7.736      9.386
REMARK INTER + INTRA:          -4.857
REMARK INTER:                  -4.857
REMARK INTRA:                   0.000
REMARK UNBOUND:                 0.000
REMARK SMILES O=c1ccc2cc(O)c(O)cc2o1
REMARK SMILES IDX 4 1 3 2 2 3 1 4 13 5 12 6 11 7 9 8 7 9 6 10 5 11 8 12 10 14
REMARK H PARENT 8 13 10 15
REMARK Flexibility Score: inf
ROOT
ATOM      1  C   UNL     1     -12.252 -11.628  95.904  1.00  0.00     0.019 A 
ATOM      2  C   UNL     1     -12.316 -11.618  94.511  1.00  0.00     0.094 A 
ATOM      3  C   UNL     1     -13.340 -10.897  93.885  1.00  0.00     0.336 A 
ATOM      4  O   UNL     1     -13.416 -10.876  92.629  1.00  0.00    -0.246 OA
ATOM      5  O   UNL     1     -14.236 -10.233  94.611  1.00  0.00    -0.423 OA
ATOM      6  C   UNL     1     -14.211 -10.216  95.941  1.00  0.00     0.142 A 
ATOM      7  C   UNL     1     -15.180  -9.500  96.651  1.00  0.00     0.098 A 
ATOM      8  C   UNL     1     -15.157  -9.479  98.053  1.00  0.00     0.161 A 
ATOM      9  C   UNL     1     -14.157 -10.182  98.750  1.00  0.00     0.158 A 
ATOM     10  C   UNL     1     -13.185 -10.899  98.042  1.00  0.00     0.062 A 
ATOM     11  C   UNL     1     -13.206 -10.920  96.641  1.00  0.00     0.022 A 
ENDROOT
BRANCH   9  12
ATOM     12  O   UNL     1     -14.112 -10.177 100.144  1.00  0.00    -0.504 OA
ATOM     13  H   UNL     1     -14.719  -9.588 100.700  1.00  0.00     0.293 HD
ENDBRANCH   9  12
BRANCH   8  14
ATOM     14  O   UNL     1     -16.125  -8.763  98.756  1.00  0.00    -0.504 OA
ATOM     15  H   UNL     1     -16.165  -7.752  98.725  1.00  0.00     0.293 HD
ENDBRANCH   8  14
TORSDOF 2
ENDMDL
MODEL 7
REMARK VINA RESULT:    -4.418      2.420      3.415
REMARK INTER + INTRA:          -4.676
REMARK INTER:                  -4.676
REMARK INTRA:                   0.000
REMARK UNBOUND:                 0.000
REMARK SMILES O=c1ccc2cc(O)c(O)cc2o1
REMARK SMILES IDX 4 1 3 2 2 3 1 4 13 5 12 6 11 7 9 8 7 9 6 10 5 11 8 12 10 14
REMARK H PARENT 8 13 10 15
REMARK Flexibility Score: inf
ROOT
ATOM      1  C   UNL     1     -12.221  -8.766  89.588  1.00  0.00     0.019 A 
ATOM      2  C   UNL     1     -13.356  -9.218  88.914  1.00  0.00     0.094 A 
ATOM      3  C   UNL     1     -13.253 -10.352  88.100  1.00  0.00     0.336 A 
ATOM      4  O   UNL     1     -14.265 -10.776  87.483  1.00  0.00    -0.246 OA
ATOM      5  O   UNL     1     -12.090 -10.986  87.973  1.00  0.00    -0.423 OA
ATOM      6  C   UNL     1     -10.985 -10.588  88.598  1.00  0.00     0.142 A 
ATOM      7  C   UNL     1      -9.791 -11.295  88.426  1.00  0.00     0.098 A 
ATOM      8  C   UNL     1      -8.623 -10.880  89.083  1.00  0.00     0.161 A 
ATOM      9  C   UNL     1      -8.651  -9.748  89.918  1.00  0.00     0.158 A 
ATOM     10  C   UNL     1      -9.846  -9.038  90.092  1.00  0.00     0.062 A 
ATOM     11  C   UNL     1     -11.013  -9.452  89.437  1.00  0.00     0.022 A 
ENDROOT
BRANCH   9  12
ATOM     12  O   UNL     1      -7.505  -9.314  90.582  1.00  0.00    -0.504 OA
ATOM     13  H   UNL     1      -7.267  -8.334  90.662  1.00  0.00     0.293 HD
ENDBRANCH   9  12
BRANCH   8  14
ATOM     14  O   UNL     1      -7.435 -11.588  88.908  1.00  0.00    -0.504 OA
ATOM     15  H   UNL     1      -7.092 -11.833  87.987  1.00  0.00     0.293 HD
ENDBRANCH   8  14
TORSDOF 2
ENDMDL
MODEL 8
REMARK VINA RESULT:    -4.406      2.085      3.274
REMARK INTER + INTRA:          -4.663
REMARK INTER:                  -4.663
REMARK INTRA:                   0.000
REMARK UNBOUND:                 0.000
REMARK SMILES O=c1ccc2cc(O)c(O)cc2o1
REMARK SMILES IDX 4 1 3 2 2 3 1 4 13 5 12 6 11 7 9 8 7 9 6 10 5 11 8 12 10 14
REMARK H PARENT 8 13 10 15
REMARK Flexibility Score: inf
ROOT
ATOM      1  C   UNL     1     -12.212 -10.791  88.017  1.00  0.00     0.019 A 
ATOM      2  C   UNL     1     -13.347 -10.009  88.232  1.00  0.00     0.094 A 
ATOM      3  C   UNL     1     -13.252  -8.896  89.075  1.00  0.00     0.336 A 
ATOM      4  O   UNL     1     -14.265  -8.177  89.282  1.00  0.00    -0.246 OA
ATOM      5  O   UNL     1     -12.097  -8.590  89.660  1.00  0.00    -0.423 OA
ATOM      6  C   UNL     1     -10.992  -9.310  89.482  1.00  0.00     0.142 A 
ATOM      7  C   UNL     1      -9.805  -8.940  90.124  1.00  0.00     0.098 A 
ATOM      8  C   UNL     1      -8.637  -9.695  89.939  1.00  0.00     0.161 A 
ATOM      9  C   UNL     1      -8.658 -10.829  89.106  1.00  0.00     0.158 A 
ATOM     10  C   UNL     1      -9.845 -11.200  88.461  1.00  0.00     0.062 A 
ATOM     11  C   UNL     1     -11.011 -10.447  88.645  1.00  0.00     0.022 A 
ENDROOT
BRANCH   9  12
ATOM     12  O   UNL     1      -7.511 -11.595  88.905  1.00  0.00    -0.504 OA
ATOM     13  H   UNL     1      -6.667 -11.207  88.503  1.00  0.00     0.293 HD
ENDBRANCH   9  12
BRANCH   8  14
ATOM     14  O   UNL     1      -7.457  -9.322  90.581  1.00  0.00    -0.504 OA
ATOM     15  H   UNL     1      -6.965  -9.957  91.198  1.00  0.00     0.293 HD
ENDBRANCH   8  14
TORSDOF 2
ENDMDL
MODEL 9
REMARK VINA RESULT:    -4.332      1.079      2.390
REMARK INTER + INTRA:          -4.585
REMARK INTER:                  -4.585
REMARK INTRA:                   0.000
REMARK UNBOUND:                 0.000
REMARK SMILES O=c1ccc2cc(O)c(O)cc2o1
REMARK SMILES IDX 4 1 3 2 2 3 1 4 13 5 12 6 11 7 9 8 7 9 6 10 5 11 8 12 10 14
REMARK H PARENT 8 13 10 15
REMARK Flexibility Score: inf
ROOT
ATOM      1  C   UNL     1     -12.228  -8.983  89.611  1.00  0.00     0.019 A 
ATOM      2  C   UNL     1     -12.464  -7.745  90.207  1.00  0.00     0.094 A 
ATOM      3  C   UNL     1     -11.373  -6.987  90.647  1.00  0.00     0.336 A 
ATOM      4  O   UNL     1     -11.565  -5.867  91.189  1.00  0.00    -0.246 OA
ATOM      5  O   UNL     1     -10.132  -7.441  90.495  1.00  0.00    -0.423 OA
ATOM      6  C   UNL     1      -9.863  -8.616  89.931  1.00  0.00     0.142 A 
ATOM      7  C   UNL     1      -8.538  -9.042  89.799  1.00  0.00     0.098 A 
ATOM      8  C   UNL     1      -8.249 -10.279  89.204  1.00  0.00     0.161 A 
ATOM      9  C   UNL     1      -9.296 -11.097  88.740  1.00  0.00     0.158 A 
ATOM     10  C   UNL     1     -10.625 -10.672  88.871  1.00  0.00     0.062 A 
ATOM     11  C   UNL     1     -10.914  -9.436  89.464  1.00  0.00     0.022 A 
ENDROOT
BRANCH   9  12
ATOM     12  O   UNL     1      -9.036 -12.330  88.145  1.00  0.00    -0.504 OA
ATOM     13  H   UNL     1      -9.755 -12.860  87.668  1.00  0.00     0.293 HD
ENDBRANCH   9  12
BRANCH   8  14
ATOM     14  O   UNL     1      -6.926 -10.700  89.075  1.00  0.00    -0.504 OA
ATOM     15  H   UNL     1      -6.658 -11.664  89.227  1.00  0.00     0.293 HD
ENDBRANCH   8  14
TORSDOF 2
ENDMDL
