MODEL 1
REMARK VINA RESULT:    -3.679      0.000      0.000
REMARK INTER + INTRA:          -5.200
REMARK INTER:                  -4.969
REMARK INTRA:                  -0.230
REMARK UNBOUND:                -0.230
REMARK SMILES CCCCCCCC(=O)[O-]
REMARK SMILES IDX 5 1 6 2 7 3 8 4 9 5 10 6 4 7 3 8 2 9 1 10
REMARK H PARENT
REMARK Flexibility Score: inf
ROOT
ATOM      1  C   UNL     1     -18.030  43.741  -6.369  1.00  0.00     0.000 C 
ENDROOT
BRANCH   1   2
ATOM      2  C   UNL     1     -17.618  43.945  -7.833  1.00  0.00     0.006 C 
BRANCH   2   3
ATOM      3  C   UNL     1     -18.617  44.847  -8.563  1.00  0.00     0.053 C 
BRANCH   3   4
ATOM      4  C   UNL     1     -19.471  44.040  -9.490  1.00  0.00     0.041 C 
ATOM      5  O   UNL     1     -19.361  42.786  -9.522  1.00  0.00    -0.550 OA
ATOM      6  O   UNL     1     -20.352  44.676 -10.356  1.00  0.00    -0.550 OA
ENDBRANCH   3   4
ENDBRANCH   2   3
ENDBRANCH   1   2
BRANCH   1   7
ATOM      7  C   UNL     1     -16.828  43.317  -5.513  1.00  0.00     0.000 C 
BRANCH   7   8
ATOM      8  C   UNL     1     -17.210  42.996  -4.057  1.00  0.00    -0.000 C 
BRANCH   8   9
ATOM      9  C   UNL     1     -18.606  43.488  -3.632  1.00  0.00    -0.003 C 
ATOM     10  C   UNL     1     -19.460  42.391  -2.999  1.00  0.00     0.004 C 
ENDBRANCH   8   9
ENDBRANCH   7   8
ENDBRANCH   1   7
TORSDOF 6
ENDMDL
MODEL 2
REMARK VINA RESULT:    -3.594      3.080      5.118
REMARK INTER + INTRA:          -5.085
REMARK INTER:                  -4.751
REMARK INTRA:                  -0.335
REMARK UNBOUND:                -0.230
REMARK SMILES CCCCCCCC(=O)[O-]
REMARK SMILES IDX 5 1 6 2 7 3 8 4 9 5 10 6 4 7 3 8 2 9 1 10
REMARK H PARENT
REMARK Flexibility Score: inf
ROOT
ATOM      1  C   UNL     1     -16.145  43.435  -5.953  1.00  0.00     0.000 C 
ENDROOT
BRANCH   1   2
ATOM      2  C   UNL     1     -17.630  43.129  -5.717  1.00  0.00     0.006 C 
BRANCH   2   3
ATOM      3  C   UNL     1     -17.822  42.287  -4.452  1.00  0.00     0.053 C 
BRANCH   3   4
ATOM      4  C   UNL     1     -18.798  42.946  -3.528  1.00  0.00     0.041 C 
ATOM      5  O   UNL     1     -19.422  42.264  -2.674  1.00  0.00    -0.550 OA
ATOM      6  O   UNL     1     -19.055  44.306  -3.644  1.00  0.00    -0.550 OA
ENDBRANCH   3   4
ENDBRANCH   2   3
ENDBRANCH   1   2
BRANCH   1   7
ATOM      7  C   UNL     1     -15.930  44.090  -7.325  1.00  0.00     0.000 C 
BRANCH   7   8
ATOM      8  C   UNL     1     -17.249  44.443  -8.036  1.00  0.00    -0.000 C 
BRANCH   8   9
ATOM      9  C   UNL     1     -17.488  43.697  -9.362  1.00  0.00    -0.003 C 
ATOM     10  C   UNL     1     -18.743  42.826  -9.340  1.00  0.00     0.004 C 
ENDBRANCH   8   9
ENDBRANCH   7   8
ENDBRANCH   1   7
TORSDOF 6
ENDMDL
MODEL 3
REMARK VINA RESULT:    -3.473      0.854      1.112
REMARK INTER + INTRA:          -4.922
REMARK INTER:                  -4.724
REMARK INTRA:                  -0.198
REMARK UNBOUND:                -0.230
REMARK SMILES CCCCCCCC(=O)[O-]
REMARK SMILES IDX 5 1 6 2 7 3 8 4 9 5 10 6 4 7 3 8 2 9 1 10
REMARK H PARENT
REMARK Flexibility Score: inf
ROOT
ATOM      1  C   UNL     1     -18.072  43.751  -6.482  1.00  0.00     0.000 C 
ENDROOT
BRANCH   1   2
ATOM      2  C   UNL     1     -17.620  43.954  -7.934  1.00  0.00     0.006 C 
BRANCH   2   3
ATOM      3  C   UNL     1     -18.668  43.419  -8.914  1.00  0.00     0.053 C 
BRANCH   3   4
ATOM      4  C   UNL     1     -19.106  44.499  -9.852  1.00  0.00     0.041 C 
ATOM      5  O   UNL     1     -20.254  44.462 -10.369  1.00  0.00    -0.550 OA
ATOM      6  O   UNL     1     -18.230  45.521 -10.195  1.00  0.00    -0.550 OA
ENDBRANCH   3   4
ENDBRANCH   2   3
ENDBRANCH   1   2
BRANCH   1   7
ATOM      7  C   UNL     1     -16.884  43.376  -5.583  1.00  0.00     0.000 C 
BRANCH   7   8
ATOM      8  C   UNL     1     -17.317  42.805  -4.222  1.00  0.00    -0.000 C 
BRANCH   8   9
ATOM      9  C   UNL     1     -18.659  43.345  -3.691  1.00  0.00    -0.003 C 
ATOM     10  C   UNL     1     -19.496  42.278  -2.988  1.00  0.00     0.004 C 
ENDBRANCH   8   9
ENDBRANCH   7   8
ENDBRANCH   1   7
TORSDOF 6
ENDMDL
MODEL 4
REMARK VINA RESULT:    -3.414      3.307      5.439
REMARK INTER + INTRA:          -4.842
REMARK INTER:                  -4.574
REMARK INTRA:                  -0.269
REMARK UNBOUND:                -0.230
REMARK SMILES CCCCCCCC(=O)[O-]
REMARK SMILES IDX 5 1 6 2 7 3 8 4 9 5 10 6 4 7 3 8 2 9 1 10
REMARK H PARENT
REMARK Flexibility Score: inf
ROOT
ATOM      1  C   UNL     1     -19.386  44.866  -6.788  1.00  0.00     0.000 C 
ENDROOT
BRANCH   1   2
ATOM      2  C   UNL     1     -18.583  43.949  -5.857  1.00  0.00     0.006 C 
BRANCH   2   3
ATOM      3  C   UNL     1     -19.064  44.081  -4.409  1.00  0.00     0.053 C 
BRANCH   3   4
ATOM      4  C   UNL     1     -18.457  43.011  -3.556  1.00  0.00     0.041 C 
ATOM      5  O   UNL     1     -17.218  42.792  -3.601  1.00  0.00    -0.550 OA
ATOM      6  O   UNL     1     -19.266  42.223  -2.748  1.00  0.00    -0.550 OA
ENDBRANCH   3   4
ENDBRANCH   2   3
ENDBRANCH   1   2
BRANCH   1   7
ATOM      7  C   UNL     1     -18.861  44.782  -8.229  1.00  0.00     0.000 C 
BRANCH   7   8
ATOM      8  C   UNL     1     -18.200  43.430  -8.550  1.00  0.00    -0.000 C 
BRANCH   8   9
ATOM      9  C   UNL     1     -18.935  42.585  -9.606  1.00  0.00    -0.003 C 
ATOM     10  C   UNL     1     -19.967  43.385 -10.400  1.00  0.00     0.004 C 
ENDBRANCH   8   9
ENDBRANCH   7   8
ENDBRANCH   1   7
TORSDOF 6
ENDMDL
MODEL 5
REMARK VINA RESULT:    -3.391      2.043      2.366
REMARK INTER + INTRA:          -4.811
REMARK INTER:                  -4.531
REMARK INTRA:                  -0.280
REMARK UNBOUND:                -0.230
REMARK SMILES CCCCCCCC(=O)[O-]
REMARK SMILES IDX 5 1 6 2 7 3 8 4 9 5 10 6 4 7 3 8 2 9 1 10
REMARK H PARENT
REMARK Flexibility Score: inf
ROOT
ATOM      1  C   UNL     1     -16.099  43.517  -5.864  1.00  0.00     0.000 C 
ENDROOT
BRANCH   1   2
ATOM      2  C   UNL     1     -15.777  44.047  -7.267  1.00  0.00     0.006 C 
BRANCH   2   3
ATOM      3  C   UNL     1     -17.049  44.180  -8.109  1.00  0.00     0.053 C 
BRANCH   3   4
ATOM      4  C   UNL     1     -17.038  45.465  -8.876  1.00  0.00     0.041 C 
ATOM      5  O   UNL     1     -16.110  46.298  -8.702  1.00  0.00    -0.550 OA
ATOM      6  O   UNL     1     -18.078  45.765  -9.745  1.00  0.00    -0.550 OA
ENDBRANCH   3   4
ENDBRANCH   2   3
ENDBRANCH   1   2
BRANCH   1   7
ATOM      7  C   UNL     1     -17.588  43.163  -5.738  1.00  0.00     0.000 C 
BRANCH   7   8
ATOM      8  C   UNL     1     -17.852  42.017  -4.745  1.00  0.00    -0.000 C 
BRANCH   8   9
ATOM      9  C   UNL     1     -18.593  42.432  -3.461  1.00  0.00    -0.003 C 
ATOM     10  C   UNL     1     -18.901  43.928  -3.405  1.00  0.00     0.004 C 
ENDBRANCH   8   9
ENDBRANCH   7   8
ENDBRANCH   1   7
TORSDOF 6
ENDMDL
MODEL 6
REMARK VINA RESULT:    -3.140      2.299      2.655
REMARK INTER + INTRA:          -4.471
REMARK INTER:                  -4.236
REMARK INTRA:                  -0.235
REMARK UNBOUND:                -0.230
REMARK SMILES CCCCCCCC(=O)[O-]
REMARK SMILES IDX 5 1 6 2 7 3 8 4 9 5 10 6 4 7 3 8 2 9 1 10
REMARK H PARENT
REMARK Flexibility Score: inf
ROOT
ATOM      1  C   UNL     1     -18.218  43.704  -6.678  1.00  0.00     0.000 C 
ENDROOT
BRANCH   1   2
ATOM      2  C   UNL     1     -17.844  43.962  -8.144  1.00  0.00     0.006 C 
BRANCH   2   3
ATOM      3  C   UNL     1     -16.749  45.027  -8.252  1.00  0.00     0.053 C 
BRANCH   3   4
ATOM      4  C   UNL     1     -15.561  44.484  -8.981  1.00  0.00     0.041 C 
ATOM      5  O   UNL     1     -14.445  44.407  -8.404  1.00  0.00    -0.550 OA
ATOM      6  O   UNL     1     -15.674  44.111 -10.314  1.00  0.00    -0.550 OA
ENDBRANCH   3   4
ENDBRANCH   2   3
ENDBRANCH   1   2
BRANCH   1   7
ATOM      7  C   UNL     1     -16.972  43.377  -5.842  1.00  0.00     0.000 C 
BRANCH   7   8
ATOM      8  C   UNL     1     -17.302  42.626  -4.540  1.00  0.00    -0.000 C 
BRANCH   8   9
ATOM      9  C   UNL     1     -18.330  43.327  -3.633  1.00  0.00    -0.003 C 
ATOM     10  C   UNL     1     -19.407  42.380  -3.106  1.00  0.00     0.004 C 
ENDBRANCH   8   9
ENDBRANCH   7   8
ENDBRANCH   1   7
TORSDOF 6
ENDMDL
MODEL 7
REMARK VINA RESULT:    -2.814      3.079      5.443
REMARK INTER + INTRA:          -4.031
REMARK INTER:                  -3.747
REMARK INTRA:                  -0.285
REMARK UNBOUND:                -0.230
REMARK SMILES CCCCCCCC(=O)[O-]
REMARK SMILES IDX 5 1 6 2 7 3 8 4 9 5 10 6 4 7 3 8 2 9 1 10
REMARK H PARENT
REMARK Flexibility Score: inf
ROOT
ATOM      1  C   UNL     1     -18.937  44.561  -8.333  1.00  0.00     0.000 C 
ENDROOT
BRANCH   1   2
ATOM      2  C   UNL     1     -17.790  44.088  -7.431  1.00  0.00     0.006 C 
BRANCH   2   3
ATOM      3  C   UNL     1     -18.299  43.754  -6.026  1.00  0.00     0.053 C 
BRANCH   3   4
ATOM      4  C   UNL     1     -17.243  43.038  -5.243  1.00  0.00     0.041 C 
ATOM      5  O   UNL     1     -17.513  41.957  -4.657  1.00  0.00    -0.550 OA
ATOM      6  O   UNL     1     -15.974  43.590  -5.120  1.00  0.00    -0.550 OA
ENDBRANCH   3   4
ENDBRANCH   2   3
ENDBRANCH   1   2
BRANCH   1   7
ATOM      7  C   UNL     1     -18.396  45.204  -9.619  1.00  0.00     0.000 C 
BRANCH   7   8
ATOM      8  C   UNL     1     -18.653  44.348 -10.872  1.00  0.00    -0.000 C 
BRANCH   8   9
ATOM      9  C   UNL     1     -19.226  42.946 -10.591  1.00  0.00    -0.003 C 
ATOM     10  C   UNL     1     -18.178  41.839 -10.695  1.00  0.00     0.004 C 
ENDBRANCH   8   9
ENDBRANCH   7   8
ENDBRANCH   1   7
TORSDOF 6
ENDMDL
MODEL 8
REMARK VINA RESULT:    -2.769      3.139      5.278
REMARK INTER + INTRA:          -3.971
REMARK INTER:                  -3.571
REMARK INTRA:                  -0.400
REMARK UNBOUND:                -0.230
REMARK SMILES CCCCCCCC(=O)[O-]
REMARK SMILES IDX 5 1 6 2 7 3 8 4 9 5 10 6 4 7 3 8 2 9 1 10
REMARK H PARENT
REMARK Flexibility Score: inf
ROOT
ATOM      1  C   UNL     1     -18.756  44.646  -7.680  1.00  0.00     0.000 C 
ENDROOT
BRANCH   1   2
ATOM      2  C   UNL     1     -18.758  44.244  -6.199  1.00  0.00     0.006 C 
BRANCH   2   3
ATOM      3  C   UNL     1     -17.605  43.285  -5.889  1.00  0.00     0.053 C 
BRANCH   3   4
ATOM      4  C   UNL     1     -17.609  42.913  -4.440  1.00  0.00     0.041 C 
ATOM      5  O   UNL     1     -16.689  43.314  -3.680  1.00  0.00    -0.550 OA
ATOM      6  O   UNL     1     -18.602  42.082  -3.938  1.00  0.00    -0.550 OA
ENDBRANCH   3   4
ENDBRANCH   2   3
ENDBRANCH   1   2
BRANCH   1   7
ATOM      7  C   UNL     1     -17.474  44.167  -8.378  1.00  0.00     0.000 C 
BRANCH   7   8
ATOM      8  C   UNL     1     -16.961  45.159  -9.437  1.00  0.00    -0.000 C 
BRANCH   8   9
ATOM      9  C   UNL     1     -15.831  46.089  -8.958  1.00  0.00    -0.003 C 
ATOM     10  C   UNL     1     -15.033  45.509  -7.791  1.00  0.00     0.004 C 
ENDBRANCH   8   9
ENDBRANCH   7   8
ENDBRANCH   1   7
TORSDOF 6
ENDMDL
MODEL 9
REMARK VINA RESULT:    -2.707      3.169      5.107
REMARK INTER + INTRA:          -3.887
REMARK INTER:                  -3.314
REMARK INTRA:                  -0.572
REMARK UNBOUND:                -0.230
REMARK SMILES CCCCCCCC(=O)[O-]
REMARK SMILES IDX 5 1 6 2 7 3 8 4 9 5 10 6 4 7 3 8 2 9 1 10
REMARK H PARENT
REMARK Flexibility Score: inf
ROOT
ATOM      1  C   UNL     1     -18.369  42.703 -10.835  1.00  0.00     0.000 C 
ENDROOT
BRANCH   1   2
ATOM      2  C   UNL     1     -19.100  42.739  -9.487  1.00  0.00     0.006 C 
BRANCH   2   3
ATOM      3  C   UNL     1     -19.380  44.181  -9.052  1.00  0.00     0.053 C 
BRANCH   3   4
ATOM      4  C   UNL     1     -18.808  44.439  -7.694  1.00  0.00     0.041 C 
ATOM      5  O   UNL     1     -17.658  44.018  -7.401  1.00  0.00    -0.550 OA
ATOM      6  O   UNL     1     -19.564  45.101  -6.735  1.00  0.00    -0.550 OA
ENDBRANCH   3   4
ENDBRANCH   2   3
ENDBRANCH   1   2
BRANCH   1   7
ATOM      7  C   UNL     1     -17.541  43.980 -11.046  1.00  0.00     0.000 C 
BRANCH   7   8
ATOM      8  C   UNL     1     -16.043  43.779 -10.754  1.00  0.00    -0.000 C 
BRANCH   8   9
ATOM      9  C   UNL     1     -15.326  45.014 -10.177  1.00  0.00    -0.003 C 
ATOM     10  C   UNL     1     -16.281  46.159  -9.844  1.00  0.00     0.004 C 
ENDBRANCH   8   9
ENDBRANCH   7   8
ENDBRANCH   1   7
TORSDOF 6
ENDMDL
