MODEL 1
REMARK VINA RESULT:    -7.210      0.000      0.000
REMARK INTER + INTRA:         -11.497
REMARK INTER:                 -10.371
REMARK INTRA:                  -1.126
REMARK UNBOUND:                -1.126
REMARK SMILES O=c1c(O[C@@H]2O[C@H](CO)[C@@H](O)[C@@H](O)[C@@H]2O)c(-c2ccc(O)cc2)oc2cc(O)cc(O)c12
REMARK SMILES IDX 4 1 3 2 16 3 24 4 2 5 25 6 1 7 32 8 26 9 30 10 27 11 29 12
REMARK SMILES IDX 17 13 18 14 19 15 20 16 23 17 22 18 21 19 31 21 28 23 5 25
REMARK SMILES IDX 14 26 6 27 12 28 7 29 10 30 15 31 13 33 8 35 9 36 11 38
REMARK H PARENT 21 20 31 22 28 24 15 32 13 34 9 37 11 39
REMARK Flexibility Score: inf
ROOT
ATOM      1  O   UNL     1     -47.930 -13.596  14.692  1.00  0.00    -0.454 OA
ENDROOT
BRANCH   1   2
ATOM      2  C   UNL     1     -49.286 -13.797  14.352  1.00  0.00     0.214 A 
ATOM      3  C   UNL     1     -49.643 -13.731  12.988  1.00  0.00     0.180 A 
ATOM      4  O   UNL     1     -50.916 -13.837  12.621  1.00  0.00    -0.452 OA
ATOM      5  C   UNL     1     -50.315 -14.026  15.298  1.00  0.00     0.239 A 
ATOM      6  C   UNL     1     -51.909 -14.030  13.476  1.00  0.00     0.146 A 
ATOM      7  O   UNL     1     -50.042 -14.143  16.521  1.00  0.00    -0.285 OA
ATOM      8  C   UNL     1     -51.654 -14.124  14.864  1.00  0.00     0.111 A 
ATOM      9  C   UNL     1     -53.215 -14.155  12.983  1.00  0.00     0.094 A 
ATOM     10  C   UNL     1     -52.744 -14.327  15.749  1.00  0.00     0.134 A 
ATOM     11  C   UNL     1     -54.283 -14.356  13.859  1.00  0.00     0.123 A 
ATOM     12  C   UNL     1     -54.048 -14.424  15.238  1.00  0.00     0.093 A 
BRANCH   3  13
ATOM     13  C   UNL     1     -48.631 -13.575  11.922  1.00  0.00     0.021 A 
ATOM     14  C   UNL     1     -48.513 -12.367  11.209  1.00  0.00     0.016 A 
ATOM     15  C   UNL     1     -47.503 -12.204  10.257  1.00  0.00     0.047 A 
ATOM     16  C   UNL     1     -46.590 -13.236  10.021  1.00  0.00     0.115 A 
ATOM     17  C   UNL     1     -47.707 -14.605  11.683  1.00  0.00     0.016 A 
ATOM     18  C   UNL     1     -46.695 -14.440  10.733  1.00  0.00     0.047 A 
BRANCH  16  19
ATOM     19  O   UNL     1     -45.578 -13.056   9.084  1.00  0.00    -0.508 OA
ATOM     20  H   UNL     1     -45.581 -12.274   8.442  1.00  0.00     0.293 HD
ENDBRANCH  16  19
ENDBRANCH   3  13
BRANCH  10  21
ATOM     21  O   UNL     1     -52.544 -14.435  17.125  1.00  0.00    -0.507 OA
ATOM     22  H   UNL     1     -52.854 -15.247  17.647  1.00  0.00     0.293 HD
ENDBRANCH  10  21
BRANCH  11  23
ATOM     23  O   UNL     1     -55.575 -14.461  13.349  1.00  0.00    -0.508 OA
ATOM     24  H   UNL     1     -55.854 -15.247  12.773  1.00  0.00     0.293 HD
ENDBRANCH  11  23
ENDBRANCH   1   2
BRANCH   1  25
ATOM     25  C   UNL     1     -47.159 -12.405  14.505  1.00  0.00     0.339 C 
ATOM     26  C   UNL     1     -46.766 -11.803  15.888  1.00  0.00     0.214 C 
ATOM     27  O   UNL     1     -46.005 -12.710  13.734  1.00  0.00    -0.332 OA
ATOM     28  C   UNL     1     -45.247 -11.551  15.982  1.00  0.00     0.180 C 
ATOM     29  C   UNL     1     -45.304 -11.517  13.420  1.00  0.00     0.179 C 
ATOM     30  C   UNL     1     -44.705 -10.870  14.707  1.00  0.00     0.177 C 
BRANCH  26  31
ATOM     31  O   UNL     1     -47.144 -12.662  16.938  1.00  0.00    -0.384 OA
ATOM     32  H   UNL     1     -48.133 -12.749  16.902  1.00  0.00     0.211 HD
ENDBRANCH  26  31
BRANCH  28  33
ATOM     33  O   UNL     1     -44.949 -10.769  17.111  1.00  0.00    -0.387 OA
ATOM     34  H   UNL     1     -45.815 -10.460  17.485  1.00  0.00     0.211 HD
ENDBRANCH  28  33
BRANCH  29  35
ATOM     35  C   UNL     1     -44.207 -11.842  12.397  1.00  0.00     0.191 C 
BRANCH  35  36
ATOM     36  O   UNL     1     -43.327 -10.754  12.274  1.00  0.00    -0.394 OA
ATOM     37  H   UNL     1     -42.493 -11.101  11.860  1.00  0.00     0.210 HD
ENDBRANCH  35  36
ENDBRANCH  29  35
BRANCH  30  38
ATOM     38  O   UNL     1     -44.940  -9.483  14.731  1.00  0.00    -0.387 OA
ATOM     39  H   UNL     1     -44.141  -9.032  14.345  1.00  0.00     0.211 HD
ENDBRANCH  30  38
ENDBRANCH   1  25
TORSDOF 11
ENDMDL
MODEL 2
REMARK VINA RESULT:    -7.123      2.718      8.832
REMARK INTER + INTRA:         -11.372
REMARK INTER:                 -10.417
REMARK INTRA:                  -0.955
REMARK UNBOUND:                -1.126
REMARK SMILES O=c1c(O[C@@H]2O[C@H](CO)[C@@H](O)[C@@H](O)[C@@H]2O)c(-c2ccc(O)cc2)oc2cc(O)cc(O)c12
REMARK SMILES IDX 4 1 3 2 16 3 24 4 2 5 25 6 1 7 32 8 26 9 30 10 27 11 29 12
REMARK SMILES IDX 17 13 18 14 19 15 20 16 23 17 22 18 21 19 31 21 28 23 5 25
REMARK SMILES IDX 14 26 6 27 12 28 7 29 10 30 15 31 13 33 8 35 9 36 11 38
REMARK H PARENT 21 20 31 22 28 24 15 32 13 34 9 37 11 39
REMARK Flexibility Score: inf
ROOT
ATOM      1  O   UNL     1     -44.870 -11.947  12.167  1.00  0.00    -0.454 OA
ENDROOT
BRANCH   1   2
ATOM      2  C   UNL     1     -44.218 -10.777  12.615  1.00  0.00     0.214 A 
ATOM      3  C   UNL     1     -44.573 -10.265  13.881  1.00  0.00     0.180 A 
ATOM      4  O   UNL     1     -44.046  -9.125  14.317  1.00  0.00    -0.452 OA
ATOM      5  C   UNL     1     -43.255 -10.067  11.857  1.00  0.00     0.239 A 
ATOM      6  C   UNL     1     -43.159  -8.421  13.630  1.00  0.00     0.146 A 
ATOM      7  O   UNL     1     -42.867 -10.509  10.744  1.00  0.00    -0.285 OA
ATOM      8  C   UNL     1     -42.727  -8.857  12.355  1.00  0.00     0.111 A 
ATOM      9  C   UNL     1     -42.643  -7.245  14.191  1.00  0.00     0.094 A 
ATOM     10  C   UNL     1     -41.779  -8.074  11.648  1.00  0.00     0.134 A 
ATOM     11  C   UNL     1     -41.710  -6.479  13.491  1.00  0.00     0.123 A 
ATOM     12  C   UNL     1     -41.293  -6.885  12.216  1.00  0.00     0.093 A 
BRANCH   3  13
ATOM     13  C   UNL     1     -45.509 -10.976  14.778  1.00  0.00     0.021 A 
ATOM     14  C   UNL     1     -46.861 -10.594  14.860  1.00  0.00     0.016 A 
ATOM     15  C   UNL     1     -47.753 -11.323  15.653  1.00  0.00     0.047 A 
ATOM     16  C   UNL     1     -47.310 -12.448  16.354  1.00  0.00     0.115 A 
ATOM     17  C   UNL     1     -45.072 -12.111  15.480  1.00  0.00     0.016 A 
ATOM     18  C   UNL     1     -45.966 -12.840  16.269  1.00  0.00     0.047 A 
BRANCH  16  19
ATOM     19  O   UNL     1     -48.211 -13.175  17.125  1.00  0.00    -0.508 OA
ATOM     20  H   UNL     1     -47.957 -14.058  17.548  1.00  0.00     0.293 HD
ENDBRANCH  16  19
ENDBRANCH   3  13
BRANCH  10  21
ATOM     21  O   UNL     1     -41.315  -8.466  10.392  1.00  0.00    -0.507 OA
ATOM     22  H   UNL     1     -40.901  -7.803   9.746  1.00  0.00     0.293 HD
ENDBRANCH  10  21
BRANCH  11  23
ATOM     23  O   UNL     1     -41.223  -5.305  14.060  1.00  0.00    -0.508 OA
ATOM     24  H   UNL     1     -41.785  -4.463  14.098  1.00  0.00     0.293 HD
ENDBRANCH  11  23
ENDBRANCH   1   2
BRANCH   1  25
ATOM     25  C   UNL     1     -46.275 -12.131  11.968  1.00  0.00     0.339 C 
ATOM     26  C   UNL     1     -46.571 -12.364  10.454  1.00  0.00     0.214 C 
ATOM     27  O   UNL     1     -46.720 -13.231  12.750  1.00  0.00    -0.332 OA
ATOM     28  C   UNL     1     -47.407 -13.641  10.233  1.00  0.00     0.180 C 
ATOM     29  C   UNL     1     -48.132 -13.338  12.673  1.00  0.00     0.179 C 
ATOM     30  C   UNL     1     -48.582 -13.730  11.231  1.00  0.00     0.177 C 
BRANCH  26  31
ATOM     31  O   UNL     1     -45.376 -12.476   9.718  1.00  0.00    -0.384 OA
ATOM     32  H   UNL     1     -44.754 -11.783  10.063  1.00  0.00     0.211 HD
ENDBRANCH  26  31
BRANCH  28  33
ATOM     33  O   UNL     1     -47.889 -13.689   8.915  1.00  0.00    -0.387 OA
ATOM     34  H   UNL     1     -47.221 -14.195   8.381  1.00  0.00     0.211 HD
ENDBRANCH  28  33
BRANCH  29  35
ATOM     35  C   UNL     1     -48.607 -14.372  13.704  1.00  0.00     0.191 C 
BRANCH  35  36
ATOM     36  O   UNL     1     -49.738 -13.891  14.382  1.00  0.00    -0.394 OA
ATOM     37  H   UNL     1     -49.816 -12.924  14.167  1.00  0.00     0.210 HD
ENDBRANCH  35  36
ENDBRANCH  29  35
BRANCH  30  38
ATOM     38  O   UNL     1     -49.669 -12.943  10.810  1.00  0.00    -0.387 OA
ATOM     39  H   UNL     1     -50.218 -13.490  10.186  1.00  0.00     0.211 HD
ENDBRANCH  30  38
ENDBRANCH   1  25
TORSDOF 11
ENDMDL
MODEL 3
REMARK VINA RESULT:    -6.994     11.877     15.874
REMARK INTER + INTRA:         -11.187
REMARK INTER:                  -9.836
REMARK INTRA:                  -1.351
REMARK UNBOUND:                -1.126
REMARK SMILES O=c1c(O[C@@H]2O[C@H](CO)[C@@H](O)[C@@H](O)[C@@H]2O)c(-c2ccc(O)cc2)oc2cc(O)cc(O)c12
REMARK SMILES IDX 4 1 3 2 16 3 24 4 2 5 25 6 1 7 32 8 26 9 30 10 27 11 29 12
REMARK SMILES IDX 17 13 18 14 19 15 20 16 23 17 22 18 21 19 31 21 28 23 5 25
REMARK SMILES IDX 14 26 6 27 12 28 7 29 10 30 15 31 13 33 8 35 9 36 11 38
REMARK H PARENT 21 20 31 22 28 24 15 32 13 34 9 37 11 39
REMARK Flexibility Score: inf
ROOT
ATOM      1  O   UNL     1     -37.766  -6.448   4.698  1.00  0.00    -0.454 OA
ENDROOT
BRANCH   1   2
ATOM      2  C   UNL     1     -38.798  -7.267   4.189  1.00  0.00     0.214 A 
ATOM      3  C   UNL     1     -39.033  -7.247   2.798  1.00  0.00     0.180 A 
ATOM      4  O   UNL     1     -40.040  -7.939   2.276  1.00  0.00    -0.452 OA
ATOM      5  C   UNL     1     -39.634  -8.079   4.993  1.00  0.00     0.239 A 
ATOM      6  C   UNL     1     -40.857  -8.695   2.996  1.00  0.00     0.146 A 
ATOM      7  O   UNL     1     -39.433  -8.170   6.232  1.00  0.00    -0.285 OA
ATOM      8  C   UNL     1     -40.697  -8.792   4.399  1.00  0.00     0.111 A 
ATOM      9  C   UNL     1     -41.874  -9.407   2.346  1.00  0.00     0.094 A 
ATOM     10  C   UNL     1     -41.594  -9.607   5.136  1.00  0.00     0.134 A 
ATOM     11  C   UNL     1     -42.752 -10.209   3.077  1.00  0.00     0.123 A 
ATOM     12  C   UNL     1     -42.621 -10.293   4.469  1.00  0.00     0.093 A 
BRANCH   3  13
ATOM     13  C   UNL     1     -38.165  -6.492   1.869  1.00  0.00     0.021 A 
ATOM     14  C   UNL     1     -37.076  -7.114   1.231  1.00  0.00     0.016 A 
ATOM     15  C   UNL     1     -36.310  -6.412   0.296  1.00  0.00     0.047 A 
ATOM     16  C   UNL     1     -36.634  -5.090  -0.025  1.00  0.00     0.115 A 
ATOM     17  C   UNL     1     -38.489  -5.166   1.537  1.00  0.00     0.016 A 
ATOM     18  C   UNL     1     -37.724  -4.466   0.600  1.00  0.00     0.047 A 
BRANCH  16  19
ATOM     19  O   UNL     1     -35.875  -4.408  -0.970  1.00  0.00    -0.508 OA
ATOM     20  H   UNL     1     -34.963  -4.031  -0.747  1.00  0.00     0.293 HD
ENDBRANCH  16  19
ENDBRANCH   3  13
BRANCH  10  21
ATOM     21  O   UNL     1     -41.472  -9.743   6.518  1.00  0.00    -0.507 OA
ATOM     22  H   UNL     1     -42.135  -9.319   7.157  1.00  0.00     0.293 HD
ENDBRANCH  10  21
BRANCH  11  23
ATOM     23  O   UNL     1     -43.765 -10.895   2.412  1.00  0.00    -0.508 OA
ATOM     24  H   UNL     1     -44.432 -11.469   2.914  1.00  0.00     0.293 HD
ENDBRANCH  11  23
ENDBRANCH   1   2
BRANCH   1  25
ATOM     25  C   UNL     1     -37.883  -5.102   5.170  1.00  0.00     0.339 C 
ATOM     26  C   UNL     1     -36.673  -4.256   4.670  1.00  0.00     0.214 C 
ATOM     27  O   UNL     1     -39.113  -4.551   4.718  1.00  0.00    -0.332 OA
ATOM     28  C   UNL     1     -37.139  -2.967   3.962  1.00  0.00     0.180 C 
ATOM     29  C   UNL     1     -39.308  -3.269   5.294  1.00  0.00     0.179 C 
ATOM     30  C   UNL     1     -38.252  -2.253   4.760  1.00  0.00     0.177 C 
BRANCH  26  31
ATOM     31  O   UNL     1     -35.875  -4.995   3.776  1.00  0.00    -0.384 OA
ATOM     32  H   UNL     1     -36.476  -5.630   3.305  1.00  0.00     0.211 HD
ENDBRANCH  26  31
BRANCH  28  33
ATOM     33  O   UNL     1     -36.055  -2.097   3.763  1.00  0.00    -0.387 OA
ATOM     34  H   UNL     1     -35.888  -1.641   4.628  1.00  0.00     0.211 HD
ENDBRANCH  28  33
BRANCH  29  35
ATOM     35  C   UNL     1     -40.737  -2.801   4.986  1.00  0.00     0.191 C 
BRANCH  35  36
ATOM     36  O   UNL     1     -41.033  -3.019   3.630  1.00  0.00    -0.394 OA
ATOM     37  H   UNL     1     -41.040  -4.002   3.489  1.00  0.00     0.210 HD
ENDBRANCH  35  36
ENDBRANCH  29  35
BRANCH  30  38
ATOM     38  O   UNL     1     -37.715  -1.485   5.809  1.00  0.00    -0.387 OA
ATOM     39  H   UNL     1     -36.727  -1.601   5.797  1.00  0.00     0.211 HD
ENDBRANCH  30  38
ENDBRANCH   1  25
TORSDOF 11
ENDMDL
MODEL 4
REMARK VINA RESULT:    -6.623      9.072     13.399
REMARK INTER + INTRA:         -10.652
REMARK INTER:                 -10.143
REMARK INTRA:                  -0.510
REMARK UNBOUND:                -1.126
REMARK SMILES O=c1c(O[C@@H]2O[C@H](CO)[C@@H](O)[C@@H](O)[C@@H]2O)c(-c2ccc(O)cc2)oc2cc(O)cc(O)c12
REMARK SMILES IDX 4 1 3 2 16 3 24 4 2 5 25 6 1 7 32 8 26 9 30 10 27 11 29 12
REMARK SMILES IDX 17 13 18 14 19 15 20 16 23 17 22 18 21 19 31 21 28 23 5 25
REMARK SMILES IDX 14 26 6 27 12 28 7 29 10 30 15 31 13 33 8 35 9 36 11 38
REMARK H PARENT 21 20 31 22 28 24 15 32 13 34 9 37 11 39
REMARK Flexibility Score: inf
ROOT
ATOM      1  O   UNL     1     -40.015  -8.089   4.370  1.00  0.00    -0.454 OA
ENDROOT
BRANCH   1   2
ATOM      2  C   UNL     1     -40.530  -8.785   5.486  1.00  0.00     0.214 A 
ATOM      3  C   UNL     1     -41.703  -9.547   5.306  1.00  0.00     0.180 A 
ATOM      4  O   UNL     1     -42.272 -10.159   6.340  1.00  0.00    -0.452 OA
ATOM      5  C   UNL     1     -39.961  -8.735   6.782  1.00  0.00     0.239 A 
ATOM      6  C   UNL     1     -41.783 -10.120   7.571  1.00  0.00     0.146 A 
ATOM      7  O   UNL     1     -38.887  -8.110   6.984  1.00  0.00    -0.285 OA
ATOM      8  C   UNL     1     -40.603  -9.393   7.853  1.00  0.00     0.111 A 
ATOM      9  C   UNL     1     -42.445 -10.822   8.587  1.00  0.00     0.094 A 
ATOM     10  C   UNL     1     -40.112  -9.371   9.184  1.00  0.00     0.134 A 
ATOM     11  C   UNL     1     -41.957 -10.798   9.895  1.00  0.00     0.123 A 
ATOM     12  C   UNL     1     -40.804 -10.061  10.193  1.00  0.00     0.093 A 
BRANCH   3  13
ATOM     13  C   UNL     1     -42.325  -9.723   3.977  1.00  0.00     0.021 A 
ATOM     14  C   UNL     1     -41.538  -9.980   2.839  1.00  0.00     0.016 A 
ATOM     15  C   UNL     1     -42.143 -10.221   1.602  1.00  0.00     0.047 A 
ATOM     16  C   UNL     1     -43.536 -10.227   1.492  1.00  0.00     0.115 A 
ATOM     17  C   UNL     1     -43.725  -9.736   3.860  1.00  0.00     0.016 A 
ATOM     18  C   UNL     1     -44.328  -9.980   2.624  1.00  0.00     0.047 A 
BRANCH  16  19
ATOM     19  O   UNL     1     -44.127 -10.485   0.260  1.00  0.00    -0.508 OA
ATOM     20  H   UNL     1     -43.829 -11.259  -0.321  1.00  0.00     0.293 HD
ENDBRANCH  16  19
ENDBRANCH   3  13
BRANCH  10  21
ATOM     21  O   UNL     1     -38.948  -8.677   9.511  1.00  0.00    -0.507 OA
ATOM     22  H   UNL     1     -38.364  -8.953  10.292  1.00  0.00     0.293 HD
ENDBRANCH  10  21
BRANCH  11  23
ATOM     23  O   UNL     1     -42.640 -11.490  10.892  1.00  0.00    -0.508 OA
ATOM     24  H   UNL     1     -43.251 -11.011  11.544  1.00  0.00     0.293 HD
ENDBRANCH  11  23
ENDBRANCH   1   2
BRANCH   1  25
ATOM     25  C   UNL     1     -39.520  -6.747   4.341  1.00  0.00     0.339 C 
ATOM     26  C   UNL     1     -38.783  -6.480   2.992  1.00  0.00     0.214 C 
ATOM     27  O   UNL     1     -40.603  -5.843   4.518  1.00  0.00    -0.332 OA
ATOM     28  C   UNL     1     -39.322  -5.214   2.296  1.00  0.00     0.180 C 
ATOM     29  C   UNL     1     -40.111  -4.517   4.633  1.00  0.00     0.179 C 
ATOM     30  C   UNL     1     -39.475  -4.042   3.290  1.00  0.00     0.177 C 
BRANCH  26  31
ATOM     31  O   UNL     1     -38.928  -7.572   2.115  1.00  0.00    -0.384 OA
ATOM     32  H   UNL     1     -38.018  -7.825   1.811  1.00  0.00     0.211 HD
ENDBRANCH  26  31
BRANCH  28  33
ATOM     33  O   UNL     1     -38.478  -4.841   1.237  1.00  0.00    -0.387 OA
ATOM     34  H   UNL     1     -37.908  -5.627   1.031  1.00  0.00     0.211 HD
ENDBRANCH  28  33
BRANCH  29  35
ATOM     35  C   UNL     1     -41.264  -3.598   5.059  1.00  0.00     0.191 C 
BRANCH  35  36
ATOM     36  O   UNL     1     -42.055  -3.271   3.946  1.00  0.00    -0.394 OA
ATOM     37  H   UNL     1     -42.730  -3.993   3.847  1.00  0.00     0.210 HD
ENDBRANCH  35  36
ENDBRANCH  29  35
BRANCH  30  38
ATOM     38  O   UNL     1     -38.244  -3.399   3.513  1.00  0.00    -0.387 OA
ATOM     39  H   UNL     1     -38.401  -2.417   3.471  1.00  0.00     0.211 HD
ENDBRANCH  30  38
ENDBRANCH   1  25
TORSDOF 11
ENDMDL
MODEL 5
REMARK VINA RESULT:    -5.839      9.506     12.466
REMARK INTER + INTRA:          -9.525
REMARK INTER:                  -8.075
REMARK INTRA:                  -1.450
REMARK UNBOUND:                -1.126
REMARK SMILES O=c1c(O[C@@H]2O[C@H](CO)[C@@H](O)[C@@H](O)[C@@H]2O)c(-c2ccc(O)cc2)oc2cc(O)cc(O)c12
REMARK SMILES IDX 4 1 3 2 16 3 24 4 2 5 25 6 1 7 32 8 26 9 30 10 27 11 29 12
REMARK SMILES IDX 17 13 18 14 19 15 20 16 23 17 22 18 21 19 31 21 28 23 5 25
REMARK SMILES IDX 14 26 6 27 12 28 7 29 10 30 15 31 13 33 8 35 9 36 11 38
REMARK H PARENT 21 20 31 22 28 24 15 32 13 34 9 37 11 39
REMARK Flexibility Score: inf
ROOT
ATOM      1  O   UNL     1     -42.867  -7.310   5.486  1.00  0.00    -0.454 OA
ENDROOT
BRANCH   1   2
ATOM      2  C   UNL     1     -42.329  -8.306   6.330  1.00  0.00     0.214 A 
ATOM      3  C   UNL     1     -41.916  -9.520   5.742  1.00  0.00     0.180 A 
ATOM      4  O   UNL     1     -41.475 -10.518   6.500  1.00  0.00    -0.452 OA
ATOM      5  C   UNL     1     -42.212  -8.175   7.735  1.00  0.00     0.239 A 
ATOM      6  C   UNL     1     -41.369 -10.443   7.819  1.00  0.00     0.146 A 
ATOM      7  O   UNL     1     -42.519  -7.094   8.303  1.00  0.00    -0.285 OA
ATOM      8  C   UNL     1     -41.745  -9.263   8.503  1.00  0.00     0.111 A 
ATOM      9  C   UNL     1     -40.865 -11.544   8.524  1.00  0.00     0.094 A 
ATOM     10  C   UNL     1     -41.621  -9.221   9.915  1.00  0.00     0.134 A 
ATOM     11  C   UNL     1     -40.745 -11.496   9.914  1.00  0.00     0.123 A 
ATOM     12  C   UNL     1     -41.139 -10.344  10.607  1.00  0.00     0.093 A 
BRANCH   3  13
ATOM     13  C   UNL     1     -41.927  -9.723   4.277  1.00  0.00     0.021 A 
ATOM     14  C   UNL     1     -43.102 -10.120   3.612  1.00  0.00     0.016 A 
ATOM     15  C   UNL     1     -43.120 -10.233   2.218  1.00  0.00     0.047 A 
ATOM     16  C   UNL     1     -41.975  -9.934   1.476  1.00  0.00     0.115 A 
ATOM     17  C   UNL     1     -40.782  -9.418   3.524  1.00  0.00     0.016 A 
ATOM     18  C   UNL     1     -40.802  -9.529   2.131  1.00  0.00     0.047 A 
BRANCH  16  19
ATOM     19  O   UNL     1     -42.010 -10.033   0.089  1.00  0.00    -0.508 OA
ATOM     20  H   UNL     1     -42.001 -10.930  -0.380  1.00  0.00     0.293 HD
ENDBRANCH  16  19
ENDBRANCH   3  13
BRANCH  10  21
ATOM     21  O   UNL     1     -41.970  -8.079  10.635  1.00  0.00    -0.507 OA
ATOM     22  H   UNL     1     -41.630  -7.916  11.576  1.00  0.00     0.293 HD
ENDBRANCH  10  21
BRANCH  11  23
ATOM     23  O   UNL     1     -40.258 -12.608  10.596  1.00  0.00    -0.508 OA
ATOM     24  H   UNL     1     -40.362 -12.700  11.600  1.00  0.00     0.293 HD
ENDBRANCH  11  23
ENDBRANCH   1   2
BRANCH   1  25
ATOM     25  C   UNL     1     -42.149  -6.290   4.786  1.00  0.00     0.339 C 
ATOM     26  C   UNL     1     -42.645  -4.883   5.240  1.00  0.00     0.214 C 
ATOM     27  O   UNL     1     -40.757  -6.444   5.029  1.00  0.00    -0.332 OA
ATOM     28  C   UNL     1     -41.470  -3.985   5.677  1.00  0.00     0.180 C 
ATOM     29  C   UNL     1     -40.023  -5.529   4.230  1.00  0.00     0.179 C 
ATOM     30  C   UNL     1     -40.296  -4.059   4.677  1.00  0.00     0.177 C 
BRANCH  26  31
ATOM     31  O   UNL     1     -43.551  -4.990   6.312  1.00  0.00    -0.384 OA
ATOM     32  H   UNL     1     -44.092  -5.807   6.156  1.00  0.00     0.211 HD
ENDBRANCH  26  31
BRANCH  28  33
ATOM     33  O   UNL     1     -41.897  -2.655   5.822  1.00  0.00    -0.387 OA
ATOM     34  H   UNL     1     -42.704  -2.547   5.255  1.00  0.00     0.211 HD
ENDBRANCH  28  33
BRANCH  29  35
ATOM     35  C   UNL     1     -38.531  -5.873   4.330  1.00  0.00     0.191 C 
BRANCH  35  36
ATOM     36  O   UNL     1     -38.371  -7.214   4.716  1.00  0.00    -0.394 OA
ATOM     37  H   UNL     1     -37.515  -7.272   5.216  1.00  0.00     0.210 HD
ENDBRANCH  35  36
ENDBRANCH  29  35
BRANCH  30  38
ATOM     38  O   UNL     1     -40.521  -3.227   3.564  1.00  0.00    -0.387 OA
ATOM     39  H   UNL     1     -39.799  -3.402   2.902  1.00  0.00     0.211 HD
ENDBRANCH  30  38
ENDBRANCH   1  25
TORSDOF 11
ENDMDL
MODEL 6
REMARK VINA RESULT:    -5.518      3.027      7.841
REMARK INTER + INTRA:          -9.063
REMARK INTER:                 -10.097
REMARK INTRA:                   1.034
REMARK UNBOUND:                -1.126
REMARK SMILES O=c1c(O[C@@H]2O[C@H](CO)[C@@H](O)[C@@H](O)[C@@H]2O)c(-c2ccc(O)cc2)oc2cc(O)cc(O)c12
REMARK SMILES IDX 4 1 3 2 16 3 24 4 2 5 25 6 1 7 32 8 26 9 30 10 27 11 29 12
REMARK SMILES IDX 17 13 18 14 19 15 20 16 23 17 22 18 21 19 31 21 28 23 5 25
REMARK SMILES IDX 14 26 6 27 12 28 7 29 10 30 15 31 13 33 8 35 9 36 11 38
REMARK H PARENT 21 20 31 22 28 24 15 32 13 34 9 37 11 39
REMARK Flexibility Score: inf
ROOT
ATOM      1  O   UNL     1     -46.230 -10.345  13.598  1.00  0.00    -0.454 OA
ENDROOT
BRANCH   1   2
ATOM      2  C   UNL     1     -45.170 -10.323  12.664  1.00  0.00     0.214 A 
ATOM      3  C   UNL     1     -45.126 -11.344  11.691  1.00  0.00     0.180 A 
ATOM      4  O   UNL     1     -44.110 -11.414  10.837  1.00  0.00    -0.452 OA
ATOM      5  C   UNL     1     -44.131  -9.361  12.667  1.00  0.00     0.239 A 
ATOM      6  C   UNL     1     -43.108 -10.546  10.820  1.00  0.00     0.146 A 
ATOM      7  O   UNL     1     -44.152  -8.402  13.483  1.00  0.00    -0.285 OA
ATOM      8  C   UNL     1     -43.067  -9.478  11.747  1.00  0.00     0.111 A 
ATOM      9  C   UNL     1     -42.098 -10.693   9.861  1.00  0.00     0.094 A 
ATOM     10  C   UNL     1     -41.977  -8.572  11.701  1.00  0.00     0.134 A 
ATOM     11  C   UNL     1     -41.028  -9.798   9.819  1.00  0.00     0.123 A 
ATOM     12  C   UNL     1     -40.961  -8.751  10.749  1.00  0.00     0.093 A 
BRANCH   3  13
ATOM     13  C   UNL     1     -46.204 -12.346  11.558  1.00  0.00     0.021 A 
ATOM     14  C   UNL     1     -46.050 -13.645  12.075  1.00  0.00     0.016 A 
ATOM     15  C   UNL     1     -47.105 -14.560  12.013  1.00  0.00     0.047 A 
ATOM     16  C   UNL     1     -48.329 -14.182  11.452  1.00  0.00     0.115 A 
ATOM     17  C   UNL     1     -47.438 -11.971  11.002  1.00  0.00     0.016 A 
ATOM     18  C   UNL     1     -48.493 -12.885  10.943  1.00  0.00     0.047 A 
BRANCH  16  19
ATOM     19  O   UNL     1     -49.377 -15.095  11.412  1.00  0.00    -0.508 OA
ATOM     20  H   UNL     1     -49.213 -16.094  11.420  1.00  0.00     0.293 HD
ENDBRANCH  16  19
ENDBRANCH   3  13
BRANCH  10  21
ATOM     21  O   UNL     1     -41.896  -7.498  12.588  1.00  0.00    -0.507 OA
ATOM     22  H   UNL     1     -42.580  -7.361  13.323  1.00  0.00     0.293 HD
ENDBRANCH  10  21
BRANCH  11  23
ATOM     23  O   UNL     1     -40.026  -9.973   8.868  1.00  0.00    -0.508 OA
ATOM     24  H   UNL     1     -39.844 -10.879   8.452  1.00  0.00     0.293 HD
ENDBRANCH  11  23
ENDBRANCH   1   2
BRANCH   1  25
ATOM     25  C   UNL     1     -46.625 -11.438  14.433  1.00  0.00     0.339 C 
ATOM     26  C   UNL     1     -45.366 -12.102  15.070  1.00  0.00     0.214 C 
ATOM     27  O   UNL     1     -47.516 -10.966  15.434  1.00  0.00    -0.332 OA
ATOM     28  C   UNL     1     -45.502 -12.213  16.602  1.00  0.00     0.180 C 
ATOM     29  C   UNL     1     -48.026 -12.060  16.181  1.00  0.00     0.179 C 
ATOM     30  C   UNL     1     -46.895 -12.741  17.011  1.00  0.00     0.177 C 
BRANCH  26  31
ATOM     31  O   UNL     1     -44.203 -11.366  14.775  1.00  0.00    -0.384 OA
ATOM     32  H   UNL     1     -43.474 -11.731  15.342  1.00  0.00     0.211 HD
ENDBRANCH  26  31
BRANCH  28  33
ATOM     33  O   UNL     1     -44.499 -13.046  17.125  1.00  0.00    -0.387 OA
ATOM     34  H   UNL     1     -44.181 -13.619  16.379  1.00  0.00     0.211 HD
ENDBRANCH  28  33
BRANCH  29  35
ATOM     35  C   UNL     1     -49.156 -11.554  17.088  1.00  0.00     0.191 C 
BRANCH  35  36
ATOM     36  O   UNL     1     -50.202 -12.491  17.122  1.00  0.00    -0.394 OA
ATOM     37  H   UNL     1     -51.041 -11.996  16.927  1.00  0.00     0.210 HD
ENDBRANCH  35  36
ENDBRANCH  29  35
BRANCH  30  38
ATOM     38  O   UNL     1     -46.962 -14.142  16.901  1.00  0.00    -0.387 OA
ATOM     39  H   UNL     1     -46.385 -14.532  17.613  1.00  0.00     0.211 HD
ENDBRANCH  30  38
ENDBRANCH   1  25
TORSDOF 11
ENDMDL
MODEL 7
REMARK VINA RESULT:    -5.252      3.203      8.570
REMARK INTER + INTRA:          -8.681
REMARK INTER:                  -8.327
REMARK INTRA:                  -0.354
REMARK UNBOUND:                -1.126
REMARK SMILES O=c1c(O[C@@H]2O[C@H](CO)[C@@H](O)[C@@H](O)[C@@H]2O)c(-c2ccc(O)cc2)oc2cc(O)cc(O)c12
REMARK SMILES IDX 4 1 3 2 16 3 24 4 2 5 25 6 1 7 32 8 26 9 30 10 27 11 29 12
REMARK SMILES IDX 17 13 18 14 19 15 20 16 23 17 22 18 21 19 31 21 28 23 5 25
REMARK SMILES IDX 14 26 6 27 12 28 7 29 10 30 15 31 13 33 8 35 9 36 11 38
REMARK H PARENT 21 20 31 22 28 24 15 32 13 34 9 37 11 39
REMARK Flexibility Score: inf
ROOT
ATOM      1  O   UNL     1     -44.469 -12.749  11.972  1.00  0.00    -0.454 OA
ENDROOT
BRANCH   1   2
ATOM      2  C   UNL     1     -43.964 -11.458  12.242  1.00  0.00     0.214 A 
ATOM      3  C   UNL     1     -44.479 -10.767  13.360  1.00  0.00     0.180 A 
ATOM      4  O   UNL     1     -44.094  -9.521  13.615  1.00  0.00    -0.452 OA
ATOM      5  C   UNL     1     -42.999 -10.801  11.441  1.00  0.00     0.239 A 
ATOM      6  C   UNL     1     -43.210  -8.864  12.878  1.00  0.00     0.146 A 
ATOM      7  O   UNL     1     -42.472 -11.393  10.463  1.00  0.00    -0.285 OA
ATOM      8  C   UNL     1     -42.625  -9.474  11.744  1.00  0.00     0.111 A 
ATOM      9  C   UNL     1     -42.852  -7.561  13.249  1.00  0.00     0.094 A 
ATOM     10  C   UNL     1     -41.686  -8.738  10.978  1.00  0.00     0.134 A 
ATOM     11  C   UNL     1     -41.926  -6.842  12.492  1.00  0.00     0.123 A 
ATOM     12  C   UNL     1     -41.359  -7.424  11.350  1.00  0.00     0.093 A 
BRANCH   3  13
ATOM     13  C   UNL     1     -45.430 -11.398  14.299  1.00  0.00     0.021 A 
ATOM     14  C   UNL     1     -44.979 -12.269  15.308  1.00  0.00     0.016 A 
ATOM     15  C   UNL     1     -45.878 -12.799  16.238  1.00  0.00     0.047 A 
ATOM     16  C   UNL     1     -47.231 -12.451  16.183  1.00  0.00     0.115 A 
ATOM     17  C   UNL     1     -46.790 -11.048  14.253  1.00  0.00     0.016 A 
ATOM     18  C   UNL     1     -47.687 -11.576  15.185  1.00  0.00     0.047 A 
BRANCH  16  19
ATOM     19  O   UNL     1     -48.112 -12.970  17.124  1.00  0.00    -0.508 OA
ATOM     20  H   UNL     1     -47.835 -13.701  17.766  1.00  0.00     0.293 HD
ENDBRANCH  16  19
ENDBRANCH   3  13
BRANCH  10  21
ATOM     21  O   UNL     1     -41.075  -9.298   9.856  1.00  0.00    -0.507 OA
ATOM     22  H   UNL     1     -41.383  -9.079   8.916  1.00  0.00     0.293 HD
ENDBRANCH  10  21
BRANCH  11  23
ATOM     23  O   UNL     1     -41.596  -5.542  12.868  1.00  0.00    -0.508 OA
ATOM     24  H   UNL     1     -42.078  -5.073  13.627  1.00  0.00     0.293 HD
ENDBRANCH  11  23
ENDBRANCH   1   2
BRANCH   1  25
ATOM     25  C   UNL     1     -45.749 -13.080  11.425  1.00  0.00     0.339 C 
ATOM     26  C   UNL     1     -46.368 -14.279  12.206  1.00  0.00     0.214 C 
ATOM     27  O   UNL     1     -46.595 -11.939  11.486  1.00  0.00    -0.332 OA
ATOM     28  C   UNL     1     -47.795 -13.958  12.694  1.00  0.00     0.180 C 
ATOM     29  C   UNL     1     -47.819 -12.209  10.820  1.00  0.00     0.179 C 
ATOM     30  C   UNL     1     -48.639 -13.295  11.583  1.00  0.00     0.177 C 
BRANCH  26  31
ATOM     31  O   UNL     1     -45.577 -14.616  13.321  1.00  0.00    -0.384 OA
ATOM     32  H   UNL     1     -46.055 -14.288  14.128  1.00  0.00     0.211 HD
ENDBRANCH  26  31
BRANCH  28  33
ATOM     33  O   UNL     1     -48.431 -15.124  13.151  1.00  0.00    -0.387 OA
ATOM     34  H   UNL     1     -49.291 -15.196  12.660  1.00  0.00     0.211 HD
ENDBRANCH  28  33
BRANCH  29  35
ATOM     35  C   UNL     1     -48.611 -10.901  10.692  1.00  0.00     0.191 C 
BRANCH  35  36
ATOM     36  O   UNL     1     -49.949 -11.109  11.064  1.00  0.00    -0.394 OA
ATOM     37  H   UNL     1     -50.356 -10.213  11.198  1.00  0.00     0.210 HD
ENDBRANCH  35  36
ENDBRANCH  29  35
BRANCH  30  38
ATOM     38  O   UNL     1     -49.156 -14.255  10.694  1.00  0.00    -0.387 OA
ATOM     39  H   UNL     1     -50.031 -14.563  11.054  1.00  0.00     0.211 HD
ENDBRANCH  30  38
ENDBRANCH   1  25
TORSDOF 11
ENDMDL
MODEL 8
REMARK VINA RESULT:    -4.895      2.444      6.000
REMARK INTER + INTRA:          -8.167
REMARK INTER:                  -7.474
REMARK INTRA:                  -0.693
REMARK UNBOUND:                -1.126
REMARK SMILES O=c1c(O[C@@H]2O[C@H](CO)[C@@H](O)[C@@H](O)[C@@H]2O)c(-c2ccc(O)cc2)oc2cc(O)cc(O)c12
REMARK SMILES IDX 4 1 3 2 16 3 24 4 2 5 25 6 1 7 32 8 26 9 30 10 27 11 29 12
REMARK SMILES IDX 17 13 18 14 19 15 20 16 23 17 22 18 21 19 31 21 28 23 5 25
REMARK SMILES IDX 14 26 6 27 12 28 7 29 10 30 15 31 13 33 8 35 9 36 11 38
REMARK H PARENT 21 20 31 22 28 24 15 32 13 34 9 37 11 39
REMARK Flexibility Score: inf
ROOT
ATOM      1  O   UNL     1     -45.367 -10.892  11.119  1.00  0.00    -0.454 OA
ENDROOT
BRANCH   1   2
ATOM      2  C   UNL     1     -46.295 -11.453  12.023  1.00  0.00     0.214 A 
ATOM      3  C   UNL     1     -46.192 -11.094  13.384  1.00  0.00     0.180 A 
ATOM      4  O   UNL     1     -46.992 -11.651  14.287  1.00  0.00    -0.452 OA
ATOM      5  C   UNL     1     -47.300 -12.379  11.653  1.00  0.00     0.239 A 
ATOM      6  C   UNL     1     -47.930 -12.537  13.986  1.00  0.00     0.146 A 
ATOM      7  O   UNL     1     -47.466 -12.693  10.445  1.00  0.00    -0.285 OA
ATOM      8  C   UNL     1     -48.122 -12.953  12.647  1.00  0.00     0.111 A 
ATOM      9  C   UNL     1     -48.740 -13.045  15.011  1.00  0.00     0.094 A 
ATOM     10  C   UNL     1     -49.134 -13.905  12.364  1.00  0.00     0.134 A 
ATOM     11  C   UNL     1     -49.734 -13.981  14.726  1.00  0.00     0.123 A 
ATOM     12  C   UNL     1     -49.918 -14.422  13.408  1.00  0.00     0.093 A 
BRANCH   3  13
ATOM     13  C   UNL     1     -45.228 -10.077  13.854  1.00  0.00     0.021 A 
ATOM     14  C   UNL     1     -44.189 -10.421  14.738  1.00  0.00     0.016 A 
ATOM     15  C   UNL     1     -43.237  -9.469  15.115  1.00  0.00     0.047 A 
ATOM     16  C   UNL     1     -43.302  -8.171  14.599  1.00  0.00     0.115 A 
ATOM     17  C   UNL     1     -45.283  -8.773  13.335  1.00  0.00     0.016 A 
ATOM     18  C   UNL     1     -44.330  -7.823  13.710  1.00  0.00     0.047 A 
BRANCH  16  19
ATOM     19  O   UNL     1     -42.340  -7.238  14.967  1.00  0.00    -0.508 OA
ATOM     20  H   UNL     1     -42.593  -6.337  15.351  1.00  0.00     0.293 HD
ENDBRANCH  16  19
ENDBRANCH   3  13
BRANCH  10  21
ATOM     21  O   UNL     1     -49.368 -14.340  11.060  1.00  0.00    -0.507 OA
ATOM     22  H   UNL     1     -49.636 -13.697  10.323  1.00  0.00     0.293 HD
ENDBRANCH  10  21
BRANCH  11  23
ATOM     23  O   UNL     1     -50.516 -14.486  15.762  1.00  0.00    -0.508 OA
ATOM     24  H   UNL     1     -51.360 -14.014  16.065  1.00  0.00     0.293 HD
ENDBRANCH  11  23
ENDBRANCH   1   2
BRANCH   1  25
ATOM     25  C   UNL     1     -43.942 -11.019  11.153  1.00  0.00     0.339 C 
ATOM     26  C   UNL     1     -43.452 -11.849   9.927  1.00  0.00     0.214 C 
ATOM     27  O   UNL     1     -43.355  -9.724  11.160  1.00  0.00    -0.332 OA
ATOM     28  C   UNL     1     -42.347 -11.106   9.148  1.00  0.00     0.180 C 
ATOM     29  C   UNL     1     -41.951  -9.831  11.336  1.00  0.00     0.179 C 
ATOM     30  C   UNL     1     -41.286 -10.510  10.099  1.00  0.00     0.177 C 
BRANCH  26  31
ATOM     31  O   UNL     1     -44.515 -12.122   9.046  1.00  0.00    -0.384 OA
ATOM     32  H   UNL     1     -44.507 -11.415   8.349  1.00  0.00     0.211 HD
ENDBRANCH  26  31
BRANCH  28  33
ATOM     33  O   UNL     1     -41.735 -11.968   8.223  1.00  0.00    -0.387 OA
ATOM     34  H   UNL     1     -41.931 -11.608   7.319  1.00  0.00     0.211 HD
ENDBRANCH  28  33
BRANCH  29  35
ATOM     35  C   UNL     1     -41.375  -8.429  11.579  1.00  0.00     0.191 C 
BRANCH  35  36
ATOM     36  O   UNL     1     -40.518  -8.447  12.691  1.00  0.00    -0.394 OA
ATOM     37  H   UNL     1     -40.673  -9.307  13.164  1.00  0.00     0.210 HD
ENDBRANCH  35  36
ENDBRANCH  29  35
BRANCH  30  38
ATOM     38  O   UNL     1     -40.353 -11.484  10.498  1.00  0.00    -0.387 OA
ATOM     39  H   UNL     1     -40.476 -12.281   9.915  1.00  0.00     0.211 HD
ENDBRANCH  30  38
ENDBRANCH   1  25
TORSDOF 11
ENDMDL
MODEL 9
REMARK VINA RESULT:    -4.773      9.092     13.418
REMARK INTER + INTRA:          -7.992
REMARK INTER:                  -9.485
REMARK INTRA:                   1.492
REMARK UNBOUND:                -1.126
REMARK SMILES O=c1c(O[C@@H]2O[C@H](CO)[C@@H](O)[C@@H](O)[C@@H]2O)c(-c2ccc(O)cc2)oc2cc(O)cc(O)c12
REMARK SMILES IDX 4 1 3 2 16 3 24 4 2 5 25 6 1 7 32 8 26 9 30 10 27 11 29 12
REMARK SMILES IDX 17 13 18 14 19 15 20 16 23 17 22 18 21 19 31 21 28 23 5 25
REMARK SMILES IDX 14 26 6 27 12 28 7 29 10 30 15 31 13 33 8 35 9 36 11 38
REMARK H PARENT 21 20 31 22 28 24 15 32 13 34 9 37 11 39
REMARK Flexibility Score: inf
ROOT
ATOM      1  O   UNL     1     -39.815  -8.294   3.793  1.00  0.00    -0.454 OA
ENDROOT
BRANCH   1   2
ATOM      2  C   UNL     1     -40.314  -8.818   5.005  1.00  0.00     0.214 A 
ATOM      3  C   UNL     1     -41.573  -9.455   4.982  1.00  0.00     0.180 A 
ATOM      4  O   UNL     1     -42.123  -9.898   6.108  1.00  0.00    -0.452 OA
ATOM      5  C   UNL     1     -39.644  -8.714   6.249  1.00  0.00     0.239 A 
ATOM      6  C   UNL     1     -41.539  -9.801   7.294  1.00  0.00     0.146 A 
ATOM      7  O   UNL     1     -38.497  -8.201   6.314  1.00  0.00    -0.285 OA
ATOM      8  C   UNL     1     -40.268  -9.192   7.421  1.00  0.00     0.111 A 
ATOM      9  C   UNL     1     -42.192 -10.325   8.418  1.00  0.00     0.094 A 
ATOM     10  C   UNL     1     -39.677  -9.102   8.707  1.00  0.00     0.134 A 
ATOM     11  C   UNL     1     -41.604 -10.235   9.680  1.00  0.00     0.123 A 
ATOM     12  C   UNL     1     -40.358  -9.610   9.825  1.00  0.00     0.093 A 
BRANCH   3  13
ATOM     13  C   UNL     1     -42.313  -9.681   3.722  1.00  0.00     0.021 A 
ATOM     14  C   UNL     1     -41.630  -9.967   2.526  1.00  0.00     0.016 A 
ATOM     15  C   UNL     1     -42.342 -10.255   1.357  1.00  0.00     0.047 A 
ATOM     16  C   UNL     1     -43.739 -10.279   1.376  1.00  0.00     0.115 A 
ATOM     17  C   UNL     1     -43.717  -9.713   3.735  1.00  0.00     0.016 A 
ATOM     18  C   UNL     1     -44.427 -10.004   2.568  1.00  0.00     0.047 A 
BRANCH  16  19
ATOM     19  O   UNL     1     -44.436 -10.584   0.212  1.00  0.00    -0.508 OA
ATOM     20  H   UNL     1     -44.767 -11.521   0.021  1.00  0.00     0.293 HD
ENDBRANCH  16  19
ENDBRANCH   3  13
BRANCH  10  21
ATOM     21  O   UNL     1     -38.422  -8.519   8.883  1.00  0.00    -0.507 OA
ATOM     22  H   UNL     1     -38.177  -7.639   8.444  1.00  0.00     0.293 HD
ENDBRANCH  10  21
BRANCH  11  23
ATOM     23  O   UNL     1     -42.278 -10.748  10.786  1.00  0.00    -0.508 OA
ATOM     24  H   UNL     1     -43.257 -11.002  10.737  1.00  0.00     0.293 HD
ENDBRANCH  11  23
ENDBRANCH   1   2
BRANCH   1  25
ATOM     25  C   UNL     1     -39.324  -6.970   3.561  1.00  0.00     0.339 C 
ATOM     26  C   UNL     1     -40.357  -5.921   4.075  1.00  0.00     0.214 C 
ATOM     27  O   UNL     1     -38.070  -6.814   4.211  1.00  0.00    -0.332 OA
ATOM     28  C   UNL     1     -39.699  -4.900   5.025  1.00  0.00     0.180 C 
ATOM     29  C   UNL     1     -37.505  -5.557   3.874  1.00  0.00     0.179 C 
ATOM     30  C   UNL     1     -38.354  -4.389   4.465  1.00  0.00     0.177 C 
BRANCH  26  31
ATOM     31  O   UNL     1     -41.417  -6.550   4.756  1.00  0.00    -0.384 OA
ATOM     32  H   UNL     1     -41.043  -6.927   5.595  1.00  0.00     0.211 HD
ENDBRANCH  26  31
BRANCH  28  33
ATOM     33  O   UNL     1     -40.565  -3.820   5.261  1.00  0.00    -0.387 OA
ATOM     34  H   UNL     1     -40.225  -3.347   6.064  1.00  0.00     0.211 HD
ENDBRANCH  28  33
BRANCH  29  35
ATOM     35  C   UNL     1     -36.060  -5.510   4.389  1.00  0.00     0.191 C 
BRANCH  35  36
ATOM     36  O   UNL     1     -35.875  -4.382   5.205  1.00  0.00    -0.394 OA
ATOM     37  H   UNL     1     -35.930  -3.585   4.615  1.00  0.00     0.210 HD
ENDBRANCH  35  36
ENDBRANCH  29  35
BRANCH  30  38
ATOM     38  O   UNL     1     -38.552  -3.375   3.509  1.00  0.00    -0.387 OA
ATOM     39  H   UNL     1     -39.507  -3.097   3.553  1.00  0.00     0.211 HD
ENDBRANCH  30  38
ENDBRANCH   1  25
TORSDOF 11
ENDMDL
