MODEL 1
REMARK VINA RESULT:    -4.060      0.000      0.000
REMARK INTER + INTRA:          -4.179
REMARK INTER:                  -4.179
REMARK INTRA:                   0.000
REMARK UNBOUND:                 0.000
REMARK SMILES Oc1ccc2[nH]ccc2c1
REMARK SMILES IDX 3 1 4 2 5 3 9 4 8 5 7 6 6 7 10 8 2 9 1 11
REMARK H PARENT 6 10 1 12
REMARK Flexibility Score: inf
ROOT
ATOM      1  C   UNL     1      12.859   9.609  23.645  1.00  0.00     0.048 A 
ATOM      2  C   UNL     1      14.152  10.014  24.022  1.00  0.00     0.030 A 
ATOM      3  C   UNL     1      15.026  10.420  23.015  1.00  0.00     0.046 A 
ATOM      4  C   UNL     1      14.652  10.431  21.698  1.00  0.00     0.003 A 
ATOM      5  C   UNL     1      15.730  10.880  20.967  1.00  0.00     0.028 A 
ATOM      6  C   UNL     1      16.729  11.123  21.905  1.00  0.00     0.083 A 
ATOM      7  N   UNL     1      16.294  10.842  23.155  1.00  0.00    -0.361 N 
ATOM      8  C   UNL     1      13.379  10.037  21.290  1.00  0.00     0.056 A 
ATOM      9  C   UNL     1      12.470   9.619  22.282  1.00  0.00     0.116 A 
ATOM     10  H   UNL     1      16.836  10.934  24.042  1.00  0.00     0.166 HD
ENDROOT
BRANCH   9  11
ATOM     11  O   UNL     1      11.190   9.218  21.909  1.00  0.00    -0.508 OA
ATOM     12  H   UNL     1      10.915   9.168  20.935  1.00  0.00     0.293 HD
ENDBRANCH   9  11
TORSDOF 1
ENDMDL
MODEL 2
REMARK VINA RESULT:    -4.018     15.359     16.777
REMARK INTER + INTRA:          -4.136
REMARK INTER:                  -4.136
REMARK INTRA:                   0.000
REMARK UNBOUND:                 0.000
REMARK SMILES Oc1ccc2[nH]ccc2c1
REMARK SMILES IDX 3 1 4 2 5 3 9 4 8 5 7 6 6 7 10 8 2 9 1 11
REMARK H PARENT 6 10 1 12
REMARK Flexibility Score: inf
ROOT
ATOM      1  C   UNL     1      11.954   9.472  37.631  1.00  0.00     0.048 A 
ATOM      2  C   UNL     1      12.317   9.661  38.977  1.00  0.00     0.030 A 
ATOM      3  C   UNL     1      12.897   8.587  39.652  1.00  0.00     0.046 A 
ATOM      4  C   UNL     1      13.113   7.383  39.038  1.00  0.00     0.003 A 
ATOM      5  C   UNL     1      13.694   6.546  39.965  1.00  0.00     0.028 A 
ATOM      6  C   UNL     1      13.802   7.308  41.124  1.00  0.00     0.083 A 
ATOM      7  N   UNL     1      13.314   8.554  40.928  1.00  0.00    -0.361 N 
ATOM      8  C   UNL     1      12.766   7.163  37.706  1.00  0.00     0.056 A 
ATOM      9  C   UNL     1      12.176   8.226  36.994  1.00  0.00     0.116 A 
ATOM     10  H   UNL     1      13.272   9.327  41.628  1.00  0.00     0.166 HD
ENDROOT
BRANCH   9  11
ATOM     11  O   UNL     1      11.817   8.039  35.662  1.00  0.00    -0.508 OA
ATOM     12  H   UNL     1      11.024   7.464  35.404  1.00  0.00     0.293 HD
ENDBRANCH   9  11
TORSDOF 1
ENDMDL
MODEL 3
REMARK VINA RESULT:    -3.884     14.721     16.135
REMARK INTER + INTRA:          -3.998
REMARK INTER:                  -3.998
REMARK INTRA:                   0.000
REMARK UNBOUND:                 0.000
REMARK SMILES Oc1ccc2[nH]ccc2c1
REMARK SMILES IDX 3 1 4 2 5 3 9 4 8 5 7 6 6 7 10 8 2 9 1 11
REMARK H PARENT 6 10 1 12
REMARK Flexibility Score: inf
ROOT
ATOM      1  C   UNL     1      12.318   9.639  39.145  1.00  0.00     0.048 A 
ATOM      2  C   UNL     1      11.904   9.547  37.804  1.00  0.00     0.030 A 
ATOM      3  C   UNL     1      12.219   8.383  37.104  1.00  0.00     0.046 A 
ATOM      4  C   UNL     1      12.906   7.355  37.690  1.00  0.00     0.003 A 
ATOM      5  C   UNL     1      13.054   6.365  36.743  1.00  0.00     0.028 A 
ATOM      6  C   UNL     1      12.431   6.859  35.602  1.00  0.00     0.083 A 
ATOM      7  N   UNL     1      11.922   8.092  35.827  1.00  0.00    -0.361 N 
ATOM      8  C   UNL     1      13.330   7.413  39.017  1.00  0.00     0.056 A 
ATOM      9  C   UNL     1      13.030   8.575  39.754  1.00  0.00     0.116 A 
ATOM     10  H   UNL     1      11.406   8.691  35.145  1.00  0.00     0.166 HD
ENDROOT
BRANCH   9  11
ATOM     11  O   UNL     1      13.438   8.666  41.082  1.00  0.00    -0.508 OA
ATOM     12  H   UNL     1      13.036   9.350  41.712  1.00  0.00     0.293 HD
ENDBRANCH   9  11
TORSDOF 1
ENDMDL
MODEL 4
REMARK VINA RESULT:    -3.780      2.659      4.111
REMARK INTER + INTRA:          -3.891
REMARK INTER:                  -3.891
REMARK INTRA:                   0.000
REMARK UNBOUND:                 0.000
REMARK SMILES Oc1ccc2[nH]ccc2c1
REMARK SMILES IDX 3 1 4 2 5 3 9 4 8 5 7 6 6 7 10 8 2 9 1 11
REMARK H PARENT 6 10 1 12
REMARK Flexibility Score: inf
ROOT
ATOM      1  C   UNL     1      14.593  10.988  21.637  1.00  0.00     0.048 A 
ATOM      2  C   UNL     1      13.486  10.381  21.017  1.00  0.00     0.030 A 
ATOM      3  C   UNL     1      12.876   9.314  21.675  1.00  0.00     0.046 A 
ATOM      4  C   UNL     1      13.329   8.862  22.885  1.00  0.00     0.003 A 
ATOM      5  C   UNL     1      12.520   7.811  23.261  1.00  0.00     0.028 A 
ATOM      6  C   UNL     1      11.595   7.679  22.230  1.00  0.00     0.083 A 
ATOM      7  N   UNL     1      11.816   8.599  21.263  1.00  0.00    -0.361 N 
ATOM      8  C   UNL     1      14.422   9.441  23.527  1.00  0.00     0.056 A 
ATOM      9  C   UNL     1      15.063  10.521  22.889  1.00  0.00     0.116 A 
ATOM     10  H   UNL     1      11.273   8.723  20.381  1.00  0.00     0.166 HD
ENDROOT
BRANCH   9  11
ATOM     11  O   UNL     1      16.158  11.123  23.503  1.00  0.00    -0.508 OA
ATOM     12  H   UNL     1      16.676  10.655  24.237  1.00  0.00     0.293 HD
ENDBRANCH   9  11
TORSDOF 1
ENDMDL
MODEL 5
REMARK VINA RESULT:    -3.767      3.215      4.194
REMARK INTER + INTRA:          -3.877
REMARK INTER:                  -3.877
REMARK INTRA:                   0.000
REMARK UNBOUND:                 0.000
REMARK SMILES Oc1ccc2[nH]ccc2c1
REMARK SMILES IDX 3 1 4 2 5 3 9 4 8 5 7 6 6 7 10 8 2 9 1 11
REMARK H PARENT 6 10 1 12
REMARK Flexibility Score: inf
ROOT
ATOM      1  C   UNL     1      13.008   8.429  24.863  1.00  0.00     0.048 A 
ATOM      2  C   UNL     1      12.455   7.262  24.304  1.00  0.00     0.030 A 
ATOM      3  C   UNL     1      12.164   7.269  22.941  1.00  0.00     0.046 A 
ATOM      4  C   UNL     1      12.406   8.366  22.159  1.00  0.00     0.003 A 
ATOM      5  C   UNL     1      12.014   8.052  20.876  1.00  0.00     0.028 A 
ATOM      6  C   UNL     1      11.543   6.745  20.950  1.00  0.00     0.083 A 
ATOM      7  N   UNL     1      11.637   6.270  22.213  1.00  0.00    -0.361 N 
ATOM      8  C   UNL     1      12.953   9.537  22.681  1.00  0.00     0.056 A 
ATOM      9  C   UNL     1      13.257   9.566  24.056  1.00  0.00     0.116 A 
ATOM     10  H   UNL     1      11.357   5.323  22.548  1.00  0.00     0.166 HD
ENDROOT
BRANCH   9  11
ATOM     11  O   UNL     1      13.806  10.720  24.610  1.00  0.00    -0.508 OA
ATOM     12  H   UNL     1      14.564  10.675  25.279  1.00  0.00     0.293 HD
ENDBRANCH   9  11
TORSDOF 1
ENDMDL
MODEL 6
REMARK VINA RESULT:    -3.748     14.786     16.224
REMARK INTER + INTRA:          -3.858
REMARK INTER:                  -3.858
REMARK INTRA:                   0.000
REMARK UNBOUND:                 0.000
REMARK SMILES Oc1ccc2[nH]ccc2c1
REMARK SMILES IDX 3 1 4 2 5 3 9 4 8 5 7 6 6 7 10 8 2 9 1 11
REMARK H PARENT 6 10 1 12
REMARK Flexibility Score: inf
ROOT
ATOM      1  C   UNL     1      13.365   6.688  36.674  1.00  0.00     0.048 A 
ATOM      2  C   UNL     1      13.814   6.563  38.001  1.00  0.00     0.030 A 
ATOM      3  C   UNL     1      13.337   7.480  38.938  1.00  0.00     0.046 A 
ATOM      4  C   UNL     1      12.461   8.472  38.591  1.00  0.00     0.003 A 
ATOM      5  C   UNL     1      12.188   9.197  39.731  1.00  0.00     0.028 A 
ATOM      6  C   UNL     1      12.935   8.589  40.735  1.00  0.00     0.083 A 
ATOM      7  N   UNL     1      13.635   7.540  40.246  1.00  0.00    -0.361 N 
ATOM      8  C   UNL     1      11.997   8.624  37.286  1.00  0.00     0.056 A 
ATOM      9  C   UNL     1      12.459   7.715  36.313  1.00  0.00     0.116 A 
ATOM     10  H   UNL     1      14.274   6.910  40.780  1.00  0.00     0.166 HD
ENDROOT
BRANCH   9  11
ATOM     11  O   UNL     1      12.015   7.838  34.999  1.00  0.00    -0.508 OA
ATOM     12  H   UNL     1      11.352   7.182  34.603  1.00  0.00     0.293 HD
ENDBRANCH   9  11
TORSDOF 1
ENDMDL
MODEL 7
REMARK VINA RESULT:    -3.746      1.397      1.610
REMARK INTER + INTRA:          -3.855
REMARK INTER:                  -3.855
REMARK INTRA:                   0.000
REMARK UNBOUND:                 0.000
REMARK SMILES Oc1ccc2[nH]ccc2c1
REMARK SMILES IDX 3 1 4 2 5 3 9 4 8 5 7 6 6 7 10 8 2 9 1 11
REMARK H PARENT 6 10 1 12
REMARK Flexibility Score: inf
ROOT
ATOM      1  C   UNL     1      12.363   7.745  23.206  1.00  0.00     0.048 A 
ATOM      2  C   UNL     1      13.326   8.528  23.869  1.00  0.00     0.030 A 
ATOM      3  C   UNL     1      13.983   9.513  23.134  1.00  0.00     0.046 A 
ATOM      4  C   UNL     1      13.709   9.725  21.810  1.00  0.00     0.003 A 
ATOM      5  C   UNL     1      14.517  10.756  21.382  1.00  0.00     0.028 A 
ATOM      6  C   UNL     1      15.257  11.125  22.501  1.00  0.00     0.083 A 
ATOM      7  N   UNL     1      14.927  10.363  23.569  1.00  0.00    -0.361 N 
ATOM      8  C   UNL     1      12.761   8.968  21.123  1.00  0.00     0.056 A 
ATOM      9  C   UNL     1      12.079   7.963  21.835  1.00  0.00     0.116 A 
ATOM     10  H   UNL     1      15.328  10.426  24.531  1.00  0.00     0.166 HD
ENDROOT
BRANCH   9  11
ATOM     11  O   UNL     1      11.126   7.189  21.179  1.00  0.00    -0.508 OA
ATOM     12  H   UNL     1      10.329   7.612  20.717  1.00  0.00     0.293 HD
ENDBRANCH   9  11
TORSDOF 1
ENDMDL
MODEL 8
REMARK VINA RESULT:    -3.661      4.239      5.306
REMARK INTER + INTRA:          -3.768
REMARK INTER:                  -3.768
REMARK INTRA:                   0.000
REMARK UNBOUND:                 0.000
REMARK SMILES Oc1ccc2[nH]ccc2c1
REMARK SMILES IDX 3 1 4 2 5 3 9 4 8 5 7 6 6 7 10 8 2 9 1 11
REMARK H PARENT 6 10 1 12
REMARK Flexibility Score: inf
ROOT
ATOM      1  C   UNL     1      10.757   6.044  25.373  1.00  0.00     0.048 A 
ATOM      2  C   UNL     1      10.348   5.878  24.037  1.00  0.00     0.030 A 
ATOM      3  C   UNL     1      11.090   6.517  23.045  1.00  0.00     0.046 A 
ATOM      4  C   UNL     1      12.184   7.283  23.346  1.00  0.00     0.003 A 
ATOM      5  C   UNL     1      12.688   7.766  22.158  1.00  0.00     0.028 A 
ATOM      6  C   UNL     1      11.849   7.254  21.173  1.00  0.00     0.083 A 
ATOM      7  N   UNL     1      10.875   6.491  21.720  1.00  0.00    -0.361 N 
ATOM      8  C   UNL     1      12.616   7.468  24.658  1.00  0.00     0.056 A 
ATOM      9  C   UNL     1      11.889   6.837  25.686  1.00  0.00     0.116 A 
ATOM     10  H   UNL     1      10.115   5.988  21.212  1.00  0.00     0.166 HD
ENDROOT
BRANCH   9  11
ATOM     11  O   UNL     1      12.294   7.001  27.008  1.00  0.00    -0.508 OA
ATOM     12  H   UNL     1      13.266   7.155  27.248  1.00  0.00     0.293 HD
ENDBRANCH   9  11
TORSDOF 1
ENDMDL
