MODEL 1
REMARK VINA RESULT:    -3.297      0.000      0.000
REMARK INTER + INTRA:          -4.054
REMARK INTER:                  -3.875
REMARK INTRA:                  -0.179
REMARK UNBOUND:                -0.179
REMARK SMILES O=C([O-])CCC(=O)[O-]
REMARK SMILES IDX 4 1 2 2 1 3 3 4 5 5 6 6 7 7 8 8
REMARK H PARENT
REMARK Flexibility Score: inf
ROOT
ATOM      1  C   UNL     1     -18.856  44.231  -5.535  1.00  0.00     0.059 C 
ENDROOT
BRANCH   1   2
ATOM      2  C   UNL     1     -17.491  44.083  -6.135  1.00  0.00     0.042 C 
ATOM      3  O   UNL     1     -17.217  43.082  -6.849  1.00  0.00    -0.550 OA
ATOM      4  O   UNL     1     -16.508  45.029  -5.872  1.00  0.00    -0.550 OA
ENDBRANCH   1   2
BRANCH   1   5
ATOM      5  C   UNL     1     -19.915  44.523  -6.602  1.00  0.00     0.059 C 
BRANCH   5   6
ATOM      6  C   UNL     1     -19.575  45.748  -7.396  1.00  0.00     0.042 C 
ATOM      7  O   UNL     1     -19.635  46.886  -6.859  1.00  0.00    -0.550 OA
ATOM      8  O   UNL     1     -19.233  45.637  -8.737  1.00  0.00    -0.550 OA
ENDBRANCH   5   6
ENDBRANCH   1   5
TORSDOF 3
ENDMDL
MODEL 2
REMARK VINA RESULT:    -3.263      0.101      3.429
REMARK INTER + INTRA:          -4.015
REMARK INTER:                  -3.845
REMARK INTRA:                  -0.170
REMARK UNBOUND:                -0.179
REMARK SMILES O=C([O-])CCC(=O)[O-]
REMARK SMILES IDX 4 1 2 2 1 3 3 4 5 5 6 6 7 7 8 8
REMARK H PARENT
REMARK Flexibility Score: inf
ROOT
ATOM      1  C   UNL     1     -19.934  44.639  -6.574  1.00  0.00     0.059 C 
ENDROOT
BRANCH   1   2
ATOM      2  C   UNL     1     -19.524  45.838  -7.375  1.00  0.00     0.042 C 
ATOM      3  O   UNL     1     -19.509  46.980  -6.844  1.00  0.00    -0.550 OA
ATOM      4  O   UNL     1     -19.199  45.699  -8.719  1.00  0.00    -0.550 OA
ENDBRANCH   1   2
BRANCH   1   5
ATOM      5  C   UNL     1     -18.869  44.258  -5.541  1.00  0.00     0.059 C 
BRANCH   5   6
ATOM      6  C   UNL     1     -17.525  44.069  -6.176  1.00  0.00     0.042 C 
ATOM      7  O   UNL     1     -17.314  43.081  -6.928  1.00  0.00    -0.550 OA
ATOM      8  O   UNL     1     -16.494  44.960  -5.906  1.00  0.00    -0.550 OA
ENDBRANCH   5   6
ENDBRANCH   1   5
TORSDOF 3
ENDMDL
MODEL 3
REMARK VINA RESULT:    -3.262      0.111      3.283
REMARK INTER + INTRA:          -4.013
REMARK INTER:                  -3.830
REMARK INTRA:                  -0.183
REMARK UNBOUND:                -0.179
REMARK SMILES O=C([O-])CCC(=O)[O-]
REMARK SMILES IDX 4 1 2 2 1 3 3 4 5 5 6 6 7 7 8 8
REMARK H PARENT
REMARK Flexibility Score: inf
ROOT
ATOM      1  C   UNL     1     -19.930  44.485  -6.553  1.00  0.00     0.059 C 
ENDROOT
BRANCH   1   2
ATOM      2  C   UNL     1     -19.614  45.669  -7.415  1.00  0.00     0.042 C 
ATOM      3  O   UNL     1     -19.623  46.830  -6.926  1.00  0.00    -0.550 OA
ATOM      4  O   UNL     1     -19.349  45.495  -8.768  1.00  0.00    -0.550 OA
ENDBRANCH   1   2
BRANCH   1   5
ATOM      5  C   UNL     1     -18.856  44.259  -5.486  1.00  0.00     0.059 C 
BRANCH   5   6
ATOM      6  C   UNL     1     -17.494  44.114  -6.094  1.00  0.00     0.042 C 
ATOM      7  O   UNL     1     -16.587  44.944  -5.821  1.00  0.00    -0.550 OA
ATOM      8  O   UNL     1     -17.238  43.086  -6.993  1.00  0.00    -0.550 OA
ENDBRANCH   5   6
ENDBRANCH   1   5
TORSDOF 3
ENDMDL
MODEL 4
REMARK VINA RESULT:    -3.233      2.051      3.315
REMARK INTER + INTRA:          -3.979
REMARK INTER:                  -3.820
REMARK INTRA:                  -0.160
REMARK UNBOUND:                -0.179
REMARK SMILES O=C([O-])CCC(=O)[O-]
REMARK SMILES IDX 4 1 2 2 1 3 3 4 5 5 6 6 7 7 8 8
REMARK H PARENT
REMARK Flexibility Score: inf
ROOT
ATOM      1  C   UNL     1     -20.641  45.112  -7.806  1.00  0.00     0.059 C 
ENDROOT
BRANCH   1   2
ATOM      2  C   UNL     1     -20.011  44.136  -8.752  1.00  0.00     0.042 C 
ATOM      3  O   UNL     1     -20.632  43.095  -9.096  1.00  0.00    -0.550 OA
ATOM      4  O   UNL     1     -18.721  44.353  -9.221  1.00  0.00    -0.550 OA
ENDBRANCH   1   2
BRANCH   1   5
ATOM      5  C   UNL     1     -19.662  45.554  -6.714  1.00  0.00     0.059 C 
BRANCH   5   6
ATOM      6  C   UNL     1     -19.435  44.470  -5.704  1.00  0.00     0.042 C 
ATOM      7  O   UNL     1     -20.400  44.022  -5.030  1.00  0.00    -0.550 OA
ATOM      8  O   UNL     1     -18.154  43.985  -5.479  1.00  0.00    -0.550 OA
ENDBRANCH   5   6
ENDBRANCH   1   5
TORSDOF 3
ENDMDL
MODEL 5
REMARK VINA RESULT:    -3.202      2.135      2.711
REMARK INTER + INTRA:          -3.943
REMARK INTER:                  -3.793
REMARK INTRA:                  -0.150
REMARK UNBOUND:                -0.179
REMARK SMILES O=C([O-])CCC(=O)[O-]
REMARK SMILES IDX 4 1 2 2 1 3 3 4 5 5 6 6 7 7 8 8
REMARK H PARENT
REMARK Flexibility Score: inf
ROOT
ATOM      1  C   UNL     1     -19.747  45.486  -6.654  1.00  0.00     0.059 C 
ENDROOT
BRANCH   1   2
ATOM      2  C   UNL     1     -19.495  44.414  -5.638  1.00  0.00     0.042 C 
ATOM      3  O   UNL     1     -18.331  43.963  -5.468  1.00  0.00    -0.550 OA
ATOM      4  O   UNL     1     -20.551  43.883  -4.908  1.00  0.00    -0.550 OA
ENDBRANCH   1   2
BRANCH   1   5
ATOM      5  C   UNL     1     -20.673  44.998  -7.772  1.00  0.00     0.059 C 
BRANCH   5   6
ATOM      6  C   UNL     1     -19.958  44.091  -8.727  1.00  0.00     0.042 C 
ATOM      7  O   UNL     1     -18.810  44.395  -9.147  1.00  0.00    -0.550 OA
ATOM      8  O   UNL     1     -20.574  42.933  -9.183  1.00  0.00    -0.550 OA
ENDBRANCH   5   6
ENDBRANCH   1   5
TORSDOF 3
ENDMDL
MODEL 6
REMARK VINA RESULT:    -3.201      2.105      3.302
REMARK INTER + INTRA:          -3.942
REMARK INTER:                  -3.820
REMARK INTRA:                  -0.123
REMARK UNBOUND:                -0.179
REMARK SMILES O=C([O-])CCC(=O)[O-]
REMARK SMILES IDX 4 1 2 2 1 3 3 4 5 5 6 6 7 7 8 8
REMARK H PARENT
REMARK Flexibility Score: inf
ROOT
ATOM      1  C   UNL     1     -19.169  46.861  -6.571  1.00  0.00     0.059 C 
ENDROOT
BRANCH   1   2
ATOM      2  C   UNL     1     -18.117  47.250  -5.576  1.00  0.00     0.042 C 
ATOM      3  O   UNL     1     -18.425  47.930  -4.561  1.00  0.00    -0.550 OA
ATOM      4  O   UNL     1     -16.790  46.899  -5.792  1.00  0.00    -0.550 OA
ENDBRANCH   1   2
BRANCH   1   5
ATOM      5  C   UNL     1     -19.010  45.406  -7.021  1.00  0.00     0.059 C 
BRANCH   5   6
ATOM      6  C   UNL     1     -19.166  44.453  -5.875  1.00  0.00     0.042 C 
ATOM      7  O   UNL     1     -18.171  43.810  -5.447  1.00  0.00    -0.550 OA
ATOM      8  O   UNL     1     -20.416  44.244  -5.307  1.00  0.00    -0.550 OA
ENDBRANCH   5   6
ENDBRANCH   1   5
TORSDOF 3
ENDMDL
MODEL 7
REMARK VINA RESULT:    -3.134      1.695      3.159
REMARK INTER + INTRA:          -3.863
REMARK INTER:                  -3.734
REMARK INTRA:                  -0.130
REMARK UNBOUND:                -0.179
REMARK SMILES O=C([O-])CCC(=O)[O-]
REMARK SMILES IDX 4 1 2 2 1 3 3 4 5 5 6 6 7 7 8 8
REMARK H PARENT
REMARK Flexibility Score: inf
ROOT
ATOM      1  C   UNL     1     -20.590  45.091  -7.744  1.00  0.00     0.059 C 
ENDROOT
BRANCH   1   2
ATOM      2  C   UNL     1     -20.063  44.213  -8.838  1.00  0.00     0.042 C 
ATOM      3  O   UNL     1     -20.664  43.148  -9.141  1.00  0.00    -0.550 OA
ATOM      4  O   UNL     1     -18.885  44.548  -9.494  1.00  0.00    -0.550 OA
ENDBRANCH   1   2
BRANCH   1   5
ATOM      5  C   UNL     1     -20.302  44.505  -6.359  1.00  0.00     0.059 C 
BRANCH   5   6
ATOM      6  C   UNL     1     -18.925  44.858  -5.885  1.00  0.00     0.042 C 
ATOM      7  O   UNL     1     -18.585  46.065  -5.771  1.00  0.00    -0.550 OA
ATOM      8  O   UNL     1     -18.004  43.855  -5.609  1.00  0.00    -0.550 OA
ENDBRANCH   5   6
ENDBRANCH   1   5
TORSDOF 3
ENDMDL
MODEL 8
REMARK VINA RESULT:    -3.095      1.241      3.361
REMARK INTER + INTRA:          -3.817
REMARK INTER:                  -3.664
REMARK INTRA:                  -0.153
REMARK UNBOUND:                -0.179
REMARK SMILES O=C([O-])CCC(=O)[O-]
REMARK SMILES IDX 4 1 2 2 1 3 3 4 5 5 6 6 7 7 8 8
REMARK H PARENT
REMARK Flexibility Score: inf
ROOT
ATOM      1  C   UNL     1     -19.469  44.555  -5.740  1.00  0.00     0.059 C 
ENDROOT
BRANCH   1   2
ATOM      2  C   UNL     1     -19.984  44.909  -7.102  1.00  0.00     0.042 C 
ATOM      3  O   UNL     1     -20.209  46.112  -7.401  1.00  0.00    -0.550 OA
ATOM      4  O   UNL     1     -20.257  43.908  -8.026  1.00  0.00    -0.550 OA
ENDBRANCH   1   2
BRANCH   1   5
ATOM      5  C   UNL     1     -18.029  44.036  -5.798  1.00  0.00     0.059 C 
BRANCH   5   6
ATOM      6  C   UNL     1     -17.065  45.121  -6.168  1.00  0.00     0.042 C 
ATOM      7  O   UNL     1     -16.125  44.885  -6.973  1.00  0.00    -0.550 OA
ATOM      8  O   UNL     1     -17.179  46.381  -5.594  1.00  0.00    -0.550 OA
ENDBRANCH   5   6
ENDBRANCH   1   5
TORSDOF 3
ENDMDL
MODEL 9
REMARK VINA RESULT:    -3.038      1.142      3.223
REMARK INTER + INTRA:          -3.750
REMARK INTER:                  -3.561
REMARK INTRA:                  -0.189
REMARK UNBOUND:                -0.179
REMARK SMILES O=C([O-])CCC(=O)[O-]
REMARK SMILES IDX 4 1 2 2 1 3 3 4 5 5 6 6 7 7 8 8
REMARK H PARENT
REMARK Flexibility Score: inf
ROOT
ATOM      1  C   UNL     1     -19.126  44.249  -5.764  1.00  0.00     0.059 C 
ENDROOT
BRANCH   1   2
ATOM      2  C   UNL     1     -19.720  45.106  -6.840  1.00  0.00     0.042 C 
ATOM      3  O   UNL     1     -20.453  44.593  -7.727  1.00  0.00    -0.550 OA
ATOM      4  O   UNL     1     -19.430  46.464  -6.889  1.00  0.00    -0.550 OA
ENDBRANCH   1   2
BRANCH   1   5
ATOM      5  C   UNL     1     -17.597  44.326  -5.758  1.00  0.00     0.059 C 
BRANCH   5   6
ATOM      6  C   UNL     1     -17.014  43.832  -7.047  1.00  0.00     0.042 C 
ATOM      7  O   UNL     1     -17.083  42.610  -7.345  1.00  0.00    -0.550 OA
ATOM      8  O   UNL     1     -16.360  44.711  -7.900  1.00  0.00    -0.550 OA
ENDBRANCH   5   6
ENDBRANCH   1   5
TORSDOF 3
ENDMDL
