MODEL 1
REMARK VINA RESULT:    -3.935      0.000      0.000
REMARK INTER + INTRA:         -11.873
REMARK INTER:                  -8.995
REMARK INTRA:                  -2.878
REMARK UNBOUND:                -2.878
REMARK SMILES CCCCCCCCCCCCCCCCCCCCCCCC(=O)[O-]
REMARK SMILES IDX 13 1 14 2 15 3 16 4 17 5 18 6 19 7 20 8 21 9 22 10 23 11
REMARK SMILES IDX 24 12 25 13 26 14 12 15 11 16 10 17 9 18 8 19 7 20 6 21 5 22
REMARK SMILES IDX 4 23 3 24 2 25 1 26
REMARK H PARENT
REMARK Flexibility Score: inf
ROOT
ATOM      1  C   UNL     1     -16.511 -19.607   3.400  1.00  0.00     0.000 C 
ENDROOT
BRANCH   1   2
ATOM      2  C   UNL     1     -17.364 -20.600   4.212  1.00  0.00     0.000 C 
BRANCH   2   3
ATOM      3  C   UNL     1     -18.167 -21.610   3.365  1.00  0.00     0.000 C 
BRANCH   3   4
ATOM      4  C   UNL     1     -19.608 -21.177   3.023  1.00  0.00     0.000 C 
BRANCH   4   5
ATOM      5  C   UNL     1     -20.238 -20.166   4.000  1.00  0.00     0.000 C 
BRANCH   5   6
ATOM      6  C   UNL     1     -20.964 -19.014   3.284  1.00  0.00     0.000 C 
BRANCH   6   7
ATOM      7  C   UNL     1     -20.749 -19.038   1.756  1.00  0.00     0.000 C 
BRANCH   7   8
ATOM      8  C   UNL     1     -21.856 -18.331   0.954  1.00  0.00     0.000 C 
BRANCH   8   9
ATOM      9  C   UNL     1     -22.179 -19.034  -0.374  1.00  0.00     0.000 C 
BRANCH   9  10
ATOM     10  C   UNL     1     -21.174 -20.154  -0.668  1.00  0.00     0.006 C 
BRANCH  10  11
ATOM     11  C   UNL     1     -21.896 -21.440  -1.088  1.00  0.00     0.053 C 
BRANCH  11  12
ATOM     12  C   UNL     1     -22.747 -21.964   0.026  1.00  0.00     0.041 C 
ATOM     13  O   UNL     1     -22.243 -22.184   1.158  1.00  0.00    -0.550 OA
ATOM     14  O   UNL     1     -24.099 -22.210  -0.188  1.00  0.00    -0.550 OA
ENDBRANCH  11  12
ENDBRANCH  10  11
ENDBRANCH   9  10
ENDBRANCH   8   9
ENDBRANCH   7   8
ENDBRANCH   6   7
ENDBRANCH   5   6
ENDBRANCH   4   5
ENDBRANCH   3   4
ENDBRANCH   2   3
ENDBRANCH   1   2
BRANCH   1  15
ATOM     15  C   UNL     1     -16.881 -19.513   1.906  1.00  0.00     0.000 C 
BRANCH  15  16
ATOM     16  C   UNL     1     -17.617 -18.222   1.499  1.00  0.00     0.000 C 
BRANCH  16  17
ATOM     17  C   UNL     1     -17.635 -17.170   2.620  1.00  0.00     0.000 C 
BRANCH  17  18
ATOM     18  C   UNL     1     -18.280 -15.858   2.154  1.00  0.00    -0.000 C 
BRANCH  18  19
ATOM     19  C   UNL     1     -18.468 -15.858   0.629  1.00  0.00    -0.000 C 
BRANCH  19  20
ATOM     20  C   UNL     1     -17.936 -14.584  -0.044  1.00  0.00    -0.000 C 
BRANCH  20  21
ATOM     21  C   UNL     1     -17.000 -14.878  -1.226  1.00  0.00    -0.000 C 
BRANCH  21  22
ATOM     22  C   UNL     1     -17.509 -14.267  -2.542  1.00  0.00    -0.000 C 
BRANCH  22  23
ATOM     23  C   UNL     1     -17.737 -12.749  -2.433  1.00  0.00    -0.000 C 
BRANCH  23  24
ATOM     24  C   UNL     1     -16.423 -11.953  -2.401  1.00  0.00    -0.000 C 
BRANCH  24  25
ATOM     25  C   UNL     1     -16.312 -11.041  -1.169  1.00  0.00    -0.003 C 
ATOM     26  C   UNL     1     -15.013 -11.301  -0.413  1.00  0.00     0.004 C 
ENDBRANCH  24  25
ENDBRANCH  23  24
ENDBRANCH  22  23
ENDBRANCH  21  22
ENDBRANCH  20  21
ENDBRANCH  19  20
ENDBRANCH  18  19
ENDBRANCH  17  18
ENDBRANCH  16  17
ENDBRANCH  15  16
ENDBRANCH   1  15
TORSDOF 22
ENDMDL
MODEL 2
REMARK VINA RESULT:    -3.884      2.979      5.628
REMARK INTER + INTRA:         -11.757
REMARK INTER:                  -8.871
REMARK INTRA:                  -2.886
REMARK UNBOUND:                -2.878
REMARK SMILES CCCCCCCCCCCCCCCCCCCCCCCC(=O)[O-]
REMARK SMILES IDX 13 1 14 2 15 3 16 4 17 5 18 6 19 7 20 8 21 9 22 10 23 11
REMARK SMILES IDX 24 12 25 13 26 14 12 15 11 16 10 17 9 18 8 19 7 20 6 21 5 22
REMARK SMILES IDX 4 23 3 24 2 25 1 26
REMARK H PARENT
REMARK Flexibility Score: inf
ROOT
ATOM      1  C   UNL     1     -23.610 -18.994  -0.770  1.00  0.00     0.000 C 
ENDROOT
BRANCH   1   2
ATOM      2  C   UNL     1     -22.396 -19.327  -1.658  1.00  0.00     0.000 C 
BRANCH   2   3
ATOM      3  C   UNL     1     -21.487 -20.452  -1.120  1.00  0.00     0.000 C 
BRANCH   3   4
ATOM      4  C   UNL     1     -22.223 -21.600  -0.399  1.00  0.00     0.000 C 
BRANCH   4   5
ATOM      5  C   UNL     1     -22.142 -21.567   1.139  1.00  0.00     0.000 C 
BRANCH   5   6
ATOM      6  C   UNL     1     -20.754 -21.149   1.656  1.00  0.00     0.000 C 
BRANCH   6   7
ATOM      7  C   UNL     1     -20.698 -21.064   3.196  1.00  0.00     0.000 C 
BRANCH   7   8
ATOM      8  C   UNL     1     -19.711 -22.051   3.845  1.00  0.00     0.000 C 
BRANCH   8   9
ATOM      9  C   UNL     1     -18.246 -21.759   3.486  1.00  0.00     0.000 C 
BRANCH   9  10
ATOM     10  C   UNL     1     -17.893 -20.289   3.739  1.00  0.00     0.006 C 
BRANCH  10  11
ATOM     11  C   UNL     1     -17.288 -20.104   5.136  1.00  0.00     0.053 C 
BRANCH  11  12
ATOM     12  C   UNL     1     -15.793 -20.090   5.073  1.00  0.00     0.041 C 
ATOM     13  O   UNL     1     -15.116 -20.009   6.131  1.00  0.00    -0.550 OA
ATOM     14  O   UNL     1     -15.147 -20.166   3.844  1.00  0.00    -0.550 OA
ENDBRANCH  11  12
ENDBRANCH  10  11
ENDBRANCH   9  10
ENDBRANCH   8   9
ENDBRANCH   7   8
ENDBRANCH   6   7
ENDBRANCH   5   6
ENDBRANCH   4   5
ENDBRANCH   3   4
ENDBRANCH   2   3
ENDBRANCH   1   2
BRANCH   1  15
ATOM     15  C   UNL     1     -23.618 -17.561  -0.201  1.00  0.00     0.000 C 
BRANCH  15  16
ATOM     16  C   UNL     1     -22.298 -17.117   0.459  1.00  0.00     0.000 C 
BRANCH  16  17
ATOM     17  C   UNL     1     -22.035 -17.826   1.797  1.00  0.00     0.000 C 
BRANCH  17  18
ATOM     18  C   UNL     1     -20.651 -17.476   2.360  1.00  0.00    -0.000 C 
BRANCH  18  19
ATOM     19  C   UNL     1     -19.565 -17.666   1.289  1.00  0.00    -0.000 C 
BRANCH  19  20
ATOM     20  C   UNL     1     -18.170 -17.232   1.761  1.00  0.00    -0.000 C 
BRANCH  20  21
ATOM     21  C   UNL     1     -17.809 -15.803   1.326  1.00  0.00    -0.000 C 
BRANCH  21  22
ATOM     22  C   UNL     1     -18.998 -15.070   0.682  1.00  0.00    -0.000 C 
BRANCH  22  23
ATOM     23  C   UNL     1     -18.585 -14.266  -0.564  1.00  0.00    -0.000 C 
BRANCH  23  24
ATOM     24  C   UNL     1     -17.242 -14.729  -1.150  1.00  0.00    -0.000 C 
BRANCH  24  25
ATOM     25  C   UNL     1     -17.194 -14.617  -2.682  1.00  0.00    -0.003 C 
ATOM     26  C   UNL     1     -18.377 -13.810  -3.207  1.00  0.00     0.004 C 
ENDBRANCH  24  25
ENDBRANCH  23  24
ENDBRANCH  22  23
ENDBRANCH  21  22
ENDBRANCH  20  21
ENDBRANCH  19  20
ENDBRANCH  18  19
ENDBRANCH  17  18
ENDBRANCH  16  17
ENDBRANCH  15  16
ENDBRANCH   1  15
TORSDOF 22
ENDMDL
MODEL 3
REMARK VINA RESULT:    -3.863      3.254      7.900
REMARK INTER + INTRA:         -11.710
REMARK INTER:                  -8.785
REMARK INTRA:                  -2.926
REMARK UNBOUND:                -2.878
REMARK SMILES CCCCCCCCCCCCCCCCCCCCCCCC(=O)[O-]
REMARK SMILES IDX 13 1 14 2 15 3 16 4 17 5 18 6 19 7 20 8 21 9 22 10 23 11
REMARK SMILES IDX 24 12 25 13 26 14 12 15 11 16 10 17 9 18 8 19 7 20 6 21 5 22
REMARK SMILES IDX 4 23 3 24 2 25 1 26
REMARK H PARENT
REMARK Flexibility Score: inf
ROOT
ATOM      1  C   UNL     1     -23.127 -17.047   1.166  1.00  0.00     0.000 C 
ENDROOT
BRANCH   1   2
ATOM      2  C   UNL     1     -21.656 -16.829   0.763  1.00  0.00     0.000 C 
BRANCH   2   3
ATOM      3  C   UNL     1     -20.637 -17.011   1.907  1.00  0.00     0.000 C 
BRANCH   3   4
ATOM      4  C   UNL     1     -19.205 -17.368   1.457  1.00  0.00     0.000 C 
BRANCH   4   5
ATOM      5  C   UNL     1     -18.077 -16.714   2.279  1.00  0.00     0.000 C 
BRANCH   5   6
ATOM      6  C   UNL     1     -17.392 -15.552   1.538  1.00  0.00     0.000 C 
BRANCH   6   7
ATOM      7  C   UNL     1     -18.156 -15.130   0.266  1.00  0.00     0.000 C 
BRANCH   7   8
ATOM      8  C   UNL     1     -17.249 -14.822  -0.939  1.00  0.00     0.000 C 
BRANCH   8   9
ATOM      9  C   UNL     1     -16.905 -13.330  -1.067  1.00  0.00     0.000 C 
BRANCH   9  10
ATOM     10  C   UNL     1     -17.206 -12.808  -2.477  1.00  0.00     0.006 C 
BRANCH  10  11
ATOM     11  C   UNL     1     -18.071 -13.806  -3.257  1.00  0.00     0.053 C 
BRANCH  11  12
ATOM     12  C   UNL     1     -19.387 -13.198  -3.626  1.00  0.00     0.041 C 
ATOM     13  O   UNL     1     -20.458 -13.685  -3.178  1.00  0.00    -0.550 OA
ATOM     14  O   UNL     1     -19.431 -12.091  -4.468  1.00  0.00    -0.550 OA
ENDBRANCH  11  12
ENDBRANCH  10  11
ENDBRANCH   9  10
ENDBRANCH   8   9
ENDBRANCH   7   8
ENDBRANCH   6   7
ENDBRANCH   5   6
ENDBRANCH   4   5
ENDBRANCH   3   4
ENDBRANCH   2   3
ENDBRANCH   1   2
BRANCH   1  15
ATOM     15  C   UNL     1     -23.821 -18.227   0.457  1.00  0.00     0.000 C 
BRANCH  15  16
ATOM     16  C   UNL     1     -23.243 -18.584  -0.926  1.00  0.00     0.000 C 
BRANCH  16  17
ATOM     17  C   UNL     1     -22.888 -20.073  -1.056  1.00  0.00     0.000 C 
BRANCH  17  18
ATOM     18  C   UNL     1     -21.370 -20.297  -1.034  1.00  0.00    -0.000 C 
BRANCH  18  19
ATOM     19  C   UNL     1     -20.856 -20.386   0.412  1.00  0.00    -0.000 C 
BRANCH  19  20
ATOM     20  C   UNL     1     -21.639 -21.391   1.270  1.00  0.00    -0.000 C 
BRANCH  20  21
ATOM     21  C   UNL     1     -20.937 -21.718   2.597  1.00  0.00    -0.000 C 
BRANCH  21  22
ATOM     22  C   UNL     1     -19.905 -20.648   2.993  1.00  0.00    -0.000 C 
BRANCH  22  23
ATOM     23  C   UNL     1     -18.488 -21.229   3.143  1.00  0.00    -0.000 C 
BRANCH  23  24
ATOM     24  C   UNL     1     -17.564 -20.330   3.980  1.00  0.00    -0.000 C 
BRANCH  24  25
ATOM     25  C   UNL     1     -16.291 -19.922   3.223  1.00  0.00    -0.003 C 
ATOM     26  C   UNL     1     -16.477 -20.080   1.717  1.00  0.00     0.004 C 
ENDBRANCH  24  25
ENDBRANCH  23  24
ENDBRANCH  22  23
ENDBRANCH  21  22
ENDBRANCH  20  21
ENDBRANCH  19  20
ENDBRANCH  18  19
ENDBRANCH  17  18
ENDBRANCH  16  17
ENDBRANCH  15  16
ENDBRANCH   1  15
TORSDOF 22
ENDMDL
MODEL 4
REMARK VINA RESULT:    -3.854      3.949      8.901
REMARK INTER + INTRA:         -11.689
REMARK INTER:                  -9.085
REMARK INTRA:                  -2.604
REMARK UNBOUND:                -2.878
REMARK SMILES CCCCCCCCCCCCCCCCCCCCCCCC(=O)[O-]
REMARK SMILES IDX 13 1 14 2 15 3 16 4 17 5 18 6 19 7 20 8 21 9 22 10 23 11
REMARK SMILES IDX 24 12 25 13 26 14 12 15 11 16 10 17 9 18 8 19 7 20 6 21 5 22
REMARK SMILES IDX 4 23 3 24 2 25 1 26
REMARK H PARENT
REMARK Flexibility Score: inf
ROOT
ATOM      1  C   UNL     1     -17.702 -17.562   2.324  1.00  0.00     0.000 C 
ENDROOT
BRANCH   1   2
ATOM      2  C   UNL     1     -18.375 -16.615   1.313  1.00  0.00     0.000 C 
BRANCH   2   3
ATOM      3  C   UNL     1     -17.643 -15.274   1.093  1.00  0.00     0.000 C 
BRANCH   3   4
ATOM      4  C   UNL     1     -17.992 -14.546  -0.221  1.00  0.00     0.000 C 
BRANCH   4   5
ATOM      5  C   UNL     1     -17.083 -14.884  -1.419  1.00  0.00     0.000 C 
BRANCH   5   6
ATOM      6  C   UNL     1     -17.506 -14.166  -2.713  1.00  0.00     0.000 C 
BRANCH   6   7
ATOM      7  C   UNL     1     -17.631 -12.639  -2.529  1.00  0.00     0.000 C 
BRANCH   7   8
ATOM      8  C   UNL     1     -16.297 -11.929  -2.242  1.00  0.00     0.000 C 
BRANCH   8   9
ATOM      9  C   UNL     1     -16.442 -10.743  -1.275  1.00  0.00     0.000 C 
BRANCH   9  10
ATOM     10  C   UNL     1     -15.320 -10.736  -0.230  1.00  0.00     0.006 C 
BRANCH  10  11
ATOM     11  C   UNL     1     -14.993 -12.161   0.231  1.00  0.00     0.053 C 
BRANCH  11  12
ATOM     12  C   UNL     1     -13.769 -12.177   1.092  1.00  0.00     0.041 C 
ATOM     13  O   UNL     1     -13.877 -12.165   2.346  1.00  0.00    -0.550 OA
ATOM     14  O   UNL     1     -12.507 -12.204   0.508  1.00  0.00    -0.550 OA
ENDBRANCH  11  12
ENDBRANCH  10  11
ENDBRANCH   9  10
ENDBRANCH   8   9
ENDBRANCH   7   8
ENDBRANCH   6   7
ENDBRANCH   5   6
ENDBRANCH   4   5
ENDBRANCH   3   4
ENDBRANCH   2   3
ENDBRANCH   1   2
BRANCH   1  15
ATOM     15  C   UNL     1     -17.343 -18.953   1.764  1.00  0.00     0.000 C 
BRANCH  15  16
ATOM     16  C   UNL     1     -16.777 -19.943   2.799  1.00  0.00     0.000 C 
BRANCH  16  17
ATOM     17  C   UNL     1     -17.520 -21.288   2.803  1.00  0.00     0.000 C 
BRANCH  17  18
ATOM     18  C   UNL     1     -18.306 -21.497   4.103  1.00  0.00    -0.000 C 
BRANCH  18  19
ATOM     19  C   UNL     1     -19.684 -20.819   4.020  1.00  0.00    -0.000 C 
BRANCH  19  20
ATOM     20  C   UNL     1     -20.740 -21.684   3.317  1.00  0.00    -0.000 C 
BRANCH  20  21
ATOM     21  C   UNL     1     -21.606 -20.886   2.331  1.00  0.00    -0.000 C 
BRANCH  21  22
ATOM     22  C   UNL     1     -21.057 -19.471   2.081  1.00  0.00    -0.000 C 
BRANCH  22  23
ATOM     23  C   UNL     1     -21.103 -19.080   0.593  1.00  0.00    -0.000 C 
BRANCH  23  24
ATOM     24  C   UNL     1     -20.829 -20.268  -0.342  1.00  0.00    -0.000 C 
BRANCH  24  25
ATOM     25  C   UNL     1     -21.793 -20.315  -1.537  1.00  0.00    -0.003 C 
ATOM     26  C   UNL     1     -22.806 -19.177  -1.466  1.00  0.00     0.004 C 
ENDBRANCH  24  25
ENDBRANCH  23  24
ENDBRANCH  22  23
ENDBRANCH  21  22
ENDBRANCH  20  21
ENDBRANCH  19  20
ENDBRANCH  18  19
ENDBRANCH  17  18
ENDBRANCH  16  17
ENDBRANCH  15  16
ENDBRANCH   1  15
TORSDOF 22
ENDMDL
MODEL 5
REMARK VINA RESULT:    -3.844      3.833      8.077
REMARK INTER + INTRA:         -11.666
REMARK INTER:                  -9.532
REMARK INTRA:                  -2.134
REMARK UNBOUND:                -2.878
REMARK SMILES CCCCCCCCCCCCCCCCCCCCCCCC(=O)[O-]
REMARK SMILES IDX 13 1 14 2 15 3 16 4 17 5 18 6 19 7 20 8 21 9 22 10 23 11
REMARK SMILES IDX 24 12 25 13 26 14 12 15 11 16 10 17 9 18 8 19 7 20 6 21 5 22
REMARK SMILES IDX 4 23 3 24 2 25 1 26
REMARK H PARENT
REMARK Flexibility Score: inf
ROOT
ATOM      1  C   UNL     1     -21.502 -18.807   0.189  1.00  0.00     0.000 C 
ENDROOT
BRANCH   1   2
ATOM      2  C   UNL     1     -20.211 -18.639   1.013  1.00  0.00     0.000 C 
BRANCH   2   3
ATOM      3  C   UNL     1     -19.796 -17.177   1.278  1.00  0.00     0.000 C 
BRANCH   3   4
ATOM      4  C   UNL     1     -18.346 -16.987   1.771  1.00  0.00     0.000 C 
BRANCH   4   5
ATOM      5  C   UNL     1     -17.717 -15.619   1.446  1.00  0.00     0.000 C 
BRANCH   5   6
ATOM      6  C   UNL     1     -18.058 -15.125   0.029  1.00  0.00     0.000 C 
BRANCH   6   7
ATOM      7  C   UNL     1     -16.813 -14.640  -0.743  1.00  0.00     0.000 C 
BRANCH   7   8
ATOM      8  C   UNL     1     -16.973 -14.663  -2.274  1.00  0.00     0.000 C 
BRANCH   8   9
ATOM      9  C   UNL     1     -17.688 -13.418  -2.822  1.00  0.00     0.000 C 
BRANCH   9  10
ATOM     10  C   UNL     1     -18.986 -13.796  -3.547  1.00  0.00     0.006 C 
BRANCH  10  11
ATOM     11  C   UNL     1     -20.013 -12.661  -3.455  1.00  0.00     0.053 C 
BRANCH  11  12
ATOM     12  C   UNL     1     -19.878 -11.723  -4.613  1.00  0.00     0.041 C 
ATOM     13  O   UNL     1     -19.817 -10.481  -4.418  1.00  0.00    -0.550 OA
ATOM     14  O   UNL     1     -19.820 -12.222  -5.910  1.00  0.00    -0.550 OA
ENDBRANCH  11  12
ENDBRANCH  10  11
ENDBRANCH   9  10
ENDBRANCH   8   9
ENDBRANCH   7   8
ENDBRANCH   6   7
ENDBRANCH   5   6
ENDBRANCH   4   5
ENDBRANCH   3   4
ENDBRANCH   2   3
ENDBRANCH   1   2
BRANCH   1  15
ATOM     15  C   UNL     1     -21.640 -20.168  -0.523  1.00  0.00     0.000 C 
BRANCH  15  16
ATOM     16  C   UNL     1     -21.740 -21.385   0.417  1.00  0.00     0.000 C 
BRANCH  16  17
ATOM     17  C   UNL     1     -22.718 -21.159   1.579  1.00  0.00     0.000 C 
BRANCH  17  18
ATOM     18  C   UNL     1     -22.032 -21.338   2.940  1.00  0.00    -0.000 C 
BRANCH  18  19
ATOM     19  C   UNL     1     -20.579 -21.806   2.757  1.00  0.00    -0.000 C 
BRANCH  19  20
ATOM     20  C   UNL     1     -19.916 -22.242   4.072  1.00  0.00    -0.000 C 
BRANCH  20  21
ATOM     21  C   UNL     1     -18.511 -21.649   4.258  1.00  0.00    -0.000 C 
BRANCH  21  22
ATOM     22  C   UNL     1     -18.221 -20.508   3.269  1.00  0.00    -0.000 C 
BRANCH  22  23
ATOM     23  C   UNL     1     -16.813 -20.608   2.655  1.00  0.00    -0.000 C 
BRANCH  23  24
ATOM     24  C   UNL     1     -15.742 -19.917   3.514  1.00  0.00    -0.000 C 
BRANCH  24  25
ATOM     25  C   UNL     1     -16.313 -18.769   4.361  1.00  0.00    -0.003 C 
ATOM     26  C   UNL     1     -15.243 -18.184   5.277  1.00  0.00     0.004 C 
ENDBRANCH  24  25
ENDBRANCH  23  24
ENDBRANCH  22  23
ENDBRANCH  21  22
ENDBRANCH  20  21
ENDBRANCH  19  20
ENDBRANCH  18  19
ENDBRANCH  17  18
ENDBRANCH  16  17
ENDBRANCH  15  16
ENDBRANCH   1  15
TORSDOF 22
ENDMDL
MODEL 6
REMARK VINA RESULT:    -3.827      3.329      6.190
REMARK INTER + INTRA:         -11.628
REMARK INTER:                  -8.297
REMARK INTRA:                  -3.332
REMARK UNBOUND:                -2.878
REMARK SMILES CCCCCCCCCCCCCCCCCCCCCCCC(=O)[O-]
REMARK SMILES IDX 13 1 14 2 15 3 16 4 17 5 18 6 19 7 20 8 21 9 22 10 23 11
REMARK SMILES IDX 24 12 25 13 26 14 12 15 11 16 10 17 9 18 8 19 7 20 6 21 5 22
REMARK SMILES IDX 4 23 3 24 2 25 1 26
REMARK H PARENT
REMARK Flexibility Score: inf
ROOT
ATOM      1  C   UNL     1     -17.525 -14.011   0.858  1.00  0.00     0.000 C 
ENDROOT
BRANCH   1   2
ATOM      2  C   UNL     1     -16.066 -14.067   1.350  1.00  0.00     0.000 C 
BRANCH   2   3
ATOM      3  C   UNL     1     -15.800 -13.326   2.677  1.00  0.00     0.000 C 
BRANCH   3   4
ATOM      4  C   UNL     1     -15.100 -14.166   3.766  1.00  0.00     0.000 C 
BRANCH   4   5
ATOM      5  C   UNL     1     -15.971 -14.509   4.990  1.00  0.00     0.000 C 
BRANCH   5   6
ATOM      6  C   UNL     1     -17.324 -15.134   4.606  1.00  0.00     0.000 C 
BRANCH   6   7
ATOM      7  C   UNL     1     -17.171 -16.535   3.978  1.00  0.00     0.000 C 
BRANCH   7   8
ATOM      8  C   UNL     1     -18.390 -16.994   3.158  1.00  0.00     0.000 C 
BRANCH   8   9
ATOM      9  C   UNL     1     -18.005 -17.629   1.813  1.00  0.00     0.000 C 
BRANCH   9  10
ATOM     10  C   UNL     1     -18.019 -19.160   1.897  1.00  0.00     0.006 C 
BRANCH  10  11
ATOM     11  C   UNL     1     -16.592 -19.719   1.946  1.00  0.00     0.053 C 
BRANCH  11  12
ATOM     12  C   UNL     1     -16.213 -20.095   3.344  1.00  0.00     0.041 C 
ATOM     13  O   UNL     1     -17.104 -20.274   4.216  1.00  0.00    -0.550 OA
ATOM     14  O   UNL     1     -14.873 -20.247   3.685  1.00  0.00    -0.550 OA
ENDBRANCH  11  12
ENDBRANCH  10  11
ENDBRANCH   9  10
ENDBRANCH   8   9
ENDBRANCH   7   8
ENDBRANCH   6   7
ENDBRANCH   5   6
ENDBRANCH   4   5
ENDBRANCH   3   4
ENDBRANCH   2   3
ENDBRANCH   1   2
BRANCH   1  15
ATOM     15  C   UNL     1     -17.755 -14.609  -0.544  1.00  0.00     0.000 C 
BRANCH  15  16
ATOM     16  C   UNL     1     -18.909 -13.971  -1.341  1.00  0.00     0.000 C 
BRANCH  16  17
ATOM     17  C   UNL     1     -18.422 -13.198  -2.576  1.00  0.00     0.000 C 
BRANCH  17  18
ATOM     18  C   UNL     1     -16.891 -13.118  -2.627  1.00  0.00    -0.000 C 
BRANCH  18  19
ATOM     19  C   UNL     1     -16.417 -11.668  -2.443  1.00  0.00    -0.000 C 
BRANCH  19  20
ATOM     20  C   UNL     1     -15.737 -11.422  -1.088  1.00  0.00    -0.000 C 
BRANCH  20  21
ATOM     21  C   UNL     1     -15.109 -10.024  -0.978  1.00  0.00    -0.000 C 
BRANCH  21  22
ATOM     22  C   UNL     1     -13.810 -10.029  -0.157  1.00  0.00    -0.000 C 
BRANCH  22  23
ATOM     23  C   UNL     1     -13.492 -11.417   0.428  1.00  0.00    -0.000 C 
BRANCH  23  24
ATOM     24  C   UNL     1     -12.225 -11.418   1.298  1.00  0.00    -0.000 C 
BRANCH  24  25
ATOM     25  C   UNL     1     -12.006 -12.754   2.024  1.00  0.00    -0.003 C 
ATOM     26  C   UNL     1     -12.324 -13.931   1.107  1.00  0.00     0.004 C 
ENDBRANCH  24  25
ENDBRANCH  23  24
ENDBRANCH  22  23
ENDBRANCH  21  22
ENDBRANCH  20  21
ENDBRANCH  19  20
ENDBRANCH  18  19
ENDBRANCH  17  18
ENDBRANCH  16  17
ENDBRANCH  15  16
ENDBRANCH   1  15
TORSDOF 22
ENDMDL
MODEL 7
REMARK VINA RESULT:    -3.817      3.107      6.634
REMARK INTER + INTRA:         -11.605
REMARK INTER:                  -7.568
REMARK INTRA:                  -4.038
REMARK UNBOUND:                -2.878
REMARK SMILES CCCCCCCCCCCCCCCCCCCCCCCC(=O)[O-]
REMARK SMILES IDX 13 1 14 2 15 3 16 4 17 5 18 6 19 7 20 8 21 9 22 10 23 11
REMARK SMILES IDX 24 12 25 13 26 14 12 15 11 16 10 17 9 18 8 19 7 20 6 21 5 22
REMARK SMILES IDX 4 23 3 24 2 25 1 26
REMARK H PARENT
REMARK Flexibility Score: inf
ROOT
ATOM      1  C   UNL     1     -16.232 -20.257   2.474  1.00  0.00     0.000 C 
ENDROOT
BRANCH   1   2
ATOM      2  C   UNL     1     -17.232 -19.371   1.707  1.00  0.00     0.000 C 
BRANCH   2   3
ATOM      3  C   UNL     1     -17.647 -18.078   2.438  1.00  0.00     0.000 C 
BRANCH   3   4
ATOM      4  C   UNL     1     -18.470 -17.083   1.592  1.00  0.00     0.000 C 
BRANCH   4   5
ATOM      5  C   UNL     1     -19.991 -17.328   1.589  1.00  0.00     0.000 C 
BRANCH   5   6
ATOM      6  C   UNL     1     -20.777 -16.202   0.894  1.00  0.00     0.000 C 
BRANCH   6   7
ATOM      7  C   UNL     1     -22.199 -16.640   0.483  1.00  0.00     0.000 C 
BRANCH   7   8
ATOM      8  C   UNL     1     -22.426 -18.161   0.528  1.00  0.00     0.000 C 
BRANCH   8   9
ATOM      9  C   UNL     1     -22.537 -18.794  -0.868  1.00  0.00     0.000 C 
BRANCH   9  10
ATOM     10  C   UNL     1     -21.645 -20.035  -0.989  1.00  0.00     0.006 C 
BRANCH  10  11
ATOM     11  C   UNL     1     -21.351 -20.635   0.391  1.00  0.00     0.053 C 
BRANCH  11  12
ATOM     12  C   UNL     1     -22.157 -21.875   0.618  1.00  0.00     0.041 C 
ATOM     13  O   UNL     1     -22.187 -22.411   1.757  1.00  0.00    -0.550 OA
ATOM     14  O   UNL     1     -22.877 -22.439  -0.430  1.00  0.00    -0.550 OA
ENDBRANCH  11  12
ENDBRANCH  10  11
ENDBRANCH   9  10
ENDBRANCH   8   9
ENDBRANCH   7   8
ENDBRANCH   6   7
ENDBRANCH   5   6
ENDBRANCH   4   5
ENDBRANCH   3   4
ENDBRANCH   2   3
ENDBRANCH   1   2
BRANCH   1  15
ATOM     15  C   UNL     1     -15.765 -19.679   3.825  1.00  0.00     0.000 C 
BRANCH  15  16
ATOM     16  C   UNL     1     -16.179 -20.500   5.061  1.00  0.00     0.000 C 
BRANCH  16  17
ATOM     17  C   UNL     1     -16.325 -19.639   6.326  1.00  0.00     0.000 C 
BRANCH  17  18
ATOM     18  C   UNL     1     -17.796 -19.464   6.724  1.00  0.00    -0.000 C 
BRANCH  18  19
ATOM     19  C   UNL     1     -18.377 -18.183   6.104  1.00  0.00    -0.000 C 
BRANCH  19  20
ATOM     20  C   UNL     1     -19.705 -18.419   5.368  1.00  0.00    -0.000 C 
BRANCH  20  21
ATOM     21  C   UNL     1     -20.089 -19.904   5.289  1.00  0.00    -0.000 C 
BRANCH  21  22
ATOM     22  C   UNL     1     -20.134 -20.421   3.841  1.00  0.00    -0.000 C 
BRANCH  22  23
ATOM     23  C   UNL     1     -19.337 -21.726   3.660  1.00  0.00    -0.000 C 
BRANCH  23  24
ATOM     24  C   UNL     1     -19.738 -22.810   4.672  1.00  0.00    -0.000 C 
BRANCH  24  25
ATOM     25  C   UNL     1     -18.565 -23.256   5.558  1.00  0.00    -0.003 C 
ATOM     26  C   UNL     1     -18.604 -24.762   5.798  1.00  0.00     0.004 C 
ENDBRANCH  24  25
ENDBRANCH  23  24
ENDBRANCH  22  23
ENDBRANCH  21  22
ENDBRANCH  20  21
ENDBRANCH  19  20
ENDBRANCH  18  19
ENDBRANCH  17  18
ENDBRANCH  16  17
ENDBRANCH  15  16
ENDBRANCH   1  15
TORSDOF 22
ENDMDL
MODEL 8
REMARK VINA RESULT:    -3.805      3.044      7.680
REMARK INTER + INTRA:         -11.577
REMARK INTER:                  -8.993
REMARK INTRA:                  -2.584
REMARK UNBOUND:                -2.878
REMARK SMILES CCCCCCCCCCCCCCCCCCCCCCCC(=O)[O-]
REMARK SMILES IDX 13 1 14 2 15 3 16 4 17 5 18 6 19 7 20 8 21 9 22 10 23 11
REMARK SMILES IDX 24 12 25 13 26 14 12 15 11 16 10 17 9 18 8 19 7 20 6 21 5 22
REMARK SMILES IDX 4 23 3 24 2 25 1 26
REMARK H PARENT
REMARK Flexibility Score: inf
ROOT
ATOM      1  C   UNL     1     -16.117 -19.953   2.548  1.00  0.00     0.000 C 
ENDROOT
BRANCH   1   2
ATOM      2  C   UNL     1     -17.335 -19.442   1.754  1.00  0.00     0.000 C 
BRANCH   2   3
ATOM      3  C   UNL     1     -18.269 -18.495   2.536  1.00  0.00     0.000 C 
BRANCH   3   4
ATOM      4  C   UNL     1     -18.777 -17.274   1.742  1.00  0.00     0.000 C 
BRANCH   4   5
ATOM      5  C   UNL     1     -17.681 -16.309   1.251  1.00  0.00     0.000 C 
BRANCH   5   6
ATOM      6  C   UNL     1     -18.207 -15.266   0.248  1.00  0.00     0.000 C 
BRANCH   6   7
ATOM      7  C   UNL     1     -17.124 -14.810  -0.753  1.00  0.00     0.000 C 
BRANCH   7   8
ATOM      8  C   UNL     1     -16.566 -13.402  -0.477  1.00  0.00     0.000 C 
BRANCH   8   9
ATOM      9  C   UNL     1     -17.495 -12.281  -0.969  1.00  0.00     0.000 C 
BRANCH   9  10
ATOM     10  C   UNL     1     -17.350 -12.063  -2.480  1.00  0.00     0.006 C 
BRANCH  10  11
ATOM     11  C   UNL     1     -18.720 -11.855  -3.137  1.00  0.00     0.053 C 
BRANCH  11  12
ATOM     12  C   UNL     1     -19.438 -13.157  -3.300  1.00  0.00     0.041 C 
ATOM     13  O   UNL     1     -20.578 -13.321  -2.790  1.00  0.00    -0.550 OA
ATOM     14  O   UNL     1     -18.847 -14.193  -4.017  1.00  0.00    -0.550 OA
ENDBRANCH  11  12
ENDBRANCH  10  11
ENDBRANCH   9  10
ENDBRANCH   8   9
ENDBRANCH   7   8
ENDBRANCH   6   7
ENDBRANCH   5   6
ENDBRANCH   4   5
ENDBRANCH   3   4
ENDBRANCH   2   3
ENDBRANCH   1   2
BRANCH   1  15
ATOM     15  C   UNL     1     -16.027 -19.429   3.995  1.00  0.00     0.000 C 
BRANCH  15  16
ATOM     16  C   UNL     1     -16.270 -20.490   5.086  1.00  0.00     0.000 C 
BRANCH  16  17
ATOM     17  C   UNL     1     -17.756 -20.645   5.443  1.00  0.00     0.000 C 
BRANCH  17  18
ATOM     18  C   UNL     1     -18.361 -21.907   4.815  1.00  0.00    -0.000 C 
BRANCH  18  19
ATOM     19  C   UNL     1     -19.837 -21.678   4.451  1.00  0.00    -0.000 C 
BRANCH  19  20
ATOM     20  C   UNL     1     -20.084 -21.633   2.936  1.00  0.00    -0.000 C 
BRANCH  20  21
ATOM     21  C   UNL     1     -21.464 -22.180   2.539  1.00  0.00    -0.000 C 
BRANCH  21  22
ATOM     22  C   UNL     1     -22.148 -21.318   1.464  1.00  0.00    -0.000 C 
BRANCH  22  23
ATOM     23  C   UNL     1     -21.420 -19.980   1.236  1.00  0.00    -0.000 C 
BRANCH  23  24
ATOM     24  C   UNL     1     -20.824 -19.863  -0.175  1.00  0.00    -0.000 C 
BRANCH  24  25
ATOM     25  C   UNL     1     -21.784 -20.360  -1.267  1.00  0.00    -0.003 C 
ATOM     26  C   UNL     1     -22.782 -19.272  -1.652  1.00  0.00     0.004 C 
ENDBRANCH  24  25
ENDBRANCH  23  24
ENDBRANCH  22  23
ENDBRANCH  21  22
ENDBRANCH  20  21
ENDBRANCH  19  20
ENDBRANCH  18  19
ENDBRANCH  17  18
ENDBRANCH  16  17
ENDBRANCH  15  16
ENDBRANCH   1  15
TORSDOF 22
ENDMDL
MODEL 9
REMARK VINA RESULT:    -3.776      4.260      8.600
REMARK INTER + INTRA:         -11.510
REMARK INTER:                  -9.288
REMARK INTRA:                  -2.223
REMARK UNBOUND:                -2.878
REMARK SMILES CCCCCCCCCCCCCCCCCCCCCCCC(=O)[O-]
REMARK SMILES IDX 13 1 14 2 15 3 16 4 17 5 18 6 19 7 20 8 21 9 22 10 23 11
REMARK SMILES IDX 24 12 25 13 26 14 12 15 11 16 10 17 9 18 8 19 7 20 6 21 5 22
REMARK SMILES IDX 4 23 3 24 2 25 1 26
REMARK H PARENT
REMARK Flexibility Score: inf
ROOT
ATOM      1  C   UNL     1     -18.552 -16.954   1.720  1.00  0.00     0.000 C 
ENDROOT
BRANCH   1   2
ATOM      2  C   UNL     1     -17.631 -15.783   1.329  1.00  0.00     0.000 C 
BRANCH   2   3
ATOM      3  C   UNL     1     -18.020 -15.059   0.023  1.00  0.00     0.000 C 
BRANCH   3   4
ATOM      4  C   UNL     1     -16.834 -14.607  -0.854  1.00  0.00     0.000 C 
BRANCH   4   5
ATOM      5  C   UNL     1     -17.064 -14.716  -2.373  1.00  0.00     0.000 C 
BRANCH   5   6
ATOM      6  C   UNL     1     -17.599 -13.413  -2.993  1.00  0.00     0.000 C 
BRANCH   6   7
ATOM      7  C   UNL     1     -19.071 -13.532  -3.441  1.00  0.00     0.000 C 
BRANCH   7   8
ATOM      8  C   UNL     1     -20.085 -13.005  -2.411  1.00  0.00     0.000 C 
BRANCH   8   9
ATOM      9  C   UNL     1     -21.538 -13.077  -2.907  1.00  0.00     0.000 C 
BRANCH   9  10
ATOM     10  C   UNL     1     -22.013 -11.720  -3.439  1.00  0.00     0.006 C 
BRANCH  10  11
ATOM     11  C   UNL     1     -22.496 -11.839  -4.889  1.00  0.00     0.053 C 
BRANCH  11  12
ATOM     12  C   UNL     1     -21.567 -11.128  -5.822  1.00  0.00     0.041 C 
ATOM     13  O   UNL     1     -21.905 -10.032  -6.340  1.00  0.00    -0.550 OA
ATOM     14  O   UNL     1     -20.324 -11.679  -6.121  1.00  0.00    -0.550 OA
ENDBRANCH  11  12
ENDBRANCH  10  11
ENDBRANCH   9  10
ENDBRANCH   8   9
ENDBRANCH   7   8
ENDBRANCH   6   7
ENDBRANCH   5   6
ENDBRANCH   4   5
ENDBRANCH   3   4
ENDBRANCH   2   3
ENDBRANCH   1   2
BRANCH   1  15
ATOM     15  C   UNL     1     -17.874 -18.055   2.559  1.00  0.00     0.000 C 
BRANCH  15  16
ATOM     16  C   UNL     1     -17.288 -19.224   1.745  1.00  0.00     0.000 C 
BRANCH  16  17
ATOM     17  C   UNL     1     -16.825 -20.392   2.630  1.00  0.00     0.000 C 
BRANCH  17  18
ATOM     18  C   UNL     1     -17.281 -20.215   4.084  1.00  0.00    -0.000 C 
BRANCH  18  19
ATOM     19  C   UNL     1     -18.353 -21.256   4.446  1.00  0.00    -0.000 C 
BRANCH  19  20
ATOM     20  C   UNL     1     -19.136 -21.765   3.227  1.00  0.00    -0.000 C 
BRANCH  20  21
ATOM     21  C   UNL     1     -20.596 -22.110   3.555  1.00  0.00    -0.000 C 
BRANCH  21  22
ATOM     22  C   UNL     1     -21.594 -21.290   2.720  1.00  0.00    -0.000 C 
BRANCH  22  23
ATOM     23  C   UNL     1     -21.052 -19.893   2.368  1.00  0.00    -0.000 C 
BRANCH  23  24
ATOM     24  C   UNL     1     -21.579 -19.376   1.020  1.00  0.00    -0.000 C 
BRANCH  24  25
ATOM     25  C   UNL     1     -20.829 -19.976  -0.179  1.00  0.00    -0.003 C 
ATOM     26  C   UNL     1     -21.747 -20.875  -1.001  1.00  0.00     0.004 C 
ENDBRANCH  24  25
ENDBRANCH  23  24
ENDBRANCH  22  23
ENDBRANCH  21  22
ENDBRANCH  20  21
ENDBRANCH  19  20
ENDBRANCH  18  19
ENDBRANCH  17  18
ENDBRANCH  16  17
ENDBRANCH  15  16
ENDBRANCH   1  15
TORSDOF 22
ENDMDL
