MODEL 1
REMARK VINA RESULT:    -6.595      0.000      0.000
REMARK INTER + INTRA:          -6.595
REMARK INTER:                  -6.595
REMARK INTRA:                   0.000
REMARK UNBOUND:                 0.000
REMARK SMILES C[C@H]1C(=O)CC[C@H]2[C@]3(C)CC[C@@]4(C)[C@@H]5CC(C)(C)CC[C@@]5(C)CC[C@]4(C)[C@H]3CC[C@]21C
REMARK SMILES IDX 1 1 2 2 3 3 4 4 5 5 6 6 7 7 30 8 29 9 28 10 27 11 8 12 10 13
REMARK SMILES IDX 11 14 12 15 25 16 24 17 23 18 21 19 14 20 15 21 16 22 19 23
REMARK SMILES IDX 20 24 17 25 18 26 22 27 26 28 13 29 9 30 31 31
REMARK H PARENT
REMARK Flexibility Score: inf
ROOT
ATOM      1  C   UNL     1     114.138 119.816 128.047  1.00  0.00     0.016 C 
ATOM      2  C   UNL     1     114.036 120.515 126.671  1.00  0.00     0.059 C 
ATOM      3  C   UNL     1     114.422 121.973 126.772  1.00  0.00     0.136 C 
ATOM      4  O   UNL     1     114.793 122.462 127.830  1.00  0.00    -0.299 OA
ATOM      5  C   UNL     1     114.335 122.843 125.563  1.00  0.00     0.076 C 
ATOM      6  C   UNL     1     113.968 122.036 124.307  1.00  0.00     0.012 C 
ATOM      7  C   UNL     1     114.738 120.684 124.141  1.00  0.00     0.002 C 
ATOM      8  C   UNL     1     114.819 119.813 125.490  1.00  0.00    -0.020 C 
ATOM      9  C   UNL     1     116.297 119.579 125.911  1.00  0.00     0.008 C 
ATOM     10  C   UNL     1     117.220 119.028 124.808  1.00  0.00     0.005 C 
ATOM     11  C   UNL     1     116.814 119.403 123.354  1.00  0.00     0.002 C 
ATOM     12  C   UNL     1     116.075 120.793 123.261  1.00  0.00    -0.026 C 
ATOM     13  C   UNL     1     115.678 121.106 121.770  1.00  0.00     0.008 C 
ATOM     14  C   UNL     1     116.692 120.698 120.670  1.00  0.00     0.008 C 
ATOM     15  C   UNL     1     117.261 119.248 120.817  1.00  0.00    -0.024 C 
ATOM     16  C   UNL     1     117.928 119.114 122.260  1.00  0.00    -0.024 C 
ATOM     17  C   UNL     1     118.487 117.657 122.418  1.00  0.00     0.008 C 
ATOM     18  C   UNL     1     119.484 117.218 121.313  1.00  0.00     0.007 C 
ATOM     19  C   UNL     1     119.029 117.503 119.849  1.00  0.00    -0.029 C 
ATOM     20  C   UNL     1     118.380 118.940 119.734  1.00  0.00     0.002 C 
ATOM     21  C   UNL     1     118.022 119.298 118.258  1.00  0.00     0.011 C 
ATOM     22  C   UNL     1     119.229 119.166 117.278  1.00  0.00    -0.035 C 
ATOM     23  C   UNL     1     119.963 117.812 117.471  1.00  0.00     0.007 C 
ATOM     24  C   UNL     1     120.295 117.503 118.942  1.00  0.00     0.007 C 
ATOM     25  C   UNL     1     120.219 120.345 117.464  1.00  0.00     0.011 C 
ATOM     26  C   UNL     1     118.695 119.232 115.831  1.00  0.00     0.011 C 
ATOM     27  C   UNL     1     118.116 116.321 119.387  1.00  0.00     0.011 C 
ATOM     28  C   UNL     1     119.156 120.085 122.463  1.00  0.00     0.012 C 
ATOM     29  C   UNL     1     116.039 118.285 120.596  1.00  0.00     0.012 C 
ATOM     30  C   UNL     1     116.967 121.977 123.739  1.00  0.00     0.012 C 
ATOM     31  C   UNL     1     114.142 118.425 125.263  1.00  0.00     0.012 C 
ENDROOT
TORSDOF 0
ENDMDL
MODEL 2
REMARK VINA RESULT:    -6.567      3.137      4.651
REMARK INTER + INTRA:          -6.567
REMARK INTER:                  -6.567
REMARK INTRA:                   0.000
REMARK UNBOUND:                 0.000
REMARK SMILES C[C@H]1C(=O)CC[C@H]2[C@]3(C)CC[C@@]4(C)[C@@H]5CC(C)(C)CC[C@@]5(C)CC[C@]4(C)[C@H]3CC[C@]21C
REMARK SMILES IDX 1 1 2 2 3 3 4 4 5 5 6 6 7 7 30 8 29 9 28 10 27 11 8 12 10 13
REMARK SMILES IDX 11 14 12 15 25 16 24 17 23 18 21 19 14 20 15 21 16 22 19 23
REMARK SMILES IDX 20 24 17 25 18 26 22 27 26 28 13 29 9 30 31 31
REMARK H PARENT
REMARK Flexibility Score: inf
ROOT
ATOM      1  C   UNL     1     119.810 123.466 128.047  1.00  0.00     0.016 C 
ATOM      2  C   UNL     1     120.509 123.566 126.671  1.00  0.00     0.059 C 
ATOM      3  C   UNL     1     121.963 123.165 126.770  1.00  0.00     0.136 C 
ATOM      4  O   UNL     1     122.448 122.785 127.826  1.00  0.00    -0.299 OA
ATOM      5  C   UNL     1     122.833 123.249 125.560  1.00  0.00     0.076 C 
ATOM      6  C   UNL     1     122.028 123.629 124.306  1.00  0.00     0.012 C 
ATOM      7  C   UNL     1     120.669 122.873 124.139  1.00  0.00     0.002 C 
ATOM      8  C   UNL     1     119.798 122.795 125.487  1.00  0.00    -0.020 C 
ATOM      9  C   UNL     1     119.550 121.317 125.903  1.00  0.00     0.008 C 
ATOM     10  C   UNL     1     118.989 120.404 124.797  1.00  0.00     0.005 C 
ATOM     11  C   UNL     1     119.367 120.813 123.344  1.00  0.00     0.002 C 
ATOM     12  C   UNL     1     120.765 121.538 123.253  1.00  0.00    -0.026 C 
ATOM     13  C   UNL     1     121.081 121.938 121.764  1.00  0.00     0.008 C 
ATOM     14  C   UNL     1     120.662 120.933 120.660  1.00  0.00     0.008 C 
ATOM     15  C   UNL     1     119.206 120.377 120.805  1.00  0.00    -0.024 C 
ATOM     16  C   UNL     1     119.067 119.706 122.246  1.00  0.00    -0.024 C 
ATOM     17  C   UNL     1     117.604 119.160 122.403  1.00  0.00     0.008 C 
ATOM     18  C   UNL     1     117.155 118.171 121.294  1.00  0.00     0.007 C 
ATOM     19  C   UNL     1     117.443 118.630 119.831  1.00  0.00    -0.029 C 
ATOM     20  C   UNL     1     118.887 119.265 119.718  1.00  0.00     0.002 C 
ATOM     21  C   UNL     1     119.247 119.625 118.243  1.00  0.00     0.011 C 
ATOM     22  C   UNL     1     119.103 118.424 117.259  1.00  0.00    -0.035 C 
ATOM     23  C   UNL     1     117.742 117.702 117.450  1.00  0.00     0.007 C 
ATOM     24  C   UNL     1     117.430 117.367 118.920  1.00  0.00     0.007 C 
ATOM     25  C   UNL     1     120.272 117.422 117.440  1.00  0.00     0.011 C 
ATOM     26  C   UNL     1     119.173 118.963 115.814  1.00  0.00     0.011 C 
ATOM     27  C   UNL     1     116.271 119.556 119.374  1.00  0.00     0.011 C 
ATOM     28  C   UNL     1     120.026 118.468 122.443  1.00  0.00     0.012 C 
ATOM     29  C   UNL     1     118.255 121.609 120.590  1.00  0.00     0.012 C 
ATOM     30  C   UNL     1     121.940 120.633 123.727  1.00  0.00     0.012 C 
ATOM     31  C   UNL     1     118.416 123.486 125.265  1.00  0.00     0.012 C 
ENDROOT
TORSDOF 0
ENDMDL
MODEL 3
REMARK VINA RESULT:    -6.416      3.825      6.137
REMARK INTER + INTRA:          -6.416
REMARK INTER:                  -6.416
REMARK INTRA:                   0.000
REMARK UNBOUND:                 0.000
REMARK SMILES C[C@H]1C(=O)CC[C@H]2[C@]3(C)CC[C@@]4(C)[C@@H]5CC(C)(C)CC[C@@]5(C)CC[C@]4(C)[C@H]3CC[C@]21C
REMARK SMILES IDX 1 1 2 2 3 3 4 4 5 5 6 6 7 7 30 8 29 9 28 10 27 11 8 12 10 13
REMARK SMILES IDX 11 14 12 15 25 16 24 17 23 18 21 19 14 20 15 21 16 22 19 23
REMARK SMILES IDX 20 24 17 25 18 26 22 27 26 28 13 29 9 30 31 31
REMARK H PARENT
REMARK Flexibility Score: inf
ROOT
ATOM      1  C   UNL     1     122.284 117.988 128.890  1.00  0.00     0.016 C 
ATOM      2  C   UNL     1     122.641 117.394 127.507  1.00  0.00     0.059 C 
ATOM      3  C   UNL     1     122.461 115.893 127.497  1.00  0.00     0.136 C 
ATOM      4  O   UNL     1     122.047 115.295 128.480  1.00  0.00    -0.299 OA
ATOM      5  C   UNL     1     122.811 115.119 126.270  1.00  0.00     0.076 C 
ATOM      6  C   UNL     1     123.197 116.044 125.104  1.00  0.00     0.012 C 
ATOM      7  C   UNL     1     122.263 117.283 124.906  1.00  0.00     0.002 C 
ATOM      8  C   UNL     1     121.904 118.052 126.272  1.00  0.00    -0.020 C 
ATOM      9  C   UNL     1     120.369 118.053 126.521  1.00  0.00     0.008 C 
ATOM     10  C   UNL     1     119.507 118.536 125.340  1.00  0.00     0.005 C 
ATOM     11  C   UNL     1     120.126 118.310 123.930  1.00  0.00     0.002 C 
ATOM     12  C   UNL     1     121.065 117.044 123.867  1.00  0.00    -0.026 C 
ATOM     13  C   UNL     1     121.669 116.880 122.423  1.00  0.00     0.008 C 
ATOM     14  C   UNL     1     120.739 117.209 121.227  1.00  0.00     0.008 C 
ATOM     15  C   UNL     1     119.952 118.554 121.367  1.00  0.00    -0.024 C 
ATOM     16  C   UNL     1     119.114 118.507 122.724  1.00  0.00    -0.024 C 
ATOM     17  C   UNL     1     118.335 119.860 122.877  1.00  0.00     0.008 C 
ATOM     18  C   UNL     1     117.416 120.223 121.679  1.00  0.00     0.007 C 
ATOM     19  C   UNL     1     118.071 120.093 120.270  1.00  0.00    -0.029 C 
ATOM     20  C   UNL     1     118.930 118.769 120.171  1.00  0.00     0.002 C 
ATOM     21  C   UNL     1     119.501 118.555 118.735  1.00  0.00     0.011 C 
ATOM     22  C   UNL     1     118.408 118.577 117.623  1.00  0.00    -0.035 C 
ATOM     23  C   UNL     1     117.468 119.802 117.786  1.00  0.00     0.007 C 
ATOM     24  C   UNL     1     116.930 119.973 119.217  1.00  0.00     0.007 C 
ATOM     25  C   UNL     1     117.584 117.263 117.636  1.00  0.00     0.011 C 
ATOM     26  C   UNL     1     119.106 118.674 116.250  1.00  0.00     0.011 C 
ATOM     27  C   UNL     1     118.850 121.416 119.974  1.00  0.00     0.011 C 
ATOM     28  C   UNL     1     118.024 117.364 122.734  1.00  0.00     0.012 C 
ATOM     29  C   UNL     1     121.039 119.690 121.339  1.00  0.00     0.012 C 
ATOM     30  C   UNL     1     120.305 115.720 124.181  1.00  0.00     0.012 C 
ATOM     31  C   UNL     1     122.394 119.532 126.190  1.00  0.00     0.012 C 
ENDROOT
TORSDOF 0
ENDMDL
MODEL 4
REMARK VINA RESULT:    -6.378      2.883      4.425
REMARK INTER + INTRA:          -6.378
REMARK INTER:                  -6.378
REMARK INTRA:                   0.000
REMARK UNBOUND:                 0.000
REMARK SMILES C[C@H]1C(=O)CC[C@H]2[C@]3(C)CC[C@@]4(C)[C@@H]5CC(C)(C)CC[C@@]5(C)CC[C@]4(C)[C@H]3CC[C@]21C
REMARK SMILES IDX 1 1 2 2 3 3 4 4 5 5 6 6 7 7 30 8 29 9 28 10 27 11 8 12 10 13
REMARK SMILES IDX 11 14 12 15 25 16 24 17 23 18 21 19 14 20 15 21 16 22 19 23
REMARK SMILES IDX 20 24 17 25 18 26 22 27 26 28 13 29 9 30 31 31
REMARK H PARENT
REMARK Flexibility Score: inf
ROOT
ATOM      1  C   UNL     1     118.042 115.338 128.898  1.00  0.00     0.016 C 
ATOM      2  C   UNL     1     117.450 114.982 127.514  1.00  0.00     0.059 C 
ATOM      3  C   UNL     1     115.948 115.155 127.504  1.00  0.00     0.136 C 
ATOM      4  O   UNL     1     115.348 115.563 128.488  1.00  0.00    -0.299 OA
ATOM      5  C   UNL     1     115.176 114.807 126.276  1.00  0.00     0.076 C 
ATOM      6  C   UNL     1     116.103 114.428 125.109  1.00  0.00     0.012 C 
ATOM      7  C   UNL     1     117.337 115.369 124.914  1.00  0.00     0.002 C 
ATOM      8  C   UNL     1     118.104 115.727 126.281  1.00  0.00    -0.020 C 
ATOM      9  C   UNL     1     118.098 117.261 126.536  1.00  0.00     0.008 C 
ATOM     10  C   UNL     1     118.577 118.129 125.357  1.00  0.00     0.005 C 
ATOM     11  C   UNL     1     118.354 117.514 123.945  1.00  0.00     0.002 C 
ATOM     12  C   UNL     1     117.092 116.570 123.879  1.00  0.00    -0.026 C 
ATOM     13  C   UNL     1     116.931 115.969 122.433  1.00  0.00     0.008 C 
ATOM     14  C   UNL     1     117.256 116.905 121.240  1.00  0.00     0.008 C 
ATOM     15  C   UNL     1     118.598 117.698 121.383  1.00  0.00    -0.024 C 
ATOM     16  C   UNL     1     118.547 118.531 122.742  1.00  0.00    -0.024 C 
ATOM     17  C   UNL     1     119.896 119.316 122.898  1.00  0.00     0.008 C 
ATOM     18  C   UNL     1     120.254 120.240 121.703  1.00  0.00     0.007 C 
ATOM     19  C   UNL     1     120.128 119.589 120.292  1.00  0.00    -0.029 C 
ATOM     20  C   UNL     1     118.807 118.725 120.190  1.00  0.00     0.002 C 
ATOM     21  C   UNL     1     118.596 118.157 118.752  1.00  0.00     0.011 C 
ATOM     22  C   UNL     1     118.613 119.255 117.644  1.00  0.00    -0.035 C 
ATOM     23  C   UNL     1     119.833 120.200 117.809  1.00  0.00     0.007 C 
ATOM     24  C   UNL     1     120.002 120.734 119.243  1.00  0.00     0.007 C 
ATOM     25  C   UNL     1     117.295 120.072 117.660  1.00  0.00     0.011 C 
ATOM     26  C   UNL     1     118.713 118.561 116.268  1.00  0.00     0.011 C 
ATOM     27  C   UNL     1     121.454 118.817 119.993  1.00  0.00     0.011 C 
ATOM     28  C   UNL     1     117.398 119.615 122.756  1.00  0.00     0.012 C 
ATOM     29  C   UNL     1     119.738 116.616 121.351  1.00  0.00     0.012 C 
ATOM     30  C   UNL     1     115.765 117.322 124.196  1.00  0.00     0.012 C 
ATOM     31  C   UNL     1     119.586 115.245 126.198  1.00  0.00     0.012 C 
ENDROOT
TORSDOF 0
ENDMDL
MODEL 5
REMARK VINA RESULT:    -6.182      2.680      4.014
REMARK INTER + INTRA:          -6.182
REMARK INTER:                  -6.182
REMARK INTRA:                   0.000
REMARK UNBOUND:                 0.000
REMARK SMILES C[C@H]1C(=O)CC[C@H]2[C@]3(C)CC[C@@]4(C)[C@@H]5CC(C)(C)CC[C@@]5(C)CC[C@]4(C)[C@H]3CC[C@]21C
REMARK SMILES IDX 1 1 2 2 3 3 4 4 5 5 6 6 7 7 30 8 29 9 28 10 27 11 8 12 10 13
REMARK SMILES IDX 11 14 12 15 25 16 24 17 23 18 21 19 14 20 15 21 16 22 19 23
REMARK SMILES IDX 20 24 17 25 18 26 22 27 26 28 13 29 9 30 31 31
REMARK H PARENT
REMARK Flexibility Score: inf
ROOT
ATOM      1  C   UNL     1     113.108 114.786 126.903  1.00  0.00     0.016 C 
ATOM      2  C   UNL     1     114.165 115.915 126.938  1.00  0.00     0.059 C 
ATOM      3  C   UNL     1     115.365 115.509 127.763  1.00  0.00     0.136 C 
ATOM      4  O   UNL     1     115.440 114.403 128.277  1.00  0.00    -0.299 OA
ATOM      5  C   UNL     1     116.477 116.483 127.971  1.00  0.00     0.076 C 
ATOM      6  C   UNL     1     116.267 117.770 127.156  1.00  0.00     0.012 C 
ATOM      7  C   UNL     1     115.799 117.548 125.680  1.00  0.00     0.002 C 
ATOM      8  C   UNL     1     114.621 116.466 125.527  1.00  0.00    -0.020 C 
ATOM      9  C   UNL     1     115.068 115.281 124.624  1.00  0.00     0.008 C 
ATOM     10  C   UNL     1     115.672 115.677 123.264  1.00  0.00     0.005 C 
ATOM     11  C   UNL     1     116.369 117.068 123.227  1.00  0.00     0.002 C 
ATOM     12  C   UNL     1     116.997 117.479 124.615  1.00  0.00    -0.026 C 
ATOM     13  C   UNL     1     117.672 118.897 124.514  1.00  0.00     0.008 C 
ATOM     14  C   UNL     1     118.425 119.229 123.200  1.00  0.00     0.008 C 
ATOM     15  C   UNL     1     117.639 118.877 121.894  1.00  0.00    -0.024 C 
ATOM     16  C   UNL     1     117.259 117.328 121.938  1.00  0.00    -0.024 C 
ATOM     17  C   UNL     1     116.457 116.974 120.637  1.00  0.00     0.008 C 
ATOM     18  C   UNL     1     117.182 117.321 119.310  1.00  0.00     0.007 C 
ATOM     19  C   UNL     1     117.792 118.754 119.235  1.00  0.00    -0.029 C 
ATOM     20  C   UNL     1     118.513 119.127 120.592  1.00  0.00     0.002 C 
ATOM     21  C   UNL     1     119.233 120.508 120.506  1.00  0.00     0.011 C 
ATOM     22  C   UNL     1     120.234 120.611 119.313  1.00  0.00    -0.035 C 
ATOM     23  C   UNL     1     119.584 120.120 117.992  1.00  0.00     0.007 C 
ATOM     24  C   UNL     1     118.886 118.755 118.126  1.00  0.00     0.007 C 
ATOM     25  C   UNL     1     121.525 119.806 119.609  1.00  0.00     0.011 C 
ATOM     26  C   UNL     1     120.638 122.091 119.139  1.00  0.00     0.011 C 
ATOM     27  C   UNL     1     116.664 119.739 118.788  1.00  0.00     0.011 C 
ATOM     28  C   UNL     1     118.525 116.385 121.950  1.00  0.00     0.012 C 
ATOM     29  C   UNL     1     116.389 119.831 121.877  1.00  0.00     0.012 C 
ATOM     30  C   UNL     1     118.108 116.493 125.083  1.00  0.00     0.012 C 
ATOM     31  C   UNL     1     113.368 117.136 124.880  1.00  0.00     0.012 C 
ENDROOT
TORSDOF 0
ENDMDL
MODEL 6
REMARK VINA RESULT:    -6.173      1.624      3.640
REMARK INTER + INTRA:          -6.173
REMARK INTER:                  -6.173
REMARK INTRA:                   0.000
REMARK UNBOUND:                 0.000
REMARK SMILES C[C@H]1C(=O)CC[C@H]2[C@]3(C)CC[C@@]4(C)[C@@H]5CC(C)(C)CC[C@@]5(C)CC[C@]4(C)[C@H]3CC[C@]21C
REMARK SMILES IDX 1 1 2 2 3 3 4 4 5 5 6 6 7 7 30 8 29 9 28 10 27 11 8 12 10 13
REMARK SMILES IDX 11 14 12 15 25 16 24 17 23 18 21 19 14 20 15 21 16 22 19 23
REMARK SMILES IDX 20 24 17 25 18 26 22 27 26 28 13 29 9 30 31 31
REMARK H PARENT
REMARK Flexibility Score: inf
ROOT
ATOM      1  C   UNL     1     115.040 124.520 127.131  1.00  0.00     0.016 C 
ATOM      2  C   UNL     1     116.140 123.432 127.123  1.00  0.00     0.059 C 
ATOM      3  C   UNL     1     115.722 122.231 127.940  1.00  0.00     0.136 C 
ATOM      4  O   UNL     1     114.626 122.178 128.479  1.00  0.00    -0.299 OA
ATOM      5  C   UNL     1     116.669 121.090 128.108  1.00  0.00     0.076 C 
ATOM      6  C   UNL     1     117.942 121.279 127.266  1.00  0.00     0.012 C 
ATOM      7  C   UNL     1     117.699 121.775 125.802  1.00  0.00     0.002 C 
ATOM      8  C   UNL     1     116.645 122.984 125.692  1.00  0.00    -0.020 C 
ATOM      9  C   UNL     1     115.429 122.582 124.812  1.00  0.00     0.008 C 
ATOM     10  C   UNL     1     115.776 121.989 123.434  1.00  0.00     0.005 C 
ATOM     11  C   UNL     1     117.147 121.256 123.353  1.00  0.00     0.002 C 
ATOM     12  C   UNL     1     117.572 120.596 124.721  1.00  0.00    -0.026 C 
ATOM     13  C   UNL     1     118.970 119.886 124.577  1.00  0.00     0.008 C 
ATOM     14  C   UNL     1     119.250 119.144 123.245  1.00  0.00     0.008 C 
ATOM     15  C   UNL     1     118.889 119.960 121.959  1.00  0.00    -0.024 C 
ATOM     16  C   UNL     1     117.352 120.380 122.045  1.00  0.00    -0.024 C 
ATOM     17  C   UNL     1     116.989 121.211 120.765  1.00  0.00     0.008 C 
ATOM     18  C   UNL     1     117.286 120.498 119.419  1.00  0.00     0.007 C 
ATOM     19  C   UNL     1     118.700 119.850 119.301  1.00  0.00    -0.029 C 
ATOM     20  C   UNL     1     119.085 119.100 120.639  1.00  0.00     0.002 C 
ATOM     21  C   UNL     1     120.443 118.344 120.509  1.00  0.00     0.011 C 
ATOM     22  C   UNL     1     120.492 117.359 119.300  1.00  0.00    -0.035 C 
ATOM     23  C   UNL     1     119.987 118.042 118.000  1.00  0.00     0.007 C 
ATOM     24  C   UNL     1     118.645 118.775 118.177  1.00  0.00     0.007 C 
ATOM     25  C   UNL     1     119.659 116.085 119.595  1.00  0.00     0.011 C 
ATOM     26  C   UNL     1     121.955 116.918 119.084  1.00  0.00     0.011 C 
ATOM     27  C   UNL     1     119.704 120.959 118.848  1.00  0.00     0.011 C 
ATOM     28  C   UNL     1     116.376 119.139 122.061  1.00  0.00     0.012 C 
ATOM     29  C   UNL     1     119.876 121.184 121.938  1.00  0.00     0.012 C 
ATOM     30  C   UNL     1     116.568 119.504 125.196  1.00  0.00     0.012 C 
ATOM     31  C   UNL     1     117.334 124.228 125.048  1.00  0.00     0.012 C 
ENDROOT
TORSDOF 0
ENDMDL
MODEL 7
REMARK VINA RESULT:    -6.156      3.672      5.803
REMARK INTER + INTRA:          -6.156
REMARK INTER:                  -6.156
REMARK INTRA:                   0.000
REMARK UNBOUND:                 0.000
REMARK SMILES C[C@H]1C(=O)CC[C@H]2[C@]3(C)CC[C@@]4(C)[C@@H]5CC(C)(C)CC[C@@]5(C)CC[C@]4(C)[C@H]3CC[C@]21C
REMARK SMILES IDX 1 1 2 2 3 3 4 4 5 5 6 6 7 7 30 8 29 9 28 10 27 11 8 12 10 13
REMARK SMILES IDX 11 14 12 15 25 16 24 17 23 18 21 19 14 20 15 21 16 22 19 23
REMARK SMILES IDX 20 24 17 25 18 26 22 27 26 28 13 29 9 30 31 31
REMARK H PARENT
REMARK Flexibility Score: inf
ROOT
ATOM      1  C   UNL     1     124.506 122.889 126.873  1.00  0.00     0.016 C 
ATOM      2  C   UNL     1     123.455 121.754 126.918  1.00  0.00     0.059 C 
ATOM      3  C   UNL     1     122.261 122.153 127.755  1.00  0.00     0.136 C 
ATOM      4  O   UNL     1     122.185 123.259 128.270  1.00  0.00    -0.299 OA
ATOM      5  C   UNL     1     121.157 121.173 127.974  1.00  0.00     0.076 C 
ATOM      6  C   UNL     1     121.367 119.887 127.158  1.00  0.00     0.012 C 
ATOM      7  C   UNL     1     121.819 120.111 125.677  1.00  0.00     0.002 C 
ATOM      8  C   UNL     1     122.990 121.200 125.512  1.00  0.00    -0.020 C 
ATOM      9  C   UNL     1     122.526 122.381 124.614  1.00  0.00     0.008 C 
ATOM     10  C   UNL     1     121.912 121.981 123.259  1.00  0.00     0.005 C 
ATOM     11  C   UNL     1     121.223 120.586 123.229  1.00  0.00     0.002 C 
ATOM     12  C   UNL     1     120.611 120.172 124.623  1.00  0.00    -0.026 C 
ATOM     13  C   UNL     1     119.944 118.750 124.530  1.00  0.00     0.008 C 
ATOM     14  C   UNL     1     119.180 118.413 123.224  1.00  0.00     0.008 C 
ATOM     15  C   UNL     1     119.951 118.769 121.910  1.00  0.00    -0.024 C 
ATOM     16  C   UNL     1     120.322 120.320 121.949  1.00  0.00    -0.024 C 
ATOM     17  C   UNL     1     121.109 120.679 120.641  1.00  0.00     0.008 C 
ATOM     18  C   UNL     1     120.374 120.327 119.320  1.00  0.00     0.007 C 
ATOM     19  C   UNL     1     119.771 118.890 119.252  1.00  0.00    -0.029 C 
ATOM     20  C   UNL     1     119.066 118.514 120.617  1.00  0.00     0.002 C 
ATOM     21  C   UNL     1     118.353 117.128 120.537  1.00  0.00     0.011 C 
ATOM     22  C   UNL     1     117.342 117.019 119.355  1.00  0.00    -0.035 C 
ATOM     23  C   UNL     1     117.975 117.514 118.027  1.00  0.00     0.007 C 
ATOM     24  C   UNL     1     118.667 118.883 118.154  1.00  0.00     0.007 C 
ATOM     25  C   UNL     1     116.048 117.816 119.662  1.00  0.00     0.011 C 
ATOM     26  C   UNL     1     116.944 115.536 119.185  1.00  0.00     0.011 C 
ATOM     27  C   UNL     1     120.901 117.912 118.794  1.00  0.00     0.011 C 
ATOM     28  C   UNL     1     119.051 121.256 121.973  1.00  0.00     0.012 C 
ATOM     29  C   UNL     1     121.206 117.823 121.881  1.00  0.00     0.012 C 
ATOM     30  C   UNL     1     119.498 121.152 125.102  1.00  0.00     0.012 C 
ATOM     31  C   UNL     1     124.240 120.537 124.853  1.00  0.00     0.012 C 
ENDROOT
TORSDOF 0
ENDMDL
MODEL 8
REMARK VINA RESULT:    -6.084      3.786      5.629
REMARK INTER + INTRA:          -6.084
REMARK INTER:                  -6.084
REMARK INTRA:                   0.000
REMARK UNBOUND:                 0.000
REMARK SMILES C[C@H]1C(=O)CC[C@H]2[C@]3(C)CC[C@@]4(C)[C@@H]5CC(C)(C)CC[C@@]5(C)CC[C@]4(C)[C@H]3CC[C@]21C
REMARK SMILES IDX 1 1 2 2 3 3 4 4 5 5 6 6 7 7 30 8 29 9 28 10 27 11 8 12 10 13
REMARK SMILES IDX 11 14 12 15 25 16 24 17 23 18 21 19 14 20 15 21 16 22 19 23
REMARK SMILES IDX 20 24 17 25 18 26 22 27 26 28 13 29 9 30 31 31
REMARK H PARENT
REMARK Flexibility Score: inf
ROOT
ATOM      1  C   UNL     1     121.779 113.099 127.551  1.00  0.00     0.016 C 
ATOM      2  C   UNL     1     120.666 114.167 127.437  1.00  0.00     0.059 C 
ATOM      3  C   UNL     1     120.974 115.367 128.305  1.00  0.00     0.136 C 
ATOM      4  O   UNL     1     122.006 115.433 128.957  1.00  0.00    -0.299 OA
ATOM      5  C   UNL     1     119.993 116.489 128.382  1.00  0.00     0.076 C 
ATOM      6  C   UNL     1     118.820 116.288 127.409  1.00  0.00     0.012 C 
ATOM      7  C   UNL     1     119.225 115.812 125.975  1.00  0.00     0.002 C 
ATOM      8  C   UNL     1     120.306 114.622 125.966  1.00  0.00    -0.020 C 
ATOM      9  C   UNL     1     121.601 115.054 125.222  1.00  0.00     0.008 C 
ATOM     10  C   UNL     1     121.389 115.656 123.820  1.00  0.00     0.005 C 
ATOM     11  C   UNL     1     120.022 116.367 123.603  1.00  0.00     0.002 C 
ATOM     12  C   UNL     1     119.443 117.004 124.924  1.00  0.00    -0.026 C 
ATOM     13  C   UNL     1     118.056 117.692 124.641  1.00  0.00     0.008 C 
ATOM     14  C   UNL     1     117.904 118.443 123.293  1.00  0.00     0.008 C 
ATOM     15  C   UNL     1     118.412 117.648 122.044  1.00  0.00    -0.024 C 
ATOM     16  C   UNL     1     119.939 117.253 122.288  1.00  0.00    -0.024 C 
ATOM     17  C   UNL     1     120.450 116.443 121.046  1.00  0.00     0.008 C 
ATOM     18  C   UNL     1     120.283 117.165 119.683  1.00  0.00     0.007 C 
ATOM     19  C   UNL     1     118.878 117.790 119.423  1.00  0.00    -0.029 C 
ATOM     20  C   UNL     1     118.341 118.519 120.719  1.00  0.00     0.002 C 
ATOM     21  C   UNL     1     116.990 119.253 120.453  1.00  0.00     0.011 C 
ATOM     22  C   UNL     1     117.051 120.249 119.255  1.00  0.00    -0.035 C 
ATOM     23  C   UNL     1     117.702 119.589 118.010  1.00  0.00     0.007 C 
ATOM     24  C   UNL     1     119.031 118.878 118.320  1.00  0.00     0.007 C 
ATOM     25  C   UNL     1     117.824 121.534 119.648  1.00  0.00     0.011 C 
ATOM     26  C   UNL     1     115.610 120.667 118.891  1.00  0.00     0.011 C 
ATOM     27  C   UNL     1     117.947 116.669 118.856  1.00  0.00     0.011 C 
ATOM     28  C   UNL     1     120.885 118.510 122.418  1.00  0.00     0.012 C 
ATOM     29  C   UNL     1     117.456 116.408 121.909  1.00  0.00     0.012 C 
ATOM     30  C   UNL     1     120.372 118.108 125.512  1.00  0.00     0.012 C 
ATOM     31  C   UNL     1     119.712 113.374 125.242  1.00  0.00     0.012 C 
ENDROOT
TORSDOF 0
ENDMDL
MODEL 9
REMARK VINA RESULT:    -6.069      3.754      8.077
REMARK INTER + INTRA:          -6.069
REMARK INTER:                  -6.069
REMARK INTRA:                   0.000
REMARK UNBOUND:                 0.000
REMARK SMILES C[C@H]1C(=O)CC[C@H]2[C@]3(C)CC[C@@]4(C)[C@@H]5CC(C)(C)CC[C@@]5(C)CC[C@]4(C)[C@H]3CC[C@]21C
REMARK SMILES IDX 1 1 2 2 3 3 4 4 5 5 6 6 7 7 30 8 29 9 28 10 27 11 8 12 10 13
REMARK SMILES IDX 11 14 12 15 25 16 24 17 23 18 21 19 14 20 15 21 16 22 19 23
REMARK SMILES IDX 20 24 17 25 18 26 22 27 26 28 13 29 9 30 31 31
REMARK H PARENT
REMARK Flexibility Score: inf
ROOT
ATOM      1  C   UNL     1     119.681 119.402 117.216  1.00  0.00     0.016 C 
ATOM      2  C   UNL     1     118.677 119.917 118.274  1.00  0.00     0.059 C 
ATOM      3  C   UNL     1     117.501 118.976 118.410  1.00  0.00     0.136 C 
ATOM      4  O   UNL     1     117.436 117.940 117.764  1.00  0.00    -0.299 OA
ATOM      5  C   UNL     1     116.387 119.322 119.340  1.00  0.00     0.076 C 
ATOM      6  C   UNL     1     116.696 120.591 120.152  1.00  0.00     0.012 C 
ATOM      7  C   UNL     1     118.144 120.663 120.739  1.00  0.00     0.002 C 
ATOM      8  C   UNL     1     119.291 120.249 119.693  1.00  0.00    -0.020 C 
ATOM      9  C   UNL     1     120.099 119.025 120.210  1.00  0.00     0.008 C 
ATOM     10  C   UNL     1     120.642 119.150 121.646  1.00  0.00     0.005 C 
ATOM     11  C   UNL     1     119.812 120.066 122.592  1.00  0.00     0.002 C 
ATOM     12  C   UNL     1     118.276 120.091 122.232  1.00  0.00    -0.026 C 
ATOM     13  C   UNL     1     117.498 121.045 123.213  1.00  0.00     0.008 C 
ATOM     14  C   UNL     1     117.941 121.042 124.699  1.00  0.00     0.008 C 
ATOM     15  C   UNL     1     119.487 121.139 124.917  1.00  0.00    -0.024 C 
ATOM     16  C   UNL     1     120.181 119.936 124.130  1.00  0.00    -0.024 C 
ATOM     17  C   UNL     1     121.734 120.037 124.333  1.00  0.00     0.008 C 
ATOM     18  C   UNL     1     122.197 120.062 125.813  1.00  0.00     0.007 C 
ATOM     19  C   UNL     1     121.432 121.057 126.739  1.00  0.00    -0.029 C 
ATOM     20  C   UNL     1     119.878 121.007 126.450  1.00  0.00     0.002 C 
ATOM     21  C   UNL     1     119.075 121.906 127.441  1.00  0.00     0.011 C 
ATOM     22  C   UNL     1     119.360 121.582 128.940  1.00  0.00    -0.035 C 
ATOM     23  C   UNL     1     120.885 121.493 129.215  1.00  0.00     0.007 C 
ATOM     24  C   UNL     1     121.634 120.597 128.213  1.00  0.00     0.007 C 
ATOM     25  C   UNL     1     118.660 120.264 129.360  1.00  0.00     0.011 C 
ATOM     26  C   UNL     1     118.772 122.717 129.807  1.00  0.00     0.011 C 
ATOM     27  C   UNL     1     122.092 122.466 126.588  1.00  0.00     0.011 C 
ATOM     28  C   UNL     1     119.754 118.518 124.676  1.00  0.00     0.012 C 
ATOM     29  C   UNL     1     119.905 122.560 124.389  1.00  0.00     0.012 C 
ATOM     30  C   UNL     1     117.610 118.689 122.357  1.00  0.00     0.012 C 
ATOM     31  C   UNL     1     120.276 121.443 119.488  1.00  0.00     0.012 C 
ENDROOT
TORSDOF 0
ENDMDL
