MODEL 1
REMARK VINA RESULT:    -3.635      0.000      0.000
REMARK INTER + INTRA:          -6.350
REMARK INTER:                  -5.548
REMARK INTRA:                  -0.802
REMARK UNBOUND:                -0.802
REMARK SMILES CCCCCCCCCCC(=O)[O-]
REMARK SMILES IDX 7 1 8 2 9 3 10 4 11 5 12 6 13 7 6 8 5 9 4 10 3 11 2 12 1 13
REMARK H PARENT
REMARK Flexibility Score: inf
ROOT
ATOM      1  C   UNL     1    -102.319  30.634 -38.862  1.00  0.00     0.000 C 
ENDROOT
BRANCH   1   2
ATOM      2  C   UNL     1    -103.272  31.396 -37.919  1.00  0.00     0.000 C 
BRANCH   2   3
ATOM      3  C   UNL     1    -103.332  30.854 -36.479  1.00  0.00     0.006 C 
BRANCH   3   4
ATOM      4  C   UNL     1    -102.928  31.900 -35.432  1.00  0.00     0.053 C 
BRANCH   4   5
ATOM      5  C   UNL     1    -101.950  31.316 -34.462  1.00  0.00     0.041 C 
ATOM      6  O   UNL     1    -101.443  30.184 -34.677  1.00  0.00    -0.550 OA
ATOM      7  O   UNL     1    -101.635  32.001 -33.296  1.00  0.00    -0.550 OA
ENDBRANCH   4   5
ENDBRANCH   3   4
ENDBRANCH   2   3
ENDBRANCH   1   2
BRANCH   1   8
ATOM      8  C   UNL     1    -101.012  30.142 -38.211  1.00  0.00     0.000 C 
BRANCH   8   9
ATOM      9  C   UNL     1     -99.799  31.075 -38.395  1.00  0.00    -0.000 C 
BRANCH   9  10
ATOM     10  C   UNL     1     -99.547  32.055 -37.234  1.00  0.00    -0.000 C 
BRANCH  10  11
ATOM     11  C   UNL     1     -98.643  33.233 -37.633  1.00  0.00    -0.000 C 
BRANCH  11  12
ATOM     12  C   UNL     1     -98.303  33.232 -39.132  1.00  0.00    -0.003 C 
ATOM     13  C   UNL     1     -96.873  32.772 -39.415  1.00  0.00     0.004 C 
ENDBRANCH  11  12
ENDBRANCH  10  11
ENDBRANCH   9  10
ENDBRANCH   8   9
ENDBRANCH   1   8
TORSDOF 9
ENDMDL
MODEL 2
REMARK VINA RESULT:    -3.592      2.758      3.588
REMARK INTER + INTRA:          -6.283
REMARK INTER:                  -5.553
REMARK INTRA:                  -0.730
REMARK UNBOUND:                -0.802
REMARK SMILES CCCCCCCCCCC(=O)[O-]
REMARK SMILES IDX 7 1 8 2 9 3 10 4 11 5 12 6 13 7 6 8 5 9 4 10 3 11 2 12 1 13
REMARK H PARENT
REMARK Flexibility Score: inf
ROOT
ATOM      1  C   UNL     1    -102.355  30.556 -35.845  1.00  0.00     0.000 C 
ENDROOT
BRANCH   1   2
ATOM      2  C   UNL     1    -103.582  30.883 -36.721  1.00  0.00     0.000 C 
BRANCH   2   3
ATOM      3  C   UNL     1    -103.253  31.447 -38.115  1.00  0.00     0.006 C 
BRANCH   3   4
ATOM      4  C   UNL     1    -104.474  31.490 -39.043  1.00  0.00     0.053 C 
BRANCH   4   5
ATOM      5  C   UNL     1    -105.568  32.303 -38.428  1.00  0.00     0.041 C 
ATOM      6  O   UNL     1    -106.721  31.816 -38.294  1.00  0.00    -0.550 OA
ATOM      7  O   UNL     1    -105.328  33.617 -38.048  1.00  0.00    -0.550 OA
ENDBRANCH   4   5
ENDBRANCH   3   4
ENDBRANCH   2   3
ENDBRANCH   1   2
BRANCH   1   8
ATOM      8  C   UNL     1    -101.553  31.779 -35.361  1.00  0.00     0.000 C 
BRANCH   8   9
ATOM      9  C   UNL     1    -100.095  31.842 -35.859  1.00  0.00    -0.000 C 
BRANCH   9  10
ATOM     10  C   UNL     1     -99.739  30.836 -36.969  1.00  0.00    -0.000 C 
BRANCH  10  11
ATOM     11  C   UNL     1     -99.420  31.515 -38.311  1.00  0.00    -0.000 C 
BRANCH  11  12
ATOM     12  C   UNL     1     -98.591  32.798 -38.138  1.00  0.00    -0.003 C 
ATOM     13  C   UNL     1     -97.557  32.990 -39.248  1.00  0.00     0.004 C 
ENDBRANCH  11  12
ENDBRANCH  10  11
ENDBRANCH   9  10
ENDBRANCH   8   9
ENDBRANCH   1   8
TORSDOF 9
ENDMDL
MODEL 3
REMARK VINA RESULT:    -3.575      2.251      3.354
REMARK INTER + INTRA:          -6.258
REMARK INTER:                  -5.590
REMARK INTRA:                  -0.669
REMARK UNBOUND:                -0.802
REMARK SMILES CCCCCCCCCCC(=O)[O-]
REMARK SMILES IDX 7 1 8 2 9 3 10 4 11 5 12 6 13 7 6 8 5 9 4 10 3 11 2 12 1 13
REMARK H PARENT
REMARK Flexibility Score: inf
ROOT
ATOM      1  C   UNL     1    -101.450  31.788 -34.146  1.00  0.00     0.000 C 
ENDROOT
BRANCH   1   2
ATOM      2  C   UNL     1    -102.907  31.461 -34.532  1.00  0.00     0.000 C 
BRANCH   2   3
ATOM      3  C   UNL     1    -103.360  32.019 -35.894  1.00  0.00     0.006 C 
BRANCH   3   4
ATOM      4  C   UNL     1    -103.959  30.943 -36.807  1.00  0.00     0.053 C 
BRANCH   4   5
ATOM      5  C   UNL     1    -103.704  31.276 -38.243  1.00  0.00     0.041 C 
ATOM      6  O   UNL     1    -104.607  31.808 -38.940  1.00  0.00    -0.550 OA
ATOM      7  O   UNL     1    -102.485  30.953 -38.826  1.00  0.00    -0.550 OA
ENDBRANCH   4   5
ENDBRANCH   3   4
ENDBRANCH   2   3
ENDBRANCH   1   2
BRANCH   1   8
ATOM      8  C   UNL     1    -100.425  30.686 -34.474  1.00  0.00     0.000 C 
BRANCH   8   9
ATOM      9  C   UNL     1     -99.882  30.708 -35.917  1.00  0.00    -0.000 C 
BRANCH   9  10
ATOM     10  C   UNL     1     -99.798  32.103 -36.563  1.00  0.00    -0.000 C 
BRANCH  10  11
ATOM     11  C   UNL     1     -99.270  32.063 -38.006  1.00  0.00    -0.000 C 
BRANCH  11  12
ATOM     12  C   UNL     1     -98.306  33.221 -38.312  1.00  0.00    -0.003 C 
ATOM     13  C   UNL     1     -97.168  32.814 -39.247  1.00  0.00     0.004 C 
ENDBRANCH  11  12
ENDBRANCH  10  11
ENDBRANCH   9  10
ENDBRANCH   8   9
ENDBRANCH   1   8
TORSDOF 9
ENDMDL
MODEL 4
REMARK VINA RESULT:    -3.521      2.768      3.050
REMARK INTER + INTRA:          -6.176
REMARK INTER:                  -5.404
REMARK INTRA:                  -0.771
REMARK UNBOUND:                -0.802
REMARK SMILES CCCCCCCCCCC(=O)[O-]
REMARK SMILES IDX 7 1 8 2 9 3 10 4 11 5 12 6 13 7 6 8 5 9 4 10 3 11 2 12 1 13
REMARK H PARENT
REMARK Flexibility Score: inf
ROOT
ATOM      1  C   UNL     1    -102.242  30.088 -38.800  1.00  0.00     0.000 C 
ENDROOT
BRANCH   1   2
ATOM      2  C   UNL     1    -103.286  31.174 -38.470  1.00  0.00     0.000 C 
BRANCH   2   3
ATOM      3  C   UNL     1    -103.828  31.138 -37.030  1.00  0.00     0.006 C 
BRANCH   3   4
ATOM      4  C   UNL     1    -104.356  32.499 -36.558  1.00  0.00     0.053 C 
BRANCH   4   5
ATOM      5  C   UNL     1    -105.494  32.945 -37.420  1.00  0.00     0.041 C 
ATOM      6  O   UNL     1    -105.422  34.029 -38.054  1.00  0.00    -0.550 OA
ATOM      7  O   UNL     1    -106.656  32.186 -37.483  1.00  0.00    -0.550 OA
ENDBRANCH   4   5
ENDBRANCH   3   4
ENDBRANCH   2   3
ENDBRANCH   1   2
BRANCH   1   8
ATOM      8  C   UNL     1    -100.784  30.581 -38.860  1.00  0.00     0.000 C 
BRANCH   8   9
ATOM      9  C   UNL     1     -99.899  30.149 -37.674  1.00  0.00    -0.000 C 
BRANCH   9  10
ATOM     10  C   UNL     1     -99.556  31.268 -36.673  1.00  0.00    -0.000 C 
BRANCH  10  11
ATOM     11  C   UNL     1     -99.448  32.650 -37.337  1.00  0.00    -0.000 C 
BRANCH  11  12
ATOM     12  C   UNL     1     -98.016  32.973 -37.793  1.00  0.00    -0.003 C 
ATOM     13  C   UNL     1     -97.907  33.178 -39.304  1.00  0.00     0.004 C 
ENDBRANCH  11  12
ENDBRANCH  10  11
ENDBRANCH   9  10
ENDBRANCH   8   9
ENDBRANCH   1   8
TORSDOF 9
ENDMDL
MODEL 5
REMARK VINA RESULT:    -3.468      3.016      5.834
REMARK INTER + INTRA:          -6.094
REMARK INTER:                  -5.408
REMARK INTRA:                  -0.686
REMARK UNBOUND:                -0.802
REMARK SMILES CCCCCCCCCCC(=O)[O-]
REMARK SMILES IDX 7 1 8 2 9 3 10 4 11 5 12 6 13 7 6 8 5 9 4 10 3 11 2 12 1 13
REMARK H PARENT
REMARK Flexibility Score: inf
ROOT
ATOM      1  C   UNL     1     -99.721  30.076 -35.350  1.00  0.00     0.000 C 
ENDROOT
BRANCH   1   2
ATOM      2  C   UNL     1     -99.164  31.461 -35.735  1.00  0.00     0.000 C 
BRANCH   2   3
ATOM      3  C   UNL     1     -99.795  32.090 -36.990  1.00  0.00     0.006 C 
BRANCH   3   4
ATOM      4  C   UNL     1     -99.057  31.711 -38.281  1.00  0.00     0.053 C 
BRANCH   4   5
ATOM      5  C   UNL     1     -98.169  32.832 -38.722  1.00  0.00     0.041 C 
ATOM      6  O   UNL     1     -98.440  34.018 -38.400  1.00  0.00    -0.550 OA
ATOM      7  O   UNL     1     -97.070  32.570 -39.530  1.00  0.00    -0.550 OA
ENDBRANCH   4   5
ENDBRANCH   3   4
ENDBRANCH   2   3
ENDBRANCH   1   2
BRANCH   1   8
ATOM      8  C   UNL     1    -101.092  30.096 -34.647  1.00  0.00     0.000 C 
BRANCH   8   9
ATOM      9  C   UNL     1    -101.258  31.187 -33.571  1.00  0.00    -0.000 C 
BRANCH   9  10
ATOM     10  C   UNL     1    -102.563  31.999 -33.659  1.00  0.00    -0.000 C 
BRANCH  10  11
ATOM     11  C   UNL     1    -102.806  32.590 -35.058  1.00  0.00    -0.000 C 
BRANCH  11  12
ATOM     12  C   UNL     1    -104.298  32.810 -35.352  1.00  0.00    -0.003 C 
ATOM     13  C   UNL     1    -105.140  32.939 -34.083  1.00  0.00     0.004 C 
ENDBRANCH  11  12
ENDBRANCH  10  11
ENDBRANCH   9  10
ENDBRANCH   8   9
ENDBRANCH   1   8
TORSDOF 9
ENDMDL
MODEL 6
REMARK VINA RESULT:    -3.444      1.786      2.137
REMARK INTER + INTRA:          -6.058
REMARK INTER:                  -5.415
REMARK INTRA:                  -0.643
REMARK UNBOUND:                -0.802
REMARK SMILES CCCCCCCCCCC(=O)[O-]
REMARK SMILES IDX 7 1 8 2 9 3 10 4 11 5 12 6 13 7 6 8 5 9 4 10 3 11 2 12 1 13
REMARK H PARENT
REMARK Flexibility Score: inf
ROOT
ATOM      1  C   UNL     1    -103.536  31.529 -38.547  1.00  0.00     0.000 C 
ENDROOT
BRANCH   1   2
ATOM      2  C   UNL     1    -104.437  31.484 -37.297  1.00  0.00     0.000 C 
BRANCH   2   3
ATOM      3  C   UNL     1    -104.751  32.857 -36.673  1.00  0.00     0.006 C 
BRANCH   3   4
ATOM      4  C   UNL     1    -103.845  33.189 -35.480  1.00  0.00     0.053 C 
BRANCH   4   5
ATOM      5  C   UNL     1    -104.429  32.646 -34.214  1.00  0.00     0.041 C 
ATOM      6  O   UNL     1    -104.010  31.558 -33.740  1.00  0.00    -0.550 OA
ATOM      7  O   UNL     1    -105.470  33.316 -33.585  1.00  0.00    -0.550 OA
ENDBRANCH   4   5
ENDBRANCH   3   4
ENDBRANCH   2   3
ENDBRANCH   1   2
BRANCH   1   8
ATOM      8  C   UNL     1    -102.272  30.651 -38.473  1.00  0.00     0.000 C 
BRANCH   8   9
ATOM      9  C   UNL     1    -101.513  30.712 -37.133  1.00  0.00    -0.000 C 
BRANCH   9  10
ATOM     10  C   UNL     1    -100.511  31.874 -37.001  1.00  0.00    -0.000 C 
BRANCH  10  11
ATOM     11  C   UNL     1     -99.326  31.754 -37.973  1.00  0.00    -0.000 C 
BRANCH  11  12
ATOM     12  C   UNL     1     -98.457  33.022 -38.001  1.00  0.00    -0.003 C 
ATOM     13  C   UNL     1     -97.795  33.258 -39.358  1.00  0.00     0.004 C 
ENDBRANCH  11  12
ENDBRANCH  10  11
ENDBRANCH   9  10
ENDBRANCH   8   9
ENDBRANCH   1   8
TORSDOF 9
ENDMDL
MODEL 7
REMARK VINA RESULT:    -3.437      2.449      3.437
REMARK INTER + INTRA:          -6.046
REMARK INTER:                  -5.645
REMARK INTRA:                  -0.401
REMARK UNBOUND:                -0.802
REMARK SMILES CCCCCCCCCCC(=O)[O-]
REMARK SMILES IDX 7 1 8 2 9 3 10 4 11 5 12 6 13 7 6 8 5 9 4 10 3 11 2 12 1 13
REMARK H PARENT
REMARK Flexibility Score: inf
ROOT
ATOM      1  C   UNL     1    -100.997  31.223 -33.830  1.00  0.00     0.000 C 
ENDROOT
BRANCH   1   2
ATOM      2  C   UNL     1    -101.775  30.175 -33.009  1.00  0.00     0.000 C 
BRANCH   2   3
ATOM      3  C   UNL     1    -103.170  30.625 -32.536  1.00  0.00     0.006 C 
BRANCH   3   4
ATOM      4  C   UNL     1    -103.409  32.127 -32.734  1.00  0.00     0.053 C 
BRANCH   4   5
ATOM      5  C   UNL     1    -104.577  32.354 -33.642  1.00  0.00     0.041 C 
ATOM      6  O   UNL     1    -104.513  33.223 -34.550  1.00  0.00    -0.550 OA
ATOM      7  O   UNL     1    -105.753  31.640 -33.453  1.00  0.00    -0.550 OA
ENDBRANCH   4   5
ENDBRANCH   3   4
ENDBRANCH   2   3
ENDBRANCH   1   2
BRANCH   1   8
ATOM      8  C   UNL     1     -99.626  30.754 -34.355  1.00  0.00     0.000 C 
BRANCH   8   9
ATOM      9  C   UNL     1     -99.119  31.494 -35.608  1.00  0.00    -0.000 C 
BRANCH   9  10
ATOM     10  C   UNL     1    -100.138  31.608 -36.757  1.00  0.00    -0.000 C 
BRANCH  10  11
ATOM     11  C   UNL     1     -99.477  31.895 -38.115  1.00  0.00    -0.000 C 
BRANCH  11  12
ATOM     12  C   UNL     1     -98.355  32.940 -38.014  1.00  0.00    -0.003 C 
ATOM     13  C   UNL     1     -97.357  32.852 -39.169  1.00  0.00     0.004 C 
ENDBRANCH  11  12
ENDBRANCH  10  11
ENDBRANCH   9  10
ENDBRANCH   8   9
ENDBRANCH   1   8
TORSDOF 9
ENDMDL
MODEL 8
REMARK VINA RESULT:    -3.434      2.880      5.596
REMARK INTER + INTRA:          -6.043
REMARK INTER:                  -5.379
REMARK INTRA:                  -0.664
REMARK UNBOUND:                -0.802
REMARK SMILES CCCCCCCCCCC(=O)[O-]
REMARK SMILES IDX 7 1 8 2 9 3 10 4 11 5 12 6 13 7 6 8 5 9 4 10 3 11 2 12 1 13
REMARK H PARENT
REMARK Flexibility Score: inf
ROOT
ATOM      1  C   UNL     1    -102.071  30.936 -38.594  1.00  0.00     0.000 C 
ENDROOT
BRANCH   1   2
ATOM      2  C   UNL     1    -101.328  31.022 -37.245  1.00  0.00     0.000 C 
BRANCH   2   3
ATOM      3  C   UNL     1    -100.091  31.939 -37.241  1.00  0.00     0.006 C 
BRANCH   3   4
ATOM      4  C   UNL     1     -99.118  31.630 -38.386  1.00  0.00     0.053 C 
BRANCH   4   5
ATOM      5  C   UNL     1     -98.228  32.804 -38.646  1.00  0.00     0.041 C 
ATOM      6  O   UNL     1     -98.475  33.916 -38.111  1.00  0.00    -0.550 OA
ATOM      7  O   UNL     1     -97.154  32.682 -39.517  1.00  0.00    -0.550 OA
ENDBRANCH   4   5
ENDBRANCH   3   4
ENDBRANCH   2   3
ENDBRANCH   1   2
BRANCH   1   8
ATOM      8  C   UNL     1    -103.593  30.721 -38.489  1.00  0.00     0.000 C 
BRANCH   8   9
ATOM      9  C   UNL     1    -104.454  31.908 -38.967  1.00  0.00    -0.000 C 
BRANCH   9  10
ATOM     10  C   UNL     1    -105.099  32.741 -37.844  1.00  0.00    -0.000 C 
BRANCH  10  11
ATOM     11  C   UNL     1    -104.895  32.125 -36.450  1.00  0.00    -0.000 C 
BRANCH  11  12
ATOM     12  C   UNL     1    -104.148  33.069 -35.495  1.00  0.00    -0.003 C 
ATOM     13  C   UNL     1    -104.633  32.955 -34.049  1.00  0.00     0.004 C 
ENDBRANCH  11  12
ENDBRANCH  10  11
ENDBRANCH   9  10
ENDBRANCH   8   9
ENDBRANCH   1   8
TORSDOF 9
ENDMDL
MODEL 9
REMARK VINA RESULT:    -3.423      2.950      3.395
REMARK INTER + INTRA:          -6.026
REMARK INTER:                  -5.640
REMARK INTRA:                  -0.386
REMARK UNBOUND:                -0.802
REMARK SMILES CCCCCCCCCCC(=O)[O-]
REMARK SMILES IDX 7 1 8 2 9 3 10 4 11 5 12 6 13 7 6 8 5 9 4 10 3 11 2 12 1 13
REMARK H PARENT
REMARK Flexibility Score: inf
ROOT
ATOM      1  C   UNL     1    -102.609  31.163 -36.449  1.00  0.00     0.000 C 
ENDROOT
BRANCH   1   2
ATOM      2  C   UNL     1    -102.952  32.074 -35.253  1.00  0.00     0.000 C 
BRANCH   2   3
ATOM      3  C   UNL     1    -104.024  33.143 -35.537  1.00  0.00     0.006 C 
BRANCH   3   4
ATOM      4  C   UNL     1    -105.409  32.541 -35.800  1.00  0.00     0.053 C 
BRANCH   4   5
ATOM      5  C   UNL     1    -105.909  32.951 -37.149  1.00  0.00     0.041 C 
ATOM      6  O   UNL     1    -105.095  33.248 -38.062  1.00  0.00    -0.550 OA
ATOM      7  O   UNL     1    -107.274  33.055 -37.383  1.00  0.00    -0.550 OA
ENDBRANCH   4   5
ENDBRANCH   3   4
ENDBRANCH   2   3
ENDBRANCH   1   2
BRANCH   1   8
ATOM      8  C   UNL     1    -101.430  30.198 -36.218  1.00  0.00     0.000 C 
BRANCH   8   9
ATOM      9  C   UNL     1    -100.079  30.878 -35.920  1.00  0.00    -0.000 C 
BRANCH   9  10
ATOM     10  C   UNL     1     -99.833  32.200 -36.670  1.00  0.00    -0.000 C 
BRANCH  10  11
ATOM     11  C   UNL     1     -99.150  31.996 -38.032  1.00  0.00    -0.000 C 
BRANCH  11  12
ATOM     12  C   UNL     1     -98.291  33.201 -38.446  1.00  0.00    -0.003 C 
ATOM     13  C   UNL     1     -97.102  32.809 -39.323  1.00  0.00     0.004 C 
ENDBRANCH  11  12
ENDBRANCH  10  11
ENDBRANCH   9  10
ENDBRANCH   8   9
ENDBRANCH   1   8
TORSDOF 9
ENDMDL
