MODEL 1
REMARK VINA RESULT:    -4.894      0.000      0.000
REMARK INTER + INTRA:          -6.041
REMARK INTER:                  -5.753
REMARK INTRA:                  -0.289
REMARK UNBOUND:                -0.289
REMARK SMILES CCCC[C@@H]1OC(=O)C2=C1CCC=C2
REMARK SMILES IDX 3 1 2 2 1 3 4 4 5 5 10 6 6 7 9 8 11 9 7 10 14 11 12 12 8 13
REMARK SMILES IDX 13 14
REMARK H PARENT
REMARK Flexibility Score: inf
ROOT
ATOM      1  C   UNL     1      72.006  54.264  16.543  1.00  0.00     0.004 C 
ENDROOT
BRANCH   1   2
ATOM      2  C   UNL     1      70.921  54.926  15.687  1.00  0.00    -0.003 C 
ATOM      3  C   UNL     1      71.445  55.255  14.291  1.00  0.00     0.004 C 
ENDBRANCH   1   2
BRANCH   1   4
ATOM      4  C   UNL     1      71.420  53.125  17.386  1.00  0.00     0.050 C 
BRANCH   4   5
ATOM      5  C   UNL     1      70.566  53.668  18.540  1.00  0.00     0.204 C 
ATOM      6  C   UNL     1      69.308  52.853  18.732  1.00  0.00    -0.015 C 
ATOM      7  O   UNL     1      71.246  53.505  19.790  1.00  0.00    -0.454 OA
ATOM      8  C   UNL     1      69.297  52.278  19.923  1.00  0.00     0.062 C 
ATOM      9  C   UNL     1      68.254  52.546  17.703  1.00  0.00     0.040 C 
ATOM     10  C   UNL     1      70.500  52.674  20.608  1.00  0.00     0.338 C 
ATOM     11  C   UNL     1      68.227  51.375  20.360  1.00  0.00     0.011 C 
ATOM     12  C   UNL     1      66.927  52.128  18.378  1.00  0.00     0.032 C 
ATOM     13  O   UNL     1      70.841  52.327  21.768  1.00  0.00    -0.246 OA
ATOM     14  C   UNL     1      67.137  51.245  19.593  1.00  0.00    -0.026 C 
ENDBRANCH   4   5
ENDBRANCH   1   4
TORSDOF 3
ENDMDL
MODEL 2
REMARK VINA RESULT:    -4.739      1.306      4.628
REMARK INTER + INTRA:          -5.859
REMARK INTER:                  -5.595
REMARK INTRA:                  -0.264
REMARK UNBOUND:                -0.289
REMARK SMILES CCCC[C@@H]1OC(=O)C2=C1CCC=C2
REMARK SMILES IDX 3 1 2 2 1 3 4 4 5 5 10 6 6 7 9 8 11 9 7 10 14 11 12 12 8 13
REMARK SMILES IDX 13 14
REMARK H PARENT
REMARK Flexibility Score: inf
ROOT
ATOM      1  C   UNL     1      67.310  52.846  18.990  1.00  0.00     0.004 C 
ENDROOT
BRANCH   1   2
ATOM      2  C   UNL     1      66.048  51.982  18.883  1.00  0.00    -0.003 C 
ATOM      3  C   UNL     1      66.371  50.506  19.098  1.00  0.00     0.004 C 
ENDBRANCH   1   2
BRANCH   1   4
ATOM      4  C   UNL     1      68.155  52.744  17.714  1.00  0.00     0.050 C 
BRANCH   4   5
ATOM      5  C   UNL     1      69.549  52.175  18.013  1.00  0.00     0.204 C 
ATOM      6  C   UNL     1      70.628  53.213  17.808  1.00  0.00    -0.015 C 
ATOM      7  O   UNL     1      69.674  51.854  19.402  1.00  0.00    -0.454 OA
ATOM      8  C   UNL     1      71.257  53.467  18.943  1.00  0.00     0.062 C 
ATOM      9  C   UNL     1      70.896  54.017  16.564  1.00  0.00     0.040 C 
ATOM     10  C   UNL     1      70.681  52.625  19.958  1.00  0.00     0.338 C 
ATOM     11  C   UNL     1      72.311  54.482  19.058  1.00  0.00     0.011 C 
ATOM     12  C   UNL     1      72.335  54.584  16.572  1.00  0.00     0.032 C 
ATOM     13  O   UNL     1      71.021  52.584  21.169  1.00  0.00    -0.246 OA
ATOM     14  C   UNL     1      72.771  55.066  17.943  1.00  0.00    -0.026 C 
ENDBRANCH   4   5
ENDBRANCH   1   4
TORSDOF 3
ENDMDL
MODEL 3
REMARK VINA RESULT:    -4.726      2.396      4.843
REMARK INTER + INTRA:          -5.843
REMARK INTER:                  -5.586
REMARK INTRA:                  -0.257
REMARK UNBOUND:                -0.289
REMARK SMILES CCCC[C@@H]1OC(=O)C2=C1CCC=C2
REMARK SMILES IDX 3 1 2 2 1 3 4 4 5 5 10 6 6 7 9 8 11 9 7 10 14 11 12 12 8 13
REMARK SMILES IDX 13 14
REMARK H PARENT
REMARK Flexibility Score: inf
ROOT
ATOM      1  C   UNL     1      69.586  51.319  22.620  1.00  0.00     0.004 C 
ENDROOT
BRANCH   1   2
ATOM      2  C   UNL     1      69.394  50.019  21.831  1.00  0.00    -0.003 C 
ATOM      3  C   UNL     1      68.634  48.982  22.653  1.00  0.00     0.004 C 
ENDBRANCH   1   2
BRANCH   1   4
ATOM      4  C   UNL     1      70.773  52.122  22.073  1.00  0.00     0.050 C 
BRANCH   4   5
ATOM      5  C   UNL     1      70.301  53.364  21.306  1.00  0.00     0.204 C 
ATOM      6  C   UNL     1      69.630  52.991  20.004  1.00  0.00    -0.015 C 
ATOM      7  O   UNL     1      69.258  54.032  22.024  1.00  0.00    -0.454 OA
ATOM      8  C   UNL     1      68.363  53.371  20.003  1.00  0.00     0.062 C 
ATOM      9  C   UNL     1      70.199  52.155  18.891  1.00  0.00     0.040 C 
ATOM     10  C   UNL     1      68.105  54.031  21.257  1.00  0.00     0.338 C 
ATOM     11  C   UNL     1      67.448  53.084  18.893  1.00  0.00     0.011 C 
ATOM     12  C   UNL     1      69.440  52.405  17.567  1.00  0.00     0.032 C 
ATOM     13  O   UNL     1      67.009  54.529  21.621  1.00  0.00    -0.246 OA
ATOM     14  C   UNL     1      67.944  52.557  17.766  1.00  0.00    -0.026 C 
ENDBRANCH   4   5
ENDBRANCH   1   4
TORSDOF 3
ENDMDL
MODEL 4
REMARK VINA RESULT:    -4.706      2.714      4.268
REMARK INTER + INTRA:          -5.819
REMARK INTER:                  -5.321
REMARK INTRA:                  -0.498
REMARK UNBOUND:                -0.289
REMARK SMILES CCCC[C@@H]1OC(=O)C2=C1CCC=C2
REMARK SMILES IDX 3 1 2 2 1 3 4 4 5 5 10 6 6 7 9 8 11 9 7 10 14 11 12 12 8 13
REMARK SMILES IDX 13 14
REMARK H PARENT
REMARK Flexibility Score: inf
ROOT
ATOM      1  C   UNL     1      67.940  51.981  17.762  1.00  0.00     0.004 C 
ENDROOT
BRANCH   1   2
ATOM      2  C   UNL     1      66.630  51.291  18.162  1.00  0.00    -0.003 C 
ATOM      3  C   UNL     1      65.906  52.073  19.254  1.00  0.00     0.004 C 
ENDBRANCH   1   2
BRANCH   1   4
ATOM      4  C   UNL     1      68.204  53.209  18.642  1.00  0.00     0.050 C 
BRANCH   4   5
ATOM      5  C   UNL     1      69.427  52.996  19.544  1.00  0.00     0.204 C 
ATOM      6  C   UNL     1      69.168  53.474  20.954  1.00  0.00    -0.015 C 
ATOM      7  O   UNL     1      69.684  51.599  19.721  1.00  0.00    -0.454 OA
ATOM      8  C   UNL     1      69.237  52.469  21.810  1.00  0.00     0.062 C 
ATOM      9  C   UNL     1      68.718  54.843  21.385  1.00  0.00     0.040 C 
ATOM     10  C   UNL     1      69.564  51.281  21.063  1.00  0.00     0.338 C 
ATOM     11  C   UNL     1      68.966  52.625  23.244  1.00  0.00     0.011 C 
ATOM     12  C   UNL     1      69.036  55.085  22.879  1.00  0.00     0.032 C 
ATOM     13  O   UNL     1      69.716  50.126  21.536  1.00  0.00    -0.246 OA
ATOM     14  C   UNL     1      68.796  53.859  23.739  1.00  0.00    -0.026 C 
ENDBRANCH   4   5
ENDBRANCH   1   4
TORSDOF 3
ENDMDL
MODEL 5
REMARK VINA RESULT:    -4.704      2.472      5.499
REMARK INTER + INTRA:          -5.818
REMARK INTER:                  -5.576
REMARK INTRA:                  -0.242
REMARK UNBOUND:                -0.289
REMARK SMILES CCCC[C@@H]1OC(=O)C2=C1CCC=C2
REMARK SMILES IDX 3 1 2 2 1 3 4 4 5 5 10 6 6 7 9 8 11 9 7 10 14 11 12 12 8 13
REMARK SMILES IDX 13 14
REMARK H PARENT
REMARK Flexibility Score: inf
ROOT
ATOM      1  C   UNL     1      69.697  50.868  22.675  1.00  0.00     0.004 C 
ENDROOT
BRANCH   1   2
ATOM      2  C   UNL     1      69.591  49.408  23.132  1.00  0.00    -0.003 C 
ATOM      3  C   UNL     1      68.624  48.623  22.250  1.00  0.00     0.004 C 
ENDBRANCH   1   2
BRANCH   1   4
ATOM      4  C   UNL     1      69.715  50.964  21.144  1.00  0.00     0.050 C 
BRANCH   4   5
ATOM      5  C   UNL     1      68.864  52.141  20.649  1.00  0.00     0.204 C 
ATOM      6  C   UNL     1      69.467  52.786  19.424  1.00  0.00    -0.015 C 
ATOM      7  O   UNL     1      67.594  51.678  20.175  1.00  0.00    -0.454 OA
ATOM      8  C   UNL     1      68.656  52.673  18.385  1.00  0.00     0.062 C 
ATOM      9  C   UNL     1      70.856  53.344  19.277  1.00  0.00     0.040 C 
ATOM     10  C   UNL     1      67.472  51.985  18.831  1.00  0.00     0.338 C 
ATOM     11  C   UNL     1      69.009  53.152  17.044  1.00  0.00     0.011 C 
ATOM     12  C   UNL     1      70.933  54.333  18.090  1.00  0.00     0.032 C 
ATOM     13  O   UNL     1      66.473  51.694  18.124  1.00  0.00    -0.246 OA
ATOM     14  C   UNL     1      70.126  53.875  16.890  1.00  0.00    -0.026 C 
ENDBRANCH   4   5
ENDBRANCH   1   4
TORSDOF 3
ENDMDL
MODEL 6
REMARK VINA RESULT:    -4.669      2.227      3.542
REMARK INTER + INTRA:          -5.776
REMARK INTER:                  -5.259
REMARK INTRA:                  -0.517
REMARK UNBOUND:                -0.289
REMARK SMILES CCCC[C@@H]1OC(=O)C2=C1CCC=C2
REMARK SMILES IDX 3 1 2 2 1 3 4 4 5 5 10 6 6 7 9 8 11 9 7 10 14 11 12 12 8 13
REMARK SMILES IDX 13 14
REMARK H PARENT
REMARK Flexibility Score: inf
ROOT
ATOM      1  C   UNL     1      68.880  53.150  17.176  1.00  0.00     0.004 C 
ENDROOT
BRANCH   1   2
ATOM      2  C   UNL     1      70.262  53.804  17.059  1.00  0.00    -0.003 C 
ATOM      3  C   UNL     1      71.276  53.116  17.968  1.00  0.00     0.004 C 
ENDBRANCH   1   2
BRANCH   1   4
ATOM      4  C   UNL     1      68.919  51.952  18.133  1.00  0.00     0.050 C 
BRANCH   4   5
ATOM      5  C   UNL     1      67.968  52.157  19.320  1.00  0.00     0.204 C 
ATOM      6  C   UNL     1      68.684  51.992  20.640  1.00  0.00    -0.015 C 
ATOM      7  O   UNL     1      67.512  53.513  19.371  1.00  0.00    -0.454 OA
ATOM      8  C   UNL     1      68.663  53.119  21.331  1.00  0.00     0.062 C 
ATOM      9  C   UNL     1      69.483  50.803  21.102  1.00  0.00     0.040 C 
ATOM     10  C   UNL     1      67.930  54.089  20.559  1.00  0.00     0.338 C 
ATOM     11  C   UNL     1      69.337  53.272  22.625  1.00  0.00     0.011 C 
ATOM     12  C   UNL     1      69.633  50.802  22.642  1.00  0.00     0.032 C 
ATOM     13  O   UNL     1      67.698  55.280  20.891  1.00  0.00    -0.246 OA
ATOM     14  C   UNL     1      69.863  52.188  23.212  1.00  0.00    -0.026 C 
ENDBRANCH   4   5
ENDBRANCH   1   4
TORSDOF 3
ENDMDL
MODEL 7
REMARK VINA RESULT:    -4.614      2.509      4.065
REMARK INTER + INTRA:          -5.712
REMARK INTER:                  -5.241
REMARK INTRA:                  -0.471
REMARK UNBOUND:                -0.289
REMARK SMILES CCCC[C@@H]1OC(=O)C2=C1CCC=C2
REMARK SMILES IDX 3 1 2 2 1 3 4 4 5 5 10 6 6 7 9 8 11 9 7 10 14 11 12 12 8 13
REMARK SMILES IDX 13 14
REMARK H PARENT
REMARK Flexibility Score: inf
ROOT
ATOM      1  C   UNL     1      68.322  51.993  17.884  1.00  0.00     0.004 C 
ENDROOT
BRANCH   1   2
ATOM      2  C   UNL     1      66.993  52.408  18.527  1.00  0.00    -0.003 C 
ATOM      3  C   UNL     1      66.009  51.242  18.560  1.00  0.00     0.004 C 
ENDBRANCH   1   2
BRANCH   1   4
ATOM      4  C   UNL     1      69.509  52.405  18.764  1.00  0.00     0.050 C 
BRANCH   4   5
ATOM      5  C   UNL     1      69.046  52.813  20.169  1.00  0.00     0.204 C 
ATOM      6  C   UNL     1      69.326  51.730  21.184  1.00  0.00    -0.015 C 
ATOM      7  O   UNL     1      69.822  53.914  20.654  1.00  0.00    -0.454 OA
ATOM      8  C   UNL     1      70.176  52.155  22.103  1.00  0.00     0.062 C 
ATOM      9  C   UNL     1      68.879  50.294  21.132  1.00  0.00     0.040 C 
ATOM     10  C   UNL     1      70.500  53.524  21.796  1.00  0.00     0.338 C 
ATOM     11  C   UNL     1      70.679  51.294  23.180  1.00  0.00     0.011 C 
ATOM     12  C   UNL     1      68.930  49.647  22.536  1.00  0.00     0.032 C 
ATOM     13  O   UNL     1      71.280  54.266  22.448  1.00  0.00    -0.246 OA
ATOM     14  C   UNL     1      70.142  50.078  23.340  1.00  0.00    -0.026 C 
ENDBRANCH   4   5
ENDBRANCH   1   4
TORSDOF 3
ENDMDL
MODEL 8
REMARK VINA RESULT:    -4.563      3.017      3.890
REMARK INTER + INTRA:          -5.652
REMARK INTER:                  -5.156
REMARK INTRA:                  -0.495
REMARK UNBOUND:                -0.289
REMARK SMILES CCCC[C@@H]1OC(=O)C2=C1CCC=C2
REMARK SMILES IDX 3 1 2 2 1 3 4 4 5 5 10 6 6 7 9 8 11 9 7 10 14 11 12 12 8 13
REMARK SMILES IDX 13 14
REMARK H PARENT
REMARK Flexibility Score: inf
ROOT
ATOM      1  C   UNL     1      69.464  52.353  17.685  1.00  0.00     0.004 C 
ENDROOT
BRANCH   1   2
ATOM      2  C   UNL     1      69.746  53.681  16.971  1.00  0.00    -0.003 C 
ATOM      3  C   UNL     1      70.151  54.766  17.965  1.00  0.00     0.004 C 
ENDBRANCH   1   2
BRANCH   1   4
ATOM      4  C   UNL     1      69.871  52.427  19.162  1.00  0.00     0.050 C 
BRANCH   4   5
ATOM      5  C   UNL     1      68.696  52.068  20.082  1.00  0.00     0.204 C 
ATOM      6  C   UNL     1      68.044  53.302  20.659  1.00  0.00    -0.015 C 
ATOM      7  O   UNL     1      67.636  51.466  19.332  1.00  0.00    -0.454 OA
ATOM      8  C   UNL     1      66.788  53.401  20.258  1.00  0.00     0.062 C 
ATOM      9  C   UNL     1      68.706  54.403  21.441  1.00  0.00     0.040 C 
ATOM     10  C   UNL     1      66.505  52.258  19.427  1.00  0.00     0.338 C 
ATOM     11  C   UNL     1      65.926  54.535  20.610  1.00  0.00     0.011 C 
ATOM     12  C   UNL     1      67.665  55.205  22.258  1.00  0.00     0.032 C 
ATOM     13  O   UNL     1      65.410  52.004  18.863  1.00  0.00    -0.246 OA
ATOM     14  C   UNL     1      66.370  55.431  21.501  1.00  0.00    -0.026 C 
ENDBRANCH   4   5
ENDBRANCH   1   4
TORSDOF 3
ENDMDL
MODEL 9
REMARK VINA RESULT:    -4.534      3.046      4.879
REMARK INTER + INTRA:          -5.617
REMARK INTER:                  -5.337
REMARK INTRA:                  -0.280
REMARK UNBOUND:                -0.289
REMARK SMILES CCCC[C@@H]1OC(=O)C2=C1CCC=C2
REMARK SMILES IDX 3 1 2 2 1 3 4 4 5 5 10 6 6 7 9 8 11 9 7 10 14 11 12 12 8 13
REMARK SMILES IDX 13 14
REMARK H PARENT
REMARK Flexibility Score: inf
ROOT
ATOM      1  C   UNL     1      68.206  52.463  18.388  1.00  0.00     0.004 C 
ENDROOT
BRANCH   1   2
ATOM      2  C   UNL     1      66.933  51.701  18.001  1.00  0.00    -0.003 C 
ATOM      3  C   UNL     1      65.896  51.757  19.119  1.00  0.00     0.004 C 
ENDBRANCH   1   2
BRANCH   1   4
ATOM      4  C   UNL     1      68.390  52.486  19.910  1.00  0.00     0.050 C 
BRANCH   4   5
ATOM      5  C   UNL     1      69.381  51.408  20.369  1.00  0.00     0.204 C 
ATOM      6  C   UNL     1      70.381  51.956  21.359  1.00  0.00    -0.015 C 
ATOM      7  O   UNL     1      68.707  50.394  21.122  1.00  0.00    -0.454 OA
ATOM      8  C   UNL     1      70.263  51.353  22.529  1.00  0.00     0.062 C 
ATOM      9  C   UNL     1      71.295  53.137  21.173  1.00  0.00     0.040 C 
ATOM     10  C   UNL     1      69.222  50.365  22.407  1.00  0.00     0.338 C 
ATOM     11  C   UNL     1      71.064  51.726  23.701  1.00  0.00     0.011 C 
ATOM     12  C   UNL     1      72.477  53.084  22.169  1.00  0.00     0.032 C 
ATOM     13  O   UNL     1      68.825  49.590  23.314  1.00  0.00    -0.246 OA
ATOM     14  C   UNL     1      72.065  52.602  23.548  1.00  0.00    -0.026 C 
ENDBRANCH   4   5
ENDBRANCH   1   4
TORSDOF 3
ENDMDL
