MODEL 1
REMARK VINA RESULT:    -4.014      0.000      0.000
REMARK INTER + INTRA:          -5.249
REMARK INTER:                  -4.953
REMARK INTRA:                  -0.296
REMARK UNBOUND:                -0.296
REMARK SMILES C=CCc1ccc(OC)c(OC)c1
REMARK SMILES IDX 7 1 10 2 13 3 4 4 5 5 6 6 8 7 9 8 11 9 12 10 3 11 2 12 1 13
REMARK H PARENT
REMARK Flexibility Score: inf
ROOT
ATOM      1  C   UNL     1      26.339  38.950  19.973  1.00  0.00     0.160 A 
ATOM      2  C   UNL     1      27.282  39.260  18.980  1.00  0.00     0.160 A 
ATOM      3  C   UNL     1      27.913  40.519  18.987  1.00  0.00     0.054 A 
ATOM      4  C   UNL     1      27.612  41.463  19.981  1.00  0.00    -0.040 A 
ATOM      5  C   UNL     1      26.662  41.149  20.962  1.00  0.00     0.008 A 
ATOM      6  C   UNL     1      26.033  39.903  20.961  1.00  0.00     0.051 A 
ENDROOT
BRANCH   1   7
ATOM      7  O   UNL     1      25.727  37.687  19.940  1.00  0.00    -0.493 OA
ATOM      8  C   UNL     1      24.871  37.179  20.959  1.00  0.00     0.278 C 
ENDBRANCH   1   7
BRANCH   2   9
ATOM      9  O   UNL     1      27.564  38.291  18.004  1.00  0.00    -0.493 OA
ATOM     10  C   UNL     1      28.527  38.447  16.966  1.00  0.00     0.278 C 
ENDBRANCH   2   9
BRANCH   4  11
ATOM     11  C   UNL     1      28.270  42.817  19.963  1.00  0.00     0.062 C 
BRANCH  11  12
ATOM     12  C   UNL     1      27.760  43.642  18.814  1.00  0.00    -0.030 C 
ATOM     13  C   UNL     1      26.509  44.110  18.787  1.00  0.00     0.004 C 
ENDBRANCH  11  12
ENDBRANCH   4  11
TORSDOF 4
ENDMDL
MODEL 2
REMARK VINA RESULT:    -3.962      1.955      3.013
REMARK INTER + INTRA:          -5.185
REMARK INTER:                  -4.914
REMARK INTRA:                  -0.270
REMARK UNBOUND:                -0.296
REMARK SMILES C=CCc1ccc(OC)c(OC)c1
REMARK SMILES IDX 7 1 10 2 13 3 4 4 5 5 6 6 8 7 9 8 11 9 12 10 3 11 2 12 1 13
REMARK H PARENT
REMARK Flexibility Score: inf
ROOT
ATOM      1  C   UNL     1      27.304  37.539  21.360  1.00  0.00     0.160 A 
ATOM      2  C   UNL     1      26.097  38.005  20.812  1.00  0.00     0.160 A 
ATOM      3  C   UNL     1      25.941  39.377  20.537  1.00  0.00     0.054 A 
ATOM      4  C   UNL     1      26.982  40.281  20.799  1.00  0.00    -0.040 A 
ATOM      5  C   UNL     1      28.178  39.809  21.354  1.00  0.00     0.008 A 
ATOM      6  C   UNL     1      28.341  38.451  21.631  1.00  0.00     0.051 A 
ENDROOT
BRANCH   1   7
ATOM      7  O   UNL     1      27.431  36.166  21.623  1.00  0.00    -0.493 OA
ATOM      8  C   UNL     1      27.340  35.582  22.920  1.00  0.00     0.278 C 
ENDBRANCH   1   7
BRANCH   2   9
ATOM      9  O   UNL     1      25.079  37.073  20.559  1.00  0.00    -0.493 OA
ATOM     10  C   UNL     1      23.830  37.034  21.244  1.00  0.00     0.278 C 
ENDBRANCH   2   9
BRANCH   4  11
ATOM     11  C   UNL     1      26.794  41.750  20.528  1.00  0.00     0.062 C 
BRANCH  11  12
ATOM     12  C   UNL     1      27.327  42.113  19.170  1.00  0.00    -0.030 C 
ATOM     13  C   UNL     1      27.342  43.377  18.736  1.00  0.00     0.004 C 
ENDBRANCH  11  12
ENDBRANCH   4  11
TORSDOF 4
ENDMDL
MODEL 3
REMARK VINA RESULT:    -3.953      3.598      6.768
REMARK INTER + INTRA:          -5.174
REMARK INTER:                  -4.911
REMARK INTRA:                  -0.263
REMARK UNBOUND:                -0.296
REMARK SMILES C=CCc1ccc(OC)c(OC)c1
REMARK SMILES IDX 7 1 10 2 13 3 4 4 5 5 6 6 8 7 9 8 11 9 12 10 3 11 2 12 1 13
REMARK H PARENT
REMARK Flexibility Score: inf
ROOT
ATOM      1  C   UNL     1      27.540  37.183  20.349  1.00  0.00     0.160 A 
ATOM      2  C   UNL     1      26.443  36.982  21.203  1.00  0.00     0.160 A 
ATOM      3  C   UNL     1      26.601  36.209  22.370  1.00  0.00     0.054 A 
ATOM      4  C   UNL     1      27.845  35.644  22.689  1.00  0.00    -0.040 A 
ATOM      5  C   UNL     1      28.931  35.842  21.826  1.00  0.00     0.008 A 
ATOM      6  C   UNL     1      28.783  36.606  20.668  1.00  0.00     0.051 A 
ENDROOT
BRANCH   1   7
ATOM      7  O   UNL     1      27.352  37.958  19.194  1.00  0.00    -0.493 OA
ATOM      8  C   UNL     1      28.389  38.312  18.284  1.00  0.00     0.278 C 
ENDBRANCH   1   7
BRANCH   2   9
ATOM      9  O   UNL     1      25.214  37.565  20.856  1.00  0.00    -0.493 OA
ATOM     10  C   UNL     1      23.940  37.041  21.220  1.00  0.00     0.278 C 
ENDBRANCH   2   9
BRANCH   4  11
ATOM     11  C   UNL     1      27.996  34.795  23.923  1.00  0.00     0.062 C 
BRANCH  11  12
ATOM     12  C   UNL     1      28.789  33.554  23.622  1.00  0.00    -0.030 C 
ATOM     13  C   UNL     1      28.356  32.341  23.977  1.00  0.00     0.004 C 
ENDBRANCH  11  12
ENDBRANCH   4  11
TORSDOF 4
ENDMDL
MODEL 4
REMARK VINA RESULT:    -3.892      1.325      3.385
REMARK INTER + INTRA:          -5.099
REMARK INTER:                  -4.848
REMARK INTRA:                  -0.250
REMARK UNBOUND:                -0.296
REMARK SMILES C=CCc1ccc(OC)c(OC)c1
REMARK SMILES IDX 7 1 10 2 13 3 4 4 5 5 6 6 8 7 9 8 11 9 12 10 3 11 2 12 1 13
REMARK H PARENT
REMARK Flexibility Score: inf
ROOT
ATOM      1  C   UNL     1      27.225  39.427  18.840  1.00  0.00     0.160 A 
ATOM      2  C   UNL     1      26.458  39.000  19.937  1.00  0.00     0.160 A 
ATOM      3  C   UNL     1      26.076  39.930  20.923  1.00  0.00     0.054 A 
ATOM      4  C   UNL     1      26.448  41.278  20.816  1.00  0.00    -0.040 A 
ATOM      5  C   UNL     1      27.221  41.694  19.724  1.00  0.00     0.008 A 
ATOM      6  C   UNL     1      27.605  40.779  18.742  1.00  0.00     0.051 A 
ENDROOT
BRANCH   1   7
ATOM      7  O   UNL     1      27.591  38.478  17.873  1.00  0.00    -0.493 OA
ATOM      8  C   UNL     1      28.921  38.017  17.658  1.00  0.00     0.278 C 
ENDBRANCH   1   7
BRANCH   2   9
ATOM      9  O   UNL     1      26.099  37.645  20.010  1.00  0.00    -0.493 OA
ATOM     10  C   UNL     1      25.004  37.140  20.768  1.00  0.00     0.278 C 
ENDBRANCH   2   9
BRANCH   4  11
ATOM     11  C   UNL     1      26.059  42.258  21.891  1.00  0.00     0.062 C 
BRANCH  11  12
ATOM     12  C   UNL     1      27.258  42.663  22.702  1.00  0.00    -0.030 C 
ATOM     13  C   UNL     1      27.144  43.065  23.971  1.00  0.00     0.004 C 
ENDBRANCH  11  12
ENDBRANCH   4  11
TORSDOF 4
ENDMDL
MODEL 5
REMARK VINA RESULT:    -3.843     11.944     14.658
REMARK INTER + INTRA:          -5.037
REMARK INTER:                  -4.680
REMARK INTRA:                  -0.357
REMARK UNBOUND:                -0.296
REMARK SMILES C=CCc1ccc(OC)c(OC)c1
REMARK SMILES IDX 7 1 10 2 13 3 4 4 5 5 6 6 8 7 9 8 11 9 12 10 3 11 2 12 1 13
REMARK H PARENT
REMARK Flexibility Score: inf
ROOT
ATOM      1  C   UNL     1      26.746  28.344  29.295  1.00  0.00     0.160 A 
ATOM      2  C   UNL     1      25.997  27.877  28.203  1.00  0.00     0.160 A 
ATOM      3  C   UNL     1      26.558  27.901  26.912  1.00  0.00     0.054 A 
ATOM      4  C   UNL     1      27.861  28.381  26.708  1.00  0.00    -0.040 A 
ATOM      5  C   UNL     1      28.598  28.855  27.802  1.00  0.00     0.008 A 
ATOM      6  C   UNL     1      28.048  28.834  29.084  1.00  0.00     0.051 A 
ENDROOT
BRANCH   1   7
ATOM      7  O   UNL     1      26.160  28.308  30.570  1.00  0.00    -0.493 OA
ATOM      8  C   UNL     1      25.521  29.416  31.195  1.00  0.00     0.278 C 
ENDBRANCH   1   7
BRANCH   2   9
ATOM      9  O   UNL     1      24.699  27.400  28.442  1.00  0.00    -0.493 OA
ATOM     10  C   UNL     1      23.509  28.156  28.238  1.00  0.00     0.278 C 
ENDBRANCH   2   9
BRANCH   4  11
ATOM     11  C   UNL     1      28.441  28.430  25.319  1.00  0.00     0.062 C 
BRANCH  11  12
ATOM     12  C   UNL     1      27.766  29.491  24.497  1.00  0.00    -0.030 C 
ATOM     13  C   UNL     1      28.160  30.767  24.536  1.00  0.00     0.004 C 
ENDBRANCH  11  12
ENDBRANCH   4  11
TORSDOF 4
ENDMDL
MODEL 6
REMARK VINA RESULT:    -3.835     14.825     16.772
REMARK INTER + INTRA:          -5.028
REMARK INTER:                  -4.760
REMARK INTRA:                  -0.268
REMARK UNBOUND:                -0.296
REMARK SMILES C=CCc1ccc(OC)c(OC)c1
REMARK SMILES IDX 7 1 10 2 13 3 4 4 5 5 6 6 8 7 9 8 11 9 12 10 3 11 2 12 1 13
REMARK H PARENT
REMARK Flexibility Score: inf
ROOT
ATOM      1  C   UNL     1      26.828  26.553  29.299  1.00  0.00     0.160 A 
ATOM      2  C   UNL     1      26.514  27.919  29.396  1.00  0.00     0.160 A 
ATOM      3  C   UNL     1      25.231  28.366  29.025  1.00  0.00     0.054 A 
ATOM      4  C   UNL     1      24.263  27.461  28.566  1.00  0.00    -0.040 A 
ATOM      5  C   UNL     1      24.588  26.102  28.462  1.00  0.00     0.008 A 
ATOM      6  C   UNL     1      25.857  25.650  28.828  1.00  0.00     0.051 A 
ENDROOT
BRANCH   1   7
ATOM      7  O   UNL     1      28.113  26.136  29.676  1.00  0.00    -0.493 OA
ATOM      8  C   UNL     1      28.549  24.780  29.693  1.00  0.00     0.278 C 
ENDBRANCH   1   7
BRANCH   2   9
ATOM      9  O   UNL     1      27.504  28.797  29.864  1.00  0.00    -0.493 OA
ATOM     10  C   UNL     1      28.398  29.525  29.027  1.00  0.00     0.278 C 
ENDBRANCH   2   9
BRANCH   4  11
ATOM     11  C   UNL     1      22.904  27.954  28.144  1.00  0.00     0.062 C 
BRANCH  11  12
ATOM     12  C   UNL     1      21.956  26.803  27.952  1.00  0.00    -0.030 C 
ATOM     13  C   UNL     1      20.954  26.569  28.804  1.00  0.00     0.004 C 
ENDBRANCH  11  12
ENDBRANCH   4  11
TORSDOF 4
ENDMDL
MODEL 7
REMARK VINA RESULT:    -3.819      2.267      5.399
REMARK INTER + INTRA:          -5.008
REMARK INTER:                  -4.665
REMARK INTRA:                  -0.343
REMARK UNBOUND:                -0.296
REMARK SMILES C=CCc1ccc(OC)c(OC)c1
REMARK SMILES IDX 7 1 10 2 13 3 4 4 5 5 6 6 8 7 9 8 11 9 12 10 3 11 2 12 1 13
REMARK H PARENT
REMARK Flexibility Score: inf
ROOT
ATOM      1  C   UNL     1      27.252  41.474  19.690  1.00  0.00     0.160 A 
ATOM      2  C   UNL     1      26.450  41.204  20.811  1.00  0.00     0.160 A 
ATOM      3  C   UNL     1      25.976  39.895  21.029  1.00  0.00     0.054 A 
ATOM      4  C   UNL     1      26.304  38.860  20.141  1.00  0.00    -0.040 A 
ATOM      5  C   UNL     1      27.096  39.140  19.020  1.00  0.00     0.008 A 
ATOM      6  C   UNL     1      27.569  40.434  18.796  1.00  0.00     0.051 A 
ENDROOT
BRANCH   1   7
ATOM      7  O   UNL     1      27.709  42.787  19.499  1.00  0.00    -0.493 OA
ATOM      8  C   UNL     1      28.994  43.258  19.891  1.00  0.00     0.278 C 
ENDBRANCH   1   7
BRANCH   2   9
ATOM      9  O   UNL     1      26.145  42.262  21.681  1.00  0.00    -0.493 OA
ATOM     10  C   UNL     1      26.812  42.510  22.915  1.00  0.00     0.278 C 
ENDBRANCH   2   9
BRANCH   4  11
ATOM     11  C   UNL     1      25.769  37.470  20.368  1.00  0.00     0.062 C 
BRANCH  11  12
ATOM     12  C   UNL     1      26.832  36.578  20.946  1.00  0.00    -0.030 C 
ATOM     13  C   UNL     1      27.058  36.516  22.261  1.00  0.00     0.004 C 
ENDBRANCH  11  12
ENDBRANCH   4  11
TORSDOF 4
ENDMDL
MODEL 8
REMARK VINA RESULT:    -3.719      4.753      6.377
REMARK INTER + INTRA:          -4.885
REMARK INTER:                  -4.606
REMARK INTRA:                  -0.279
REMARK UNBOUND:                -0.296
REMARK SMILES C=CCc1ccc(OC)c(OC)c1
REMARK SMILES IDX 7 1 10 2 13 3 4 4 5 5 6 6 8 7 9 8 11 9 12 10 3 11 2 12 1 13
REMARK H PARENT
REMARK Flexibility Score: inf
ROOT
ATOM      1  C   UNL     1      28.458  34.077  23.403  1.00  0.00     0.160 A 
ATOM      2  C   UNL     1      28.426  34.216  22.006  1.00  0.00     0.160 A 
ATOM      3  C   UNL     1      27.845  35.364  21.433  1.00  0.00     0.054 A 
ATOM      4  C   UNL     1      27.303  36.371  22.245  1.00  0.00    -0.040 A 
ATOM      5  C   UNL     1      27.330  36.220  23.638  1.00  0.00     0.008 A 
ATOM      6  C   UNL     1      27.904  35.086  24.213  1.00  0.00     0.051 A 
ENDROOT
BRANCH   1   7
ATOM      7  O   UNL     1      29.044  32.923  23.945  1.00  0.00    -0.493 OA
ATOM      8  C   UNL     1      28.333  31.729  24.258  1.00  0.00     0.278 C 
ENDBRANCH   1   7
BRANCH   2   9
ATOM      9  O   UNL     1      28.981  33.191  21.222  1.00  0.00    -0.493 OA
ATOM     10  C   UNL     1      29.122  33.245  19.806  1.00  0.00     0.278 C 
ENDBRANCH   2   9
BRANCH   4  11
ATOM     11  C   UNL     1      26.658  37.581  21.622  1.00  0.00     0.062 C 
BRANCH  11  12
ATOM     12  C   UNL     1      25.588  37.172  20.649  1.00  0.00    -0.030 C 
ATOM     13  C   UNL     1      24.327  36.964  21.038  1.00  0.00     0.004 C 
ENDBRANCH  11  12
ENDBRANCH   4  11
TORSDOF 4
ENDMDL
MODEL 9
REMARK VINA RESULT:    -3.713      3.004      6.132
REMARK INTER + INTRA:          -4.877
REMARK INTER:                  -4.597
REMARK INTRA:                  -0.279
REMARK UNBOUND:                -0.296
REMARK SMILES C=CCc1ccc(OC)c(OC)c1
REMARK SMILES IDX 7 1 10 2 13 3 4 4 5 5 6 6 8 7 9 8 11 9 12 10 3 11 2 12 1 13
REMARK H PARENT
REMARK Flexibility Score: inf
ROOT
ATOM      1  C   UNL     1      27.922  37.801  19.430  1.00  0.00     0.160 A 
ATOM      2  C   UNL     1      26.951  38.185  20.369  1.00  0.00     0.160 A 
ATOM      3  C   UNL     1      26.773  37.420  21.539  1.00  0.00     0.054 A 
ATOM      4  C   UNL     1      27.560  36.283  21.776  1.00  0.00    -0.040 A 
ATOM      5  C   UNL     1      28.520  35.902  20.828  1.00  0.00     0.008 A 
ATOM      6  C   UNL     1      28.702  36.654  19.667  1.00  0.00     0.051 A 
ENDROOT
BRANCH   1   7
ATOM      7  O   UNL     1      28.076  38.582  18.274  1.00  0.00    -0.493 OA
ATOM      8  C   UNL     1      28.812  38.181  17.122  1.00  0.00     0.278 C 
ENDBRANCH   1   7
BRANCH   2   9
ATOM      9  O   UNL     1      26.184  39.330  20.103  1.00  0.00    -0.493 OA
ATOM     10  C   UNL     1      26.369  40.591  20.739  1.00  0.00     0.278 C 
ENDBRANCH   2   9
BRANCH   4  11
ATOM     11  C   UNL     1      27.342  35.457  23.015  1.00  0.00     0.062 C 
BRANCH  11  12
ATOM     12  C   UNL     1      28.482  34.499  23.224  1.00  0.00    -0.030 C 
ATOM     13  C   UNL     1      28.276  33.228  23.578  1.00  0.00     0.004 C 
ENDBRANCH  11  12
ENDBRANCH   4  11
TORSDOF 4
ENDMDL
