MODEL 1
REMARK VINA RESULT:    -5.440      0.000      0.000
REMARK INTER + INTRA:          -6.538
REMARK INTER:                  -6.235
REMARK INTRA:                  -0.303
REMARK UNBOUND:                -0.303
REMARK SMILES O=C1C[C@@H](c2ccc(O)cc2)Oc2cc(O)cc(O)c21
REMARK SMILES IDX 3 1 4 2 12 3 13 4 14 5 15 6 17 7 18 8 20 9 2 10 1 11 5 12
REMARK SMILES IDX 6 13 11 14 7 15 10 16 8 17 9 18 19 20 16 22
REMARK H PARENT 9 19 19 21 16 23
REMARK Flexibility Score: inf
ROOT
ATOM      1  C   UNL     1      -5.109  24.445  -9.615  1.00  0.00     0.131 C 
ATOM      2  C   UNL     1      -6.052  23.309 -10.039  1.00  0.00     0.211 C 
ATOM      3  O   UNL     1      -7.371  23.536  -9.533  1.00  0.00    -0.484 OA
ATOM      4  C   UNL     1      -7.957  24.808  -9.495  1.00  0.00     0.138 A 
ATOM      5  C   UNL     1      -9.330  24.913  -9.253  1.00  0.00     0.093 A 
ATOM      6  C   UNL     1      -9.946  26.167  -9.224  1.00  0.00     0.123 A 
ATOM      7  C   UNL     1      -9.181  27.321  -9.408  1.00  0.00     0.093 A 
ATOM      8  C   UNL     1      -7.798  27.241  -9.612  1.00  0.00     0.133 A 
ATOM      9  C   UNL     1      -7.176  25.967  -9.691  1.00  0.00     0.102 A 
ATOM     10  C   UNL     1      -5.734  25.761  -9.972  1.00  0.00     0.174 C 
ATOM     11  O   UNL     1      -5.038  26.638 -10.549  1.00  0.00    -0.294 OA
ENDROOT
BRANCH   2  12
ATOM     12  C   UNL     1      -5.533  21.977  -9.556  1.00  0.00    -0.007 A 
ATOM     13  C   UNL     1      -4.295  21.897  -8.897  1.00  0.00     0.011 A 
ATOM     14  C   UNL     1      -6.305  20.811  -9.708  1.00  0.00     0.011 A 
ATOM     15  C   UNL     1      -3.826  20.669  -8.421  1.00  0.00     0.046 A 
ATOM     16  C   UNL     1      -5.833  19.585  -9.232  1.00  0.00     0.046 A 
ATOM     17  C   UNL     1      -4.592  19.510  -8.588  1.00  0.00     0.115 A 
BRANCH  17  18
ATOM     18  O   UNL     1      -4.111  18.293  -8.109  1.00  0.00    -0.508 OA
ATOM     19  H   UNL     1      -4.692  17.464  -8.094  1.00  0.00     0.293 HD
ENDBRANCH  17  18
ENDBRANCH   2  12
BRANCH   8  20
ATOM     20  O   UNL     1      -7.091  28.442  -9.694  1.00  0.00    -0.507 OA
ATOM     21  H   UNL     1      -6.764  28.961  -8.891  1.00  0.00     0.293 HD
ENDBRANCH   8  20
BRANCH   6  22
ATOM     22  O   UNL     1     -11.317  26.280  -9.005  1.00  0.00    -0.508 OA
ATOM     23  H   UNL     1     -11.761  27.184  -8.887  1.00  0.00     0.293 HD
ENDBRANCH   6  22
TORSDOF 4
ENDMDL
MODEL 2
REMARK VINA RESULT:    -5.400      3.499      4.429
REMARK INTER + INTRA:          -6.492
REMARK INTER:                  -6.198
REMARK INTRA:                  -0.294
REMARK UNBOUND:                -0.303
REMARK SMILES O=C1C[C@@H](c2ccc(O)cc2)Oc2cc(O)cc(O)c21
REMARK SMILES IDX 3 1 4 2 12 3 13 4 14 5 15 6 17 7 18 8 20 9 2 10 1 11 5 12
REMARK SMILES IDX 6 13 11 14 7 15 10 16 8 17 9 18 19 20 16 22
REMARK H PARENT 9 19 19 21 16 23
REMARK Flexibility Score: inf
ROOT
ATOM      1  C   UNL     1      -5.055  22.340  -9.472  1.00  0.00     0.131 C 
ATOM      2  C   UNL     1      -4.969  21.408  -8.254  1.00  0.00     0.211 C 
ATOM      3  O   UNL     1      -6.139  21.537  -7.440  1.00  0.00    -0.484 OA
ATOM      4  C   UNL     1      -7.423  21.688  -7.980  1.00  0.00     0.138 A 
ATOM      5  C   UNL     1      -8.532  21.527  -7.145  1.00  0.00     0.093 A 
ATOM      6  C   UNL     1      -9.825  21.656  -7.658  1.00  0.00     0.123 A 
ATOM      7  C   UNL     1     -10.009  21.975  -9.005  1.00  0.00     0.093 A 
ATOM      8  C   UNL     1      -8.912  22.180  -9.851  1.00  0.00     0.133 A 
ATOM      9  C   UNL     1      -7.597  22.002  -9.345  1.00  0.00     0.102 A 
ATOM     10  C   UNL     1      -6.367  22.123 -10.165  1.00  0.00     0.174 C 
ATOM     11  O   UNL     1      -6.389  21.994 -11.418  1.00  0.00    -0.294 OA
ENDROOT
BRANCH   2  12
ATOM     12  C   UNL     1      -3.735  21.707  -7.439  1.00  0.00    -0.007 A 
ATOM     13  C   UNL     1      -2.939  22.824  -7.745  1.00  0.00     0.011 A 
ATOM     14  C   UNL     1      -3.398  20.908  -6.332  1.00  0.00     0.011 A 
ATOM     15  C   UNL     1      -1.812  23.121  -6.973  1.00  0.00     0.046 A 
ATOM     16  C   UNL     1      -2.270  21.208  -5.562  1.00  0.00     0.046 A 
ATOM     17  C   UNL     1      -1.474  22.314  -5.881  1.00  0.00     0.115 A 
BRANCH  17  18
ATOM     18  O   UNL     1      -0.347  22.622  -5.121  1.00  0.00    -0.508 OA
ATOM     19  H   UNL     1      -0.044  23.579  -4.989  1.00  0.00     0.293 HD
ENDBRANCH  17  18
ENDBRANCH   2  12
BRANCH   8  20
ATOM     20  O   UNL     1      -9.178  22.587 -11.160  1.00  0.00    -0.507 OA
ATOM     21  H   UNL     1     -10.089  22.878 -11.487  1.00  0.00     0.293 HD
ENDBRANCH   8  20
BRANCH   6  22
ATOM     22  O   UNL     1     -10.936  21.478  -6.837  1.00  0.00    -0.508 OA
ATOM     23  H   UNL     1     -10.856  21.042  -5.925  1.00  0.00     0.293 HD
ENDBRANCH   6  22
TORSDOF 4
ENDMDL
MODEL 3
REMARK VINA RESULT:    -5.333      1.946      7.117
REMARK INTER + INTRA:          -6.415
REMARK INTER:                  -6.127
REMARK INTRA:                  -0.288
REMARK UNBOUND:                -0.303
REMARK SMILES O=C1C[C@@H](c2ccc(O)cc2)Oc2cc(O)cc(O)c21
REMARK SMILES IDX 3 1 4 2 12 3 13 4 14 5 15 6 17 7 18 8 20 9 2 10 1 11 5 12
REMARK SMILES IDX 6 13 11 14 7 15 10 16 8 17 9 18 19 20 16 22
REMARK H PARENT 9 19 19 21 16 23
REMARK Flexibility Score: inf
ROOT
ATOM      1  C   UNL     1      -7.508  21.345  -9.205  1.00  0.00     0.131 C 
ATOM      2  C   UNL     1      -6.957  22.771  -9.344  1.00  0.00     0.211 C 
ATOM      3  O   UNL     1      -6.017  23.051  -8.302  1.00  0.00    -0.484 OA
ATOM      4  C   UNL     1      -5.093  22.102  -7.844  1.00  0.00     0.138 A 
ATOM      5  C   UNL     1      -4.036  22.524  -7.033  1.00  0.00     0.093 A 
ATOM      6  C   UNL     1      -3.090  21.604  -6.573  1.00  0.00     0.123 A 
ATOM      7  C   UNL     1      -3.219  20.253  -6.902  1.00  0.00     0.093 A 
ATOM      8  C   UNL     1      -4.293  19.802  -7.680  1.00  0.00     0.133 A 
ATOM      9  C   UNL     1      -5.228  20.741  -8.189  1.00  0.00     0.102 A 
ATOM     10  C   UNL     1      -6.362  20.386  -9.079  1.00  0.00     0.174 C 
ATOM     11  O   UNL     1      -6.360  19.332  -9.768  1.00  0.00    -0.294 OA
ENDROOT
BRANCH   2  12
ATOM     12  C   UNL     1      -8.078  23.781  -9.314  1.00  0.00    -0.007 A 
ATOM     13  C   UNL     1      -9.148  23.623  -8.418  1.00  0.00     0.011 A 
ATOM     14  C   UNL     1      -8.039  24.918 -10.141  1.00  0.00     0.011 A 
ATOM     15  C   UNL     1     -10.174  24.574  -8.367  1.00  0.00     0.046 A 
ATOM     16  C   UNL     1      -9.065  25.866 -10.088  1.00  0.00     0.046 A 
ATOM     17  C   UNL     1     -10.136  25.695  -9.201  1.00  0.00     0.115 A 
BRANCH  17  18
ATOM     18  O   UNL     1     -11.165  26.633  -9.140  1.00  0.00    -0.508 OA
ATOM     19  H   UNL     1     -11.529  27.074  -9.976  1.00  0.00     0.293 HD
ENDBRANCH  17  18
ENDBRANCH   2  12
BRANCH   8  20
ATOM     20  O   UNL     1      -4.402  18.425  -7.885  1.00  0.00    -0.507 OA
ATOM     21  H   UNL     1      -4.283  17.735  -7.158  1.00  0.00     0.293 HD
ENDBRANCH   8  20
BRANCH   6  22
ATOM     22  O   UNL     1      -2.021  22.019  -5.782  1.00  0.00    -0.508 OA
ATOM     23  H   UNL     1      -1.719  21.483  -4.976  1.00  0.00     0.293 HD
ENDBRANCH   6  22
TORSDOF 4
ENDMDL
MODEL 4
REMARK VINA RESULT:    -5.124      1.752      3.121
REMARK INTER + INTRA:          -6.176
REMARK INTER:                  -5.873
REMARK INTRA:                  -0.303
REMARK UNBOUND:                -0.303
REMARK SMILES O=C1C[C@@H](c2ccc(O)cc2)Oc2cc(O)cc(O)c21
REMARK SMILES IDX 3 1 4 2 12 3 13 4 14 5 15 6 17 7 18 8 20 9 2 10 1 11 5 12
REMARK SMILES IDX 6 13 11 14 7 15 10 16 8 17 9 18 19 20 16 22
REMARK H PARENT 9 19 19 21 16 23
REMARK Flexibility Score: inf
ROOT
ATOM      1  C   UNL     1      -7.315  23.365 -10.294  1.00  0.00     0.131 C 
ATOM      2  C   UNL     1      -6.317  23.417  -9.127  1.00  0.00     0.211 C 
ATOM      3  O   UNL     1      -5.285  24.372  -9.390  1.00  0.00    -0.484 OA
ATOM      4  C   UNL     1      -5.536  25.604 -10.009  1.00  0.00     0.138 A 
ATOM      5  C   UNL     1      -4.545  26.590  -9.980  1.00  0.00     0.093 A 
ATOM      6  C   UNL     1      -4.771  27.834 -10.575  1.00  0.00     0.123 A 
ATOM      7  C   UNL     1      -5.982  28.082 -11.226  1.00  0.00     0.093 A 
ATOM      8  C   UNL     1      -6.973  27.095 -11.301  1.00  0.00     0.133 A 
ATOM      9  C   UNL     1      -6.766  25.847 -10.656  1.00  0.00     0.102 A 
ATOM     10  C   UNL     1      -7.772  24.757 -10.611  1.00  0.00     0.174 C 
ATOM     11  O   UNL     1      -9.000  24.981 -10.777  1.00  0.00    -0.294 OA
ENDROOT
BRANCH   2  12
ATOM     12  C   UNL     1      -5.713  22.056  -8.882  1.00  0.00    -0.007 A 
ATOM     13  C   UNL     1      -4.615  21.916  -8.017  1.00  0.00     0.011 A 
ATOM     14  C   UNL     1      -6.273  20.908  -9.469  1.00  0.00     0.011 A 
ATOM     15  C   UNL     1      -4.071  20.652  -7.764  1.00  0.00     0.046 A 
ATOM     16  C   UNL     1      -5.728  19.646  -9.214  1.00  0.00     0.046 A 
ATOM     17  C   UNL     1      -4.624  19.515  -8.362  1.00  0.00     0.115 A 
BRANCH  17  18
ATOM     18  O   UNL     1      -4.072  18.263  -8.101  1.00  0.00    -0.508 OA
ATOM     19  H   UNL     1      -3.070  18.116  -8.104  1.00  0.00     0.293 HD
ENDBRANCH  17  18
ENDBRANCH   2  12
BRANCH   8  20
ATOM     20  O   UNL     1      -8.115  27.389 -12.048  1.00  0.00    -0.507 OA
ATOM     21  H   UNL     1      -8.256  27.094 -13.004  1.00  0.00     0.293 HD
ENDBRANCH   8  20
BRANCH   6  22
ATOM     22  O   UNL     1      -3.797  28.829 -10.533  1.00  0.00    -0.508 OA
ATOM     23  H   UNL     1      -3.778  29.579 -11.215  1.00  0.00     0.293 HD
ENDBRANCH   6  22
TORSDOF 4
ENDMDL
MODEL 5
REMARK VINA RESULT:    -5.062      1.487      2.806
REMARK INTER + INTRA:          -6.105
REMARK INTER:                  -5.819
REMARK INTRA:                  -0.286
REMARK UNBOUND:                -0.303
REMARK SMILES O=C1C[C@@H](c2ccc(O)cc2)Oc2cc(O)cc(O)c21
REMARK SMILES IDX 3 1 4 2 12 3 13 4 14 5 15 6 17 7 18 8 20 9 2 10 1 11 5 12
REMARK SMILES IDX 6 13 11 14 7 15 10 16 8 17 9 18 19 20 16 22
REMARK H PARENT 9 19 19 21 16 23
REMARK Flexibility Score: inf
ROOT
ATOM      1  C   UNL     1      -8.571  23.185  -8.059  1.00  0.00     0.131 C 
ATOM      2  C   UNL     1      -7.084  23.448  -8.339  1.00  0.00     0.211 C 
ATOM      3  O   UNL     1      -6.927  24.234  -9.524  1.00  0.00    -0.484 OA
ATOM      4  C   UNL     1      -7.786  25.293  -9.848  1.00  0.00     0.138 A 
ATOM      5  C   UNL     1      -7.412  26.182 -10.859  1.00  0.00     0.093 A 
ATOM      6  C   UNL     1      -8.240  27.257 -11.194  1.00  0.00     0.123 A 
ATOM      7  C   UNL     1      -9.459  27.425 -10.534  1.00  0.00     0.093 A 
ATOM      8  C   UNL     1      -9.872  26.523  -9.546  1.00  0.00     0.133 A 
ATOM      9  C   UNL     1      -9.011  25.459  -9.169  1.00  0.00     0.102 A 
ATOM     10  C   UNL     1      -9.314  24.487  -8.088  1.00  0.00     0.174 C 
ATOM     11  O   UNL     1     -10.134  24.751  -7.170  1.00  0.00    -0.294 OA
ENDROOT
BRANCH   2  12
ATOM     12  C   UNL     1      -6.329  22.148  -8.475  1.00  0.00    -0.007 A 
ATOM     13  C   UNL     1      -5.161  21.927  -7.727  1.00  0.00     0.011 A 
ATOM     14  C   UNL     1      -6.814  21.124  -9.308  1.00  0.00     0.011 A 
ATOM     15  C   UNL     1      -4.476  20.712  -7.829  1.00  0.00     0.046 A 
ATOM     16  C   UNL     1      -6.127  19.911  -9.408  1.00  0.00     0.046 A 
ATOM     17  C   UNL     1      -4.955  19.702  -8.670  1.00  0.00     0.115 A 
BRANCH  17  18
ATOM     18  O   UNL     1      -4.262  18.497  -8.761  1.00  0.00    -0.508 OA
ATOM     19  H   UNL     1      -3.277  18.470  -8.996  1.00  0.00     0.293 HD
ENDBRANCH  17  18
ENDBRANCH   2  12
BRANCH   8  20
ATOM     20  O   UNL     1     -11.144  26.707  -9.001  1.00  0.00    -0.507 OA
ATOM     21  H   UNL     1     -11.498  26.195  -8.205  1.00  0.00     0.293 HD
ENDBRANCH   8  20
BRANCH   6  22
ATOM     22  O   UNL     1      -7.866  28.160 -12.186  1.00  0.00    -0.508 OA
ATOM     23  H   UNL     1      -7.758  29.149 -11.989  1.00  0.00     0.293 HD
ENDBRANCH   6  22
TORSDOF 4
ENDMDL
MODEL 6
REMARK VINA RESULT:    -4.967      3.723      4.981
REMARK INTER + INTRA:          -5.996
REMARK INTER:                  -5.702
REMARK INTRA:                  -0.294
REMARK UNBOUND:                -0.303
REMARK SMILES O=C1C[C@@H](c2ccc(O)cc2)Oc2cc(O)cc(O)c21
REMARK SMILES IDX 3 1 4 2 12 3 13 4 14 5 15 6 17 7 18 8 20 9 2 10 1 11 5 12
REMARK SMILES IDX 6 13 11 14 7 15 10 16 8 17 9 18 19 20 16 22
REMARK H PARENT 9 19 19 21 16 23
REMARK Flexibility Score: inf
ROOT
ATOM      1  C   UNL     1      -6.771  21.484  -5.721  1.00  0.00     0.131 C 
ATOM      2  C   UNL     1      -5.897  22.486  -6.490  1.00  0.00     0.211 C 
ATOM      3  O   UNL     1      -6.206  22.455  -7.887  1.00  0.00    -0.484 OA
ATOM      4  C   UNL     1      -7.516  22.323  -8.368  1.00  0.00     0.138 A 
ATOM      5  C   UNL     1      -7.770  22.579  -9.718  1.00  0.00     0.093 A 
ATOM      6  C   UNL     1      -9.069  22.471 -10.223  1.00  0.00     0.123 A 
ATOM      7  C   UNL     1     -10.111  22.077  -9.381  1.00  0.00     0.093 A 
ATOM      8  C   UNL     1      -9.872  21.776  -8.034  1.00  0.00     0.133 A 
ATOM      9  C   UNL     1      -8.563  21.932  -7.506  1.00  0.00     0.102 A 
ATOM     10  C   UNL     1      -8.209  21.711  -6.082  1.00  0.00     0.174 C 
ATOM     11  O   UNL     1      -9.073  21.762  -5.167  1.00  0.00    -0.294 OA
ENDROOT
BRANCH   2  12
ATOM     12  C   UNL     1      -4.433  22.188  -6.278  1.00  0.00    -0.007 A 
ATOM     13  C   UNL     1      -3.453  23.014  -6.854  1.00  0.00     0.011 A 
ATOM     14  C   UNL     1      -4.032  21.117  -5.459  1.00  0.00     0.011 A 
ATOM     15  C   UNL     1      -2.095  22.758  -6.634  1.00  0.00     0.046 A 
ATOM     16  C   UNL     1      -2.674  20.864  -5.242  1.00  0.00     0.046 A 
ATOM     17  C   UNL     1      -1.702  21.683  -5.830  1.00  0.00     0.115 A 
BRANCH  17  18
ATOM     18  O   UNL     1      -0.346  21.440  -5.621  1.00  0.00    -0.508 OA
ATOM     19  H   UNL     1       0.220  22.057  -5.051  1.00  0.00     0.293 HD
ENDBRANCH  17  18
ENDBRANCH   2  12
BRANCH   8  20
ATOM     20  O   UNL     1     -10.947  21.299  -7.283  1.00  0.00    -0.507 OA
ATOM     21  H   UNL     1     -10.945  20.418  -6.790  1.00  0.00     0.293 HD
ENDBRANCH   8  20
BRANCH   6  22
ATOM     22  O   UNL     1      -9.335  22.745 -11.563  1.00  0.00    -0.508 OA
ATOM     23  H   UNL     1      -8.734  22.400 -12.303  1.00  0.00     0.293 HD
ENDBRANCH   6  22
TORSDOF 4
ENDMDL
MODEL 7
REMARK VINA RESULT:    -4.956      2.830      5.865
REMARK INTER + INTRA:          -5.983
REMARK INTER:                  -5.668
REMARK INTRA:                  -0.315
REMARK UNBOUND:                -0.303
REMARK SMILES O=C1C[C@@H](c2ccc(O)cc2)Oc2cc(O)cc(O)c21
REMARK SMILES IDX 3 1 4 2 12 3 13 4 14 5 15 6 17 7 18 8 20 9 2 10 1 11 5 12
REMARK SMILES IDX 6 13 11 14 7 15 10 16 8 17 9 18 19 20 16 22
REMARK H PARENT 9 19 19 21 16 23
REMARK Flexibility Score: inf
ROOT
ATOM      1  C   UNL     1      -5.401  24.562  -8.661  1.00  0.00     0.131 C 
ATOM      2  C   UNL     1      -6.352  25.513  -9.404  1.00  0.00     0.211 C 
ATOM      3  O   UNL     1      -7.281  24.773 -10.202  1.00  0.00    -0.484 OA
ATOM      4  C   UNL     1      -7.863  23.574  -9.767  1.00  0.00     0.138 A 
ATOM      5  C   UNL     1      -8.957  23.060 -10.469  1.00  0.00     0.093 A 
ATOM      6  C   UNL     1      -9.569  21.876 -10.050  1.00  0.00     0.123 A 
ATOM      7  C   UNL     1      -9.066  21.188  -8.943  1.00  0.00     0.093 A 
ATOM      8  C   UNL     1      -7.946  21.664  -8.250  1.00  0.00     0.133 A 
ATOM      9  C   UNL     1      -7.352  22.892  -8.642  1.00  0.00     0.102 A 
ATOM     10  C   UNL     1      -6.209  23.525  -7.939  1.00  0.00     0.174 C 
ATOM     11  O   UNL     1      -5.935  23.255  -6.740  1.00  0.00    -0.294 OA
ENDROOT
BRANCH   2  12
ATOM     12  C   UNL     1      -5.576  26.474 -10.271  1.00  0.00    -0.007 A 
ATOM     13  C   UNL     1      -4.241  26.785  -9.962  1.00  0.00     0.011 A 
ATOM     14  C   UNL     1      -6.158  27.025 -11.426  1.00  0.00     0.011 A 
ATOM     15  C   UNL     1      -3.510  27.651 -10.781  1.00  0.00     0.046 A 
ATOM     16  C   UNL     1      -5.425  27.891 -12.242  1.00  0.00     0.046 A 
ATOM     17  C   UNL     1      -4.099  28.208 -11.921  1.00  0.00     0.115 A 
BRANCH  17  18
ATOM     18  O   UNL     1      -3.358  29.070 -12.727  1.00  0.00    -0.508 OA
ATOM     19  H   UNL     1      -3.099  28.818 -13.672  1.00  0.00     0.293 HD
ENDBRANCH  17  18
ENDBRANCH   2  12
BRANCH   8  20
ATOM     20  O   UNL     1      -7.448  20.871  -7.214  1.00  0.00    -0.507 OA
ATOM     21  H   UNL     1      -7.824  20.863  -6.277  1.00  0.00     0.293 HD
ENDBRANCH   8  20
BRANCH   6  22
ATOM     22  O   UNL     1     -10.673  21.367 -10.731  1.00  0.00    -0.508 OA
ATOM     23  H   UNL     1     -10.870  21.630 -11.690  1.00  0.00     0.293 HD
ENDBRANCH   6  22
TORSDOF 4
ENDMDL
MODEL 8
REMARK VINA RESULT:    -4.956      3.387      4.935
REMARK INTER + INTRA:          -5.983
REMARK INTER:                  -5.671
REMARK INTRA:                  -0.311
REMARK UNBOUND:                -0.303
REMARK SMILES O=C1C[C@@H](c2ccc(O)cc2)Oc2cc(O)cc(O)c21
REMARK SMILES IDX 3 1 4 2 12 3 13 4 14 5 15 6 17 7 18 8 20 9 2 10 1 11 5 12
REMARK SMILES IDX 6 13 11 14 7 15 10 16 8 17 9 18 19 20 16 22
REMARK H PARENT 9 19 19 21 16 23
REMARK Flexibility Score: inf
ROOT
ATOM      1  C   UNL     1      -5.077  21.965  -7.307  1.00  0.00     0.131 C 
ATOM      2  C   UNL     1      -4.735  23.180  -8.181  1.00  0.00     0.211 C 
ATOM      3  O   UNL     1      -5.436  23.117  -9.426  1.00  0.00    -0.484 OA
ATOM      4  C   UNL     1      -6.761  22.672  -9.526  1.00  0.00     0.138 A 
ATOM      5  C   UNL     1      -7.464  22.900 -10.712  1.00  0.00     0.093 A 
ATOM      6  C   UNL     1      -8.792  22.482 -10.835  1.00  0.00     0.123 A 
ATOM      7  C   UNL     1      -9.409  21.808  -9.779  1.00  0.00     0.093 A 
ATOM      8  C   UNL     1      -8.711  21.535  -8.596  1.00  0.00     0.133 A 
ATOM      9  C   UNL     1      -7.377  22.001  -8.448  1.00  0.00     0.102 A 
ATOM     10  C   UNL     1      -6.568  21.830  -7.216  1.00  0.00     0.174 C 
ATOM     11  O   UNL     1      -7.102  21.630  -6.094  1.00  0.00    -0.294 OA
ENDROOT
BRANCH   2  12
ATOM     12  C   UNL     1      -3.248  23.257  -8.428  1.00  0.00    -0.007 A 
ATOM     13  C   UNL     1      -2.744  23.186  -9.737  1.00  0.00     0.011 A 
ATOM     14  C   UNL     1      -2.355  23.457  -7.359  1.00  0.00     0.011 A 
ATOM     15  C   UNL     1      -1.369  23.288  -9.971  1.00  0.00     0.046 A 
ATOM     16  C   UNL     1      -0.981  23.558  -7.597  1.00  0.00     0.046 A 
ATOM     17  C   UNL     1      -0.484  23.472  -8.904  1.00  0.00     0.115 A 
BRANCH  17  18
ATOM     18  O   UNL     1       0.883  23.571  -9.152  1.00  0.00    -0.508 OA
ATOM     19  H   UNL     1       1.349  22.949  -9.801  1.00  0.00     0.293 HD
ENDBRANCH  17  18
ENDBRANCH   2  12
BRANCH   8  20
ATOM     20  O   UNL     1      -9.367  20.776  -7.625  1.00  0.00    -0.507 OA
ATOM     21  H   UNL     1      -8.940  20.011  -7.123  1.00  0.00     0.293 HD
ENDBRANCH   8  20
BRANCH   6  22
ATOM     22  O   UNL     1      -9.507  22.723 -12.006  1.00  0.00    -0.508 OA
ATOM     23  H   UNL     1     -10.161  23.494 -12.078  1.00  0.00     0.293 HD
ENDBRANCH   6  22
TORSDOF 4
ENDMDL
MODEL 9
REMARK VINA RESULT:    -4.871      1.963      6.724
REMARK INTER + INTRA:          -5.886
REMARK INTER:                  -5.582
REMARK INTRA:                  -0.303
REMARK UNBOUND:                -0.303
REMARK SMILES O=C1C[C@@H](c2ccc(O)cc2)Oc2cc(O)cc(O)c21
REMARK SMILES IDX 3 1 4 2 12 3 13 4 14 5 15 6 17 7 18 8 20 9 2 10 1 11 5 12
REMARK SMILES IDX 6 13 11 14 7 15 10 16 8 17 9 18 19 20 16 22
REMARK H PARENT 9 19 19 21 16 23
REMARK Flexibility Score: inf
ROOT
ATOM      1  C   UNL     1      -5.050  24.869  -8.929  1.00  0.00     0.131 C 
ATOM      2  C   UNL     1      -6.568  24.698  -9.086  1.00  0.00     0.211 C 
ATOM      3  O   UNL     1      -6.872  23.432  -9.679  1.00  0.00    -0.484 OA
ATOM      4  C   UNL     1      -6.176  22.259  -9.358  1.00  0.00     0.138 A 
ATOM      5  C   UNL     1      -6.702  21.028  -9.758  1.00  0.00     0.093 A 
ATOM      6  C   UNL     1      -6.038  19.841  -9.439  1.00  0.00     0.123 A 
ATOM      7  C   UNL     1      -4.829  19.887  -8.741  1.00  0.00     0.093 A 
ATOM      8  C   UNL     1      -4.263  21.112  -8.366  1.00  0.00     0.133 A 
ATOM      9  C   UNL     1      -4.959  22.318  -8.646  1.00  0.00     0.102 A 
ATOM     10  C   UNL     1      -4.490  23.664  -8.233  1.00  0.00     0.174 C 
ATOM     11  O   UNL     1      -3.679  23.822  -7.282  1.00  0.00    -0.294 OA
ENDROOT
BRANCH   2  12
ATOM     12  C   UNL     1      -7.146  25.814  -9.921  1.00  0.00    -0.007 A 
ATOM     13  C   UNL     1      -8.461  25.725 -10.407  1.00  0.00     0.011 A 
ATOM     14  C   UNL     1      -6.399  26.977 -10.177  1.00  0.00     0.011 A 
ATOM     15  C   UNL     1      -9.011  26.771 -11.156  1.00  0.00     0.046 A 
ATOM     16  C   UNL     1      -6.950  28.021 -10.926  1.00  0.00     0.046 A 
ATOM     17  C   UNL     1      -8.257  27.919 -11.418  1.00  0.00     0.115 A 
BRANCH  17  18
ATOM     18  O   UNL     1      -8.818  28.953 -12.166  1.00  0.00    -0.508 OA
ATOM     19  H   UNL     1      -9.804  28.965 -12.396  1.00  0.00     0.293 HD
ENDBRANCH  17  18
ENDBRANCH   2  12
BRANCH   8  20
ATOM     20  O   UNL     1      -3.008  21.078  -7.756  1.00  0.00    -0.507 OA
ATOM     21  H   UNL     1      -2.153  21.371  -8.206  1.00  0.00     0.293 HD
ENDBRANCH   8  20
BRANCH   6  22
ATOM     22  O   UNL     1      -6.566  18.608  -9.815  1.00  0.00    -0.508 OA
ATOM     23  H   UNL     1      -7.345  18.541 -10.462  1.00  0.00     0.293 HD
ENDBRANCH   6  22
TORSDOF 4
ENDMDL
