MODEL 1
REMARK VINA RESULT:    -1.722      0.000      0.000
REMARK INTER + INTRA:          -3.017
REMARK INTER:                  -2.124
REMARK INTRA:                  -0.893
REMARK UNBOUND:                -0.893
REMARK SMILES CC(C)=CCC[C@@H](C)c1ccc(C)cc1
REMARK SMILES IDX 6 1 7 2 8 3 9 4 13 5 12 6 11 7 14 8 10 9 15 10 5 11 4 12
REMARK SMILES IDX 2 13 1 14 3 15
REMARK H PARENT
REMARK Flexibility Score: inf
ROOT
ATOM      1  C   UNL     1      -7.479  25.757  24.548  1.00  0.00     0.012 C 
ENDROOT
BRANCH   1   2
ATOM      2  C   UNL     1      -8.843  26.125  25.183  1.00  0.00     0.016 C 
ATOM      3  C   UNL     1     -10.019  25.895  24.221  1.00  0.00     0.013 C 
BRANCH   2   4
ATOM      4  C   UNL     1      -9.048  25.344  26.468  1.00  0.00    -0.045 A 
ATOM      5  C   UNL     1      -9.560  23.101  30.125  1.00  0.00     0.044 C 
ATOM      6  C   UNL     1      -9.404  23.898  28.864  1.00  0.00    -0.051 A 
ATOM      7  C   UNL     1     -10.124  23.548  27.713  1.00  0.00     0.004 A 
ATOM      8  C   UNL     1      -8.486  24.955  28.806  1.00  0.00     0.004 A 
ATOM      9  C   UNL     1      -9.952  24.266  26.527  1.00  0.00     0.004 A 
ATOM     10  C   UNL     1      -8.312  25.675  27.621  1.00  0.00     0.004 A 
ENDBRANCH   2   4
ENDBRANCH   1   2
BRANCH   1  11
ATOM     11  C   UNL     1      -6.715  24.647  25.291  1.00  0.00     0.028 C 
BRANCH  11  12
ATOM     12  C   UNL     1      -6.749  23.330  24.552  1.00  0.00    -0.028 C 
ATOM     13  C   UNL     1      -6.773  22.116  25.145  1.00  0.00    -0.080 C 
ATOM     14  C   UNL     1      -6.831  21.956  26.646  1.00  0.00     0.039 C 
ATOM     15  C   UNL     1      -6.766  20.890  24.268  1.00  0.00     0.039 C 
ENDBRANCH  11  12
ENDBRANCH   1  11
TORSDOF 4
ENDMDL
MODEL 2
REMARK VINA RESULT:    -1.640      2.146      3.248
REMARK INTER + INTRA:          -2.917
REMARK INTER:                  -2.273
REMARK INTRA:                  -0.644
REMARK UNBOUND:                -0.893
REMARK SMILES CC(C)=CCC[C@@H](C)c1ccc(C)cc1
REMARK SMILES IDX 6 1 7 2 8 3 9 4 13 5 12 6 11 7 14 8 10 9 15 10 5 11 4 12
REMARK SMILES IDX 2 13 1 14 3 15
REMARK H PARENT
REMARK Flexibility Score: inf
ROOT
ATOM      1  C   UNL     1      -8.790  24.653  25.783  1.00  0.00     0.012 C 
ENDROOT
BRANCH   1   2
ATOM      2  C   UNL     1      -8.958  25.670  26.940  1.00  0.00     0.016 C 
ATOM      3  C   UNL     1     -10.112  25.299  27.885  1.00  0.00     0.013 C 
BRANCH   2   4
ATOM      4  C   UNL     1      -7.659  25.799  27.714  1.00  0.00    -0.045 A 
ATOM      5  C   UNL     1      -3.935  26.108  29.882  1.00  0.00     0.044 C 
ATOM      6  C   UNL     1      -5.232  26.031  29.132  1.00  0.00    -0.051 A 
ATOM      7  C   UNL     1      -6.431  25.793  29.818  1.00  0.00     0.004 A 
ATOM      8  C   UNL     1      -5.246  26.124  27.734  1.00  0.00     0.004 A 
ATOM      9  C   UNL     1      -7.635  25.683  29.117  1.00  0.00     0.004 A 
ATOM     10  C   UNL     1      -6.448  26.015  27.030  1.00  0.00     0.004 A 
ENDBRANCH   2   4
ENDBRANCH   1   2
BRANCH   1  11
ATOM     11  C   UNL     1      -8.307  23.262  26.231  1.00  0.00     0.028 C 
BRANCH  11  12
ATOM     12  C   UNL     1      -6.988  22.880  25.600  1.00  0.00    -0.028 C 
ATOM     13  C   UNL     1      -6.782  21.764  24.865  1.00  0.00    -0.080 C 
ATOM     14  C   UNL     1      -7.896  20.796  24.545  1.00  0.00     0.039 C 
ATOM     15  C   UNL     1      -5.396  21.502  24.335  1.00  0.00     0.039 C 
ENDBRANCH  11  12
ENDBRANCH   1  11
TORSDOF 4
ENDMDL
MODEL 3
REMARK VINA RESULT:    -1.602      1.194      4.457
REMARK INTER + INTRA:          -2.870
REMARK INTER:                  -1.949
REMARK INTRA:                  -0.920
REMARK UNBOUND:                -0.893
REMARK SMILES CC(C)=CCC[C@@H](C)c1ccc(C)cc1
REMARK SMILES IDX 6 1 7 2 8 3 9 4 13 5 12 6 11 7 14 8 10 9 15 10 5 11 4 12
REMARK SMILES IDX 2 13 1 14 3 15
REMARK H PARENT
REMARK Flexibility Score: inf
ROOT
ATOM      1  C   UNL     1      -9.251  26.125  26.775  1.00  0.00     0.012 C 
ENDROOT
BRANCH   1   2
ATOM      2  C   UNL     1      -9.695  25.257  25.571  1.00  0.00     0.016 C 
ATOM      3  C   UNL     1     -10.088  26.103  24.350  1.00  0.00     0.013 C 
BRANCH   2   4
ATOM      4  C   UNL     1      -8.598  24.272  25.205  1.00  0.00    -0.045 A 
ATOM      5  C   UNL     1      -5.495  21.481  24.090  1.00  0.00     0.044 C 
ATOM      6  C   UNL     1      -6.557  22.457  24.502  1.00  0.00    -0.051 A 
ATOM      7  C   UNL     1      -7.649  22.030  25.271  1.00  0.00     0.004 A 
ATOM      8  C   UNL     1      -6.503  23.787  24.063  1.00  0.00     0.004 A 
ATOM      9  C   UNL     1      -8.658  22.930  25.624  1.00  0.00     0.004 A 
ATOM     10  C   UNL     1      -7.511  24.689  24.414  1.00  0.00     0.004 A 
ENDBRANCH   2   4
ENDBRANCH   1   2
BRANCH   1  11
ATOM     11  C   UNL     1     -10.125  25.958  28.030  1.00  0.00     0.028 C 
BRANCH  11  12
ATOM     12  C   UNL     1     -10.045  24.563  28.606  1.00  0.00    -0.028 C 
ATOM     13  C   UNL     1      -9.107  24.148  29.488  1.00  0.00    -0.080 C 
ATOM     14  C   UNL     1      -8.057  25.082  30.042  1.00  0.00     0.039 C 
ATOM     15  C   UNL     1      -9.136  22.711  29.941  1.00  0.00     0.039 C 
ENDBRANCH  11  12
ENDBRANCH   1  11
TORSDOF 4
ENDMDL
MODEL 4
REMARK VINA RESULT:    -0.986      1.211      4.577
REMARK INTER + INTRA:          -2.109
REMARK INTER:                  -1.284
REMARK INTRA:                  -0.826
REMARK UNBOUND:                -0.893
REMARK SMILES CC(C)=CCC[C@@H](C)c1ccc(C)cc1
REMARK SMILES IDX 6 1 7 2 8 3 9 4 13 5 12 6 11 7 14 8 10 9 15 10 5 11 4 12
REMARK SMILES IDX 2 13 1 14 3 15
REMARK H PARENT
REMARK Flexibility Score: inf
ROOT
ATOM      1  C   UNL     1      -8.822  26.095  26.341  1.00  0.00     0.012 C 
ENDROOT
BRANCH   1   2
ATOM      2  C   UNL     1      -7.316  25.812  26.118  1.00  0.00     0.016 C 
ATOM      3  C   UNL     1      -6.469  26.121  27.363  1.00  0.00     0.013 C 
BRANCH   2   4
ATOM      4  C   UNL     1      -7.114  24.371  25.683  1.00  0.00    -0.045 A 
ATOM      5  C   UNL     1      -6.499  20.260  24.507  1.00  0.00     0.044 C 
ATOM      6  C   UNL     1      -6.738  21.687  24.900  1.00  0.00    -0.051 A 
ATOM      7  C   UNL     1      -6.262  22.732  24.096  1.00  0.00     0.004 A 
ATOM      8  C   UNL     1      -7.378  21.988  26.111  1.00  0.00     0.004 A 
ATOM      9  C   UNL     1      -6.452  24.062  24.480  1.00  0.00     0.004 A 
ATOM     10  C   UNL     1      -7.569  23.318  26.497  1.00  0.00     0.004 A 
ENDBRANCH   2   4
ENDBRANCH   1   2
BRANCH   1  11
ATOM     11  C   UNL     1      -9.247  26.125  27.820  1.00  0.00     0.028 C 
BRANCH  11  12
ATOM     12  C   UNL     1      -9.854  24.817  28.271  1.00  0.00    -0.028 C 
ATOM     13  C   UNL     1      -9.381  24.058  29.284  1.00  0.00    -0.080 C 
ATOM     14  C   UNL     1      -8.201  24.486  30.124  1.00  0.00     0.039 C 
ATOM     15  C   UNL     1     -10.075  22.756  29.589  1.00  0.00     0.039 C 
ENDBRANCH  11  12
ENDBRANCH   1  11
TORSDOF 4
ENDMDL
MODEL 5
REMARK VINA RESULT:    -0.983      2.286      4.367
REMARK INTER + INTRA:          -2.106
REMARK INTER:                  -1.499
REMARK INTRA:                  -0.607
REMARK UNBOUND:                -0.893
REMARK SMILES CC(C)=CCC[C@@H](C)c1ccc(C)cc1
REMARK SMILES IDX 6 1 7 2 8 3 9 4 13 5 12 6 11 7 14 8 10 9 15 10 5 11 4 12
REMARK SMILES IDX 2 13 1 14 3 15
REMARK H PARENT
REMARK Flexibility Score: inf
ROOT
ATOM      1  C   UNL     1      -6.757  20.663  24.930  1.00  0.00     0.012 C 
ENDROOT
BRANCH   1   2
ATOM      2  C   UNL     1      -6.147  22.075  24.747  1.00  0.00     0.016 C 
ATOM      3  C   UNL     1      -5.783  22.372  23.283  1.00  0.00     0.013 C 
BRANCH   2   4
ATOM      4  C   UNL     1      -7.101  23.129  25.281  1.00  0.00    -0.045 A 
ATOM      5  C   UNL     1      -9.867  26.077  26.804  1.00  0.00     0.044 C 
ATOM      6  C   UNL     1      -8.884  25.069  26.287  1.00  0.00    -0.051 A 
ATOM      7  C   UNL     1      -8.336  25.209  25.004  1.00  0.00     0.004 A 
ATOM      8  C   UNL     1      -8.559  23.941  27.054  1.00  0.00     0.004 A 
ATOM      9  C   UNL     1      -7.449  24.252  24.506  1.00  0.00     0.004 A 
ATOM     10  C   UNL     1      -7.672  22.982  26.558  1.00  0.00     0.004 A 
ENDBRANCH   2   4
ENDBRANCH   1   2
BRANCH   1  11
ATOM     11  C   UNL     1      -8.041  20.419  24.116  1.00  0.00     0.028 C 
BRANCH  11  12
ATOM     12  C   UNL     1      -8.755  19.155  24.533  1.00  0.00    -0.028 C 
ATOM     13  C   UNL     1      -9.429  18.339  23.692  1.00  0.00    -0.080 C 
ATOM     14  C   UNL     1      -9.482  18.588  22.202  1.00  0.00     0.039 C 
ATOM     15  C   UNL     1     -10.125  17.132  24.267  1.00  0.00     0.039 C 
ENDBRANCH  11  12
ENDBRANCH   1  11
TORSDOF 4
ENDMDL
MODEL 6
REMARK VINA RESULT:    -0.700      1.571      4.694
REMARK INTER + INTRA:          -1.757
REMARK INTER:                  -0.788
REMARK INTRA:                  -0.969
REMARK UNBOUND:                -0.893
REMARK SMILES CC(C)=CCC[C@@H](C)c1ccc(C)cc1
REMARK SMILES IDX 6 1 7 2 8 3 9 4 13 5 12 6 11 7 14 8 10 9 15 10 5 11 4 12
REMARK SMILES IDX 2 13 1 14 3 15
REMARK H PARENT
REMARK Flexibility Score: inf
ROOT
ATOM      1  C   UNL     1      -6.444  25.562  27.905  1.00  0.00     0.012 C 
ENDROOT
BRANCH   1   2
ATOM      2  C   UNL     1      -6.501  25.537  26.358  1.00  0.00     0.016 C 
ATOM      3  C   UNL     1      -5.235  26.125  25.714  1.00  0.00     0.013 C 
BRANCH   2   4
ATOM      4  C   UNL     1      -6.737  24.120  25.867  1.00  0.00    -0.045 A 
ATOM      5  C   UNL     1      -7.471  20.111  24.434  1.00  0.00     0.044 C 
ATOM      6  C   UNL     1      -7.187  21.497  24.932  1.00  0.00    -0.051 A 
ATOM      7  C   UNL     1      -7.196  21.769  26.308  1.00  0.00     0.004 A 
ATOM      8  C   UNL     1      -6.980  22.546  24.025  1.00  0.00     0.004 A 
ATOM      9  C   UNL     1      -6.969  23.067  26.772  1.00  0.00     0.004 A 
ATOM     10  C   UNL     1      -6.753  23.845  24.487  1.00  0.00     0.004 A 
ENDBRANCH   2   4
ENDBRANCH   1   2
BRANCH   1  11
ATOM     11  C   UNL     1      -7.756  26.005  28.578  1.00  0.00     0.028 C 
BRANCH  11  12
ATOM     12  C   UNL     1      -8.361  24.915  29.432  1.00  0.00    -0.028 C 
ATOM     13  C   UNL     1      -9.439  24.176  29.086  1.00  0.00    -0.080 C 
ATOM     14  C   UNL     1     -10.124  24.334  27.748  1.00  0.00     0.039 C 
ATOM     15  C   UNL     1      -9.950  23.150  30.064  1.00  0.00     0.039 C 
ENDBRANCH  11  12
ENDBRANCH   1  11
TORSDOF 4
ENDMDL
MODEL 7
REMARK VINA RESULT:    -0.175      3.243      4.143
REMARK INTER + INTRA:          -1.109
REMARK INTER:                  -0.620
REMARK INTRA:                  -0.488
REMARK UNBOUND:                -0.893
REMARK SMILES CC(C)=CCC[C@@H](C)c1ccc(C)cc1
REMARK SMILES IDX 6 1 7 2 8 3 9 4 13 5 12 6 11 7 14 8 10 9 15 10 5 11 4 12
REMARK SMILES IDX 2 13 1 14 3 15
REMARK H PARENT
REMARK Flexibility Score: inf
ROOT
ATOM      1  C   UNL     1      -5.088  26.123  26.023  1.00  0.00     0.012 C 
ENDROOT
BRANCH   1   2
ATOM      2  C   UNL     1      -6.336  25.351  25.528  1.00  0.00     0.016 C 
ATOM      3  C   UNL     1      -5.967  24.102  24.711  1.00  0.00     0.013 C 
BRANCH   2   4
ATOM      4  C   UNL     1      -7.217  24.973  26.705  1.00  0.00    -0.045 A 
ATOM      5  C   UNL     1      -9.666  23.887  30.094  1.00  0.00     0.044 C 
ATOM      6  C   UNL     1      -8.838  24.282  28.908  1.00  0.00    -0.051 A 
ATOM      7  C   UNL     1      -8.888  23.526  27.728  1.00  0.00     0.004 A 
ATOM      8  C   UNL     1      -7.955  25.367  28.992  1.00  0.00     0.004 A 
ATOM      9  C   UNL     1      -8.090  23.870  26.635  1.00  0.00     0.004 A 
ATOM     10  C   UNL     1      -7.155  25.713  27.900  1.00  0.00     0.004 A 
ENDBRANCH   2   4
ENDBRANCH   1   2
BRANCH   1  11
ATOM     11  C   UNL     1      -3.892  26.078  25.055  1.00  0.00     0.028 C 
BRANCH  11  12
ATOM     12  C   UNL     1      -2.565  26.125  25.777  1.00  0.00    -0.028 C 
ATOM     13  C   UNL     1      -1.359  26.010  25.177  1.00  0.00    -0.080 C 
ATOM     14  C   UNL     1      -1.217  25.881  23.678  1.00  0.00     0.039 C 
ATOM     15  C   UNL     1      -0.124  26.037  26.040  1.00  0.00     0.039 C 
ENDBRANCH  11  12
ENDBRANCH   1  11
TORSDOF 4
ENDMDL
MODEL 8
REMARK VINA RESULT:     0.325      1.576      4.429
REMARK INTER + INTRA:          -0.492
REMARK INTER:                   0.455
REMARK INTRA:                  -0.947
REMARK UNBOUND:                -0.893
REMARK SMILES CC(C)=CCC[C@@H](C)c1ccc(C)cc1
REMARK SMILES IDX 6 1 7 2 8 3 9 4 13 5 12 6 11 7 14 8 10 9 15 10 5 11 4 12
REMARK SMILES IDX 2 13 1 14 3 15
REMARK H PARENT
REMARK Flexibility Score: inf
ROOT
ATOM      1  C   UNL     1      -6.567  25.348  26.367  1.00  0.00     0.012 C 
ENDROOT
BRANCH   1   2
ATOM      2  C   UNL     1      -7.986  25.104  25.797  1.00  0.00     0.016 C 
ATOM      3  C   UNL     1      -8.318  26.040  24.625  1.00  0.00     0.013 C 
BRANCH   2   4
ATOM      4  C   UNL     1      -8.138  23.653  25.377  1.00  0.00    -0.045 A 
ATOM      5  C   UNL     1      -8.519  19.535  24.125  1.00  0.00     0.044 C 
ATOM      6  C   UNL     1      -8.394  20.957  24.588  1.00  0.00    -0.051 A 
ATOM      7  C   UNL     1      -9.500  21.817  24.537  1.00  0.00     0.004 A 
ATOM      8  C   UNL     1      -7.153  21.456  25.008  1.00  0.00     0.004 A 
ATOM      9  C   UNL     1      -9.375  23.151  24.932  1.00  0.00     0.004 A 
ATOM     10  C   UNL     1      -7.026  22.790  25.404  1.00  0.00     0.004 A 
ENDBRANCH   2   4
ENDBRANCH   1   2
BRANCH   1  11
ATOM     11  C   UNL     1      -6.525  25.555  27.891  1.00  0.00     0.028 C 
BRANCH  11  12
ATOM     12  C   UNL     1      -7.816  26.125  28.431  1.00  0.00    -0.028 C 
ATOM     13  C   UNL     1      -8.777  25.402  29.050  1.00  0.00    -0.080 C 
ATOM     14  C   UNL     1      -8.619  23.924  29.322  1.00  0.00     0.039 C 
ATOM     15  C   UNL     1     -10.029  26.109  29.497  1.00  0.00     0.039 C 
ENDBRANCH  11  12
ENDBRANCH   1  11
TORSDOF 4
ENDMDL
