MODEL 1
REMARK VINA RESULT:    -3.516      0.000      0.000
REMARK INTER + INTRA:          -4.159
REMARK INTER:                  -4.132
REMARK INTRA:                  -0.027
REMARK UNBOUND:                -0.027
REMARK SMILES O=C([O-])CCC(=O)[O-]
REMARK SMILES IDX 4 1 2 2 1 3 3 4 5 5 6 6 7 7 8 8
REMARK H PARENT
REMARK Flexibility Score: inf
ROOT
ATOM      1  C   UNL     1      38.592  19.137   6.907  1.00  0.00     0.059 C 
ENDROOT
BRANCH   1   2
ATOM      2  C   UNL     1      37.520  19.852   7.668  1.00  0.00     0.042 C 
ATOM      3  O   UNL     1      36.692  19.201   8.357  1.00  0.00    -0.550 OA
ATOM      4  O   UNL     1      37.407  21.233   7.577  1.00  0.00    -0.550 OA
ENDBRANCH   1   2
BRANCH   1   5
ATOM      5  C   UNL     1      39.517  20.140   6.215  1.00  0.00     0.059 C 
BRANCH   5   6
ATOM      6  C   UNL     1      40.575  20.616   7.159  1.00  0.00     0.042 C 
ATOM      7  O   UNL     1      41.116  19.812   7.964  1.00  0.00    -0.550 OA
ATOM      8  O   UNL     1      40.928  21.960   7.188  1.00  0.00    -0.550 OA
ENDBRANCH   5   6
ENDBRANCH   1   5
TORSDOF 3
ENDMDL
MODEL 2
REMARK VINA RESULT:    -3.513      1.464      2.095
REMARK INTER + INTRA:          -4.156
REMARK INTER:                  -4.067
REMARK INTRA:                  -0.089
REMARK UNBOUND:                -0.027
REMARK SMILES O=C([O-])CCC(=O)[O-]
REMARK SMILES IDX 4 1 2 2 1 3 3 4 5 5 6 6 7 7 8 8
REMARK H PARENT
REMARK Flexibility Score: inf
ROOT
ATOM      1  C   UNL     1      37.362  19.998   6.179  1.00  0.00     0.059 C 
ENDROOT
BRANCH   1   2
ATOM      2  C   UNL     1      37.559  19.251   7.460  1.00  0.00     0.042 C 
ATOM      3  O   UNL     1      36.704  19.335   8.380  1.00  0.00    -0.550 OA
ATOM      4  O   UNL     1      38.711  18.500   7.657  1.00  0.00    -0.550 OA
ENDBRANCH   1   2
BRANCH   1   5
ATOM      5  C   UNL     1      38.617  20.799   5.828  1.00  0.00     0.059 C 
BRANCH   5   6
ATOM      6  C   UNL     1      38.876  21.848   6.862  1.00  0.00     0.042 C 
ATOM      7  O   UNL     1      40.051  22.075   7.254  1.00  0.00    -0.550 OA
ATOM      8  O   UNL     1      37.814  22.541   7.431  1.00  0.00    -0.550 OA
ENDBRANCH   5   6
ENDBRANCH   1   5
TORSDOF 3
ENDMDL
MODEL 3
REMARK VINA RESULT:    -3.503      1.452      3.235
REMARK INTER + INTRA:          -4.144
REMARK INTER:                  -4.077
REMARK INTRA:                  -0.067
REMARK UNBOUND:                -0.027
REMARK SMILES O=C([O-])CCC(=O)[O-]
REMARK SMILES IDX 4 1 2 2 1 3 3 4 5 5 6 6 7 7 8 8
REMARK H PARENT
REMARK Flexibility Score: inf
ROOT
ATOM      1  C   UNL     1      38.566  20.884   5.780  1.00  0.00     0.059 C 
ENDROOT
BRANCH   1   2
ATOM      2  C   UNL     1      38.871  21.849   6.881  1.00  0.00     0.042 C 
ATOM      3  O   UNL     1      40.053  21.986   7.293  1.00  0.00    -0.550 OA
ATOM      4  O   UNL     1      37.843  22.563   7.484  1.00  0.00    -0.550 OA
ENDBRANCH   1   2
BRANCH   1   5
ATOM      5  C   UNL     1      37.357  20.020   6.144  1.00  0.00     0.059 C 
BRANCH   5   6
ATOM      6  C   UNL     1      37.609  19.276   7.417  1.00  0.00     0.042 C 
ATOM      7  O   UNL     1      36.768  19.319   8.353  1.00  0.00    -0.550 OA
ATOM      8  O   UNL     1      38.796  18.576   7.590  1.00  0.00    -0.550 OA
ENDBRANCH   5   6
ENDBRANCH   1   5
TORSDOF 3
ENDMDL
MODEL 4
REMARK VINA RESULT:    -3.490      0.073      3.373
REMARK INTER + INTRA:          -4.129
REMARK INTER:                  -4.100
REMARK INTRA:                  -0.029
REMARK UNBOUND:                -0.027
REMARK SMILES O=C([O-])CCC(=O)[O-]
REMARK SMILES IDX 4 1 2 2 1 3 3 4 5 5 6 6 7 7 8 8
REMARK H PARENT
REMARK Flexibility Score: inf
ROOT
ATOM      1  C   UNL     1      39.486  20.206   6.156  1.00  0.00     0.059 C 
ENDROOT
BRANCH   1   2
ATOM      2  C   UNL     1      40.560  20.633   7.105  1.00  0.00     0.042 C 
ATOM      3  O   UNL     1      41.061  19.803   7.909  1.00  0.00    -0.550 OA
ATOM      4  O   UNL     1      40.974  21.959   7.137  1.00  0.00    -0.550 OA
ENDBRANCH   1   2
BRANCH   1   5
ATOM      5  C   UNL     1      38.552  19.194   6.822  1.00  0.00     0.059 C 
BRANCH   5   6
ATOM      6  C   UNL     1      37.514  19.897   7.638  1.00  0.00     0.042 C 
ATOM      7  O   UNL     1      36.714  19.236   8.352  1.00  0.00    -0.550 OA
ATOM      8  O   UNL     1      37.397  21.280   7.572  1.00  0.00    -0.550 OA
ENDBRANCH   5   6
ENDBRANCH   1   5
TORSDOF 3
ENDMDL
MODEL 5
REMARK VINA RESULT:    -3.470      2.023      2.567
REMARK INTER + INTRA:          -4.105
REMARK INTER:                  -4.017
REMARK INTRA:                  -0.088
REMARK UNBOUND:                -0.027
REMARK SMILES O=C([O-])CCC(=O)[O-]
REMARK SMILES IDX 4 1 2 2 1 3 3 4 5 5 6 6 7 7 8 8
REMARK H PARENT
REMARK Flexibility Score: inf
ROOT
ATOM      1  C   UNL     1      38.532  19.129   6.884  1.00  0.00     0.059 C 
ENDROOT
BRANCH   1   2
ATOM      2  C   UNL     1      37.519  19.885   7.683  1.00  0.00     0.042 C 
ATOM      3  O   UNL     1      36.671  19.267   8.378  1.00  0.00    -0.550 OA
ATOM      4  O   UNL     1      37.480  21.273   7.621  1.00  0.00    -0.550 OA
ENDBRANCH   1   2
BRANCH   1   5
ATOM      5  C   UNL     1      39.371  20.087   6.037  1.00  0.00     0.059 C 
BRANCH   5   6
ATOM      6  C   UNL     1      38.950  20.025   4.603  1.00  0.00     0.042 C 
ATOM      7  O   UNL     1      39.816  19.976   3.690  1.00  0.00    -0.550 OA
ATOM      8  O   UNL     1      37.602  20.072   4.271  1.00  0.00    -0.550 OA
ENDBRANCH   5   6
ENDBRANCH   1   5
TORSDOF 3
ENDMDL
MODEL 6
REMARK VINA RESULT:    -3.451      1.482      2.016
REMARK INTER + INTRA:          -4.083
REMARK INTER:                  -3.958
REMARK INTRA:                  -0.124
REMARK UNBOUND:                -0.027
REMARK SMILES O=C([O-])CCC(=O)[O-]
REMARK SMILES IDX 4 1 2 2 1 3 3 4 5 5 6 6 7 7 8 8
REMARK H PARENT
REMARK Flexibility Score: inf
ROOT
ATOM      1  C   UNL     1      37.705  20.472   6.478  1.00  0.00     0.059 C 
ENDROOT
BRANCH   1   2
ATOM      2  C   UNL     1      37.698  19.437   7.558  1.00  0.00     0.042 C 
ATOM      3  O   UNL     1      38.636  18.600   7.639  1.00  0.00    -0.550 OA
ATOM      4  O   UNL     1      36.632  19.366   8.446  1.00  0.00    -0.550 OA
ENDBRANCH   1   2
BRANCH   1   5
ATOM      5  C   UNL     1      38.335  21.771   6.984  1.00  0.00     0.059 C 
BRANCH   5   6
ATOM      6  C   UNL     1      39.796  21.804   6.666  1.00  0.00     0.042 C 
ATOM      7  O   UNL     1      40.193  22.234   5.550  1.00  0.00    -0.550 OA
ATOM      8  O   UNL     1      40.719  21.313   7.581  1.00  0.00    -0.550 OA
ENDBRANCH   5   6
ENDBRANCH   1   5
TORSDOF 3
ENDMDL
MODEL 7
REMARK VINA RESULT:    -3.429      2.564      3.785
REMARK INTER + INTRA:          -4.057
REMARK INTER:                  -3.950
REMARK INTRA:                  -0.108
REMARK UNBOUND:                -0.027
REMARK SMILES O=C([O-])CCC(=O)[O-]
REMARK SMILES IDX 4 1 2 2 1 3 3 4 5 5 6 6 7 7 8 8
REMARK H PARENT
REMARK Flexibility Score: inf
ROOT
ATOM      1  C   UNL     1      37.199  20.029   5.230  1.00  0.00     0.059 C 
ENDROOT
BRANCH   1   2
ATOM      2  C   UNL     1      38.216  20.346   4.180  1.00  0.00     0.042 C 
ATOM      3  O   UNL     1      37.878  20.973   3.141  1.00  0.00    -0.550 OA
ATOM      4  O   UNL     1      39.526  19.908   4.326  1.00  0.00    -0.550 OA
ENDBRANCH   1   2
BRANCH   1   5
ATOM      5  C   UNL     1      37.639  20.582   6.587  1.00  0.00     0.059 C 
BRANCH   5   6
ATOM      6  C   UNL     1      37.723  19.484   7.598  1.00  0.00     0.042 C 
ATOM      7  O   UNL     1      38.743  18.748   7.652  1.00  0.00    -0.550 OA
ATOM      8  O   UNL     1      36.652  19.239   8.449  1.00  0.00    -0.550 OA
ENDBRANCH   5   6
ENDBRANCH   1   5
TORSDOF 3
ENDMDL
MODEL 8
REMARK VINA RESULT:    -3.412      2.602      3.116
REMARK INTER + INTRA:          -4.038
REMARK INTER:                  -3.923
REMARK INTRA:                  -0.115
REMARK UNBOUND:                -0.027
REMARK SMILES O=C([O-])CCC(=O)[O-]
REMARK SMILES IDX 4 1 2 2 1 3 3 4 5 5 6 6 7 7 8 8
REMARK H PARENT
REMARK Flexibility Score: inf
ROOT
ATOM      1  C   UNL     1      37.626  20.616   6.531  1.00  0.00     0.059 C 
ENDROOT
BRANCH   1   2
ATOM      2  C   UNL     1      37.735  19.533   7.557  1.00  0.00     0.042 C 
ATOM      3  O   UNL     1      38.774  18.824   7.622  1.00  0.00    -0.550 OA
ATOM      4  O   UNL     1      36.671  19.275   8.412  1.00  0.00    -0.550 OA
ENDBRANCH   1   2
BRANCH   1   5
ATOM      5  C   UNL     1      37.221  20.031   5.177  1.00  0.00     0.059 C 
BRANCH   5   6
ATOM      6  C   UNL     1      38.266  20.322   4.147  1.00  0.00     0.042 C 
ATOM      7  O   UNL     1      39.459  19.968   4.336  1.00  0.00    -0.550 OA
ATOM      8  O   UNL     1      37.932  21.029   2.997  1.00  0.00    -0.550 OA
ENDBRANCH   5   6
ENDBRANCH   1   5
TORSDOF 3
ENDMDL
MODEL 9
REMARK VINA RESULT:    -3.367      2.603      3.244
REMARK INTER + INTRA:          -3.984
REMARK INTER:                  -3.945
REMARK INTRA:                  -0.039
REMARK UNBOUND:                -0.027
REMARK SMILES O=C([O-])CCC(=O)[O-]
REMARK SMILES IDX 4 1 2 2 1 3 3 4 5 5 6 6 7 7 8 8
REMARK H PARENT
REMARK Flexibility Score: inf
ROOT
ATOM      1  C   UNL     1      37.520  19.880   5.615  1.00  0.00     0.059 C 
ENDROOT
BRANCH   1   2
ATOM      2  C   UNL     1      37.206  20.307   4.216  1.00  0.00     0.042 C 
ATOM      3  O   UNL     1      38.119  20.745   3.469  1.00  0.00    -0.550 OA
ATOM      4  O   UNL     1      35.897  20.265   3.754  1.00  0.00    -0.550 OA
ENDBRANCH   1   2
BRANCH   1   5
ATOM      5  C   UNL     1      39.022  19.993   5.886  1.00  0.00     0.059 C 
BRANCH   5   6
ATOM      6  C   UNL     1      39.363  19.390   7.211  1.00  0.00     0.042 C 
ATOM      7  O   UNL     1      40.417  19.730   7.810  1.00  0.00    -0.550 OA
ATOM      8  O   UNL     1      38.543  18.413   7.762  1.00  0.00    -0.550 OA
ENDBRANCH   5   6
ENDBRANCH   1   5
TORSDOF 3
ENDMDL
