MODEL 1
REMARK VINA RESULT:    -4.544      0.000      0.000
REMARK INTER + INTRA:          -5.136
REMARK INTER:                  -4.810
REMARK INTRA:                  -0.326
REMARK UNBOUND:                -0.326
REMARK SMILES C=C(C)[C@H]1CC[C@@H](C)[C@]12CC=C(C)CC2
REMARK SMILES IDX 8 1 7 2 6 3 5 4 4 5 9 6 15 7 14 8 12 9 11 10 10 11 13 12
REMARK SMILES IDX 2 13 1 14 3 15
REMARK H PARENT
REMARK Flexibility Score: inf
ROOT
ATOM      1  C   UNL     1      22.985  65.886  15.905  1.00  0.00     0.008 C 
ATOM      2  C   UNL     1      23.322  64.879  14.784  1.00  0.00    -0.007 C 
ATOM      3  C   UNL     1      23.134  65.558  13.426  1.00  0.00     0.004 C 
ATOM      4  C   UNL     1      21.678  65.334  13.061  1.00  0.00     0.009 C 
ATOM      5  C   UNL     1      21.315  63.959  13.640  1.00  0.00     0.021 C 
ATOM      6  C   UNL     1      22.414  63.600  14.716  1.00  0.00    -0.017 C 
ATOM      7  C   UNL     1      21.825  63.133  16.085  1.00  0.00     0.012 C 
ATOM      8  C   UNL     1      22.877  62.613  17.091  1.00  0.00     0.031 C 
ATOM      9  C   UNL     1      24.076  61.931  16.469  1.00  0.00    -0.077 C 
ATOM     10  C   UNL     1      24.269  61.897  15.140  1.00  0.00    -0.027 C 
ATOM     11  C   UNL     1      23.243  62.402  14.167  1.00  0.00     0.035 C 
ATOM     12  C   UNL     1      25.124  61.346  17.375  1.00  0.00     0.039 C 
ENDROOT
BRANCH   5  13
ATOM     13  C   UNL     1      19.850  63.847  14.076  1.00  0.00    -0.077 C 
ATOM     14  C   UNL     1      19.126  62.729  13.890  1.00  0.00     0.008 C 
ATOM     15  C   UNL     1      19.175  65.024  14.735  1.00  0.00     0.039 C 
ENDBRANCH   5  13
TORSDOF 1
ENDMDL
MODEL 2
REMARK VINA RESULT:    -4.332      2.129      3.270
REMARK INTER + INTRA:          -4.911
REMARK INTER:                  -4.592
REMARK INTRA:                  -0.320
REMARK UNBOUND:                -0.326
REMARK SMILES C=C(C)[C@H]1CC[C@@H](C)[C@]12CC=C(C)CC2
REMARK SMILES IDX 8 1 7 2 6 3 5 4 4 5 9 6 15 7 14 8 12 9 11 10 10 11 13 12
REMARK SMILES IDX 2 13 1 14 3 15
REMARK H PARENT
REMARK Flexibility Score: inf
ROOT
ATOM      1  C   UNL     1      23.158  65.991  15.972  1.00  0.00     0.008 C 
ATOM      2  C   UNL     1      23.100  64.532  16.471  1.00  0.00    -0.007 C 
ATOM      3  C   UNL     1      23.988  63.661  15.580  1.00  0.00     0.004 C 
ATOM      4  C   UNL     1      23.095  63.208  14.439  1.00  0.00     0.009 C 
ATOM      5  C   UNL     1      21.695  63.052  15.050  1.00  0.00     0.021 C 
ATOM      6  C   UNL     1      21.690  63.844  16.416  1.00  0.00    -0.017 C 
ATOM      7  C   UNL     1      20.475  64.812  16.578  1.00  0.00     0.012 C 
ATOM      8  C   UNL     1      20.357  65.464  17.974  1.00  0.00     0.031 C 
ATOM      9  C   UNL     1      20.852  64.613  19.123  1.00  0.00    -0.077 C 
ATOM     10  C   UNL     1      21.464  63.433  18.927  1.00  0.00    -0.027 C 
ATOM     11  C   UNL     1      21.574  62.803  17.569  1.00  0.00     0.035 C 
ATOM     12  C   UNL     1      20.726  65.146  20.524  1.00  0.00     0.039 C 
ENDROOT
BRANCH   5  13
ATOM     13  C   UNL     1      20.560  63.356  14.064  1.00  0.00    -0.077 C 
ATOM     14  C   UNL     1      19.450  62.601  13.990  1.00  0.00     0.008 C 
ATOM     15  C   UNL     1      20.678  64.536  13.133  1.00  0.00     0.039 C 
ENDBRANCH   5  13
TORSDOF 1
ENDMDL
MODEL 3
REMARK VINA RESULT:    -4.237      1.552      4.719
REMARK INTER + INTRA:          -4.810
REMARK INTER:                  -4.484
REMARK INTRA:                  -0.326
REMARK UNBOUND:                -0.326
REMARK SMILES C=C(C)[C@H]1CC[C@@H](C)[C@]12CC=C(C)CC2
REMARK SMILES IDX 8 1 7 2 6 3 5 4 4 5 9 6 15 7 14 8 12 9 11 10 10 11 13 12
REMARK SMILES IDX 2 13 1 14 3 15
REMARK H PARENT
REMARK Flexibility Score: inf
ROOT
ATOM      1  C   UNL     1      21.075  66.124  17.142  1.00  0.00     0.008 C 
ATOM      2  C   UNL     1      20.467  64.824  16.573  1.00  0.00    -0.007 C 
ATOM      3  C   UNL     1      19.804  64.041  17.709  1.00  0.00     0.004 C 
ATOM      4  C   UNL     1      20.900  63.166  18.289  1.00  0.00     0.009 C 
ATOM      5  C   UNL     1      21.799  62.792  17.101  1.00  0.00     0.021 C 
ATOM      6  C   UNL     1      21.485  63.812  15.938  1.00  0.00    -0.017 C 
ATOM      7  C   UNL     1      22.758  64.461  15.309  1.00  0.00     0.012 C 
ATOM      8  C   UNL     1      22.485  65.327  14.058  1.00  0.00     0.031 C 
ATOM      9  C   UNL     1      21.324  64.870  13.203  1.00  0.00    -0.077 C 
ATOM     10  C   UNL     1      20.515  63.863  13.575  1.00  0.00    -0.027 C 
ATOM     11  C   UNL     1      20.786  63.024  14.790  1.00  0.00     0.035 C 
ATOM     12  C   UNL     1      21.019  65.621  11.936  1.00  0.00     0.039 C 
ENDROOT
BRANCH   5  13
ATOM     13  C   UNL     1      23.271  62.604  17.485  1.00  0.00    -0.077 C 
ATOM     14  C   UNL     1      24.038  61.638  16.949  1.00  0.00     0.008 C 
ATOM     15  C   UNL     1      23.900  63.523  18.502  1.00  0.00     0.039 C 
ENDBRANCH   5  13
TORSDOF 1
ENDMDL
MODEL 4
REMARK VINA RESULT:    -4.125      2.016      3.236
REMARK INTER + INTRA:          -4.692
REMARK INTER:                  -4.394
REMARK INTRA:                  -0.298
REMARK UNBOUND:                -0.326
REMARK SMILES C=C(C)[C@H]1CC[C@@H](C)[C@]12CC=C(C)CC2
REMARK SMILES IDX 8 1 7 2 6 3 5 4 4 5 9 6 15 7 14 8 12 9 11 10 10 11 13 12
REMARK SMILES IDX 2 13 1 14 3 15
REMARK H PARENT
REMARK Flexibility Score: inf
ROOT
ATOM      1  C   UNL     1      22.199  64.836  14.408  1.00  0.00     0.008 C 
ATOM      2  C   UNL     1      21.576  63.674  15.210  1.00  0.00    -0.007 C 
ATOM      3  C   UNL     1      20.808  62.758  14.253  1.00  0.00     0.004 C 
ATOM      4  C   UNL     1      19.407  63.337  14.179  1.00  0.00     0.009 C 
ATOM      5  C   UNL     1      19.128  63.920  15.573  1.00  0.00     0.021 C 
ATOM      6  C   UNL     1      20.521  64.081  16.299  1.00  0.00    -0.017 C 
ATOM      7  C   UNL     1      20.739  65.490  16.936  1.00  0.00     0.012 C 
ATOM      8  C   UNL     1      22.016  65.613  17.798  1.00  0.00     0.031 C 
ATOM      9  C   UNL     1      22.431  64.346  18.513  1.00  0.00    -0.077 C 
ATOM     10  C   UNL     1      21.808  63.174  18.310  1.00  0.00    -0.027 C 
ATOM     11  C   UNL     1      20.566  63.059  17.474  1.00  0.00     0.035 C 
ATOM     12  C   UNL     1      23.633  64.387  19.417  1.00  0.00     0.039 C 
ENDROOT
BRANCH   5  13
ATOM     13  C   UNL     1      18.208  65.145  15.550  1.00  0.00    -0.077 C 
ATOM     14  C   UNL     1      18.335  66.125  14.638  1.00  0.00     0.008 C 
ATOM     15  C   UNL     1      17.117  65.278  16.583  1.00  0.00     0.039 C 
ENDBRANCH   5  13
TORSDOF 1
ENDMDL
MODEL 5
REMARK VINA RESULT:    -3.948      1.149      4.468
REMARK INTER + INTRA:          -4.505
REMARK INTER:                  -4.357
REMARK INTRA:                  -0.148
REMARK UNBOUND:                -0.326
REMARK SMILES C=C(C)[C@H]1CC[C@@H](C)[C@]12CC=C(C)CC2
REMARK SMILES IDX 8 1 7 2 6 3 5 4 4 5 9 6 15 7 14 8 12 9 11 10 10 11 13 12
REMARK SMILES IDX 2 13 1 14 3 15
REMARK H PARENT
REMARK Flexibility Score: inf
ROOT
ATOM      1  C   UNL     1      22.078  65.136  12.667  1.00  0.00     0.008 C 
ATOM      2  C   UNL     1      22.007  65.487  14.169  1.00  0.00    -0.007 C 
ATOM      3  C   UNL     1      23.330  66.124  14.598  1.00  0.00     0.004 C 
ATOM      4  C   UNL     1      24.222  64.966  15.005  1.00  0.00     0.009 C 
ATOM      5  C   UNL     1      23.282  63.916  15.615  1.00  0.00     0.021 C 
ATOM      6  C   UNL     1      21.817  64.274  15.147  1.00  0.00    -0.017 C 
ATOM      7  C   UNL     1      21.032  63.062  14.553  1.00  0.00     0.012 C 
ATOM      8  C   UNL     1      19.543  63.348  14.251  1.00  0.00     0.031 C 
ATOM      9  C   UNL     1      18.881  64.344  15.177  1.00  0.00    -0.077 C 
ATOM     10  C   UNL     1      19.571  65.021  16.110  1.00  0.00    -0.027 C 
ATOM     11  C   UNL     1      21.017  64.738  16.401  1.00  0.00     0.035 C 
ATOM     12  C   UNL     1      17.419  64.642  14.991  1.00  0.00     0.039 C 
ENDROOT
BRANCH   5  13
ATOM     13  C   UNL     1      23.751  62.473  15.395  1.00  0.00    -0.077 C 
ATOM     14  C   UNL     1      23.982  61.628  16.414  1.00  0.00     0.008 C 
ATOM     15  C   UNL     1      23.971  61.967  13.992  1.00  0.00     0.039 C 
ENDBRANCH   5  13
TORSDOF 1
ENDMDL
MODEL 6
REMARK VINA RESULT:    -3.932      1.081      3.086
REMARK INTER + INTRA:          -4.487
REMARK INTER:                  -4.340
REMARK INTRA:                  -0.147
REMARK UNBOUND:                -0.326
REMARK SMILES C=C(C)[C@H]1CC[C@@H](C)[C@]12CC=C(C)CC2
REMARK SMILES IDX 8 1 7 2 6 3 5 4 4 5 9 6 15 7 14 8 12 9 11 10 10 11 13 12
REMARK SMILES IDX 2 13 1 14 3 15
REMARK H PARENT
REMARK Flexibility Score: inf
ROOT
ATOM      1  C   UNL     1      19.969  62.535  14.207  1.00  0.00     0.008 C 
ATOM      2  C   UNL     1      20.530  63.615  15.157  1.00  0.00    -0.007 C 
ATOM      3  C   UNL     1      19.533  64.772  15.246  1.00  0.00     0.004 C 
ATOM      4  C   UNL     1      19.902  65.710  14.111  1.00  0.00     0.009 C 
ATOM      5  C   UNL     1      21.428  65.608  13.972  1.00  0.00     0.021 C 
ATOM      6  C   UNL     1      21.877  64.287  14.711  1.00  0.00    -0.017 C 
ATOM      7  C   UNL     1      22.819  63.379  13.860  1.00  0.00     0.012 C 
ATOM      8  C   UNL     1      23.408  62.171  14.623  1.00  0.00     0.031 C 
ATOM      9  C   UNL     1      23.650  62.402  16.098  1.00  0.00    -0.077 C 
ATOM     10  C   UNL     1      23.263  63.529  16.718  1.00  0.00    -0.027 C 
ATOM     11  C   UNL     1      22.693  64.701  15.972  1.00  0.00     0.035 C 
ATOM     12  C   UNL     1      24.273  61.299  16.910  1.00  0.00     0.039 C 
ENDROOT
BRANCH   5  13
ATOM     13  C   UNL     1      21.926  65.808  12.536  1.00  0.00    -0.077 C 
ATOM     14  C   UNL     1      23.203  66.118  12.253  1.00  0.00     0.008 C 
ATOM     15  C   UNL     1      20.963  65.660  11.386  1.00  0.00     0.039 C 
ENDBRANCH   5  13
TORSDOF 1
ENDMDL
MODEL 7
REMARK VINA RESULT:    -3.898      1.720      3.312
REMARK INTER + INTRA:          -4.451
REMARK INTER:                  -4.135
REMARK INTRA:                  -0.316
REMARK UNBOUND:                -0.326
REMARK SMILES C=C(C)[C@H]1CC[C@@H](C)[C@]12CC=C(C)CC2
REMARK SMILES IDX 8 1 7 2 6 3 5 4 4 5 9 6 15 7 14 8 12 9 11 10 10 11 13 12
REMARK SMILES IDX 2 13 1 14 3 15
REMARK H PARENT
REMARK Flexibility Score: inf
ROOT
ATOM      1  C   UNL     1      19.971  62.840  17.989  1.00  0.00     0.008 C 
ATOM      2  C   UNL     1      20.394  64.296  17.700  1.00  0.00    -0.007 C 
ATOM      3  C   UNL     1      19.141  65.155  17.512  1.00  0.00     0.004 C 
ATOM      4  C   UNL     1      18.803  65.057  16.036  1.00  0.00     0.009 C 
ATOM      5  C   UNL     1      20.152  64.943  15.311  1.00  0.00     0.021 C 
ATOM      6  C   UNL     1      21.226  64.520  16.388  1.00  0.00    -0.017 C 
ATOM      7  C   UNL     1      22.112  63.311  15.952  1.00  0.00     0.012 C 
ATOM      8  C   UNL     1      23.280  62.992  16.912  1.00  0.00     0.031 C 
ATOM      9  C   UNL     1      23.869  64.190  17.625  1.00  0.00    -0.077 C 
ATOM     10  C   UNL     1      23.331  65.417  17.524  1.00  0.00    -0.027 C 
ATOM     11  C   UNL     1      22.198  65.722  16.588  1.00  0.00     0.035 C 
ATOM     12  C   UNL     1      25.045  63.980  18.539  1.00  0.00     0.039 C 
ENDROOT
BRANCH   5  13
ATOM     13  C   UNL     1      20.087  64.110  14.026  1.00  0.00    -0.077 C 
ATOM     14  C   UNL     1      20.699  64.489  12.890  1.00  0.00     0.008 C 
ATOM     15  C   UNL     1      19.310  62.818  14.013  1.00  0.00     0.039 C 
ENDBRANCH   5  13
TORSDOF 1
ENDMDL
