MODEL 1
REMARK VINA RESULT:    -3.574      0.000      0.000
REMARK INTER + INTRA:          -9.350
REMARK INTER:                  -6.499
REMARK INTRA:                  -2.851
REMARK UNBOUND:                -2.851
REMARK SMILES CCCCCCCCCCCCCC[C@H](C)C(=O)[O-]
REMARK SMILES IDX 9 1 10 2 11 3 12 4 13 5 14 6 15 7 16 8 17 9 18 10 19 11 8 12
REMARK SMILES IDX 7 13 6 14 5 15 4 16 3 17 2 18 1 19
REMARK H PARENT
REMARK Flexibility Score: inf
ROOT
ATOM      1  C   UNL     1      10.120 -23.785 -36.008  1.00  0.00     0.000 C 
ENDROOT
BRANCH   1   2
ATOM      2  C   UNL     1       8.920 -24.332 -36.804  1.00  0.00     0.000 C 
BRANCH   2   3
ATOM      3  C   UNL     1       8.907 -23.902 -38.286  1.00  0.00     0.000 C 
BRANCH   3   4
ATOM      4  C   UNL     1      10.134 -23.049 -38.653  1.00  0.00     0.000 C 
BRANCH   4   5
ATOM      5  C   UNL     1       9.772 -21.593 -38.985  1.00  0.00     0.001 C 
BRANCH   5   6
ATOM      6  C   UNL     1      10.968 -20.635 -38.835  1.00  0.00     0.009 C 
BRANCH   6   7
ATOM      7  C   UNL     1      11.653 -20.751 -37.456  1.00  0.00     0.032 C 
ATOM      8  C   UNL     1      11.538 -19.459 -36.634  1.00  0.00     0.014 C 
BRANCH   7   9
ATOM      9  C   UNL     1      13.103 -21.111 -37.633  1.00  0.00     0.044 C 
ATOM     10  O   UNL     1      13.445 -22.010 -38.446  1.00  0.00    -0.550 OA
ATOM     11  O   UNL     1      14.077 -20.450 -36.895  1.00  0.00    -0.550 OA
ENDBRANCH   7   9
ENDBRANCH   6   7
ENDBRANCH   5   6
ENDBRANCH   4   5
ENDBRANCH   3   4
ENDBRANCH   2   3
ENDBRANCH   1   2
BRANCH   1  12
ATOM     12  C   UNL     1       9.755 -22.999 -34.736  1.00  0.00     0.000 C 
BRANCH  12  13
ATOM     13  C   UNL     1       8.379 -22.320 -34.830  1.00  0.00    -0.000 C 
BRANCH  13  14
ATOM     14  C   UNL     1       8.436 -20.942 -35.512  1.00  0.00    -0.000 C 
BRANCH  14  15
ATOM     15  C   UNL     1       7.248 -20.613 -36.436  1.00  0.00    -0.000 C 
BRANCH  15  16
ATOM     16  C   UNL     1       6.318 -21.817 -36.667  1.00  0.00    -0.000 C 
BRANCH  16  17
ATOM     17  C   UNL     1       5.420 -21.650 -37.907  1.00  0.00    -0.000 C 
BRANCH  17  18
ATOM     18  C   UNL     1       6.172 -21.511 -39.243  1.00  0.00    -0.003 C 
ATOM     19  C   UNL     1       5.886 -22.655 -40.215  1.00  0.00     0.004 C 
ENDBRANCH  17  18
ENDBRANCH  16  17
ENDBRANCH  15  16
ENDBRANCH  14  15
ENDBRANCH  13  14
ENDBRANCH  12  13
ENDBRANCH   1  12
TORSDOF 14
ENDMDL
MODEL 2
REMARK VINA RESULT:    -3.547     11.719     13.623
REMARK INTER + INTRA:          -9.301
REMARK INTER:                  -7.555
REMARK INTRA:                  -1.746
REMARK UNBOUND:                -2.851
REMARK SMILES CCCCCCCCCCCCCC[C@H](C)C(=O)[O-]
REMARK SMILES IDX 9 1 10 2 11 3 12 4 13 5 14 6 15 7 16 8 17 9 18 10 19 11 8 12
REMARK SMILES IDX 7 13 6 14 5 15 4 16 3 17 2 18 1 19
REMARK H PARENT
REMARK Flexibility Score: inf
ROOT
ATOM      1  C   UNL     1      15.180 -13.212 -45.646  1.00  0.00     0.000 C 
ENDROOT
BRANCH   1   2
ATOM      2  C   UNL     1      15.050 -14.554 -46.391  1.00  0.00     0.000 C 
BRANCH   2   3
ATOM      3  C   UNL     1      13.596 -15.060 -46.514  1.00  0.00     0.000 C 
BRANCH   3   4
ATOM      4  C   UNL     1      12.625 -13.939 -46.925  1.00  0.00     0.000 C 
BRANCH   4   5
ATOM      5  C   UNL     1      11.443 -13.788 -45.954  1.00  0.00     0.001 C 
BRANCH   5   6
ATOM      6  C   UNL     1      10.256 -13.033 -46.579  1.00  0.00     0.009 C 
BRANCH   6   7
ATOM      7  C   UNL     1       9.230 -12.561 -45.525  1.00  0.00     0.032 C 
ATOM      8  C   UNL     1       8.739 -13.708 -44.629  1.00  0.00     0.014 C 
BRANCH   7   9
ATOM      9  C   UNL     1       8.055 -11.914 -46.207  1.00  0.00     0.044 C 
ATOM     10  O   UNL     1       7.580 -12.404 -47.265  1.00  0.00    -0.550 OA
ATOM     11  O   UNL     1       7.487 -10.765 -45.669  1.00  0.00    -0.550 OA
ENDBRANCH   7   9
ENDBRANCH   6   7
ENDBRANCH   5   6
ENDBRANCH   4   5
ENDBRANCH   3   4
ENDBRANCH   2   3
ENDBRANCH   1   2
BRANCH   1  12
ATOM     12  C   UNL     1      15.138 -13.311 -44.112  1.00  0.00     0.000 C 
BRANCH  12  13
ATOM     13  C   UNL     1      14.608 -12.030 -43.446  1.00  0.00    -0.000 C 
BRANCH  13  14
ATOM     14  C   UNL     1      13.072 -11.937 -43.462  1.00  0.00    -0.000 C 
BRANCH  14  15
ATOM     15  C   UNL     1      12.495 -10.682 -44.145  1.00  0.00    -0.000 C 
BRANCH  15  16
ATOM     16  C   UNL     1      11.234 -10.147 -43.446  1.00  0.00    -0.000 C 
BRANCH  16  17
ATOM     17  C   UNL     1      10.402  -9.212 -44.344  1.00  0.00    -0.000 C 
BRANCH  17  18
ATOM     18  C   UNL     1      10.034  -7.857 -43.713  1.00  0.00    -0.003 C 
ATOM     19  C   UNL     1      10.074  -7.876 -42.185  1.00  0.00     0.004 C 
ENDBRANCH  17  18
ENDBRANCH  16  17
ENDBRANCH  15  16
ENDBRANCH  14  15
ENDBRANCH  13  14
ENDBRANCH  12  13
ENDBRANCH   1  12
TORSDOF 14
ENDMDL
MODEL 3
REMARK VINA RESULT:    -3.539      3.373      4.959
REMARK INTER + INTRA:          -9.287
REMARK INTER:                  -7.625
REMARK INTRA:                  -1.663
REMARK UNBOUND:                -2.851
REMARK SMILES CCCCCCCCCCCCCC[C@H](C)C(=O)[O-]
REMARK SMILES IDX 9 1 10 2 11 3 12 4 13 5 14 6 15 7 16 8 17 9 18 10 19 11 8 12
REMARK SMILES IDX 7 13 6 14 5 15 4 16 3 17 2 18 1 19
REMARK H PARENT
REMARK Flexibility Score: inf
ROOT
ATOM      1  C   UNL     1       6.620 -20.166 -37.188  1.00  0.00     0.000 C 
ENDROOT
BRANCH   1   2
ATOM      2  C   UNL     1       6.286 -21.604 -36.747  1.00  0.00     0.000 C 
BRANCH   2   3
ATOM      3  C   UNL     1       7.528 -22.502 -36.560  1.00  0.00     0.000 C 
BRANCH   3   4
ATOM      4  C   UNL     1       8.110 -22.399 -35.139  1.00  0.00     0.000 C 
BRANCH   4   5
ATOM      5  C   UNL     1       9.445 -21.639 -35.095  1.00  0.00     0.001 C 
BRANCH   5   6
ATOM      6  C   UNL     1      10.364 -21.986 -36.280  1.00  0.00     0.009 C 
BRANCH   6   7
ATOM      7  C   UNL     1      10.958 -20.732 -36.958  1.00  0.00     0.032 C 
ATOM      8  C   UNL     1      10.214 -20.354 -38.247  1.00  0.00     0.014 C 
BRANCH   7   9
ATOM      9  C   UNL     1      12.415 -20.955 -37.263  1.00  0.00     0.044 C 
ATOM     10  O   UNL     1      12.800 -22.028 -37.799  1.00  0.00    -0.550 OA
ATOM     11  O   UNL     1      13.348 -19.974 -36.951  1.00  0.00    -0.550 OA
ENDBRANCH   7   9
ENDBRANCH   6   7
ENDBRANCH   5   6
ENDBRANCH   4   5
ENDBRANCH   3   4
ENDBRANCH   2   3
ENDBRANCH   1   2
BRANCH   1  12
ATOM     12  C   UNL     1       6.522 -19.105 -36.078  1.00  0.00     0.000 C 
BRANCH  12  13
ATOM     13  C   UNL     1       6.081 -17.729 -36.607  1.00  0.00    -0.000 C 
BRANCH  13  14
ATOM     14  C   UNL     1       4.553 -17.597 -36.735  1.00  0.00    -0.000 C 
BRANCH  14  15
ATOM     15  C   UNL     1       4.006 -16.159 -36.659  1.00  0.00    -0.000 C 
BRANCH  15  16
ATOM     16  C   UNL     1       4.845 -15.247 -35.748  1.00  0.00    -0.000 C 
BRANCH  16  17
ATOM     17  C   UNL     1       4.297 -15.171 -34.310  1.00  0.00    -0.000 C 
BRANCH  17  18
ATOM     18  C   UNL     1       5.229 -15.744 -33.226  1.00  0.00    -0.003 C 
ATOM     19  C   UNL     1       5.017 -17.237 -32.979  1.00  0.00     0.004 C 
ENDBRANCH  17  18
ENDBRANCH  16  17
ENDBRANCH  15  16
ENDBRANCH  14  15
ENDBRANCH  13  14
ENDBRANCH  12  13
ENDBRANCH   1  12
TORSDOF 14
ENDMDL
MODEL 4
REMARK VINA RESULT:    -3.504      4.070      6.190
REMARK INTER + INTRA:          -9.223
REMARK INTER:                  -7.105
REMARK INTRA:                  -2.118
REMARK UNBOUND:                -2.851
REMARK SMILES CCCCCCCCCCCCCC[C@H](C)C(=O)[O-]
REMARK SMILES IDX 9 1 10 2 11 3 12 4 13 5 14 6 15 7 16 8 17 9 18 10 19 11 8 12
REMARK SMILES IDX 7 13 6 14 5 15 4 16 3 17 2 18 1 19
REMARK H PARENT
REMARK Flexibility Score: inf
ROOT
ATOM      1  C   UNL     1       8.564 -21.508 -35.118  1.00  0.00     0.000 C 
ENDROOT
BRANCH   1   2
ATOM      2  C   UNL     1       7.401 -22.010 -35.995  1.00  0.00     0.000 C 
BRANCH   2   3
ATOM      3  C   UNL     1       6.658 -20.887 -36.749  1.00  0.00     0.000 C 
BRANCH   3   4
ATOM      4  C   UNL     1       6.831 -19.518 -36.067  1.00  0.00     0.000 C 
BRANCH   4   5
ATOM      5  C   UNL     1       6.732 -18.343 -37.053  1.00  0.00     0.001 C 
BRANCH   5   6
ATOM      6  C   UNL     1       6.270 -17.039 -36.377  1.00  0.00     0.009 C 
BRANCH   6   7
ATOM      7  C   UNL     1       5.102 -17.262 -35.392  1.00  0.00     0.032 C 
ATOM      8  C   UNL     1       3.734 -16.980 -36.031  1.00  0.00     0.014 C 
BRANCH   7   9
ATOM      9  C   UNL     1       5.282 -16.391 -34.178  1.00  0.00     0.044 C 
ATOM     10  O   UNL     1       5.625 -15.185 -34.301  1.00  0.00    -0.550 OA
ATOM     11  O   UNL     1       5.071 -16.916 -32.910  1.00  0.00    -0.550 OA
ENDBRANCH   7   9
ENDBRANCH   6   7
ENDBRANCH   5   6
ENDBRANCH   4   5
ENDBRANCH   3   4
ENDBRANCH   2   3
ENDBRANCH   1   2
BRANCH   1  12
ATOM     12  C   UNL     1       9.674 -22.540 -34.854  1.00  0.00     0.000 C 
BRANCH  12  13
ATOM     13  C   UNL     1       9.390 -23.902 -35.511  1.00  0.00    -0.000 C 
BRANCH  13  14
ATOM     14  C   UNL     1      10.389 -24.248 -36.628  1.00  0.00    -0.000 C 
BRANCH  14  15
ATOM     15  C   UNL     1      10.848 -23.059 -37.495  1.00  0.00    -0.000 C 
BRANCH  15  16
ATOM     16  C   UNL     1       9.820 -22.671 -38.571  1.00  0.00    -0.000 C 
BRANCH  16  17
ATOM     17  C   UNL     1       9.882 -21.178 -38.946  1.00  0.00    -0.000 C 
BRANCH  17  18
ATOM     18  C   UNL     1      10.967 -20.366 -38.216  1.00  0.00    -0.003 C 
ATOM     19  C   UNL     1      10.394 -19.271 -37.317  1.00  0.00     0.004 C 
ENDBRANCH  17  18
ENDBRANCH  16  17
ENDBRANCH  15  16
ENDBRANCH  14  15
ENDBRANCH  13  14
ENDBRANCH  12  13
ENDBRANCH   1  12
TORSDOF 14
ENDMDL
MODEL 5
REMARK VINA RESULT:    -3.472      1.991      4.356
REMARK INTER + INTRA:          -9.165
REMARK INTER:                  -6.807
REMARK INTRA:                  -2.358
REMARK UNBOUND:                -2.851
REMARK SMILES CCCCCCCCCCCCCC[C@H](C)C(=O)[O-]
REMARK SMILES IDX 9 1 10 2 11 3 12 4 13 5 14 6 15 7 16 8 17 9 18 10 19 11 8 12
REMARK SMILES IDX 7 13 6 14 5 15 4 16 3 17 2 18 1 19
REMARK H PARENT
REMARK Flexibility Score: inf
ROOT
ATOM      1  C   UNL     1      10.899 -19.969 -37.238  1.00  0.00     0.000 C 
ENDROOT
BRANCH   1   2
ATOM      2  C   UNL     1      12.207 -20.774 -37.109  1.00  0.00     0.000 C 
BRANCH   2   3
ATOM      3  C   UNL     1      13.483 -19.921 -37.274  1.00  0.00     0.000 C 
BRANCH   3   4
ATOM      4  C   UNL     1      13.484 -19.129 -38.593  1.00  0.00     0.000 C 
BRANCH   4   5
ATOM      5  C   UNL     1      13.940 -19.972 -39.795  1.00  0.00     0.001 C 
BRANCH   5   6
ATOM      6  C   UNL     1      14.944 -21.071 -39.402  1.00  0.00     0.009 C 
BRANCH   6   7
ATOM      7  C   UNL     1      14.521 -22.469 -39.902  1.00  0.00     0.032 C 
ATOM      8  C   UNL     1      13.027 -22.540 -40.253  1.00  0.00     0.014 C 
BRANCH   7   9
ATOM      9  C   UNL     1      14.844 -23.506 -38.861  1.00  0.00     0.044 C 
ATOM     10  O   UNL     1      14.746 -23.234 -37.634  1.00  0.00    -0.550 OA
ATOM     11  O   UNL     1      15.257 -24.774 -39.249  1.00  0.00    -0.550 OA
ENDBRANCH   7   9
ENDBRANCH   6   7
ENDBRANCH   5   6
ENDBRANCH   4   5
ENDBRANCH   3   4
ENDBRANCH   2   3
ENDBRANCH   1   2
BRANCH   1  12
ATOM     12  C   UNL     1       9.792 -20.652 -38.059  1.00  0.00     0.000 C 
BRANCH  12  13
ATOM     13  C   UNL     1       8.481 -20.818 -37.271  1.00  0.00    -0.000 C 
BRANCH  13  14
ATOM     14  C   UNL     1       8.647 -20.537 -35.768  1.00  0.00    -0.000 C 
BRANCH  14  15
ATOM     15  C   UNL     1       8.494 -21.763 -34.847  1.00  0.00    -0.000 C 
BRANCH  15  16
ATOM     16  C   UNL     1       9.693 -22.723 -34.925  1.00  0.00    -0.000 C 
BRANCH  16  17
ATOM     17  C   UNL     1       9.316 -24.107 -35.487  1.00  0.00    -0.000 C 
BRANCH  17  18
ATOM     18  C   UNL     1       9.672 -24.329 -36.968  1.00  0.00    -0.003 C 
ATOM     19  C   UNL     1      11.165 -24.182 -37.256  1.00  0.00     0.004 C 
ENDBRANCH  17  18
ENDBRANCH  16  17
ENDBRANCH  15  16
ENDBRANCH  14  15
ENDBRANCH  13  14
ENDBRANCH  12  13
ENDBRANCH   1  12
TORSDOF 14
ENDMDL
MODEL 6
REMARK VINA RESULT:    -3.449      4.347      6.194
REMARK INTER + INTRA:          -9.123
REMARK INTER:                  -6.670
REMARK INTRA:                  -2.453
REMARK UNBOUND:                -2.851
REMARK SMILES CCCCCCCCCCCCCC[C@H](C)C(=O)[O-]
REMARK SMILES IDX 9 1 10 2 11 3 12 4 13 5 14 6 15 7 16 8 17 9 18 10 19 11 8 12
REMARK SMILES IDX 7 13 6 14 5 15 4 16 3 17 2 18 1 19
REMARK H PARENT
REMARK Flexibility Score: inf
ROOT
ATOM      1  C   UNL     1       8.904 -20.147 -39.631  1.00  0.00     0.000 C 
ENDROOT
BRANCH   1   2
ATOM      2  C   UNL     1       8.068 -19.019 -38.996  1.00  0.00     0.000 C 
BRANCH   2   3
ATOM      3  C   UNL     1       6.543 -19.219 -39.138  1.00  0.00     0.000 C 
BRANCH   3   4
ATOM      4  C   UNL     1       5.801 -18.980 -37.811  1.00  0.00     0.000 C 
BRANCH   4   5
ATOM      5  C   UNL     1       6.635 -18.180 -36.797  1.00  0.00     0.001 C 
BRANCH   5   6
ATOM      6  C   UNL     1       5.962 -18.092 -35.415  1.00  0.00     0.009 C 
BRANCH   6   7
ATOM      7  C   UNL     1       5.287 -16.725 -35.169  1.00  0.00     0.032 C 
ATOM      8  C   UNL     1       6.079 -15.561 -35.783  1.00  0.00     0.014 C 
BRANCH   7   9
ATOM      9  C   UNL     1       5.115 -16.496 -33.692  1.00  0.00     0.044 C 
ATOM     10  O   UNL     1       5.075 -17.470 -32.894  1.00  0.00    -0.550 OA
ATOM     11  O   UNL     1       4.999 -15.203 -33.198  1.00  0.00    -0.550 OA
ENDBRANCH   7   9
ENDBRANCH   6   7
ENDBRANCH   5   6
ENDBRANCH   4   5
ENDBRANCH   3   4
ENDBRANCH   2   3
ENDBRANCH   1   2
BRANCH   1  12
ATOM     12  C   UNL     1      10.137 -20.581 -38.818  1.00  0.00     0.000 C 
BRANCH  12  13
ATOM     13  C   UNL     1      10.108 -20.062 -37.370  1.00  0.00    -0.000 C 
BRANCH  13  14
ATOM     14  C   UNL     1      10.658 -21.082 -36.357  1.00  0.00    -0.000 C 
BRANCH  14  15
ATOM     15  C   UNL     1       9.679 -21.497 -35.242  1.00  0.00    -0.000 C 
BRANCH  15  16
ATOM     16  C   UNL     1       8.233 -21.052 -35.518  1.00  0.00    -0.000 C 
BRANCH  16  17
ATOM     17  C   UNL     1       7.319 -22.218 -35.942  1.00  0.00    -0.000 C 
BRANCH  17  18
ATOM     18  C   UNL     1       7.202 -22.436 -37.461  1.00  0.00    -0.003 C 
ATOM     19  C   UNL     1       8.122 -23.540 -37.982  1.00  0.00     0.004 C 
ENDBRANCH  17  18
ENDBRANCH  16  17
ENDBRANCH  15  16
ENDBRANCH  14  15
ENDBRANCH  13  14
ENDBRANCH  12  13
ENDBRANCH   1  12
TORSDOF 14
ENDMDL
MODEL 7
REMARK VINA RESULT:    -3.447      1.844      3.953
REMARK INTER + INTRA:          -9.120
REMARK INTER:                  -7.024
REMARK INTRA:                  -2.095
REMARK UNBOUND:                -2.851
REMARK SMILES CCCCCCCCCCCCCC[C@H](C)C(=O)[O-]
REMARK SMILES IDX 9 1 10 2 11 3 12 4 13 5 14 6 15 7 16 8 17 9 18 10 19 11 8 12
REMARK SMILES IDX 7 13 6 14 5 15 4 16 3 17 2 18 1 19
REMARK H PARENT
REMARK Flexibility Score: inf
ROOT
ATOM      1  C   UNL     1      11.687 -21.228 -37.076  1.00  0.00     0.000 C 
ENDROOT
BRANCH   1   2
ATOM      2  C   UNL     1      11.071 -19.816 -37.047  1.00  0.00     0.000 C 
BRANCH   2   3
ATOM      3  C   UNL     1      11.550 -18.903 -38.196  1.00  0.00     0.000 C 
BRANCH   3   4
ATOM      4  C   UNL     1      13.022 -19.158 -38.564  1.00  0.00     0.000 C 
BRANCH   4   5
ATOM      5  C   UNL     1      13.197 -19.666 -40.005  1.00  0.00     0.001 C 
BRANCH   5   6
ATOM      6  C   UNL     1      13.860 -21.054 -40.068  1.00  0.00     0.009 C 
BRANCH   6   7
ATOM      7  C   UNL     1      15.124 -21.149 -39.185  1.00  0.00     0.032 C 
ATOM      8  C   UNL     1      16.393 -21.424 -40.005  1.00  0.00     0.014 C 
BRANCH   7   9
ATOM      9  C   UNL     1      14.947 -22.229 -38.152  1.00  0.00     0.044 C 
ATOM     10  O   UNL     1      15.303 -22.037 -36.958  1.00  0.00    -0.550 OA
ATOM     11  O   UNL     1      14.389 -23.449 -38.511  1.00  0.00    -0.550 OA
ENDBRANCH   7   9
ENDBRANCH   6   7
ENDBRANCH   5   6
ENDBRANCH   4   5
ENDBRANCH   3   4
ENDBRANCH   2   3
ENDBRANCH   1   2
BRANCH   1  12
ATOM     12  C   UNL     1      10.857 -22.285 -37.825  1.00  0.00     0.000 C 
BRANCH  12  13
ATOM     13  C   UNL     1      10.929 -23.675 -37.169  1.00  0.00    -0.000 C 
BRANCH  13  14
ATOM     14  C   UNL     1       9.717 -23.978 -36.271  1.00  0.00    -0.000 C 
BRANCH  14  15
ATOM     15  C   UNL     1       9.690 -23.229 -34.925  1.00  0.00    -0.000 C 
BRANCH  15  16
ATOM     16  C   UNL     1       8.555 -22.195 -34.837  1.00  0.00    -0.000 C 
BRANCH  16  17
ATOM     17  C   UNL     1       7.545 -22.316 -35.994  1.00  0.00    -0.000 C 
BRANCH  17  18
ATOM     18  C   UNL     1       7.432 -21.071 -36.893  1.00  0.00    -0.003 C 
ATOM     19  C   UNL     1       7.365 -19.764 -36.104  1.00  0.00     0.004 C 
ENDBRANCH  17  18
ENDBRANCH  16  17
ENDBRANCH  15  16
ENDBRANCH  14  15
ENDBRANCH  13  14
ENDBRANCH  12  13
ENDBRANCH   1  12
TORSDOF 14
ENDMDL
MODEL 8
REMARK VINA RESULT:    -3.444      3.392      5.736
REMARK INTER + INTRA:          -9.114
REMARK INTER:                  -6.914
REMARK INTRA:                  -2.200
REMARK UNBOUND:                -2.851
REMARK SMILES CCCCCCCCCCCCCC[C@H](C)C(=O)[O-]
REMARK SMILES IDX 9 1 10 2 11 3 12 4 13 5 14 6 15 7 16 8 17 9 18 10 19 11 8 12
REMARK SMILES IDX 7 13 6 14 5 15 4 16 3 17 2 18 1 19
REMARK H PARENT
REMARK Flexibility Score: inf
ROOT
ATOM      1  C   UNL     1       7.574 -20.855 -36.912  1.00  0.00     0.000 C 
ENDROOT
BRANCH   1   2
ATOM      2  C   UNL     1       6.437 -21.895 -36.922  1.00  0.00     0.000 C 
BRANCH   2   3
ATOM      3  C   UNL     1       5.113 -21.365 -37.512  1.00  0.00     0.000 C 
BRANCH   3   4
ATOM      4  C   UNL     1       5.258 -19.941 -38.076  1.00  0.00     0.000 C 
BRANCH   4   5
ATOM      5  C   UNL     1       4.012 -19.073 -37.835  1.00  0.00     0.001 C 
BRANCH   5   6
ATOM      6  C   UNL     1       4.332 -17.776 -37.071  1.00  0.00     0.009 C 
BRANCH   6   7
ATOM      7  C   UNL     1       5.751 -17.780 -36.461  1.00  0.00     0.032 C 
ATOM      8  C   UNL     1       5.731 -17.697 -34.928  1.00  0.00     0.014 C 
BRANCH   7   9
ATOM      9  C   UNL     1       6.551 -16.634 -37.018  1.00  0.00     0.044 C 
ATOM     10  O   UNL     1       7.613 -16.848 -37.663  1.00  0.00    -0.550 OA
ATOM     11  O   UNL     1       6.122 -15.327 -36.823  1.00  0.00    -0.550 OA
ENDBRANCH   7   9
ENDBRANCH   6   7
ENDBRANCH   5   6
ENDBRANCH   4   5
ENDBRANCH   3   4
ENDBRANCH   2   3
ENDBRANCH   1   2
BRANCH   1  12
ATOM     12  C   UNL     1       8.392 -20.796 -35.610  1.00  0.00     0.000 C 
BRANCH  12  13
ATOM     13  C   UNL     1       8.254 -22.072 -34.761  1.00  0.00    -0.000 C 
BRANCH  13  14
ATOM     14  C   UNL     1       9.509 -22.960 -34.807  1.00  0.00    -0.000 C 
BRANCH  14  15
ATOM     15  C   UNL     1       9.475 -24.099 -35.844  1.00  0.00    -0.000 C 
BRANCH  15  16
ATOM     16  C   UNL     1      10.602 -23.996 -36.884  1.00  0.00    -0.000 C 
BRANCH  16  17
ATOM     17  C   UNL     1      10.173 -23.248 -38.161  1.00  0.00    -0.000 C 
BRANCH  17  18
ATOM     18  C   UNL     1      10.776 -21.841 -38.327  1.00  0.00    -0.003 C 
ATOM     19  C   UNL     1      11.970 -21.588 -37.408  1.00  0.00     0.004 C 
ENDBRANCH  17  18
ENDBRANCH  16  17
ENDBRANCH  15  16
ENDBRANCH  14  15
ENDBRANCH  13  14
ENDBRANCH  12  13
ENDBRANCH   1  12
TORSDOF 14
ENDMDL
MODEL 9
REMARK VINA RESULT:    -3.378      1.874      2.740
REMARK INTER + INTRA:          -8.994
REMARK INTER:                  -6.403
REMARK INTRA:                  -2.591
REMARK UNBOUND:                -2.851
REMARK SMILES CCCCCCCCCCCCCC[C@H](C)C(=O)[O-]
REMARK SMILES IDX 9 1 10 2 11 3 12 4 13 5 14 6 15 7 16 8 17 9 18 10 19 11 8 12
REMARK SMILES IDX 7 13 6 14 5 15 4 16 3 17 2 18 1 19
REMARK H PARENT
REMARK Flexibility Score: inf
ROOT
ATOM      1  C   UNL     1       8.350 -22.390 -34.889  1.00  0.00     0.000 C 
ENDROOT
BRANCH   1   2
ATOM      2  C   UNL     1       9.452 -23.439 -35.131  1.00  0.00     0.000 C 
BRANCH   2   3
ATOM      3  C   UNL     1       9.291 -24.219 -36.453  1.00  0.00     0.000 C 
BRANCH   3   4
ATOM      4  C   UNL     1       9.802 -23.419 -37.664  1.00  0.00     0.000 C 
BRANCH   4   5
ATOM      5  C   UNL     1      11.169 -22.763 -37.412  1.00  0.00     0.001 C 
BRANCH   5   6
ATOM      6  C   UNL     1      11.303 -21.391 -38.097  1.00  0.00     0.009 C 
BRANCH   6   7
ATOM      7  C   UNL     1      11.925 -20.322 -37.172  1.00  0.00     0.032 C 
ATOM      8  C   UNL     1      11.186 -18.978 -37.247  1.00  0.00     0.014 C 
BRANCH   7   9
ATOM      9  C   UNL     1      13.375 -20.122 -37.522  1.00  0.00     0.044 C 
ATOM     10  O   UNL     1      14.253 -20.915 -37.088  1.00  0.00    -0.550 OA
ATOM     11  O   UNL     1      13.754 -19.056 -38.328  1.00  0.00    -0.550 OA
ENDBRANCH   7   9
ENDBRANCH   6   7
ENDBRANCH   5   6
ENDBRANCH   4   5
ENDBRANCH   3   4
ENDBRANCH   2   3
ENDBRANCH   1   2
BRANCH   1  12
ATOM     12  C   UNL     1       8.779 -20.930 -35.114  1.00  0.00     0.000 C 
BRANCH  12  13
ATOM     13  C   UNL     1       7.802 -20.153 -36.013  1.00  0.00    -0.000 C 
BRANCH  13  14
ATOM     14  C   UNL     1       6.802 -21.067 -36.742  1.00  0.00    -0.000 C 
BRANCH  14  15
ATOM     15  C   UNL     1       6.736 -20.887 -38.271  1.00  0.00    -0.000 C 
BRANCH  15  16
ATOM     16  C   UNL     1       8.009 -20.249 -38.854  1.00  0.00    -0.000 C 
BRANCH  16  17
ATOM     17  C   UNL     1       7.745 -18.882 -39.512  1.00  0.00    -0.000 C 
BRANCH  17  18
ATOM     18  C   UNL     1       8.127 -17.661 -38.656  1.00  0.00    -0.003 C 
ATOM     19  C   UNL     1       8.688 -16.502 -39.479  1.00  0.00     0.004 C 
ENDBRANCH  17  18
ENDBRANCH  16  17
ENDBRANCH  15  16
ENDBRANCH  14  15
ENDBRANCH  13  14
ENDBRANCH  12  13
ENDBRANCH   1  12
TORSDOF 14
ENDMDL
