MODEL 1
REMARK VINA RESULT:    -4.031      0.000      0.000
REMARK INTER + INTRA:          -5.175
REMARK INTER:                  -4.974
REMARK INTRA:                  -0.201
REMARK UNBOUND:                -0.201
REMARK SMILES C=CC[C@H](C)C(=O)CC
REMARK SMILES IDX 4 1 5 2 6 3 7 4 8 5 9 6 3 7 2 8 1 9
REMARK H PARENT
REMARK Flexibility Score: inf
ROOT
ATOM      1  C   UNL     1      15.769  52.075  35.474  1.00  0.00     0.057 C 
ATOM      2  C   UNL     1      14.739  51.782  34.375  1.00  0.00     0.016 C 
ENDROOT
BRANCH   1   3
ATOM      3  C   UNL     1      15.073  52.657  36.686  1.00  0.00     0.135 C 
ATOM      4  O   UNL     1      14.397  53.669  36.568  1.00  0.00    -0.299 OA
BRANCH   3   5
ATOM      5  C   UNL     1      15.205  52.018  38.044  1.00  0.00     0.072 C 
ATOM      6  C   UNL     1      14.543  50.645  38.062  1.00  0.00     0.012 C 
ENDBRANCH   3   5
ENDBRANCH   1   3
BRANCH   1   7
ATOM      7  C   UNL     1      16.869  53.036  34.986  1.00  0.00     0.038 C 
BRANCH   7   8
ATOM      8  C   UNL     1      18.200  52.340  34.864  1.00  0.00    -0.034 C 
ATOM      9  C   UNL     1      19.343  52.934  35.217  1.00  0.00     0.004 C 
ENDBRANCH   7   8
ENDBRANCH   1   7
TORSDOF 4
ENDMDL
MODEL 2
REMARK VINA RESULT:    -4.018     17.276     18.511
REMARK INTER + INTRA:          -5.158
REMARK INTER:                  -4.930
REMARK INTRA:                  -0.228
REMARK UNBOUND:                -0.201
REMARK SMILES C=CC[C@H](C)C(=O)CC
REMARK SMILES IDX 4 1 5 2 6 3 7 4 8 5 9 6 3 7 2 8 1 9
REMARK H PARENT
REMARK Flexibility Score: inf
ROOT
ATOM      1  C   UNL     1      13.650  61.668  20.787  1.00  0.00     0.057 C 
ATOM      2  C   UNL     1      13.084  61.597  22.212  1.00  0.00     0.016 C 
ENDROOT
BRANCH   1   3
ATOM      3  C   UNL     1      12.638  61.114  19.806  1.00  0.00     0.135 C 
ATOM      4  O   UNL     1      12.010  60.104  20.091  1.00  0.00    -0.299 OA
BRANCH   3   5
ATOM      5  C   UNL     1      12.397  61.778  18.476  1.00  0.00     0.072 C 
ATOM      6  C   UNL     1      11.721  63.132  18.663  1.00  0.00     0.012 C 
ENDBRANCH   3   5
ENDBRANCH   1   3
BRANCH   1   7
ATOM      7  C   UNL     1      14.980  60.902  20.662  1.00  0.00     0.038 C 
BRANCH   7   8
ATOM      8  C   UNL     1      16.164  61.803  20.901  1.00  0.00    -0.034 C 
ATOM      9  C   UNL     1      16.807  61.830  22.072  1.00  0.00     0.004 C 
ENDBRANCH   7   8
ENDBRANCH   1   7
TORSDOF 4
ENDMDL
MODEL 3
REMARK VINA RESULT:    -3.781     17.115     18.458
REMARK INTER + INTRA:          -4.866
REMARK INTER:                  -4.610
REMARK INTRA:                  -0.256
REMARK UNBOUND:                -0.201
REMARK SMILES C=CC[C@H](C)C(=O)CC
REMARK SMILES IDX 4 1 5 2 6 3 7 4 8 5 9 6 3 7 2 8 1 9
REMARK H PARENT
REMARK Flexibility Score: inf
ROOT
ATOM      1  C   UNL     1      13.568  60.735  20.839  1.00  0.00     0.057 C 
ATOM      2  C   UNL     1      13.215  61.705  21.974  1.00  0.00     0.016 C 
ENDROOT
BRANCH   1   3
ATOM      3  C   UNL     1      15.073  60.617  20.715  1.00  0.00     0.135 C 
ATOM      4  O   UNL     1      15.577  59.531  20.469  1.00  0.00    -0.299 OA
BRANCH   3   5
ATOM      5  C   UNL     1      15.967  61.815  20.902  1.00  0.00     0.072 C 
ATOM      6  C   UNL     1      16.918  61.602  22.074  1.00  0.00     0.012 C 
ENDBRANCH   3   5
ENDBRANCH   1   3
BRANCH   1   7
ATOM      7  C   UNL     1      12.963  61.184  19.495  1.00  0.00     0.038 C 
BRANCH   7   8
ATOM      8  C   UNL     1      12.445  62.597  19.564  1.00  0.00    -0.034 C 
ATOM      9  C   UNL     1      11.689  63.122  18.595  1.00  0.00     0.004 C 
ENDBRANCH   7   8
ENDBRANCH   1   7
TORSDOF 4
ENDMDL
MODEL 4
REMARK VINA RESULT:    -3.661      1.253      3.681
REMARK INTER + INTRA:          -4.718
REMARK INTER:                  -4.411
REMARK INTRA:                  -0.307
REMARK UNBOUND:                -0.201
REMARK SMILES C=CC[C@H](C)C(=O)CC
REMARK SMILES IDX 4 1 5 2 6 3 7 4 8 5 9 6 3 7 2 8 1 9
REMARK H PARENT
REMARK Flexibility Score: inf
ROOT
ATOM      1  C   UNL     1      15.673  51.895  35.397  1.00  0.00     0.057 C 
ATOM      2  C   UNL     1      17.134  52.106  34.978  1.00  0.00     0.016 C 
ENDROOT
BRANCH   1   3
ATOM      3  C   UNL     1      14.756  52.210  34.234  1.00  0.00     0.135 C 
ATOM      4  O   UNL     1      14.230  53.312  34.159  1.00  0.00    -0.299 OA
BRANCH   3   5
ATOM      5  C   UNL     1      14.466  51.186  33.169  1.00  0.00     0.072 C 
ATOM      6  C   UNL     1      13.468  50.150  33.672  1.00  0.00     0.012 C 
ENDBRANCH   3   5
ENDBRANCH   1   3
BRANCH   1   7
ATOM      7  C   UNL     1      15.297  52.760  36.615  1.00  0.00     0.038 C 
BRANCH   7   8
ATOM      8  C   UNL     1      15.185  51.934  37.869  1.00  0.00    -0.034 C 
ATOM      9  C   UNL     1      14.620  50.723  37.870  1.00  0.00     0.004 C 
ENDBRANCH   7   8
ENDBRANCH   1   7
TORSDOF 4
ENDMDL
MODEL 5
REMARK VINA RESULT:    -3.634     16.933     18.147
REMARK INTER + INTRA:          -4.684
REMARK INTER:                  -4.391
REMARK INTRA:                  -0.294
REMARK UNBOUND:                -0.201
REMARK SMILES C=CC[C@H](C)C(=O)CC
REMARK SMILES IDX 4 1 5 2 6 3 7 4 8 5 9 6 3 7 2 8 1 9
REMARK H PARENT
REMARK Flexibility Score: inf
ROOT
ATOM      1  C   UNL     1      14.194  61.533  20.542  1.00  0.00     0.057 C 
ATOM      2  C   UNL     1      15.356  60.618  20.132  1.00  0.00     0.016 C 
ENDROOT
BRANCH   1   3
ATOM      3  C   UNL     1      14.090  61.582  22.052  1.00  0.00     0.135 C 
ATOM      4  O   UNL     1      15.106  61.677  22.726  1.00  0.00    -0.299 OA
BRANCH   3   5
ATOM      5  C   UNL     1      12.755  61.505  22.745  1.00  0.00     0.072 C 
ATOM      6  C   UNL     1      12.427  62.825  23.433  1.00  0.00     0.012 C 
ENDBRANCH   3   5
ENDBRANCH   1   3
BRANCH   1   7
ATOM      7  C   UNL     1      12.857  61.065  19.936  1.00  0.00     0.038 C 
BRANCH   7   8
ATOM      8  C   UNL     1      12.504  61.849  18.699  1.00  0.00    -0.034 C 
ATOM      9  C   UNL     1      11.839  63.006  18.761  1.00  0.00     0.004 C 
ENDBRANCH   7   8
ENDBRANCH   1   7
TORSDOF 4
ENDMDL
MODEL 6
REMARK VINA RESULT:    -3.443      1.804      2.588
REMARK INTER + INTRA:          -4.449
REMARK INTER:                  -4.143
REMARK INTRA:                  -0.306
REMARK UNBOUND:                -0.201
REMARK SMILES C=CC[C@H](C)C(=O)CC
REMARK SMILES IDX 4 1 5 2 6 3 7 4 8 5 9 6 3 7 2 8 1 9
REMARK H PARENT
REMARK Flexibility Score: inf
ROOT
ATOM      1  C   UNL     1      16.121  52.889  35.883  1.00  0.00     0.057 C 
ATOM      2  C   UNL     1      15.266  52.080  36.868  1.00  0.00     0.016 C 
ENDROOT
BRANCH   1   3
ATOM      3  C   UNL     1      15.319  54.058  35.351  1.00  0.00     0.135 C 
ATOM      4  O   UNL     1      15.801  54.779  34.489  1.00  0.00    -0.299 OA
BRANCH   3   5
ATOM      5  C   UNL     1      13.939  54.359  35.873  1.00  0.00     0.072 C 
ATOM      6  C   UNL     1      12.934  54.435  34.729  1.00  0.00     0.012 C 
ENDBRANCH   3   5
ENDBRANCH   1   3
BRANCH   1   7
ATOM      7  C   UNL     1      16.624  52.019  34.715  1.00  0.00     0.038 C 
BRANCH   7   8
ATOM      8  C   UNL     1      18.127  52.020  34.631  1.00  0.00    -0.034 C 
ATOM      9  C   UNL     1      18.872  52.920  35.280  1.00  0.00     0.004 C 
ENDBRANCH   7   8
ENDBRANCH   1   7
TORSDOF 4
ENDMDL
MODEL 7
REMARK VINA RESULT:    -3.362     16.256     17.454
REMARK INTER + INTRA:          -4.349
REMARK INTER:                  -3.883
REMARK INTRA:                  -0.466
REMARK UNBOUND:                -0.201
REMARK SMILES C=CC[C@H](C)C(=O)CC
REMARK SMILES IDX 4 1 5 2 6 3 7 4 8 5 9 6 3 7 2 8 1 9
REMARK H PARENT
REMARK Flexibility Score: inf
ROOT
ATOM      1  C   UNL     1      15.717  61.711  20.894  1.00  0.00     0.057 C 
ATOM      2  C   UNL     1      16.541  61.865  22.179  1.00  0.00     0.016 C 
ENDROOT
BRANCH   1   3
ATOM      3  C   UNL     1      14.241  61.674  21.234  1.00  0.00     0.135 C 
ATOM      4  O   UNL     1      13.891  61.638  22.405  1.00  0.00    -0.299 OA
BRANCH   3   5
ATOM      5  C   UNL     1      13.192  61.669  20.154  1.00  0.00     0.072 C 
ATOM      6  C   UNL     1      12.337  60.410  20.236  1.00  0.00     0.012 C 
ENDBRANCH   3   5
ENDBRANCH   1   3
BRANCH   1   7
ATOM      7  C   UNL     1      16.110  60.443  20.111  1.00  0.00     0.038 C 
BRANCH   7   8
ATOM      8  C   UNL     1      16.370  59.281  21.033  1.00  0.00    -0.034 C 
ATOM      9  C   UNL     1      15.590  58.195  21.041  1.00  0.00     0.004 C 
ENDBRANCH   7   8
ENDBRANCH   1   7
TORSDOF 4
ENDMDL
MODEL 8
REMARK VINA RESULT:    -3.266     16.321     17.380
REMARK INTER + INTRA:          -4.230
REMARK INTER:                  -3.906
REMARK INTRA:                  -0.324
REMARK UNBOUND:                -0.201
REMARK SMILES C=CC[C@H](C)C(=O)CC
REMARK SMILES IDX 4 1 5 2 6 3 7 4 8 5 9 6 3 7 2 8 1 9
REMARK H PARENT
REMARK Flexibility Score: inf
ROOT
ATOM      1  C   UNL     1      13.530  61.118  20.297  1.00  0.00     0.057 C 
ATOM      2  C   UNL     1      12.697  62.234  19.653  1.00  0.00     0.016 C 
ENDROOT
BRANCH   1   3
ATOM      3  C   UNL     1      12.817  60.591  21.525  1.00  0.00     0.135 C 
ATOM      4  O   UNL     1      11.848  59.857  21.393  1.00  0.00    -0.299 OA
BRANCH   3   5
ATOM      5  C   UNL     1      13.271  60.963  22.911  1.00  0.00     0.072 C 
ATOM      6  C   UNL     1      12.503  62.176  23.424  1.00  0.00     0.012 C 
ENDBRANCH   3   5
ENDBRANCH   1   3
BRANCH   1   7
ATOM      7  C   UNL     1      14.942  61.605  20.676  1.00  0.00     0.038 C 
BRANCH   7   8
ATOM      8  C   UNL     1      16.008  60.692  20.131  1.00  0.00    -0.034 C 
ATOM      9  C   UNL     1      16.844  60.024  20.932  1.00  0.00     0.004 C 
ENDBRANCH   7   8
ENDBRANCH   1   7
TORSDOF 4
ENDMDL
