MODEL 1
REMARK VINA RESULT:    -5.286      0.000      0.000
REMARK INTER + INTRA:         -12.213
REMARK INTER:                  -9.921
REMARK INTRA:                  -2.292
REMARK UNBOUND:                -2.292
REMARK SMILES O=C([O-])CCCCCCCCCCCCCCC(=O)[O-]
REMARK SMILES IDX 10 1 9 2 8 3 7 4 6 5 5 6 4 7 2 8 1 9 3 10 11 11 12 12 13 13
REMARK SMILES IDX 14 14 15 15 16 16 17 17 18 18 19 19 20 20
REMARK H PARENT
REMARK Flexibility Score: inf
ROOT
ATOM      1  C   UNL     1     138.383 131.050 127.948  1.00  0.00     0.000 C 
ENDROOT
BRANCH   1   2
ATOM      2  C   UNL     1     138.275 130.174 129.207  1.00  0.00     0.000 C 
BRANCH   2   3
ATOM      3  C   UNL     1     138.798 130.883 130.468  1.00  0.00     0.000 C 
BRANCH   3   4
ATOM      4  C   UNL     1     139.686 132.095 130.140  1.00  0.00     0.000 C 
BRANCH   4   5
ATOM      5  C   UNL     1     139.340 133.330 130.992  1.00  0.00     0.000 C 
BRANCH   5   6
ATOM      6  C   UNL     1     140.173 134.563 130.607  1.00  0.00     0.006 C 
BRANCH   6   7
ATOM      7  C   UNL     1     139.452 135.475 129.605  1.00  0.00     0.053 C 
BRANCH   7   8
ATOM      8  C   UNL     1     138.866 136.660 130.306  1.00  0.00     0.041 C 
ATOM      9  O   UNL     1     137.806 136.538 130.976  1.00  0.00    -0.550 OA
ATOM     10  O   UNL     1     139.462 137.908 130.180  1.00  0.00    -0.550 OA
ENDBRANCH   7   8
ENDBRANCH   6   7
ENDBRANCH   5   6
ENDBRANCH   4   5
ENDBRANCH   3   4
ENDBRANCH   2   3
ENDBRANCH   1   2
BRANCH   1  11
ATOM     11  C   UNL     1     137.034 131.219 127.227  1.00  0.00     0.000 C 
BRANCH  11  12
ATOM     12  C   UNL     1     136.718 132.688 126.902  1.00  0.00     0.000 C 
BRANCH  12  13
ATOM     13  C   UNL     1     136.910 133.618 128.109  1.00  0.00     0.000 C 
BRANCH  13  14
ATOM     14  C   UNL     1     135.583 133.840 128.847  1.00  0.00     0.000 C 
BRANCH  14  15
ATOM     15  C   UNL     1     135.774 133.732 130.368  1.00  0.00     0.000 C 
BRANCH  15  16
ATOM     16  C   UNL     1     135.499 132.317 130.899  1.00  0.00     0.006 C 
BRANCH  16  17
ATOM     17  C   UNL     1     134.001 131.996 130.980  1.00  0.00     0.053 C 
BRANCH  17  18
ATOM     18  C   UNL     1     133.688 130.762 130.195  1.00  0.00     0.041 C 
ATOM     19  O   UNL     1     132.762 129.993 130.565  1.00  0.00    -0.550 OA
ATOM     20  O   UNL     1     134.453 130.434 129.083  1.00  0.00    -0.550 OA
ENDBRANCH  17  18
ENDBRANCH  16  17
ENDBRANCH  15  16
ENDBRANCH  14  15
ENDBRANCH  13  14
ENDBRANCH  12  13
ENDBRANCH  11  12
ENDBRANCH   1  11
TORSDOF 15
ENDMDL
MODEL 2
REMARK VINA RESULT:    -5.284      0.789      5.934
REMARK INTER + INTRA:         -12.210
REMARK INTER:                 -10.313
REMARK INTRA:                  -1.897
REMARK UNBOUND:                -2.292
REMARK SMILES O=C([O-])CCCCCCCCCCCCCCC(=O)[O-]
REMARK SMILES IDX 10 1 9 2 8 3 7 4 6 5 5 6 4 7 2 8 1 9 3 10 11 11 12 12 13 13
REMARK SMILES IDX 14 14 15 15 16 16 17 17 18 18 19 19 20 20
REMARK H PARENT
REMARK Flexibility Score: inf
ROOT
ATOM      1  C   UNL     1     138.151 130.914 128.022  1.00  0.00     0.000 C 
ENDROOT
BRANCH   1   2
ATOM      2  C   UNL     1     136.931 131.570 127.355  1.00  0.00     0.000 C 
BRANCH   2   3
ATOM      3  C   UNL     1     136.910 133.099 127.533  1.00  0.00     0.000 C 
BRANCH   3   4
ATOM      4  C   UNL     1     136.431 133.525 128.930  1.00  0.00     0.000 C 
BRANCH   4   5
ATOM      5  C   UNL     1     135.020 134.141 128.910  1.00  0.00     0.000 C 
BRANCH   5   6
ATOM      6  C   UNL     1     134.038 133.396 129.827  1.00  0.00     0.006 C 
BRANCH   6   7
ATOM      7  C   UNL     1     134.676 132.184 130.518  1.00  0.00     0.053 C 
BRANCH   7   8
ATOM      8  C   UNL     1     134.007 130.920 130.078  1.00  0.00     0.041 C 
ATOM      9  O   UNL     1     134.307 130.398 128.972  1.00  0.00    -0.550 OA
ATOM     10  O   UNL     1     133.020 130.345 130.866  1.00  0.00    -0.550 OA
ENDBRANCH   7   8
ENDBRANCH   6   7
ENDBRANCH   5   6
ENDBRANCH   4   5
ENDBRANCH   3   4
ENDBRANCH   2   3
ENDBRANCH   1   2
BRANCH   1  11
ATOM     11  C   UNL     1     137.833 130.363 129.423  1.00  0.00     0.000 C 
BRANCH  11  12
ATOM     12  C   UNL     1     138.821 130.861 130.492  1.00  0.00     0.000 C 
BRANCH  12  13
ATOM     13  C   UNL     1     139.558 132.140 130.068  1.00  0.00     0.000 C 
BRANCH  13  14
ATOM     14  C   UNL     1     139.449 133.221 131.151  1.00  0.00     0.000 C 
BRANCH  14  15
ATOM     15  C   UNL     1     140.358 134.418 130.828  1.00  0.00     0.000 C 
BRANCH  15  16
ATOM     16  C   UNL     1     139.726 135.384 129.814  1.00  0.00     0.006 C 
BRANCH  16  17
ATOM     17  C   UNL     1     139.546 136.799 130.379  1.00  0.00     0.053 C 
BRANCH  17  18
ATOM     18  C   UNL     1     138.094 137.109 130.557  1.00  0.00     0.041 C 
ATOM     19  O   UNL     1     137.308 136.232 131.002  1.00  0.00    -0.550 OA
ATOM     20  O   UNL     1     137.598 138.352 130.183  1.00  0.00    -0.550 OA
ENDBRANCH  17  18
ENDBRANCH  16  17
ENDBRANCH  15  16
ENDBRANCH  14  15
ENDBRANCH  13  14
ENDBRANCH  12  13
ENDBRANCH  11  12
ENDBRANCH   1  11
TORSDOF 15
ENDMDL
MODEL 3
REMARK VINA RESULT:    -5.254      1.170      1.678
REMARK INTER + INTRA:         -12.153
REMARK INTER:                  -9.991
REMARK INTRA:                  -2.162
REMARK UNBOUND:                -2.292
REMARK SMILES O=C([O-])CCCCCCCCCCCCCCC(=O)[O-]
REMARK SMILES IDX 10 1 9 2 8 3 7 4 6 5 5 6 4 7 2 8 1 9 3 10 11 11 12 12 13 13
REMARK SMILES IDX 14 14 15 15 16 16 17 17 18 18 19 19 20 20
REMARK H PARENT
REMARK Flexibility Score: inf
ROOT
ATOM      1  C   UNL     1     138.882 130.358 129.592  1.00  0.00     0.000 C 
ENDROOT
BRANCH   1   2
ATOM      2  C   UNL     1     137.885 130.909 130.625  1.00  0.00     0.000 C 
BRANCH   2   3
ATOM      3  C   UNL     1     138.434 132.130 131.384  1.00  0.00     0.000 C 
BRANCH   3   4
ATOM      4  C   UNL     1     139.591 132.818 130.641  1.00  0.00     0.000 C 
BRANCH   4   5
ATOM      5  C   UNL     1     140.267 133.914 131.484  1.00  0.00     0.000 C 
BRANCH   5   6
ATOM      6  C   UNL     1     140.660 135.142 130.649  1.00  0.00     0.006 C 
BRANCH   6   7
ATOM      7  C   UNL     1     139.533 135.610 129.717  1.00  0.00     0.053 C 
BRANCH   7   8
ATOM      8  C   UNL     1     138.773 136.736 130.342  1.00  0.00     0.041 C 
ATOM      9  O   UNL     1     137.719 136.505 130.992  1.00  0.00    -0.550 OA
ATOM     10  O   UNL     1     139.199 138.046 130.166  1.00  0.00    -0.550 OA
ENDBRANCH   7   8
ENDBRANCH   6   7
ENDBRANCH   5   6
ENDBRANCH   4   5
ENDBRANCH   3   4
ENDBRANCH   2   3
ENDBRANCH   1   2
BRANCH   1  11
ATOM     11  C   UNL     1     138.373 130.495 128.147  1.00  0.00     0.000 C 
BRANCH  11  12
ATOM     12  C   UNL     1     137.021 131.223 128.063  1.00  0.00     0.000 C 
BRANCH  12  13
ATOM     13  C   UNL     1     136.946 132.203 126.883  1.00  0.00     0.000 C 
BRANCH  13  14
ATOM     14  C   UNL     1     136.279 133.519 127.304  1.00  0.00     0.000 C 
BRANCH  14  15
ATOM     15  C   UNL     1     136.544 133.821 128.787  1.00  0.00     0.000 C 
BRANCH  15  16
ATOM     16  C   UNL     1     135.329 134.444 129.491  1.00  0.00     0.006 C 
BRANCH  16  17
ATOM     17  C   UNL     1     134.126 133.493 129.544  1.00  0.00     0.053 C 
BRANCH  17  18
ATOM     18  C   UNL     1     134.351 132.424 130.565  1.00  0.00     0.041 C 
ATOM     19  O   UNL     1     134.660 132.730 131.747  1.00  0.00    -0.550 OA
ATOM     20  O   UNL     1     134.270 131.086 130.200  1.00  0.00    -0.550 OA
ENDBRANCH  17  18
ENDBRANCH  16  17
ENDBRANCH  15  16
ENDBRANCH  14  15
ENDBRANCH  13  14
ENDBRANCH  12  13
ENDBRANCH  11  12
ENDBRANCH   1  11
TORSDOF 15
ENDMDL
MODEL 4
REMARK VINA RESULT:    -5.248      1.466      5.570
REMARK INTER + INTRA:         -12.142
REMARK INTER:                 -10.029
REMARK INTRA:                  -2.114
REMARK UNBOUND:                -2.292
REMARK SMILES O=C([O-])CCCCCCCCCCCCCCC(=O)[O-]
REMARK SMILES IDX 10 1 9 2 8 3 7 4 6 5 5 6 4 7 2 8 1 9 3 10 11 11 12 12 13 13
REMARK SMILES IDX 14 14 15 15 16 16 17 17 18 18 19 19 20 20
REMARK H PARENT
REMARK Flexibility Score: inf
ROOT
ATOM      1  C   UNL     1     138.332 130.143 129.293  1.00  0.00     0.000 C 
ENDROOT
BRANCH   1   2
ATOM      2  C   UNL     1     138.068 130.869 127.964  1.00  0.00     0.000 C 
BRANCH   2   3
ATOM      3  C   UNL     1     136.672 131.515 127.909  1.00  0.00     0.000 C 
BRANCH   3   4
ATOM      4  C   UNL     1     136.713 132.972 127.419  1.00  0.00     0.000 C 
BRANCH   4   5
ATOM      5  C   UNL     1     135.934 133.928 128.340  1.00  0.00     0.000 C 
BRANCH   5   6
ATOM      6  C   UNL     1     134.752 133.239 129.040  1.00  0.00     0.006 C 
BRANCH   6   7
ATOM      7  C   UNL     1     134.546 133.734 130.478  1.00  0.00     0.053 C 
BRANCH   7   8
ATOM      8  C   UNL     1     134.413 132.575 131.415  1.00  0.00     0.041 C 
ATOM      9  O   UNL     1     133.735 131.567 131.083  1.00  0.00    -0.550 OA
ATOM     10  O   UNL     1     134.998 132.627 132.673  1.00  0.00    -0.550 OA
ENDBRANCH   7   8
ENDBRANCH   6   7
ENDBRANCH   5   6
ENDBRANCH   4   5
ENDBRANCH   3   4
ENDBRANCH   2   3
ENDBRANCH   1   2
BRANCH   1  11
ATOM     11  C   UNL     1     139.187 130.977 130.263  1.00  0.00     0.000 C 
BRANCH  11  12
ATOM     12  C   UNL     1     138.335 131.813 131.232  1.00  0.00     0.000 C 
BRANCH  12  13
ATOM     13  C   UNL     1     138.352 133.311 130.897  1.00  0.00     0.000 C 
BRANCH  13  14
ATOM     14  C   UNL     1     139.676 133.709 130.229  1.00  0.00     0.000 C 
BRANCH  14  15
ATOM     15  C   UNL     1     139.615 135.151 129.704  1.00  0.00     0.000 C 
BRANCH  15  16
ATOM     16  C   UNL     1     139.252 136.165 130.800  1.00  0.00     0.006 C 
BRANCH  16  17
ATOM     17  C   UNL     1     138.885 137.543 130.232  1.00  0.00     0.053 C 
BRANCH  17  18
ATOM     18  C   UNL     1     137.421 137.801 130.396  1.00  0.00     0.041 C 
ATOM     19  O   UNL     1     136.631 136.848 130.628  1.00  0.00    -0.550 OA
ATOM     20  O   UNL     1     136.921 139.088 130.244  1.00  0.00    -0.550 OA
ENDBRANCH  17  18
ENDBRANCH  16  17
ENDBRANCH  15  16
ENDBRANCH  14  15
ENDBRANCH  13  14
ENDBRANCH  12  13
ENDBRANCH  11  12
ENDBRANCH   1  11
TORSDOF 15
ENDMDL
MODEL 5
REMARK VINA RESULT:    -5.211      1.292      2.475
REMARK INTER + INTRA:         -12.073
REMARK INTER:                 -10.067
REMARK INTRA:                  -2.006
REMARK UNBOUND:                -2.292
REMARK SMILES O=C([O-])CCCCCCCCCCCCCCC(=O)[O-]
REMARK SMILES IDX 10 1 9 2 8 3 7 4 6 5 5 6 4 7 2 8 1 9 3 10 11 11 12 12 13 13
REMARK SMILES IDX 14 14 15 15 16 16 17 17 18 18 19 19 20 20
REMARK H PARENT
REMARK Flexibility Score: inf
ROOT
ATOM      1  C   UNL     1     138.890 130.902 130.544  1.00  0.00     0.000 C 
ENDROOT
BRANCH   1   2
ATOM      2  C   UNL     1     139.714 132.081 130.002  1.00  0.00     0.000 C 
BRANCH   2   3
ATOM      3  C   UNL     1     139.400 133.404 130.724  1.00  0.00     0.000 C 
BRANCH   3   4
ATOM      4  C   UNL     1     139.810 134.638 129.904  1.00  0.00     0.000 C 
BRANCH   4   5
ATOM      5  C   UNL     1     139.969 135.899 130.771  1.00  0.00     0.000 C 
BRANCH   5   6
ATOM      6  C   UNL     1     139.051 137.046 130.319  1.00  0.00     0.006 C 
BRANCH   6   7
ATOM      7  C   UNL     1     137.582 136.813 130.698  1.00  0.00     0.053 C 
BRANCH   7   8
ATOM      8  C   UNL     1     136.751 137.997 130.317  1.00  0.00     0.041 C 
ATOM      9  O   UNL     1     137.296 139.114 130.114  1.00  0.00    -0.550 OA
ATOM     10  O   UNL     1     135.370 137.880 130.236  1.00  0.00    -0.550 OA
ENDBRANCH   7   8
ENDBRANCH   6   7
ENDBRANCH   5   6
ENDBRANCH   4   5
ENDBRANCH   3   4
ENDBRANCH   2   3
ENDBRANCH   1   2
BRANCH   1  11
ATOM     11  C   UNL     1     138.166 130.125 129.430  1.00  0.00     0.000 C 
BRANCH  11  12
ATOM     12  C   UNL     1     138.198 130.861 128.080  1.00  0.00     0.000 C 
BRANCH  12  13
ATOM     13  C   UNL     1     136.866 131.552 127.750  1.00  0.00     0.000 C 
BRANCH  13  14
ATOM     14  C   UNL     1     137.046 133.073 127.656  1.00  0.00     0.000 C 
BRANCH  14  15
ATOM     15  C   UNL     1     136.011 133.804 128.524  1.00  0.00     0.000 C 
BRANCH  15  16
ATOM     16  C   UNL     1     135.875 133.190 129.926  1.00  0.00     0.006 C 
BRANCH  16  17
ATOM     17  C   UNL     1     134.418 133.122 130.403  1.00  0.00     0.053 C 
BRANCH  17  18
ATOM     18  C   UNL     1     134.012 131.702 130.637  1.00  0.00     0.041 C 
ATOM     19  O   UNL     1     134.302 130.812 129.795  1.00  0.00    -0.550 OA
ATOM     20  O   UNL     1     133.269 131.368 131.763  1.00  0.00    -0.550 OA
ENDBRANCH  17  18
ENDBRANCH  16  17
ENDBRANCH  15  16
ENDBRANCH  14  15
ENDBRANCH  13  14
ENDBRANCH  12  13
ENDBRANCH  11  12
ENDBRANCH   1  11
TORSDOF 15
ENDMDL
MODEL 6
REMARK VINA RESULT:    -4.908      2.029      5.359
REMARK INTER + INTRA:         -11.504
REMARK INTER:                  -9.498
REMARK INTRA:                  -2.007
REMARK UNBOUND:                -2.292
REMARK SMILES O=C([O-])CCCCCCCCCCCCCCC(=O)[O-]
REMARK SMILES IDX 10 1 9 2 8 3 7 4 6 5 5 6 4 7 2 8 1 9 3 10 11 11 12 12 13 13
REMARK SMILES IDX 14 14 15 15 16 16 17 17 18 18 19 19 20 20
REMARK H PARENT
REMARK Flexibility Score: inf
ROOT
ATOM      1  C   UNL     1     138.552 131.823 131.289  1.00  0.00     0.000 C 
ENDROOT
BRANCH   1   2
ATOM      2  C   UNL     1     137.982 130.792 130.301  1.00  0.00     0.000 C 
BRANCH   2   3
ATOM      3  C   UNL     1     138.827 130.670 129.021  1.00  0.00     0.000 C 
BRANCH   3   4
ATOM      4  C   UNL     1     137.998 130.883 127.743  1.00  0.00     0.000 C 
BRANCH   4   5
ATOM      5  C   UNL     1     136.596 131.447 128.034  1.00  0.00     0.000 C 
BRANCH   5   6
ATOM      6  C   UNL     1     136.468 132.932 127.657  1.00  0.00     0.006 C 
BRANCH   6   7
ATOM      7  C   UNL     1     136.781 133.870 128.831  1.00  0.00     0.053 C 
BRANCH   7   8
ATOM      8  C   UNL     1     135.584 134.017 129.716  1.00  0.00     0.041 C 
ATOM      9  O   UNL     1     135.556 133.452 130.841  1.00  0.00    -0.550 OA
ATOM     10  O   UNL     1     134.480 134.737 129.278  1.00  0.00    -0.550 OA
ENDBRANCH   7   8
ENDBRANCH   6   7
ENDBRANCH   5   6
ENDBRANCH   4   5
ENDBRANCH   3   4
ENDBRANCH   2   3
ENDBRANCH   1   2
BRANCH   1  11
ATOM     11  C   UNL     1     139.706 132.644 130.687  1.00  0.00     0.000 C 
BRANCH  11  12
ATOM     12  C   UNL     1     140.408 133.530 131.729  1.00  0.00     0.000 C 
BRANCH  12  13
ATOM     13  C   UNL     1     140.493 135.001 131.298  1.00  0.00     0.000 C 
BRANCH  13  14
ATOM     14  C   UNL     1     140.132 135.160 129.815  1.00  0.00     0.000 C 
BRANCH  14  15
ATOM     15  C   UNL     1     139.434 136.504 129.558  1.00  0.00     0.000 C 
BRANCH  15  16
ATOM     16  C   UNL     1     138.812 137.099 130.831  1.00  0.00     0.006 C 
BRANCH  16  17
ATOM     17  C   UNL     1     137.291 136.909 130.891  1.00  0.00     0.053 C 
BRANCH  17  18
ATOM     18  C   UNL     1     136.593 138.125 130.370  1.00  0.00     0.041 C 
ATOM     19  O   UNL     1     137.213 139.216 130.262  1.00  0.00    -0.550 OA
ATOM     20  O   UNL     1     135.242 138.067 130.050  1.00  0.00    -0.550 OA
ENDBRANCH  17  18
ENDBRANCH  16  17
ENDBRANCH  15  16
ENDBRANCH  14  15
ENDBRANCH  13  14
ENDBRANCH  12  13
ENDBRANCH  11  12
ENDBRANCH   1  11
TORSDOF 15
ENDMDL
MODEL 7
REMARK VINA RESULT:    -4.877      2.142      6.055
REMARK INTER + INTRA:         -11.446
REMARK INTER:                  -9.489
REMARK INTRA:                  -1.957
REMARK UNBOUND:                -2.292
REMARK SMILES O=C([O-])CCCCCCCCCCCCCCC(=O)[O-]
REMARK SMILES IDX 10 1 9 2 8 3 7 4 6 5 5 6 4 7 2 8 1 9 3 10 11 11 12 12 13 13
REMARK SMILES IDX 14 14 15 15 16 16 17 17 18 18 19 19 20 20
REMARK H PARENT
REMARK Flexibility Score: inf
ROOT
ATOM      1  C   UNL     1     136.188 134.346 129.796  1.00  0.00     0.000 C 
ENDROOT
BRANCH   1   2
ATOM      2  C   UNL     1     134.711 134.406 129.375  1.00  0.00     0.000 C 
BRANCH   2   3
ATOM      3  C   UNL     1     133.809 133.518 130.252  1.00  0.00     0.000 C 
BRANCH   3   4
ATOM      4  C   UNL     1     134.538 132.271 130.778  1.00  0.00     0.000 C 
BRANCH   4   5
ATOM      5  C   UNL     1     134.334 131.041 129.875  1.00  0.00     0.000 C 
BRANCH   5   6
ATOM      6  C   UNL     1     135.648 130.539 129.256  1.00  0.00     0.006 C 
BRANCH   6   7
ATOM      7  C   UNL     1     136.810 130.531 130.259  1.00  0.00     0.053 C 
BRANCH   7   8
ATOM      8  C   UNL     1     138.120 130.472 129.540  1.00  0.00     0.041 C 
ATOM      9  O   UNL     1     138.154 130.518 128.282  1.00  0.00    -0.550 OA
ATOM     10  O   UNL     1     139.300 130.316 130.255  1.00  0.00    -0.550 OA
ENDBRANCH   7   8
ENDBRANCH   6   7
ENDBRANCH   5   6
ENDBRANCH   4   5
ENDBRANCH   3   4
ENDBRANCH   2   3
ENDBRANCH   1   2
BRANCH   1  11
ATOM     11  C   UNL     1     137.109 133.872 128.657  1.00  0.00     0.000 C 
BRANCH  11  12
ATOM     12  C   UNL     1     138.582 134.242 128.897  1.00  0.00     0.000 C 
BRANCH  12  13
ATOM     13  C   UNL     1     139.033 133.978 130.341  1.00  0.00     0.000 C 
BRANCH  13  14
ATOM     14  C   UNL     1     139.822 135.172 130.896  1.00  0.00     0.000 C 
BRANCH  14  15
ATOM     15  C   UNL     1     139.947 136.286 129.845  1.00  0.00     0.000 C 
BRANCH  15  16
ATOM     16  C   UNL     1     139.164 137.551 130.228  1.00  0.00     0.006 C 
BRANCH  16  17
ATOM     17  C   UNL     1     137.851 137.236 130.957  1.00  0.00     0.053 C 
BRANCH  17  18
ATOM     18  C   UNL     1     136.763 138.150 130.492  1.00  0.00     0.041 C 
ATOM     19  O   UNL     1     135.608 137.700 130.270  1.00  0.00    -0.550 OA
ATOM     20  O   UNL     1     137.037 139.492 130.255  1.00  0.00    -0.550 OA
ENDBRANCH  17  18
ENDBRANCH  16  17
ENDBRANCH  15  16
ENDBRANCH  14  15
ENDBRANCH  13  14
ENDBRANCH  12  13
ENDBRANCH  11  12
ENDBRANCH   1  11
TORSDOF 15
ENDMDL
MODEL 8
REMARK VINA RESULT:    -4.801      2.203      5.547
REMARK INTER + INTRA:         -11.304
REMARK INTER:                  -9.635
REMARK INTRA:                  -1.669
REMARK UNBOUND:                -2.292
REMARK SMILES O=C([O-])CCCCCCCCCCCCCCC(=O)[O-]
REMARK SMILES IDX 10 1 9 2 8 3 7 4 6 5 5 6 4 7 2 8 1 9 3 10 11 11 12 12 13 13
REMARK SMILES IDX 14 14 15 15 16 16 17 17 18 18 19 19 20 20
REMARK H PARENT
REMARK Flexibility Score: inf
ROOT
ATOM      1  C   UNL     1     139.595 131.243 129.585  1.00  0.00     0.000 C 
ENDROOT
BRANCH   1   2
ATOM      2  C   UNL     1     138.501 130.255 129.147  1.00  0.00     0.000 C 
BRANCH   2   3
ATOM      3  C   UNL     1     137.390 130.098 130.200  1.00  0.00     0.000 C 
BRANCH   3   4
ATOM      4  C   UNL     1     136.007 130.504 129.666  1.00  0.00     0.000 C 
BRANCH   4   5
ATOM      5  C   UNL     1     135.525 131.850 130.235  1.00  0.00     0.000 C 
BRANCH   5   6
ATOM      6  C   UNL     1     135.371 132.928 129.150  1.00  0.00     0.006 C 
BRANCH   6   7
ATOM      7  C   UNL     1     136.699 133.266 128.458  1.00  0.00     0.053 C 
BRANCH   7   8
ATOM      8  C   UNL     1     136.623 132.948 126.998  1.00  0.00     0.041 C 
ATOM      9  O   UNL     1     137.109 131.873 126.558  1.00  0.00    -0.550 OA
ATOM     10  O   UNL     1     136.059 133.861 126.117  1.00  0.00    -0.550 OA
ENDBRANCH   7   8
ENDBRANCH   6   7
ENDBRANCH   5   6
ENDBRANCH   4   5
ENDBRANCH   3   4
ENDBRANCH   2   3
ENDBRANCH   1   2
BRANCH   1  11
ATOM     11  C   UNL     1     139.357 131.801 130.998  1.00  0.00     0.000 C 
BRANCH  11  12
ATOM     12  C   UNL     1     139.082 133.314 130.997  1.00  0.00     0.000 C 
BRANCH  12  13
ATOM     13  C   UNL     1     140.353 134.148 131.212  1.00  0.00     0.000 C 
BRANCH  13  14
ATOM     14  C   UNL     1     140.281 135.469 130.434  1.00  0.00     0.000 C 
BRANCH  14  15
ATOM     15  C   UNL     1     138.844 135.761 129.977  1.00  0.00     0.000 C 
BRANCH  15  16
ATOM     16  C   UNL     1     138.127 136.771 130.886  1.00  0.00     0.006 C 
BRANCH  16  17
ATOM     17  C   UNL     1     137.942 138.140 130.218  1.00  0.00     0.053 C 
BRANCH  17  18
ATOM     18  C   UNL     1     136.513 138.573 130.302  1.00  0.00     0.041 C 
ATOM     19  O   UNL     1     135.591 137.715 130.322  1.00  0.00    -0.550 OA
ATOM     20  O   UNL     1     136.195 139.925 130.308  1.00  0.00    -0.550 OA
ENDBRANCH  17  18
ENDBRANCH  16  17
ENDBRANCH  15  16
ENDBRANCH  14  15
ENDBRANCH  13  14
ENDBRANCH  12  13
ENDBRANCH  11  12
ENDBRANCH   1  11
TORSDOF 15
ENDMDL
MODEL 9
REMARK VINA RESULT:    -4.768      2.568      4.462
REMARK INTER + INTRA:         -11.241
REMARK INTER:                  -9.460
REMARK INTRA:                  -1.780
REMARK UNBOUND:                -2.292
REMARK SMILES O=C([O-])CCCCCCCCCCCCCCC(=O)[O-]
REMARK SMILES IDX 10 1 9 2 8 3 7 4 6 5 5 6 4 7 2 8 1 9 3 10 11 11 12 12 13 13
REMARK SMILES IDX 14 14 15 15 16 16 17 17 18 18 19 19 20 20
REMARK H PARENT
REMARK Flexibility Score: inf
ROOT
ATOM      1  C   UNL     1     138.774 137.253 130.249  1.00  0.00     0.000 C 
ENDROOT
BRANCH   1   2
ATOM      2  C   UNL     1     139.179 135.805 129.926  1.00  0.00     0.000 C 
BRANCH   2   3
ATOM      3  C   UNL     1     140.466 135.375 130.652  1.00  0.00     0.000 C 
BRANCH   3   4
ATOM      4  C   UNL     1     140.331 134.005 131.336  1.00  0.00     0.000 C 
BRANCH   4   5
ATOM      5  C   UNL     1     138.981 133.327 131.041  1.00  0.00     0.000 C 
BRANCH   5   6
ATOM      6  C   UNL     1     139.080 131.794 131.035  1.00  0.00     0.006 C 
BRANCH   6   7
ATOM      7  C   UNL     1     139.565 131.236 129.690  1.00  0.00     0.053 C 
BRANCH   7   8
ATOM      8  C   UNL     1     138.504 130.387 129.064  1.00  0.00     0.041 C 
ATOM      9  O   UNL     1     138.189 130.557 127.856  1.00  0.00    -0.550 OA
ATOM     10  O   UNL     1     137.830 129.442 129.826  1.00  0.00    -0.550 OA
ENDBRANCH   7   8
ENDBRANCH   6   7
ENDBRANCH   5   6
ENDBRANCH   4   5
ENDBRANCH   3   4
ENDBRANCH   2   3
ENDBRANCH   1   2
BRANCH   1  11
ATOM     11  C   UNL     1     137.287 137.382 130.623  1.00  0.00     0.000 C 
BRANCH  11  12
ATOM     12  C   UNL     1     136.532 136.046 130.513  1.00  0.00     0.000 C 
BRANCH  12  13
ATOM     13  C   UNL     1     135.136 136.203 129.893  1.00  0.00     0.000 C 
BRANCH  13  14
ATOM     14  C   UNL     1     134.548 134.837 129.513  1.00  0.00     0.000 C 
BRANCH  14  15
ATOM     15  C   UNL     1     135.634 133.909 128.946  1.00  0.00     0.000 C 
BRANCH  15  16
ATOM     16  C   UNL     1     135.765 132.599 129.738  1.00  0.00     0.006 C 
BRANCH  16  17
ATOM     17  C   UNL     1     134.440 132.157 130.373  1.00  0.00     0.053 C 
BRANCH  17  18
ATOM     18  C   UNL     1     134.042 130.808 129.863  1.00  0.00     0.041 C 
ATOM     19  O   UNL     1     134.633 130.305 128.871  1.00  0.00    -0.550 OA
ATOM     20  O   UNL     1     132.984 130.127 130.452  1.00  0.00    -0.550 OA
ENDBRANCH  17  18
ENDBRANCH  16  17
ENDBRANCH  15  16
ENDBRANCH  14  15
ENDBRANCH  13  14
ENDBRANCH  12  13
ENDBRANCH  11  12
ENDBRANCH   1  11
TORSDOF 15
ENDMDL
