MODEL 1
REMARK VINA RESULT:    -3.260      0.000      0.000
REMARK INTER + INTRA:          -8.655
REMARK INTER:                  -6.119
REMARK INTRA:                  -2.536
REMARK UNBOUND:                -2.536
REMARK SMILES CCCCCCCCC=CCCCCCCCC(=O)[O-]
REMARK SMILES IDX 10 1 9 2 11 3 12 4 13 5 14 6 15 7 16 8 17 9 18 10 19 11
REMARK SMILES IDX 20 12 8 13 7 14 6 15 5 16 4 17 3 18 2 19 1 20
REMARK H PARENT
REMARK Flexibility Score: inf
ROOT
ATOM      1  C   UNL     1     -12.424 -21.311  23.292  1.00  0.00    -0.031 C 
ATOM      2  C   UNL     1     -12.535 -22.356  24.133  1.00  0.00    -0.031 C 
ENDROOT
BRANCH   1   3
ATOM      3  C   UNL     1     -13.565 -20.724  22.503  1.00  0.00     0.027 C 
BRANCH   3   4
ATOM      4  C   UNL     1     -13.593 -21.303  21.080  1.00  0.00     0.004 C 
BRANCH   4   5
ATOM      5  C   UNL     1     -13.480 -20.219  19.998  1.00  0.00     0.000 C 
BRANCH   5   6
ATOM      6  C   UNL     1     -12.475 -19.116  20.367  1.00  0.00     0.000 C 
BRANCH   6   7
ATOM      7  C   UNL     1     -11.168 -19.219  19.549  1.00  0.00     0.000 C 
BRANCH   7   8
ATOM      8  C   UNL     1      -9.974 -19.747  20.367  1.00  0.00     0.006 C 
BRANCH   8   9
ATOM      9  C   UNL     1      -8.672 -19.869  19.562  1.00  0.00     0.053 C 
BRANCH   9  10
ATOM     10  C   UNL     1      -7.716 -18.757  19.873  1.00  0.00     0.041 C 
ATOM     11  O   UNL     1      -7.265 -18.620  21.040  1.00  0.00    -0.550 OA
ATOM     12  O   UNL     1      -7.339 -17.860  18.882  1.00  0.00    -0.550 OA
ENDBRANCH   9  10
ENDBRANCH   8   9
ENDBRANCH   7   8
ENDBRANCH   6   7
ENDBRANCH   5   6
ENDBRANCH   4   5
ENDBRANCH   3   4
ENDBRANCH   1   3
BRANCH   2  13
ATOM     13  C   UNL     1     -13.795 -23.160  24.344  1.00  0.00     0.027 C 
BRANCH  13  14
ATOM     14  C   UNL     1     -13.627 -24.627  23.913  1.00  0.00     0.004 C 
BRANCH  14  15
ATOM     15  C   UNL     1     -13.199 -24.814  22.443  1.00  0.00     0.000 C 
BRANCH  15  16
ATOM     16  C   UNL     1     -11.728 -25.225  22.239  1.00  0.00     0.000 C 
BRANCH  16  17
ATOM     17  C   UNL     1     -11.154 -24.922  20.841  1.00  0.00    -0.000 C 
BRANCH  17  18
ATOM     18  C   UNL     1     -10.831 -23.438  20.577  1.00  0.00    -0.000 C 
BRANCH  18  19
ATOM     19  C   UNL     1     -10.387 -23.118  19.138  1.00  0.00    -0.003 C 
ATOM     20  C   UNL     1     -11.556 -22.780  18.214  1.00  0.00     0.004 C 
ENDBRANCH  18  19
ENDBRANCH  17  18
ENDBRANCH  16  17
ENDBRANCH  15  16
ENDBRANCH  14  15
ENDBRANCH  13  14
ENDBRANCH   2  13
TORSDOF 15
ENDMDL
MODEL 2
REMARK VINA RESULT:    -3.187      9.039     11.032
REMARK INTER + INTRA:          -8.519
REMARK INTER:                  -6.166
REMARK INTRA:                  -2.352
REMARK UNBOUND:                -2.536
REMARK SMILES CCCCCCCCC=CCCCCCCCC(=O)[O-]
REMARK SMILES IDX 10 1 9 2 11 3 12 4 13 5 14 6 15 7 16 8 17 9 18 10 19 11
REMARK SMILES IDX 20 12 8 13 7 14 6 15 5 16 4 17 3 18 2 19 1 20
REMARK H PARENT
REMARK Flexibility Score: inf
ROOT
ATOM      1  C   UNL     1     -17.618 -12.487  26.152  1.00  0.00    -0.031 C 
ATOM      2  C   UNL     1     -18.075 -11.771  25.109  1.00  0.00    -0.031 C 
ENDROOT
BRANCH   1   3
ATOM      3  C   UNL     1     -17.714 -13.987  26.266  1.00  0.00     0.027 C 
BRANCH   3   4
ATOM      4  C   UNL     1     -16.383 -14.645  25.871  1.00  0.00     0.004 C 
BRANCH   4   5
ATOM      5  C   UNL     1     -15.467 -14.898  27.078  1.00  0.00     0.000 C 
BRANCH   5   6
ATOM      6  C   UNL     1     -16.161 -15.701  28.190  1.00  0.00     0.000 C 
BRANCH   6   7
ATOM      7  C   UNL     1     -15.653 -17.159  28.261  1.00  0.00     0.000 C 
BRANCH   7   8
ATOM      8  C   UNL     1     -15.121 -17.554  29.652  1.00  0.00     0.006 C 
BRANCH   8   9
ATOM      9  C   UNL     1     -14.042 -16.608  30.198  1.00  0.00     0.053 C 
BRANCH   9  10
ATOM     10  C   UNL     1     -12.693 -16.904  29.618  1.00  0.00     0.041 C 
ATOM     11  O   UNL     1     -12.006 -17.859  30.069  1.00  0.00    -0.550 OA
ATOM     12  O   UNL     1     -12.182 -16.116  28.595  1.00  0.00    -0.550 OA
ENDBRANCH   9  10
ENDBRANCH   8   9
ENDBRANCH   7   8
ENDBRANCH   6   7
ENDBRANCH   5   6
ENDBRANCH   4   5
ENDBRANCH   3   4
ENDBRANCH   1   3
BRANCH   2  13
ATOM     13  C   UNL     1     -18.836 -12.344  23.938  1.00  0.00     0.027 C 
BRANCH  13  14
ATOM     14  C   UNL     1     -17.905 -13.007  22.909  1.00  0.00     0.004 C 
BRANCH  14  15
ATOM     15  C   UNL     1     -18.383 -14.387  22.412  1.00  0.00     0.000 C 
BRANCH  15  16
ATOM     16  C   UNL     1     -19.728 -14.861  22.998  1.00  0.00     0.000 C 
BRANCH  16  17
ATOM     17  C   UNL     1     -19.641 -16.100  23.911  1.00  0.00    -0.000 C 
BRANCH  17  18
ATOM     18  C   UNL     1     -18.353 -16.934  23.756  1.00  0.00    -0.000 C 
BRANCH  18  19
ATOM     19  C   UNL     1     -18.010 -17.825  24.963  1.00  0.00    -0.003 C 
ATOM     20  C   UNL     1     -18.867 -17.521  26.192  1.00  0.00     0.004 C 
ENDBRANCH  18  19
ENDBRANCH  17  18
ENDBRANCH  16  17
ENDBRANCH  15  16
ENDBRANCH  14  15
ENDBRANCH  13  14
ENDBRANCH   2  13
TORSDOF 15
ENDMDL
MODEL 3
REMARK VINA RESULT:    -3.186      9.320     11.494
REMARK INTER + INTRA:          -8.515
REMARK INTER:                  -5.554
REMARK INTRA:                  -2.962
REMARK UNBOUND:                -2.536
REMARK SMILES CCCCCCCCC=CCCCCCCCC(=O)[O-]
REMARK SMILES IDX 10 1 9 2 11 3 12 4 13 5 14 6 15 7 16 8 17 9 18 10 19 11
REMARK SMILES IDX 20 12 8 13 7 14 6 15 5 16 4 17 3 18 2 19 1 20
REMARK H PARENT
REMARK Flexibility Score: inf
ROOT
ATOM      1  C   UNL     1     -15.164 -16.442  27.230  1.00  0.00    -0.031 C 
ATOM      2  C   UNL     1     -15.665 -16.019  26.055  1.00  0.00    -0.031 C 
ENDROOT
BRANCH   1   3
ATOM      3  C   UNL     1     -15.941 -17.222  28.259  1.00  0.00     0.027 C 
BRANCH   3   4
ATOM      4  C   UNL     1     -15.045 -17.582  29.454  1.00  0.00     0.004 C 
BRANCH   4   5
ATOM      5  C   UNL     1     -15.183 -16.589  30.618  1.00  0.00     0.000 C 
BRANCH   5   6
ATOM      6  C   UNL     1     -13.852 -15.905  30.974  1.00  0.00     0.000 C 
BRANCH   6   7
ATOM      7  C   UNL     1     -13.545 -14.707  30.046  1.00  0.00     0.000 C 
BRANCH   7   8
ATOM      8  C   UNL     1     -12.370 -14.964  29.084  1.00  0.00     0.006 C 
BRANCH   8   9
ATOM      9  C   UNL     1     -11.539 -16.207  29.433  1.00  0.00     0.053 C 
BRANCH   9  10
ATOM     10  C   UNL     1     -10.226 -15.844  30.056  1.00  0.00     0.041 C 
ATOM     11  O   UNL     1      -9.901 -14.635  30.186  1.00  0.00    -0.550 OA
ATOM     12  O   UNL     1      -9.351 -16.838  30.474  1.00  0.00    -0.550 OA
ENDBRANCH   9  10
ENDBRANCH   8   9
ENDBRANCH   7   8
ENDBRANCH   6   7
ENDBRANCH   5   6
ENDBRANCH   4   5
ENDBRANCH   3   4
ENDBRANCH   1   3
BRANCH   2  13
ATOM     13  C   UNL     1     -17.104 -16.177  25.627  1.00  0.00     0.027 C 
BRANCH  13  14
ATOM     14  C   UNL     1     -17.680 -14.879  25.034  1.00  0.00     0.004 C 
BRANCH  14  15
ATOM     15  C   UNL     1     -16.767 -13.646  25.196  1.00  0.00     0.000 C 
BRANCH  15  16
ATOM     16  C   UNL     1     -17.484 -12.359  25.649  1.00  0.00     0.000 C 
BRANCH  16  17
ATOM     17  C   UNL     1     -17.460 -12.098  27.168  1.00  0.00    -0.000 C 
BRANCH  17  18
ATOM     18  C   UNL     1     -16.459 -12.963  27.961  1.00  0.00    -0.000 C 
BRANCH  18  19
ATOM     19  C   UNL     1     -17.076 -13.769  29.118  1.00  0.00    -0.003 C 
ATOM     20  C   UNL     1     -18.363 -14.492  28.723  1.00  0.00     0.004 C 
ENDBRANCH  18  19
ENDBRANCH  17  18
ENDBRANCH  16  17
ENDBRANCH  15  16
ENDBRANCH  14  15
ENDBRANCH  13  14
ENDBRANCH   2  13
TORSDOF 15
ENDMDL
MODEL 4
REMARK VINA RESULT:    -3.180      2.304      4.560
REMARK INTER + INTRA:          -8.506
REMARK INTER:                  -5.670
REMARK INTRA:                  -2.836
REMARK UNBOUND:                -2.536
REMARK SMILES CCCCCCCCC=CCCCCCCCC(=O)[O-]
REMARK SMILES IDX 10 1 9 2 11 3 12 4 13 5 14 6 15 7 16 8 17 9 18 10 19 11
REMARK SMILES IDX 20 12 8 13 7 14 6 15 5 16 4 17 3 18 2 19 1 20
REMARK H PARENT
REMARK Flexibility Score: inf
ROOT
ATOM      1  C   UNL     1     -11.407 -24.192  21.121  1.00  0.00    -0.031 C 
ATOM      2  C   UNL     1     -12.660 -24.646  20.934  1.00  0.00    -0.031 C 
ENDROOT
BRANCH   1   3
ATOM      3  C   UNL     1     -10.620 -23.410  20.101  1.00  0.00     0.027 C 
BRANCH   3   4
ATOM      4  C   UNL     1     -10.870 -21.904  20.265  1.00  0.00     0.004 C 
BRANCH   4   5
ATOM      5  C   UNL     1      -9.833 -21.048  19.520  1.00  0.00     0.000 C 
BRANCH   5   6
ATOM      6  C   UNL     1     -10.053 -19.539  19.727  1.00  0.00     0.000 C 
BRANCH   6   7
ATOM      7  C   UNL     1     -11.298 -19.244  20.594  1.00  0.00     0.000 C 
BRANCH   7   8
ATOM      8  C   UNL     1     -12.389 -18.452  19.850  1.00  0.00     0.006 C 
BRANCH   8   9
ATOM      9  C   UNL     1     -12.734 -19.018  18.465  1.00  0.00     0.053 C 
BRANCH   9  10
ATOM     10  C   UNL     1     -12.611 -17.980  17.391  1.00  0.00     0.041 C 
ATOM     11  O   UNL     1     -11.548 -17.887  16.721  1.00  0.00    -0.550 OA
ATOM     12  O   UNL     1     -13.657 -17.102  17.141  1.00  0.00    -0.550 OA
ENDBRANCH   9  10
ENDBRANCH   8   9
ENDBRANCH   7   8
ENDBRANCH   6   7
ENDBRANCH   5   6
ENDBRANCH   4   5
ENDBRANCH   3   4
ENDBRANCH   1   3
BRANCH   2  13
ATOM     13  C   UNL     1     -13.435 -24.525  19.644  1.00  0.00     0.027 C 
BRANCH  13  14
ATOM     14  C   UNL     1     -14.237 -23.215  19.569  1.00  0.00     0.004 C 
BRANCH  14  15
ATOM     15  C   UNL     1     -14.773 -22.717  20.927  1.00  0.00     0.000 C 
BRANCH  15  16
ATOM     16  C   UNL     1     -14.336 -21.291  21.318  1.00  0.00     0.000 C 
BRANCH  16  17
ATOM     17  C   UNL     1     -14.086 -21.075  22.824  1.00  0.00    -0.000 C 
BRANCH  17  18
ATOM     18  C   UNL     1     -12.643 -21.352  23.291  1.00  0.00    -0.000 C 
BRANCH  18  19
ATOM     19  C   UNL     1     -12.493 -22.538  24.259  1.00  0.00    -0.003 C 
ATOM     20  C   UNL     1     -13.817 -23.243  24.550  1.00  0.00     0.004 C 
ENDBRANCH  18  19
ENDBRANCH  17  18
ENDBRANCH  16  17
ENDBRANCH  15  16
ENDBRANCH  14  15
ENDBRANCH  13  14
ENDBRANCH   2  13
TORSDOF 15
ENDMDL
MODEL 5
REMARK VINA RESULT:    -3.147      2.564      4.278
REMARK INTER + INTRA:          -8.444
REMARK INTER:                  -5.329
REMARK INTRA:                  -3.115
REMARK UNBOUND:                -2.536
REMARK SMILES CCCCCCCCC=CCCCCCCCC(=O)[O-]
REMARK SMILES IDX 10 1 9 2 11 3 12 4 13 5 14 6 15 7 16 8 17 9 18 10 19 11
REMARK SMILES IDX 20 12 8 13 7 14 6 15 5 16 4 17 3 18 2 19 1 20
REMARK H PARENT
REMARK Flexibility Score: inf
ROOT
ATOM      1  C   UNL     1     -12.095 -24.520  21.550  1.00  0.00    -0.031 C 
ATOM      2  C   UNL     1     -12.435 -24.399  22.846  1.00  0.00    -0.031 C 
ENDROOT
BRANCH   1   3
ATOM      3  C   UNL     1     -11.130 -23.611  20.832  1.00  0.00     0.027 C 
BRANCH   3   4
ATOM      4  C   UNL     1     -11.714 -23.161  19.484  1.00  0.00     0.004 C 
BRANCH   4   5
ATOM      5  C   UNL     1     -11.316 -21.722  19.119  1.00  0.00     0.000 C 
BRANCH   5   6
ATOM      6  C   UNL     1     -10.354 -21.096  20.142  1.00  0.00     0.000 C 
BRANCH   6   7
ATOM      7  C   UNL     1     -10.670 -19.606  20.405  1.00  0.00     0.000 C 
BRANCH   7   8
ATOM      8  C   UNL     1     -11.269 -18.883  19.184  1.00  0.00     0.006 C 
BRANCH   8   9
ATOM      9  C   UNL     1     -12.629 -18.226  19.454  1.00  0.00     0.053 C 
BRANCH   9  10
ATOM     10  C   UNL     1     -13.431 -18.063  18.198  1.00  0.00     0.041 C 
ATOM     11  O   UNL     1     -14.053 -16.990  17.980  1.00  0.00    -0.550 OA
ATOM     12  O   UNL     1     -13.509 -19.100  17.278  1.00  0.00    -0.550 OA
ENDBRANCH   9  10
ENDBRANCH   8   9
ENDBRANCH   7   8
ENDBRANCH   6   7
ENDBRANCH   5   6
ENDBRANCH   4   5
ENDBRANCH   3   4
ENDBRANCH   1   3
BRANCH   2  13
ATOM     13  C   UNL     1     -11.980 -23.282  23.755  1.00  0.00     0.027 C 
BRANCH  13  14
ATOM     14  C   UNL     1     -13.054 -22.194  23.921  1.00  0.00     0.004 C 
BRANCH  14  15
ATOM     15  C   UNL     1     -12.805 -20.921  23.087  1.00  0.00     0.000 C 
BRANCH  15  16
ATOM     16  C   UNL     1     -13.817 -20.677  21.950  1.00  0.00     0.000 C 
BRANCH  16  17
ATOM     17  C   UNL     1     -14.988 -21.679  21.893  1.00  0.00    -0.000 C 
BRANCH  17  18
ATOM     18  C   UNL     1     -15.151 -22.413  20.547  1.00  0.00    -0.000 C 
BRANCH  18  19
ATOM     19  C   UNL     1     -15.011 -21.520  19.301  1.00  0.00    -0.003 C 
ATOM     20  C   UNL     1     -16.259 -21.528  18.419  1.00  0.00     0.004 C 
ENDBRANCH  18  19
ENDBRANCH  17  18
ENDBRANCH  16  17
ENDBRANCH  15  16
ENDBRANCH  14  15
ENDBRANCH  13  14
ENDBRANCH   2  13
TORSDOF 15
ENDMDL
MODEL 6
REMARK VINA RESULT:    -3.147      2.260      4.288
REMARK INTER + INTRA:          -8.442
REMARK INTER:                  -5.409
REMARK INTRA:                  -3.033
REMARK UNBOUND:                -2.536
REMARK SMILES CCCCCCCCC=CCCCCCCCC(=O)[O-]
REMARK SMILES IDX 10 1 9 2 11 3 12 4 13 5 14 6 15 7 16 8 17 9 18 10 19 11
REMARK SMILES IDX 20 12 8 13 7 14 6 15 5 16 4 17 3 18 2 19 1 20
REMARK H PARENT
REMARK Flexibility Score: inf
ROOT
ATOM      1  C   UNL     1     -14.082 -23.678  20.139  1.00  0.00    -0.031 C 
ATOM      2  C   UNL     1     -15.115 -23.351  20.938  1.00  0.00    -0.031 C 
ENDROOT
BRANCH   1   3
ATOM      3  C   UNL     1     -13.070 -22.696  19.607  1.00  0.00     0.027 C 
BRANCH   3   4
ATOM      4  C   UNL     1     -11.646 -23.126  19.990  1.00  0.00     0.004 C 
BRANCH   4   5
ATOM      5  C   UNL     1     -10.786 -21.952  20.482  1.00  0.00     0.000 C 
BRANCH   5   6
ATOM      6  C   UNL     1     -10.706 -20.807  19.459  1.00  0.00     0.000 C 
BRANCH   6   7
ATOM      7  C   UNL     1     -11.048 -19.438  20.087  1.00  0.00     0.000 C 
BRANCH   7   8
ATOM      8  C   UNL     1     -12.543 -19.079  19.994  1.00  0.00     0.006 C 
BRANCH   8   9
ATOM      9  C   UNL     1     -12.848 -17.922  19.033  1.00  0.00     0.053 C 
BRANCH   9  10
ATOM     10  C   UNL     1     -12.357 -18.203  17.645  1.00  0.00     0.041 C 
ATOM     11  O   UNL     1     -11.478 -17.468  17.124  1.00  0.00    -0.550 OA
ATOM     12  O   UNL     1     -12.883 -19.263  16.918  1.00  0.00    -0.550 OA
ENDBRANCH   9  10
ENDBRANCH   8   9
ENDBRANCH   7   8
ENDBRANCH   6   7
ENDBRANCH   5   6
ENDBRANCH   4   5
ENDBRANCH   3   4
ENDBRANCH   1   3
BRANCH   2  13
ATOM     13  C   UNL     1     -15.475 -21.943  21.347  1.00  0.00     0.027 C 
BRANCH  13  14
ATOM     14  C   UNL     1     -15.025 -21.623  22.782  1.00  0.00     0.004 C 
BRANCH  14  15
ATOM     15  C   UNL     1     -13.761 -20.743  22.873  1.00  0.00     0.000 C 
BRANCH  15  16
ATOM     16  C   UNL     1     -12.554 -21.404  23.567  1.00  0.00     0.000 C 
BRANCH  16  17
ATOM     17  C   UNL     1     -12.827 -22.800  24.161  1.00  0.00    -0.000 C 
BRANCH  17  18
ATOM     18  C   UNL     1     -12.230 -23.976  23.362  1.00  0.00    -0.000 C 
BRANCH  18  19
ATOM     19  C   UNL     1     -13.033 -25.286  23.442  1.00  0.00    -0.003 C 
ATOM     20  C   UNL     1     -14.393 -25.112  24.117  1.00  0.00     0.004 C 
ENDBRANCH  18  19
ENDBRANCH  17  18
ENDBRANCH  16  17
ENDBRANCH  15  16
ENDBRANCH  14  15
ENDBRANCH  13  14
ENDBRANCH   2  13
TORSDOF 15
ENDMDL
MODEL 7
REMARK VINA RESULT:    -3.142      1.364      3.363
REMARK INTER + INTRA:          -8.433
REMARK INTER:                  -5.709
REMARK INTRA:                  -2.724
REMARK UNBOUND:                -2.536
REMARK SMILES CCCCCCCCC=CCCCCCCCC(=O)[O-]
REMARK SMILES IDX 10 1 9 2 11 3 12 4 13 5 14 6 15 7 16 8 17 9 18 10 19 11
REMARK SMILES IDX 20 12 8 13 7 14 6 15 5 16 4 17 3 18 2 19 1 20
REMARK H PARENT
REMARK Flexibility Score: inf
ROOT
ATOM      1  C   UNL     1     -11.385 -20.146  20.934  1.00  0.00    -0.031 C 
ATOM      2  C   UNL     1     -11.136 -21.447  20.696  1.00  0.00    -0.031 C 
ENDROOT
BRANCH   1   3
ATOM      3  C   UNL     1     -12.549 -19.379  20.361  1.00  0.00     0.027 C 
BRANCH   3   4
ATOM      4  C   UNL     1     -12.063 -18.350  19.331  1.00  0.00     0.004 C 
BRANCH   4   5
ATOM      5  C   UNL     1     -11.556 -19.003  18.036  1.00  0.00     0.000 C 
BRANCH   5   6
ATOM      6  C   UNL     1     -10.063 -18.733  17.782  1.00  0.00     0.000 C 
BRANCH   6   7
ATOM      7  C   UNL     1      -9.217 -20.025  17.846  1.00  0.00     0.000 C 
BRANCH   7   8
ATOM      8  C   UNL     1      -7.987 -19.906  18.765  1.00  0.00     0.006 C 
BRANCH   8   9
ATOM      9  C   UNL     1      -8.235 -19.081  20.035  1.00  0.00     0.053 C 
BRANCH   9  10
ATOM     10  C   UNL     1      -6.969 -18.487  20.573  1.00  0.00     0.041 C 
ATOM     11  O   UNL     1      -6.454 -18.943  21.627  1.00  0.00    -0.550 OA
ATOM     12  O   UNL     1      -6.368 -17.416  19.924  1.00  0.00    -0.550 OA
ENDBRANCH   9  10
ENDBRANCH   8   9
ENDBRANCH   7   8
ENDBRANCH   6   7
ENDBRANCH   5   6
ENDBRANCH   4   5
ENDBRANCH   3   4
ENDBRANCH   1   3
BRANCH   2  13
ATOM     13  C   UNL     1     -11.928 -22.314  19.746  1.00  0.00     0.027 C 
BRANCH  13  14
ATOM     14  C   UNL     1     -12.217 -23.706  20.335  1.00  0.00     0.004 C 
BRANCH  14  15
ATOM     15  C   UNL     1     -11.401 -24.045  21.599  1.00  0.00     0.000 C 
BRANCH  15  16
ATOM     16  C   UNL     1     -12.235 -24.238  22.881  1.00  0.00     0.000 C 
BRANCH  16  17
ATOM     17  C   UNL     1     -12.299 -23.009  23.810  1.00  0.00    -0.000 C 
BRANCH  17  18
ATOM     18  C   UNL     1     -13.707 -22.416  24.009  1.00  0.00    -0.000 C 
BRANCH  18  19
ATOM     19  C   UNL     1     -14.079 -21.288  23.030  1.00  0.00    -0.003 C 
ATOM     20  C   UNL     1     -15.022 -21.749  21.919  1.00  0.00     0.004 C 
ENDBRANCH  18  19
ENDBRANCH  17  18
ENDBRANCH  16  17
ENDBRANCH  15  16
ENDBRANCH  14  15
ENDBRANCH  13  14
ENDBRANCH   2  13
TORSDOF 15
ENDMDL
MODEL 8
REMARK VINA RESULT:    -3.136      9.785     12.078
REMARK INTER + INTRA:          -8.422
REMARK INTER:                  -5.787
REMARK INTRA:                  -2.634
REMARK UNBOUND:                -2.536
REMARK SMILES CCCCCCCCC=CCCCCCCCC(=O)[O-]
REMARK SMILES IDX 10 1 9 2 11 3 12 4 13 5 14 6 15 7 16 8 17 9 18 10 19 11
REMARK SMILES IDX 20 12 8 13 7 14 6 15 5 16 4 17 3 18 2 19 1 20
REMARK H PARENT
REMARK Flexibility Score: inf
ROOT
ATOM      1  C   UNL     1     -13.688 -17.196  29.338  1.00  0.00    -0.031 C 
ATOM      2  C   UNL     1     -12.454 -17.063  29.855  1.00  0.00    -0.031 C 
ENDROOT
BRANCH   1   3
ATOM      3  C   UNL     1     -14.191 -16.457  28.125  1.00  0.00     0.027 C 
BRANCH   3   4
ATOM      4  C   UNL     1     -15.684 -16.739  27.900  1.00  0.00     0.004 C 
BRANCH   4   5
ATOM      5  C   UNL     1     -16.190 -16.207  26.550  1.00  0.00     0.000 C 
BRANCH   5   6
ATOM      6  C   UNL     1     -15.936 -14.700  26.376  1.00  0.00     0.000 C 
BRANCH   6   7
ATOM      7  C   UNL     1     -16.756 -13.850  27.374  1.00  0.00     0.000 C 
BRANCH   7   8
ATOM      8  C   UNL     1     -18.003 -13.202  26.744  1.00  0.00     0.006 C 
BRANCH   8   9
ATOM      9  C   UNL     1     -17.696 -11.976  25.873  1.00  0.00     0.053 C 
BRANCH   9  10
ATOM     10  C   UNL     1     -18.232 -12.130  24.482  1.00  0.00     0.041 C 
ATOM     11  O   UNL     1     -19.104 -11.332  24.049  1.00  0.00    -0.550 OA
ATOM     12  O   UNL     1     -17.787 -13.166  23.671  1.00  0.00    -0.550 OA
ENDBRANCH   9  10
ENDBRANCH   8   9
ENDBRANCH   7   8
ENDBRANCH   6   7
ENDBRANCH   5   6
ENDBRANCH   4   5
ENDBRANCH   3   4
ENDBRANCH   1   3
BRANCH   2  13
ATOM     13  C   UNL     1     -11.414 -16.087  29.360  1.00  0.00     0.027 C 
BRANCH  13  14
ATOM     14  C   UNL     1     -11.584 -14.691  29.985  1.00  0.00     0.004 C 
BRANCH  14  15
ATOM     15  C   UNL     1     -12.115 -13.618  29.012  1.00  0.00     0.000 C 
BRANCH  15  16
ATOM     16  C   UNL     1     -13.518 -13.073  29.344  1.00  0.00     0.000 C 
BRANCH  16  17
ATOM     17  C   UNL     1     -14.052 -13.454  30.739  1.00  0.00    -0.000 C 
BRANCH  17  18
ATOM     18  C   UNL     1     -15.423 -14.161  30.740  1.00  0.00    -0.000 C 
BRANCH  18  19
ATOM     19  C   UNL     1     -15.616 -15.197  31.863  1.00  0.00    -0.003 C 
ATOM     20  C   UNL     1     -14.329 -15.487  32.634  1.00  0.00     0.004 C 
ENDBRANCH  18  19
ENDBRANCH  17  18
ENDBRANCH  16  17
ENDBRANCH  15  16
ENDBRANCH  14  15
ENDBRANCH  13  14
ENDBRANCH   2  13
TORSDOF 15
ENDMDL
MODEL 9
REMARK VINA RESULT:    -3.104      3.984      6.473
REMARK INTER + INTRA:          -8.362
REMARK INTER:                  -5.002
REMARK INTRA:                  -3.361
REMARK UNBOUND:                -2.536
REMARK SMILES CCCCCCCCC=CCCCCCCCC(=O)[O-]
REMARK SMILES IDX 10 1 9 2 11 3 12 4 13 5 14 6 15 7 16 8 17 9 18 10 19 11
REMARK SMILES IDX 20 12 8 13 7 14 6 15 5 16 4 17 3 18 2 19 1 20
REMARK H PARENT
REMARK Flexibility Score: inf
ROOT
ATOM      1  C   UNL     1     -14.732 -21.480  20.379  1.00  0.00    -0.031 C 
ATOM      2  C   UNL     1     -13.918 -22.124  19.523  1.00  0.00    -0.031 C 
ENDROOT
BRANCH   1   3
ATOM      3  C   UNL     1     -14.791 -21.741  21.862  1.00  0.00     0.027 C 
BRANCH   3   4
ATOM      4  C   UNL     1     -14.014 -20.663  22.632  1.00  0.00     0.004 C 
BRANCH   4   5
ATOM      5  C   UNL     1     -12.855 -21.244  23.457  1.00  0.00     0.000 C 
BRANCH   5   6
ATOM      6  C   UNL     1     -13.112 -22.694  23.899  1.00  0.00     0.000 C 
BRANCH   6   7
ATOM      7  C   UNL     1     -12.016 -23.661  23.397  1.00  0.00     0.000 C 
BRANCH   7   8
ATOM      8  C   UNL     1     -12.535 -25.085  23.121  1.00  0.00     0.006 C 
BRANCH   8   9
ATOM      9  C   UNL     1     -14.058 -25.170  22.949  1.00  0.00     0.053 C 
BRANCH   9  10
ATOM     10  C   UNL     1     -14.691 -26.045  23.988  1.00  0.00     0.041 C 
ATOM     11  O   UNL     1     -14.042 -26.376  25.015  1.00  0.00    -0.550 OA
ATOM     12  O   UNL     1     -15.987 -26.511  23.816  1.00  0.00    -0.550 OA
ENDBRANCH   9  10
ENDBRANCH   8   9
ENDBRANCH   7   8
ENDBRANCH   6   7
ENDBRANCH   5   6
ENDBRANCH   4   5
ENDBRANCH   3   4
ENDBRANCH   1   3
BRANCH   2  13
ATOM     13  C   UNL     1     -13.008 -23.269  19.897  1.00  0.00     0.027 C 
BRANCH  13  14
ATOM     14  C   UNL     1     -11.546 -23.001  19.501  1.00  0.00     0.004 C 
BRANCH  14  15
ATOM     15  C   UNL     1     -10.810 -22.001  20.416  1.00  0.00     0.000 C 
BRANCH  15  16
ATOM     16  C   UNL     1     -10.593 -20.600  19.811  1.00  0.00     0.000 C 
BRANCH  16  17
ATOM     17  C   UNL     1     -11.097 -19.429  20.678  1.00  0.00    -0.000 C 
BRANCH  17  18
ATOM     18  C   UNL     1     -12.293 -18.652  20.092  1.00  0.00    -0.000 C 
BRANCH  18  19
ATOM     19  C   UNL     1     -12.401 -18.693  18.557  1.00  0.00    -0.003 C 
ATOM     20  C   UNL     1     -13.846 -18.665  18.061  1.00  0.00     0.004 C 
ENDBRANCH  18  19
ENDBRANCH  17  18
ENDBRANCH  16  17
ENDBRANCH  15  16
ENDBRANCH  14  15
ENDBRANCH  13  14
ENDBRANCH   2  13
TORSDOF 15
ENDMDL
