MODEL 1
REMARK VINA RESULT:    -4.112      0.000      0.000
REMARK INTER + INTRA:          -5.295
REMARK INTER:                  -5.073
REMARK INTRA:                  -0.221
REMARK UNBOUND:                -0.221
REMARK SMILES CCCCC(=O)c1ccccc1
REMARK SMILES IDX 4 1 3 2 2 3 1 4 5 5 6 6 7 7 8 8 12 9 9 10 11 11 10 12
REMARK H PARENT
REMARK Flexibility Score: inf
ROOT
ATOM      1  C   UNL     1      30.984 171.079  19.187  1.00  0.00     0.081 C 
ENDROOT
BRANCH   1   2
ATOM      2  C   UNL     1      30.741 171.763  20.536  1.00  0.00     0.008 C 
BRANCH   2   3
ATOM      3  C   UNL     1      29.656 172.839  20.418  1.00  0.00    -0.003 C 
ATOM      4  C   UNL     1      30.045 174.100  21.185  1.00  0.00     0.004 C 
ENDBRANCH   2   3
ENDBRANCH   1   2
BRANCH   1   5
ATOM      5  C   UNL     1      32.381 170.520  19.114  1.00  0.00     0.162 C 
ATOM      6  O   UNL     1      32.820 169.898  20.120  1.00  0.00    -0.294 OA
BRANCH   5   7
ATOM      7  C   UNL     1      33.238 170.644  17.900  1.00  0.00     0.017 A 
ATOM      8  C   UNL     1      32.935 171.556  16.867  1.00  0.00     0.012 A 
ATOM      9  C   UNL     1      34.381 169.833  17.766  1.00  0.00     0.012 A 
ATOM     10  C   UNL     1      33.756 171.650  15.739  1.00  0.00     0.001 A 
ATOM     11  C   UNL     1      35.199 169.932  16.636  1.00  0.00     0.001 A 
ATOM     12  C   UNL     1      34.886 170.840  15.624  1.00  0.00     0.000 A 
ENDBRANCH   5   7
ENDBRANCH   1   5
TORSDOF 4
ENDMDL
MODEL 2
REMARK VINA RESULT:    -4.078      1.856      4.740
REMARK INTER + INTRA:          -5.254
REMARK INTER:                  -4.717
REMARK INTRA:                  -0.536
REMARK UNBOUND:                -0.221
REMARK SMILES CCCCC(=O)c1ccccc1
REMARK SMILES IDX 4 1 3 2 2 3 1 4 5 5 6 6 7 7 8 8 12 9 9 10 11 11 10 12
REMARK H PARENT
REMARK Flexibility Score: inf
ROOT
ATOM      1  C   UNL     1      34.724 171.165  16.637  1.00  0.00     0.081 C 
ENDROOT
BRANCH   1   2
ATOM      2  C   UNL     1      34.454 170.883  15.155  1.00  0.00     0.008 C 
BRANCH   2   3
ATOM      3  C   UNL     1      32.951 170.748  14.887  1.00  0.00    -0.003 C 
ATOM      4  C   UNL     1      32.248 172.097  15.004  1.00  0.00     0.004 C 
ENDBRANCH   2   3
ENDBRANCH   1   2
BRANCH   1   5
ATOM      5  C   UNL     1      34.262 170.016  17.494  1.00  0.00     0.162 C 
ATOM      6  O   UNL     1      34.752 168.876  17.264  1.00  0.00    -0.294 OA
BRANCH   5   7
ATOM      7  C   UNL     1      33.287 170.181  18.610  1.00  0.00     0.017 A 
ATOM      8  C   UNL     1      32.245 171.129  18.551  1.00  0.00     0.012 A 
ATOM      9  C   UNL     1      33.401 169.377  19.761  1.00  0.00     0.012 A 
ATOM     10  C   UNL     1      31.346 171.263  19.614  1.00  0.00     0.001 A 
ATOM     11  C   UNL     1      32.499 169.515  20.820  1.00  0.00     0.001 A 
ATOM     12  C   UNL     1      31.472 170.458  20.746  1.00  0.00     0.000 A 
ENDBRANCH   5   7
ENDBRANCH   1   5
TORSDOF 4
ENDMDL
MODEL 3
REMARK VINA RESULT:    -4.021      2.046      2.492
REMARK INTER + INTRA:          -5.183
REMARK INTER:                  -4.929
REMARK INTRA:                  -0.254
REMARK UNBOUND:                -0.221
REMARK SMILES CCCCC(=O)c1ccccc1
REMARK SMILES IDX 4 1 3 2 2 3 1 4 5 5 6 6 7 7 8 8 12 9 9 10 11 11 10 12
REMARK H PARENT
REMARK Flexibility Score: inf
ROOT
ATOM      1  C   UNL     1      32.311 169.412  19.893  1.00  0.00     0.081 C 
ENDROOT
BRANCH   1   2
ATOM      2  C   UNL     1      33.206 169.596  21.123  1.00  0.00     0.008 C 
BRANCH   2   3
ATOM      3  C   UNL     1      32.367 169.715  22.400  1.00  0.00    -0.003 C 
ATOM      4  C   UNL     1      33.238 170.071  23.601  1.00  0.00     0.004 C 
ENDBRANCH   2   3
ENDBRANCH   1   2
BRANCH   1   5
ATOM      5  C   UNL     1      32.375 170.622  18.998  1.00  0.00     0.162 C 
ATOM      6  O   UNL     1      31.669 171.621  19.307  1.00  0.00    -0.294 OA
BRANCH   5   7
ATOM      7  C   UNL     1      33.257 170.693  17.798  1.00  0.00     0.017 A 
ATOM      8  C   UNL     1      32.983 171.566  16.725  1.00  0.00     0.012 A 
ATOM      9  C   UNL     1      34.397 169.870  17.720  1.00  0.00     0.012 A 
ATOM     10  C   UNL     1      33.827 171.611  15.611  1.00  0.00     0.001 A 
ATOM     11  C   UNL     1      35.238 169.919  16.604  1.00  0.00     0.001 A 
ATOM     12  C   UNL     1      34.953 170.790  15.551  1.00  0.00     0.000 A 
ENDBRANCH   5   7
ENDBRANCH   1   5
TORSDOF 4
ENDMDL
MODEL 4
REMARK VINA RESULT:    -3.970     20.806     22.503
REMARK INTER + INTRA:          -5.120
REMARK INTER:                  -4.599
REMARK INTRA:                  -0.520
REMARK UNBOUND:                -0.221
REMARK SMILES CCCCC(=O)c1ccccc1
REMARK SMILES IDX 4 1 3 2 2 3 1 4 5 5 6 6 7 7 8 8 12 9 9 10 11 11 10 12
REMARK H PARENT
REMARK Flexibility Score: inf
ROOT
ATOM      1  C   UNL     1      42.655 185.784  33.962  1.00  0.00     0.081 C 
ENDROOT
BRANCH   1   2
ATOM      2  C   UNL     1      42.578 184.386  34.584  1.00  0.00     0.008 C 
BRANCH   2   3
ATOM      3  C   UNL     1      42.892 183.304  33.544  1.00  0.00    -0.003 C 
ATOM      4  C   UNL     1      43.933 183.791  32.540  1.00  0.00     0.004 C 
ENDBRANCH   2   3
ENDBRANCH   1   2
BRANCH   1   5
ATOM      5  C   UNL     1      41.288 186.412  33.886  1.00  0.00     0.162 C 
ATOM      6  O   UNL     1      40.818 186.927  34.937  1.00  0.00    -0.294 OA
BRANCH   5   7
ATOM      7  C   UNL     1      40.498 186.476  32.623  1.00  0.00     0.017 A 
ATOM      8  C   UNL     1      40.887 185.768  31.467  1.00  0.00     0.012 A 
ATOM      9  C   UNL     1      39.331 187.263  32.569  1.00  0.00     0.012 A 
ATOM     10  C   UNL     1      40.126 185.849  30.296  1.00  0.00     0.001 A 
ATOM     11  C   UNL     1      38.575 187.340  31.395  1.00  0.00     0.001 A 
ATOM     12  C   UNL     1      38.972 186.632  30.260  1.00  0.00     0.000 A 
ENDBRANCH   5   7
ENDBRANCH   1   5
TORSDOF 4
ENDMDL
MODEL 5
REMARK VINA RESULT:    -3.966      1.799      2.426
REMARK INTER + INTRA:          -5.114
REMARK INTER:                  -4.760
REMARK INTRA:                  -0.354
REMARK UNBOUND:                -0.221
REMARK SMILES CCCCC(=O)c1ccccc1
REMARK SMILES IDX 4 1 3 2 2 3 1 4 5 5 6 6 7 7 8 8 12 9 9 10 11 11 10 12
REMARK H PARENT
REMARK Flexibility Score: inf
ROOT
ATOM      1  C   UNL     1      31.794 171.275  19.557  1.00  0.00     0.081 C 
ENDROOT
BRANCH   1   2
ATOM      2  C   UNL     1      31.639 170.098  20.526  1.00  0.00     0.008 C 
BRANCH   2   3
ATOM      3  C   UNL     1      32.999 169.669  21.089  1.00  0.00    -0.003 C 
ATOM      4  C   UNL     1      33.004 169.720  22.615  1.00  0.00     0.004 C 
ENDBRANCH   2   3
ENDBRANCH   1   2
BRANCH   1   5
ATOM      5  C   UNL     1      31.751 170.801  18.128  1.00  0.00     0.162 C 
ATOM      6  O   UNL     1      30.636 170.436  17.662  1.00  0.00    -0.294 OA
BRANCH   5   7
ATOM      7  C   UNL     1      32.953 170.781  17.247  1.00  0.00     0.017 A 
ATOM      8  C   UNL     1      32.990 171.484  16.024  1.00  0.00     0.012 A 
ATOM      9  C   UNL     1      34.089 170.043  17.632  1.00  0.00     0.012 A 
ATOM     10  C   UNL     1      34.131 171.446  15.217  1.00  0.00     0.001 A 
ATOM     11  C   UNL     1      35.228 170.009  16.821  1.00  0.00     0.001 A 
ATOM     12  C   UNL     1      35.248 170.711  15.615  1.00  0.00     0.000 A 
ENDBRANCH   5   7
ENDBRANCH   1   5
TORSDOF 4
ENDMDL
MODEL 6
REMARK VINA RESULT:    -3.964      1.744      5.124
REMARK INTER + INTRA:          -5.112
REMARK INTER:                  -4.728
REMARK INTRA:                  -0.385
REMARK UNBOUND:                -0.221
REMARK SMILES CCCCC(=O)c1ccccc1
REMARK SMILES IDX 4 1 3 2 2 3 1 4 5 5 6 6 7 7 8 8 12 9 9 10 11 11 10 12
REMARK H PARENT
REMARK Flexibility Score: inf
ROOT
ATOM      1  C   UNL     1      33.366 171.859  16.879  1.00  0.00     0.081 C 
ENDROOT
BRANCH   1   2
ATOM      2  C   UNL     1      33.823 171.227  15.560  1.00  0.00     0.008 C 
BRANCH   2   3
ATOM      3  C   UNL     1      35.260 170.707  15.670  1.00  0.00    -0.003 C 
ATOM      4  C   UNL     1      35.360 169.574  16.688  1.00  0.00     0.004 C 
ENDBRANCH   2   3
ENDBRANCH   1   2
BRANCH   1   5
ATOM      5  C   UNL     1      32.199 171.103  17.458  1.00  0.00     0.162 C 
ATOM      6  O   UNL     1      31.290 170.727  16.668  1.00  0.00    -0.294 OA
BRANCH   5   7
ATOM      7  C   UNL     1      32.098 170.758  18.905  1.00  0.00     0.017 A 
ATOM      8  C   UNL     1      31.115 171.332  19.739  1.00  0.00     0.012 A 
ATOM      9  C   UNL     1      33.004 169.839  19.469  1.00  0.00     0.012 A 
ATOM     10  C   UNL     1      31.045 170.990  21.093  1.00  0.00     0.001 A 
ATOM     11  C   UNL     1      32.929 169.501  20.824  1.00  0.00     0.001 A 
ATOM     12  C   UNL     1      31.949 170.076  21.635  1.00  0.00     0.000 A 
ENDBRANCH   5   7
ENDBRANCH   1   5
TORSDOF 4
ENDMDL
MODEL 7
REMARK VINA RESULT:    -3.921     20.652     21.695
REMARK INTER + INTRA:          -5.059
REMARK INTER:                  -4.509
REMARK INTRA:                  -0.550
REMARK UNBOUND:                -0.221
REMARK SMILES CCCCC(=O)c1ccccc1
REMARK SMILES IDX 4 1 3 2 2 3 1 4 5 5 6 6 7 7 8 8 12 9 9 10 11 11 10 12
REMARK H PARENT
REMARK Flexibility Score: inf
ROOT
ATOM      1  C   UNL     1      43.027 184.232  32.457  1.00  0.00     0.081 C 
ENDROOT
BRANCH   1   2
ATOM      2  C   UNL     1      43.024 183.104  33.494  1.00  0.00     0.008 C 
BRANCH   2   3
ATOM      3  C   UNL     1      41.741 182.271  33.396  1.00  0.00    -0.003 C 
ATOM      4  C   UNL     1      40.980 182.273  34.719  1.00  0.00     0.004 C 
ENDBRANCH   2   3
ENDBRANCH   1   2
BRANCH   1   5
ATOM      5  C   UNL     1      42.099 185.343  32.872  1.00  0.00     0.162 C 
ATOM      6  O   UNL     1      42.492 186.133  33.774  1.00  0.00    -0.294 OA
BRANCH   5   7
ATOM      7  C   UNL     1      40.767 185.561  32.240  1.00  0.00     0.017 A 
ATOM      8  C   UNL     1      40.639 185.945  30.888  1.00  0.00     0.012 A 
ATOM      9  C   UNL     1      39.595 185.386  33.001  1.00  0.00     0.012 A 
ATOM     10  C   UNL     1      39.376 186.143  30.322  1.00  0.00     0.001 A 
ATOM     11  C   UNL     1      38.335 185.586  32.430  1.00  0.00     0.001 A 
ATOM     12  C   UNL     1      38.226 185.964  31.090  1.00  0.00     0.000 A 
ENDBRANCH   5   7
ENDBRANCH   1   5
TORSDOF 4
ENDMDL
MODEL 8
REMARK VINA RESULT:    -3.888     20.615     21.699
REMARK INTER + INTRA:          -5.018
REMARK INTER:                  -4.268
REMARK INTRA:                  -0.751
REMARK UNBOUND:                -0.221
REMARK SMILES CCCCC(=O)c1ccccc1
REMARK SMILES IDX 4 1 3 2 2 3 1 4 5 5 6 6 7 7 8 8 12 9 9 10 11 11 10 12
REMARK H PARENT
REMARK Flexibility Score: inf
ROOT
ATOM      1  C   UNL     1      38.556 186.372  31.564  1.00  0.00     0.081 C 
ENDROOT
BRANCH   1   2
ATOM      2  C   UNL     1      37.789 185.298  32.343  1.00  0.00     0.008 C 
BRANCH   2   3
ATOM      3  C   UNL     1      37.881 185.544  33.853  1.00  0.00    -0.003 C 
ATOM      4  C   UNL     1      38.512 184.353  34.567  1.00  0.00     0.004 C 
ENDBRANCH   2   3
ENDBRANCH   1   2
BRANCH   1   5
ATOM      5  C   UNL     1      39.903 185.857  31.128  1.00  0.00     0.162 C 
ATOM      6  O   UNL     1      40.115 185.736  29.890  1.00  0.00    -0.294 OA
BRANCH   5   7
ATOM      7  C   UNL     1      40.990 185.523  32.092  1.00  0.00     0.017 A 
ATOM      8  C   UNL     1      41.456 186.458  33.040  1.00  0.00     0.012 A 
ATOM      9  C   UNL     1      41.580 184.245  32.063  1.00  0.00     0.012 A 
ATOM     10  C   UNL     1      42.478 186.118  33.931  1.00  0.00     0.001 A 
ATOM     11  C   UNL     1      42.602 183.910  32.957  1.00  0.00     0.001 A 
ATOM     12  C   UNL     1      43.050 184.846  33.890  1.00  0.00     0.000 A 
ENDBRANCH   5   7
ENDBRANCH   1   5
TORSDOF 4
ENDMDL
MODEL 9
REMARK VINA RESULT:    -3.872     20.846     22.731
REMARK INTER + INTRA:          -4.999
REMARK INTER:                  -4.462
REMARK INTRA:                  -0.537
REMARK UNBOUND:                -0.221
REMARK SMILES CCCCC(=O)c1ccccc1
REMARK SMILES IDX 4 1 3 2 2 3 1 4 5 5 6 6 7 7 8 8 12 9 9 10 11 11 10 12
REMARK H PARENT
REMARK Flexibility Score: inf
ROOT
ATOM      1  C   UNL     1      40.823 187.515  32.580  1.00  0.00     0.081 C 
ENDROOT
BRANCH   1   2
ATOM      2  C   UNL     1      39.309 187.411  32.367  1.00  0.00     0.008 C 
BRANCH   2   3
ATOM      3  C   UNL     1      38.952 186.153  31.567  1.00  0.00    -0.003 C 
ATOM      4  C   UNL     1      39.781 186.060  30.289  1.00  0.00     0.004 C 
ENDBRANCH   2   3
ENDBRANCH   1   2
BRANCH   1   5
ATOM      5  C   UNL     1      41.247 186.737  33.798  1.00  0.00     0.162 C 
ATOM      6  O   UNL     1      40.760 187.075  34.912  1.00  0.00    -0.294 OA
BRANCH   5   7
ATOM      7  C   UNL     1      42.180 185.577  33.731  1.00  0.00     0.017 A 
ATOM      8  C   UNL     1      42.727 184.995  34.893  1.00  0.00     0.012 A 
ATOM      9  C   UNL     1      42.538 185.040  32.478  1.00  0.00     0.012 A 
ATOM     10  C   UNL     1      43.602 183.908  34.799  1.00  0.00     0.001 A 
ATOM     11  C   UNL     1      43.413 183.953  32.391  1.00  0.00     0.001 A 
ATOM     12  C   UNL     1      43.944 183.387  33.551  1.00  0.00     0.000 A 
ENDBRANCH   5   7
ENDBRANCH   1   5
TORSDOF 4
ENDMDL
