MODEL 1
REMARK VINA RESULT:    -6.473      0.000      0.000
REMARK INTER + INTRA:         -13.778
REMARK INTER:                 -12.149
REMARK INTRA:                  -1.629
REMARK UNBOUND:                -1.629
REMARK SMILES O=C([O-])CCCCCCCCCCCCCCC(=O)[O-]
REMARK SMILES IDX 10 1 9 2 8 3 7 4 6 5 5 6 4 7 2 8 1 9 3 10 11 11 12 12 13 13
REMARK SMILES IDX 14 14 15 15 16 16 17 17 18 18 19 19 20 20
REMARK H PARENT
REMARK Flexibility Score: inf
ROOT
ATOM      1  C   UNL     1     -19.190  -9.413  -0.316  1.00  0.00     0.000 C 
ENDROOT
BRANCH   1   2
ATOM      2  C   UNL     1     -18.054  -9.409   0.719  1.00  0.00     0.000 C 
BRANCH   2   3
ATOM      3  C   UNL     1     -17.717  -7.993   1.218  1.00  0.00     0.000 C 
BRANCH   3   4
ATOM      4  C   UNL     1     -16.300  -7.548   0.821  1.00  0.00     0.000 C 
BRANCH   4   5
ATOM      5  C   UNL     1     -15.732  -8.363  -0.349  1.00  0.00     0.000 C 
BRANCH   5   6
ATOM      6  C   UNL     1     -15.861  -7.592  -1.672  1.00  0.00     0.006 C 
BRANCH   6   7
ATOM      7  C   UNL     1     -16.738  -8.328  -2.692  1.00  0.00     0.053 C 
BRANCH   7   8
ATOM      8  C   UNL     1     -16.039  -8.499  -4.007  1.00  0.00     0.041 C 
ATOM      9  O   UNL     1     -14.992  -9.197  -4.082  1.00  0.00    -0.550 OA
ATOM     10  O   UNL     1     -16.520  -7.858  -5.140  1.00  0.00    -0.550 OA
ENDBRANCH   7   8
ENDBRANCH   6   7
ENDBRANCH   5   6
ENDBRANCH   4   5
ENDBRANCH   3   4
ENDBRANCH   2   3
ENDBRANCH   1   2
BRANCH   1  11
ATOM     11  C   UNL     1     -19.144 -10.647  -1.235  1.00  0.00     0.000 C 
BRANCH  11  12
ATOM     12  C   UNL     1     -18.886 -11.950  -0.462  1.00  0.00     0.000 C 
BRANCH  12  13
ATOM     13  C   UNL     1     -18.901 -13.189  -1.370  1.00  0.00     0.000 C 
BRANCH  13  14
ATOM     14  C   UNL     1     -17.813 -13.094  -2.447  1.00  0.00     0.000 C 
BRANCH  14  15
ATOM     15  C   UNL     1     -16.984 -14.385  -2.508  1.00  0.00     0.000 C 
BRANCH  15  16
ATOM     16  C   UNL     1     -16.348 -14.746  -1.156  1.00  0.00     0.006 C 
BRANCH  16  17
ATOM     17  C   UNL     1     -15.145 -13.859  -0.815  1.00  0.00     0.053 C 
BRANCH  17  18
ATOM     18  C   UNL     1     -15.383 -13.129   0.470  1.00  0.00     0.041 C 
ATOM     19  O   UNL     1     -15.486 -11.875   0.477  1.00  0.00    -0.550 OA
ATOM     20  O   UNL     1     -15.443 -13.832   1.668  1.00  0.00    -0.550 OA
ENDBRANCH  17  18
ENDBRANCH  16  17
ENDBRANCH  15  16
ENDBRANCH  14  15
ENDBRANCH  13  14
ENDBRANCH  12  13
ENDBRANCH  11  12
ENDBRANCH   1  11
TORSDOF 15
ENDMDL
MODEL 2
REMARK VINA RESULT:    -6.458      1.183      5.652
REMARK INTER + INTRA:         -13.750
REMARK INTER:                 -11.441
REMARK INTRA:                  -2.309
REMARK UNBOUND:                -1.629
REMARK SMILES O=C([O-])CCCCCCCCCCCCCCC(=O)[O-]
REMARK SMILES IDX 10 1 9 2 8 3 7 4 6 5 5 6 4 7 2 8 1 9 3 10 11 11 12 12 13 13
REMARK SMILES IDX 14 14 15 15 16 16 17 17 18 18 19 19 20 20
REMARK H PARENT
REMARK Flexibility Score: inf
ROOT
ATOM      1  C   UNL     1     -19.311  -9.236  -0.266  1.00  0.00     0.000 C 
ENDROOT
BRANCH   1   2
ATOM      2  C   UNL     1     -19.346 -10.488  -1.157  1.00  0.00     0.000 C 
BRANCH   2   3
ATOM      3  C   UNL     1     -19.200 -11.790  -0.350  1.00  0.00     0.000 C 
BRANCH   3   4
ATOM      4  C   UNL     1     -18.322 -12.831  -1.061  1.00  0.00     0.000 C 
BRANCH   4   5
ATOM      5  C   UNL     1     -17.798 -12.335  -2.416  1.00  0.00     0.000 C 
BRANCH   5   6
ATOM      6  C   UNL     1     -16.275 -12.139  -2.380  1.00  0.00     0.006 C 
BRANCH   6   7
ATOM      7  C   UNL     1     -15.689 -12.387  -0.985  1.00  0.00     0.053 C 
BRANCH   7   8
ATOM      8  C   UNL     1     -14.888 -13.652  -0.933  1.00  0.00     0.041 C 
ATOM      9  O   UNL     1     -13.777 -13.675  -0.338  1.00  0.00    -0.550 OA
ATOM     10  O   UNL     1     -15.347 -14.794  -1.575  1.00  0.00    -0.550 OA
ENDBRANCH   7   8
ENDBRANCH   6   7
ENDBRANCH   5   6
ENDBRANCH   4   5
ENDBRANCH   3   4
ENDBRANCH   2   3
ENDBRANCH   1   2
BRANCH   1  11
ATOM     11  C   UNL     1     -18.178  -9.287   0.775  1.00  0.00     0.000 C 
BRANCH  11  12
ATOM     12  C   UNL     1     -17.741  -7.888   1.240  1.00  0.00     0.000 C 
BRANCH  12  13
ATOM     13  C   UNL     1     -16.294  -7.559   0.843  1.00  0.00     0.000 C 
BRANCH  13  14
ATOM     14  C   UNL     1     -15.546  -8.821   0.397  1.00  0.00     0.000 C 
BRANCH  14  15
ATOM     15  C   UNL     1     -15.026  -8.675  -1.041  1.00  0.00     0.000 C 
BRANCH  15  16
ATOM     16  C   UNL     1     -15.900  -7.744  -1.896  1.00  0.00     0.006 C 
BRANCH  16  17
ATOM     17  C   UNL     1     -16.826  -8.511  -2.846  1.00  0.00     0.053 C 
BRANCH  17  18
ATOM     18  C   UNL     1     -16.233  -8.567  -4.219  1.00  0.00     0.041 C 
ATOM     19  O   UNL     1     -16.765  -7.929  -5.166  1.00  0.00    -0.550 OA
ATOM     20  O   UNL     1     -15.119  -9.360  -4.464  1.00  0.00    -0.550 OA
ENDBRANCH  17  18
ENDBRANCH  16  17
ENDBRANCH  15  16
ENDBRANCH  14  15
ENDBRANCH  13  14
ENDBRANCH  12  13
ENDBRANCH  11  12
ENDBRANCH   1  11
TORSDOF 15
ENDMDL
MODEL 3
REMARK VINA RESULT:    -6.408      0.960      6.103
REMARK INTER + INTRA:         -13.655
REMARK INTER:                 -11.997
REMARK INTRA:                  -1.658
REMARK UNBOUND:                -1.629
REMARK SMILES O=C([O-])CCCCCCCCCCCCCCC(=O)[O-]
REMARK SMILES IDX 10 1 9 2 8 3 7 4 6 5 5 6 4 7 2 8 1 9 3 10 11 11 12 12 13 13
REMARK SMILES IDX 14 14 15 15 16 16 17 17 18 18 19 19 20 20
REMARK H PARENT
REMARK Flexibility Score: inf
ROOT
ATOM      1  C   UNL     1     -19.152 -11.862  -0.214  1.00  0.00     0.000 C 
ENDROOT
BRANCH   1   2
ATOM      2  C   UNL     1     -18.957 -12.686  -1.497  1.00  0.00     0.000 C 
BRANCH   2   3
ATOM      3  C   UNL     1     -17.965 -12.030  -2.473  1.00  0.00     0.000 C 
BRANCH   3   4
ATOM      4  C   UNL     1     -16.794 -12.957  -2.838  1.00  0.00     0.000 C 
BRANCH   4   5
ATOM      5  C   UNL     1     -17.069 -14.424  -2.479  1.00  0.00     0.000 C 
BRANCH   5   6
ATOM      6  C   UNL     1     -16.001 -14.965  -1.516  1.00  0.00     0.006 C 
BRANCH   6   7
ATOM      7  C   UNL     1     -15.936 -14.164  -0.210  1.00  0.00     0.053 C 
BRANCH   7   8
ATOM      8  C   UNL     1     -14.565 -13.610   0.036  1.00  0.00     0.041 C 
ATOM      9  O   UNL     1     -14.303 -13.025   1.120  1.00  0.00    -0.550 OA
ATOM     10  O   UNL     1     -13.588 -13.706  -0.947  1.00  0.00    -0.550 OA
ENDBRANCH   7   8
ENDBRANCH   6   7
ENDBRANCH   5   6
ENDBRANCH   4   5
ENDBRANCH   3   4
ENDBRANCH   2   3
ENDBRANCH   1   2
BRANCH   1  11
ATOM     11  C   UNL     1     -18.833 -10.370  -0.419  1.00  0.00     0.000 C 
BRANCH  11  12
ATOM     12  C   UNL     1     -17.725  -9.869   0.520  1.00  0.00     0.000 C 
BRANCH  12  13
ATOM     13  C   UNL     1     -17.872  -8.379   0.868  1.00  0.00     0.000 C 
BRANCH  13  14
ATOM     14  C   UNL     1     -16.549  -7.633   0.658  1.00  0.00     0.000 C 
BRANCH  14  15
ATOM     15  C   UNL     1     -15.739  -8.258  -0.488  1.00  0.00     0.000 C 
BRANCH  15  16
ATOM     16  C   UNL     1     -16.032  -7.604  -1.847  1.00  0.00     0.006 C 
BRANCH  16  17
ATOM     17  C   UNL     1     -16.783  -8.538  -2.803  1.00  0.00     0.053 C 
BRANCH  17  18
ATOM     18  C   UNL     1     -16.095  -8.588  -4.131  1.00  0.00     0.041 C 
ATOM     19  O   UNL     1     -15.174  -9.421  -4.337  1.00  0.00    -0.550 OA
ATOM     20  O   UNL     1     -16.439  -7.681  -5.126  1.00  0.00    -0.550 OA
ENDBRANCH  17  18
ENDBRANCH  16  17
ENDBRANCH  15  16
ENDBRANCH  14  15
ENDBRANCH  13  14
ENDBRANCH  12  13
ENDBRANCH  11  12
ENDBRANCH   1  11
TORSDOF 15
ENDMDL
MODEL 4
REMARK VINA RESULT:    -6.363      1.803      5.638
REMARK INTER + INTRA:         -13.572
REMARK INTER:                 -11.762
REMARK INTRA:                  -1.810
REMARK UNBOUND:                -1.629
REMARK SMILES O=C([O-])CCCCCCCCCCCCCCC(=O)[O-]
REMARK SMILES IDX 10 1 9 2 8 3 7 4 6 5 5 6 4 7 2 8 1 9 3 10 11 11 12 12 13 13
REMARK SMILES IDX 14 14 15 15 16 16 17 17 18 18 19 19 20 20
REMARK H PARENT
REMARK Flexibility Score: inf
ROOT
ATOM      1  C   UNL     1     -19.199  -9.232  -0.294  1.00  0.00     0.000 C 
ENDROOT
BRANCH   1   2
ATOM      2  C   UNL     1     -19.025 -10.547  -1.070  1.00  0.00     0.000 C 
BRANCH   2   3
ATOM      3  C   UNL     1     -18.562 -11.705  -0.169  1.00  0.00     0.000 C 
BRANCH   3   4
ATOM      4  C   UNL     1     -17.069 -12.026  -0.339  1.00  0.00     0.000 C 
BRANCH   4   5
ATOM      5  C   UNL     1     -16.709 -13.436   0.149  1.00  0.00     0.000 C 
BRANCH   5   6
ATOM      6  C   UNL     1     -15.986 -14.231  -0.949  1.00  0.00     0.006 C 
BRANCH   6   7
ATOM      7  C   UNL     1     -16.962 -14.977  -1.866  1.00  0.00     0.053 C 
BRANCH   7   8
ATOM      8  C   UNL     1     -17.391 -14.133  -3.028  1.00  0.00     0.041 C 
ATOM      9  O   UNL     1     -16.532 -13.667  -3.824  1.00  0.00    -0.550 OA
ATOM     10  O   UNL     1     -18.734 -13.828  -3.210  1.00  0.00    -0.550 OA
ENDBRANCH   7   8
ENDBRANCH   6   7
ENDBRANCH   5   6
ENDBRANCH   4   5
ENDBRANCH   3   4
ENDBRANCH   2   3
ENDBRANCH   1   2
BRANCH   1  11
ATOM     11  C   UNL     1     -18.286  -9.152   0.942  1.00  0.00     0.000 C 
BRANCH  11  12
ATOM     12  C   UNL     1     -17.821  -7.718   1.242  1.00  0.00     0.000 C 
BRANCH  12  13
ATOM     13  C   UNL     1     -16.360  -7.473   0.835  1.00  0.00     0.000 C 
BRANCH  13  14
ATOM     14  C   UNL     1     -15.635  -8.798   0.567  1.00  0.00     0.000 C 
BRANCH  14  15
ATOM     15  C   UNL     1     -15.051  -8.830  -0.853  1.00  0.00     0.000 C 
BRANCH  15  16
ATOM     16  C   UNL     1     -15.698  -7.792  -1.783  1.00  0.00     0.006 C 
BRANCH  16  17
ATOM     17  C   UNL     1     -16.696  -8.419  -2.764  1.00  0.00     0.053 C 
BRANCH  17  18
ATOM     18  C   UNL     1     -16.078  -8.558  -4.119  1.00  0.00     0.041 C 
ATOM     19  O   UNL     1     -16.592  -7.981  -5.113  1.00  0.00    -0.550 OA
ATOM     20  O   UNL     1     -14.960  -9.365  -4.293  1.00  0.00    -0.550 OA
ENDBRANCH  17  18
ENDBRANCH  16  17
ENDBRANCH  15  16
ENDBRANCH  14  15
ENDBRANCH  13  14
ENDBRANCH  12  13
ENDBRANCH  11  12
ENDBRANCH   1  11
TORSDOF 15
ENDMDL
MODEL 5
REMARK VINA RESULT:    -6.322      1.606      6.053
REMARK INTER + INTRA:         -13.496
REMARK INTER:                 -11.724
REMARK INTRA:                  -1.771
REMARK UNBOUND:                -1.629
REMARK SMILES O=C([O-])CCCCCCCCCCCCCCC(=O)[O-]
REMARK SMILES IDX 10 1 9 2 8 3 7 4 6 5 5 6 4 7 2 8 1 9 3 10 11 11 12 12 13 13
REMARK SMILES IDX 14 14 15 15 16 16 17 17 18 18 19 19 20 20
REMARK H PARENT
REMARK Flexibility Score: inf
ROOT
ATOM      1  C   UNL     1     -19.242 -12.889  -1.113  1.00  0.00     0.000 C 
ENDROOT
BRANCH   1   2
ATOM      2  C   UNL     1     -18.809 -12.908  -2.588  1.00  0.00     0.000 C 
BRANCH   2   3
ATOM      3  C   UNL     1     -18.416 -14.316  -3.068  1.00  0.00     0.000 C 
BRANCH   3   4
ATOM      4  C   UNL     1     -17.081 -14.791  -2.472  1.00  0.00     0.000 C 
BRANCH   4   5
ATOM      5  C   UNL     1     -16.014 -13.689  -2.460  1.00  0.00     0.000 C 
BRANCH   5   6
ATOM      6  C   UNL     1     -15.160 -13.762  -1.184  1.00  0.00     0.006 C 
BRANCH   6   7
ATOM      7  C   UNL     1     -16.002 -14.057   0.063  1.00  0.00     0.053 C 
BRANCH   7   8
ATOM      8  C   UNL     1     -15.251 -13.758   1.325  1.00  0.00     0.041 C 
ATOM      9  O   UNL     1     -15.609 -14.282   2.414  1.00  0.00    -0.550 OA
ATOM     10  O   UNL     1     -14.183 -12.872   1.307  1.00  0.00    -0.550 OA
ENDBRANCH   7   8
ENDBRANCH   6   7
ENDBRANCH   5   6
ENDBRANCH   4   5
ENDBRANCH   3   4
ENDBRANCH   2   3
ENDBRANCH   1   2
BRANCH   1  11
ATOM     11  C   UNL     1     -18.712 -11.655  -0.360  1.00  0.00     0.000 C 
BRANCH  11  12
ATOM     12  C   UNL     1     -18.662 -10.399  -1.245  1.00  0.00     0.000 C 
BRANCH  12  13
ATOM     13  C   UNL     1     -18.967  -9.112  -0.464  1.00  0.00     0.000 C 
BRANCH  13  14
ATOM     14  C   UNL     1     -18.221  -9.094   0.876  1.00  0.00     0.000 C 
BRANCH  14  15
ATOM     15  C   UNL     1     -17.509  -7.751   1.093  1.00  0.00     0.000 C 
BRANCH  15  16
ATOM     16  C   UNL     1     -16.003  -7.824   0.796  1.00  0.00     0.006 C 
BRANCH  16  17
ATOM     17  C   UNL     1     -15.692  -7.738  -0.703  1.00  0.00     0.053 C 
BRANCH  17  18
ATOM     18  C   UNL     1     -14.885  -8.921  -1.137  1.00  0.00     0.041 C 
ATOM     19  O   UNL     1     -15.189 -10.076  -0.739  1.00  0.00    -0.550 OA
ATOM     20  O   UNL     1     -13.767  -8.742  -1.943  1.00  0.00    -0.550 OA
ENDBRANCH  17  18
ENDBRANCH  16  17
ENDBRANCH  15  16
ENDBRANCH  14  15
ENDBRANCH  13  14
ENDBRANCH  12  13
ENDBRANCH  11  12
ENDBRANCH   1  11
TORSDOF 15
ENDMDL
MODEL 6
REMARK VINA RESULT:    -6.281      1.091      1.732
REMARK INTER + INTRA:         -13.417
REMARK INTER:                 -11.306
REMARK INTRA:                  -2.112
REMARK UNBOUND:                -1.629
REMARK SMILES O=C([O-])CCCCCCCCCCCCCCC(=O)[O-]
REMARK SMILES IDX 10 1 9 2 8 3 7 4 6 5 5 6 4 7 2 8 1 9 3 10 11 11 12 12 13 13
REMARK SMILES IDX 14 14 15 15 16 16 17 17 18 18 19 19 20 20
REMARK H PARENT
REMARK Flexibility Score: inf
ROOT
ATOM      1  C   UNL     1     -19.141 -11.755  -0.222  1.00  0.00     0.000 C 
ENDROOT
BRANCH   1   2
ATOM      2  C   UNL     1     -19.080 -10.422  -0.985  1.00  0.00     0.000 C 
BRANCH   2   3
ATOM      3  C   UNL     1     -18.266  -9.352  -0.237  1.00  0.00     0.000 C 
BRANCH   3   4
ATOM      4  C   UNL     1     -16.866  -9.846   0.160  1.00  0.00     0.000 C 
BRANCH   4   5
ATOM      5  C   UNL     1     -15.820  -8.722   0.155  1.00  0.00     0.000 C 
BRANCH   5   6
ATOM      6  C   UNL     1     -16.001  -7.806  -1.065  1.00  0.00     0.006 C 
BRANCH   6   7
ATOM      7  C   UNL     1     -15.182  -8.276  -2.273  1.00  0.00     0.053 C 
BRANCH   7   8
ATOM      8  C   UNL     1     -16.060  -8.747  -3.392  1.00  0.00     0.041 C 
ATOM      9  O   UNL     1     -16.571  -9.898  -3.356  1.00  0.00    -0.550 OA
ATOM     10  O   UNL     1     -16.283  -7.931  -4.493  1.00  0.00    -0.550 OA
ENDBRANCH   7   8
ENDBRANCH   6   7
ENDBRANCH   5   6
ENDBRANCH   4   5
ENDBRANCH   3   4
ENDBRANCH   2   3
ENDBRANCH   1   2
BRANCH   1  11
ATOM     11  C   UNL     1     -19.353 -12.959  -1.158  1.00  0.00     0.000 C 
BRANCH  11  12
ATOM     12  C   UNL     1     -18.644 -12.788  -2.511  1.00  0.00     0.000 C 
BRANCH  12  13
ATOM     13  C   UNL     1     -18.121 -14.117  -3.076  1.00  0.00     0.000 C 
BRANCH  13  14
ATOM     14  C   UNL     1     -16.772 -14.488  -2.447  1.00  0.00     0.000 C 
BRANCH  14  15
ATOM     15  C   UNL     1     -15.800 -13.300  -2.486  1.00  0.00     0.000 C 
BRANCH  15  16
ATOM     16  C   UNL     1     -15.256 -12.933  -1.096  1.00  0.00     0.006 C 
BRANCH  16  17
ATOM     17  C   UNL     1     -15.947 -13.708   0.032  1.00  0.00     0.053 C 
BRANCH  17  18
ATOM     18  C   UNL     1     -15.188 -13.554   1.312  1.00  0.00     0.041 C 
ATOM     19  O   UNL     1     -14.161 -12.826   1.356  1.00  0.00    -0.550 OA
ATOM     20  O   UNL     1     -15.587 -14.251   2.446  1.00  0.00    -0.550 OA
ENDBRANCH  17  18
ENDBRANCH  16  17
ENDBRANCH  15  16
ENDBRANCH  14  15
ENDBRANCH  13  14
ENDBRANCH  12  13
ENDBRANCH  11  12
ENDBRANCH   1  11
TORSDOF 15
ENDMDL
MODEL 7
REMARK VINA RESULT:    -6.178      1.624      3.312
REMARK INTER + INTRA:         -13.224
REMARK INTER:                 -11.431
REMARK INTRA:                  -1.793
REMARK UNBOUND:                -1.629
REMARK SMILES O=C([O-])CCCCCCCCCCCCCCC(=O)[O-]
REMARK SMILES IDX 10 1 9 2 8 3 7 4 6 5 5 6 4 7 2 8 1 9 3 10 11 11 12 12 13 13
REMARK SMILES IDX 14 14 15 15 16 16 17 17 18 18 19 19 20 20
REMARK H PARENT
REMARK Flexibility Score: inf
ROOT
ATOM      1  C   UNL     1     -15.696 -12.358   0.486  1.00  0.00     0.000 C 
ENDROOT
BRANCH   1   2
ATOM      2  C   UNL     1     -15.274 -11.169  -0.392  1.00  0.00     0.000 C 
BRANCH   2   3
ATOM      3  C   UNL     1     -15.130  -9.865   0.413  1.00  0.00     0.000 C 
BRANCH   3   4
ATOM      4  C   UNL     1     -16.382  -8.978   0.329  1.00  0.00     0.000 C 
BRANCH   4   5
ATOM      5  C   UNL     1     -16.079  -7.580  -0.228  1.00  0.00     0.000 C 
BRANCH   5   6
ATOM      6  C   UNL     1     -15.635  -7.657  -1.697  1.00  0.00     0.006 C 
BRANCH   6   7
ATOM      7  C   UNL     1     -16.655  -8.391  -2.575  1.00  0.00     0.053 C 
BRANCH   7   8
ATOM      8  C   UNL     1     -16.154  -8.575  -3.976  1.00  0.00     0.041 C 
ATOM      9  O   UNL     1     -16.547  -7.808  -4.895  1.00  0.00    -0.550 OA
ATOM     10  O   UNL     1     -15.286  -9.617  -4.274  1.00  0.00    -0.550 OA
ENDBRANCH   7   8
ENDBRANCH   6   7
ENDBRANCH   5   6
ENDBRANCH   4   5
ENDBRANCH   3   4
ENDBRANCH   2   3
ENDBRANCH   1   2
BRANCH   1  11
ATOM     11  C   UNL     1     -14.847 -13.615   0.222  1.00  0.00     0.000 C 
BRANCH  11  12
ATOM     12  C   UNL     1     -15.079 -14.201  -1.180  1.00  0.00     0.000 C 
BRANCH  12  13
ATOM     13  C   UNL     1     -16.492 -14.778  -1.353  1.00  0.00     0.000 C 
BRANCH  13  14
ATOM     14  C   UNL     1     -16.874 -14.858  -2.836  1.00  0.00     0.000 C 
BRANCH  14  15
ATOM     15  C   UNL     1     -18.159 -14.066  -3.118  1.00  0.00     0.000 C 
BRANCH  15  16
ATOM     16  C   UNL     1     -18.670 -13.307  -1.883  1.00  0.00     0.006 C 
BRANCH  16  17
ATOM     17  C   UNL     1     -18.532 -11.787  -2.025  1.00  0.00     0.053 C 
BRANCH  17  18
ATOM     18  C   UNL     1     -19.070 -11.099  -0.809  1.00  0.00     0.041 C 
ATOM     19  O   UNL     1     -19.194 -11.730   0.273  1.00  0.00    -0.550 OA
ATOM     20  O   UNL     1     -19.478  -9.773  -0.884  1.00  0.00    -0.550 OA
ENDBRANCH  17  18
ENDBRANCH  16  17
ENDBRANCH  15  16
ENDBRANCH  14  15
ENDBRANCH  13  14
ENDBRANCH  12  13
ENDBRANCH  11  12
ENDBRANCH   1  11
TORSDOF 15
ENDMDL
MODEL 8
REMARK VINA RESULT:    -6.091      1.862      4.641
REMARK INTER + INTRA:         -13.060
REMARK INTER:                 -10.922
REMARK INTRA:                  -2.138
REMARK UNBOUND:                -1.629
REMARK SMILES O=C([O-])CCCCCCCCCCCCCCC(=O)[O-]
REMARK SMILES IDX 10 1 9 2 8 3 7 4 6 5 5 6 4 7 2 8 1 9 3 10 11 11 12 12 13 13
REMARK SMILES IDX 14 14 15 15 16 16 17 17 18 18 19 19 20 20
REMARK H PARENT
REMARK Flexibility Score: inf
ROOT
ATOM      1  C   UNL     1     -18.837 -13.973  -3.158  1.00  0.00     0.000 C 
ENDROOT
BRANCH   1   2
ATOM      2  C   UNL     1     -18.610 -12.665  -2.382  1.00  0.00     0.000 C 
BRANCH   2   3
ATOM      3  C   UNL     1     -19.116 -12.745  -0.931  1.00  0.00     0.000 C 
BRANCH   3   4
ATOM      4  C   UNL     1     -18.807 -11.473  -0.127  1.00  0.00     0.000 C 
BRANCH   4   5
ATOM      5  C   UNL     1     -19.303 -10.198  -0.825  1.00  0.00     0.000 C 
BRANCH   5   6
ATOM      6  C   UNL     1     -18.251  -9.081  -0.745  1.00  0.00     0.006 C 
BRANCH   6   7
ATOM      7  C   UNL     1     -17.967  -8.653   0.700  1.00  0.00     0.053 C 
BRANCH   7   8
ATOM      8  C   UNL     1     -16.584  -8.097   0.855  1.00  0.00     0.041 C 
ATOM      9  O   UNL     1     -15.594  -8.872   0.929  1.00  0.00    -0.550 OA
ATOM     10  O   UNL     1     -16.392  -6.725   0.956  1.00  0.00    -0.550 OA
ENDBRANCH   7   8
ENDBRANCH   6   7
ENDBRANCH   5   6
ENDBRANCH   4   5
ENDBRANCH   3   4
ENDBRANCH   2   3
ENDBRANCH   1   2
BRANCH   1  11
ATOM     11  C   UNL     1     -17.807 -15.058  -2.796  1.00  0.00     0.000 C 
BRANCH  11  12
ATOM     12  C   UNL     1     -16.449 -14.469  -2.384  1.00  0.00     0.000 C 
BRANCH  12  13
ATOM     13  C   UNL     1     -16.129 -14.703  -0.900  1.00  0.00     0.000 C 
BRANCH  13  14
ATOM     14  C   UNL     1     -15.449 -13.473  -0.285  1.00  0.00     0.000 C 
BRANCH  14  15
ATOM     15  C   UNL     1     -14.795 -12.605  -1.369  1.00  0.00     0.000 C 
BRANCH  15  16
ATOM     16  C   UNL     1     -15.315 -11.158  -1.363  1.00  0.00     0.006 C 
BRANCH  16  17
ATOM     17  C   UNL     1     -15.584 -10.622  -2.775  1.00  0.00     0.053 C 
BRANCH  17  18
ATOM     18  C   UNL     1     -15.100  -9.212  -2.897  1.00  0.00     0.041 C 
ATOM     19  O   UNL     1     -14.264  -8.754  -2.075  1.00  0.00    -0.550 OA
ATOM     20  O   UNL     1     -15.608  -8.387  -3.894  1.00  0.00    -0.550 OA
ENDBRANCH  17  18
ENDBRANCH  16  17
ENDBRANCH  15  16
ENDBRANCH  14  15
ENDBRANCH  13  14
ENDBRANCH  12  13
ENDBRANCH  11  12
ENDBRANCH   1  11
TORSDOF 15
ENDMDL
MODEL 9
REMARK VINA RESULT:    -6.082      1.922      2.554
REMARK INTER + INTRA:         -13.045
REMARK INTER:                 -11.099
REMARK INTRA:                  -1.946
REMARK UNBOUND:                -1.629
REMARK SMILES O=C([O-])CCCCCCCCCCCCCCC(=O)[O-]
REMARK SMILES IDX 10 1 9 2 8 3 7 4 6 5 5 6 4 7 2 8 1 9 3 10 11 11 12 12 13 13
REMARK SMILES IDX 14 14 15 15 16 16 17 17 18 18 19 19 20 20
REMARK H PARENT
REMARK Flexibility Score: inf
ROOT
ATOM      1  C   UNL     1     -18.898  -9.371  -0.367  1.00  0.00     0.000 C 
ENDROOT
BRANCH   1   2
ATOM      2  C   UNL     1     -18.365  -8.925   1.004  1.00  0.00     0.000 C 
BRANCH   2   3
ATOM      3  C   UNL     1     -17.473  -7.675   0.911  1.00  0.00     0.000 C 
BRANCH   3   4
ATOM      4  C   UNL     1     -16.009  -8.018   0.594  1.00  0.00     0.000 C 
BRANCH   4   5
ATOM      5  C   UNL     1     -15.494  -7.301  -0.663  1.00  0.00     0.000 C 
BRANCH   5   6
ATOM      6  C   UNL     1     -15.340  -8.285  -1.833  1.00  0.00     0.006 C 
BRANCH   6   7
ATOM      7  C   UNL     1     -16.542  -8.249  -2.785  1.00  0.00     0.053 C 
BRANCH   7   8
ATOM      8  C   UNL     1     -16.151  -8.593  -4.190  1.00  0.00     0.041 C 
ATOM      9  O   UNL     1     -15.268  -9.466  -4.406  1.00  0.00    -0.550 OA
ATOM     10  O   UNL     1     -16.732  -7.925  -5.259  1.00  0.00    -0.550 OA
ENDBRANCH   7   8
ENDBRANCH   6   7
ENDBRANCH   5   6
ENDBRANCH   4   5
ENDBRANCH   3   4
ENDBRANCH   2   3
ENDBRANCH   1   2
BRANCH   1  11
ATOM     11  C   UNL     1     -18.251 -10.681  -0.853  1.00  0.00     0.000 C 
BRANCH  11  12
ATOM     12  C   UNL     1     -17.459 -11.394   0.255  1.00  0.00     0.000 C 
BRANCH  12  13
ATOM     13  C   UNL     1     -15.979 -11.590  -0.109  1.00  0.00     0.000 C 
BRANCH  13  14
ATOM     14  C   UNL     1     -15.335 -12.669   0.771  1.00  0.00     0.000 C 
BRANCH  14  15
ATOM     15  C   UNL     1     -15.561 -14.068   0.180  1.00  0.00     0.000 C 
BRANCH  15  16
ATOM     16  C   UNL     1     -15.744 -14.044  -1.346  1.00  0.00     0.006 C 
BRANCH  16  17
ATOM     17  C   UNL     1     -16.991 -14.810  -1.803  1.00  0.00     0.053 C 
BRANCH  17  18
ATOM     18  C   UNL     1     -17.610 -14.138  -2.989  1.00  0.00     0.041 C 
ATOM     19  O   UNL     1     -16.971 -14.045  -4.070  1.00  0.00    -0.550 OA
ATOM     20  O   UNL     1     -18.875 -13.572  -2.886  1.00  0.00    -0.550 OA
ENDBRANCH  17  18
ENDBRANCH  16  17
ENDBRANCH  15  16
ENDBRANCH  14  15
ENDBRANCH  13  14
ENDBRANCH  12  13
ENDBRANCH  11  12
ENDBRANCH   1  11
TORSDOF 15
ENDMDL
