MODEL 1
REMARK VINA RESULT:    -4.195      0.000      0.000
REMARK INTER + INTRA:          -5.170
REMARK INTER:                  -5.053
REMARK INTRA:                  -0.117
REMARK UNBOUND:                -0.117
REMARK SMILES CC[C@@H](C)[C@H]([NH3+])C(=O)[O-]
REMARK SMILES IDX 3 1 4 2 5 3 6 4 7 8 8 9 9 10 2 11 1 12
REMARK H PARENT 6 5 6 6 6 7
REMARK Flexibility Score: inf
ROOT
ATOM      1  C   UNL     1      -6.234 -18.477 -14.595  1.00  0.00     0.050 C 
ATOM      2  C   UNL     1      -6.229 -19.767 -15.435  1.00  0.00     0.014 C 
ENDROOT
BRANCH   1   3
ATOM      3  C   UNL     1      -7.024 -17.316 -15.279  1.00  0.00     0.230 C 
BRANCH   3   4
ATOM      4  N   UNL     1      -7.218 -16.177 -14.368  1.00  0.00    -0.350 N 
ATOM      5  H   UNL     1      -6.636 -16.312 -13.510  1.00  0.00     0.345 HD
ATOM      6  H   UNL     1      -8.220 -16.121 -14.074  1.00  0.00     0.345 HD
ATOM      7  H   UNL     1      -6.942 -15.277 -14.822  1.00  0.00     0.345 HD
ENDBRANCH   3   4
BRANCH   3   8
ATOM      8  C   UNL     1      -8.330 -17.742 -15.916  1.00  0.00     0.099 C 
ATOM      9  O   UNL     1      -9.340 -18.009 -15.211  1.00  0.00    -0.544 OA
ATOM     10  O   UNL     1      -8.437 -17.799 -17.300  1.00  0.00    -0.544 OA
ENDBRANCH   3   8
ENDBRANCH   1   3
BRANCH   1  11
ATOM     11  C   UNL     1      -6.574 -18.758 -13.106  1.00  0.00     0.006 C 
ATOM     12  C   UNL     1      -5.544 -19.584 -12.335  1.00  0.00     0.004 C 
ENDBRANCH   1  11
TORSDOF 4
ENDMDL
MODEL 2
REMARK VINA RESULT:    -3.959      8.403      9.180
REMARK INTER + INTRA:          -4.886
REMARK INTER:                  -4.771
REMARK INTRA:                  -0.115
REMARK UNBOUND:                -0.117
REMARK SMILES CC[C@@H](C)[C@H]([NH3+])C(=O)[O-]
REMARK SMILES IDX 3 1 4 2 5 3 6 4 7 8 8 9 9 10 2 11 1 12
REMARK H PARENT 6 5 6 6 6 7
REMARK Flexibility Score: inf
ROOT
ATOM      1  C   UNL     1      -1.898 -22.615 -11.721  1.00  0.00     0.050 C 
ATOM      2  C   UNL     1      -2.872 -22.137 -10.628  1.00  0.00     0.014 C 
ENDROOT
BRANCH   1   3
ATOM      3  C   UNL     1      -0.525 -21.872 -11.669  1.00  0.00     0.230 C 
BRANCH   3   4
ATOM      4  N   UNL     1       0.428 -22.421 -12.645  1.00  0.00    -0.350 N 
ATOM      5  H   UNL     1      -0.024 -23.199 -13.177  1.00  0.00     0.345 HD
ATOM      6  H   UNL     1       1.263 -22.810 -12.149  1.00  0.00     0.345 HD
ATOM      7  H   UNL     1       0.741 -21.689 -13.322  1.00  0.00     0.345 HD
ENDBRANCH   3   4
BRANCH   3   8
ATOM      8  C   UNL     1       0.086 -21.788 -10.286  1.00  0.00     0.099 C 
ATOM      9  O   UNL     1       0.590 -22.803  -9.736  1.00  0.00    -0.544 OA
ATOM     10  O   UNL     1       0.136 -20.566  -9.627  1.00  0.00    -0.544 OA
ENDBRANCH   3   8
ENDBRANCH   1   3
BRANCH   1  11
ATOM     11  C   UNL     1      -1.841 -24.164 -11.807  1.00  0.00     0.006 C 
ATOM     12  C   UNL     1      -2.994 -24.829 -12.559  1.00  0.00     0.004 C 
ENDBRANCH   1  11
TORSDOF 4
ENDMDL
MODEL 3
REMARK VINA RESULT:    -3.728      8.009      8.960
REMARK INTER + INTRA:          -4.608
REMARK INTER:                  -4.541
REMARK INTRA:                  -0.067
REMARK UNBOUND:                -0.117
REMARK SMILES CC[C@@H](C)[C@H]([NH3+])C(=O)[O-]
REMARK SMILES IDX 3 1 4 2 5 3 6 4 7 8 8 9 9 10 2 11 1 12
REMARK H PARENT 6 5 6 6 6 7
REMARK Flexibility Score: inf
ROOT
ATOM      1  C   UNL     1      -1.944 -22.757 -11.323  1.00  0.00     0.050 C 
ATOM      2  C   UNL     1      -1.950 -24.032 -12.185  1.00  0.00     0.014 C 
ENDROOT
BRANCH   1   3
ATOM      3  C   UNL     1      -0.634 -21.923 -11.491  1.00  0.00     0.230 C 
BRANCH   3   4
ATOM      4  N   UNL     1       0.227 -22.470 -12.551  1.00  0.00    -0.350 N 
ATOM      5  H   UNL     1      -0.292 -23.211 -13.077  1.00  0.00     0.345 HD
ATOM      6  H   UNL     1       1.078 -22.909 -12.130  1.00  0.00     0.345 HD
ATOM      7  H   UNL     1       0.521 -21.726 -13.223  1.00  0.00     0.345 HD
ENDBRANCH   3   4
BRANCH   3   8
ATOM      8  C   UNL     1       0.140 -21.711 -10.207  1.00  0.00     0.099 C 
ATOM      9  O   UNL     1       0.205 -20.574  -9.668  1.00  0.00    -0.544 OA
ATOM     10  O   UNL     1       0.753 -22.791  -9.584  1.00  0.00    -0.544 OA
ENDBRANCH   3   8
ENDBRANCH   1   3
BRANCH   1  11
ATOM     11  C   UNL     1      -3.279 -21.973 -11.439  1.00  0.00     0.006 C 
ATOM     12  C   UNL     1      -4.076 -21.824 -10.143  1.00  0.00     0.004 C 
ENDBRANCH   1  11
TORSDOF 4
ENDMDL
MODEL 4
REMARK VINA RESULT:    -3.703      5.323      6.546
REMARK INTER + INTRA:          -4.579
REMARK INTER:                  -4.521
REMARK INTRA:                  -0.057
REMARK UNBOUND:                -0.117
REMARK SMILES CC[C@@H](C)[C@H]([NH3+])C(=O)[O-]
REMARK SMILES IDX 3 1 4 2 5 3 6 4 7 8 8 9 9 10 2 11 1 12
REMARK H PARENT 6 5 6 6 6 7
REMARK Flexibility Score: inf
ROOT
ATOM      1  C   UNL     1      -2.738 -22.331 -11.602  1.00  0.00     0.050 C 
ATOM      2  C   UNL     1      -2.932 -23.850 -11.755  1.00  0.00     0.014 C 
ENDROOT
BRANCH   1   3
ATOM      3  C   UNL     1      -3.940 -21.640 -10.884  1.00  0.00     0.230 C 
BRANCH   3   4
ATOM      4  N   UNL     1      -4.514 -22.497  -9.835  1.00  0.00    -0.350 N 
ATOM      5  H   UNL     1      -5.534 -22.290  -9.732  1.00  0.00     0.345 HD
ATOM      6  H   UNL     1      -4.050 -22.300  -8.919  1.00  0.00     0.345 HD
ATOM      7  H   UNL     1      -4.400 -23.509 -10.068  1.00  0.00     0.345 HD
ENDBRANCH   3   4
BRANCH   3   8
ATOM      8  C   UNL     1      -5.012 -21.121 -11.821  1.00  0.00     0.099 C 
ATOM      9  O   UNL     1      -6.035 -21.809 -12.082  1.00  0.00    -0.544 OA
ATOM     10  O   UNL     1      -4.892 -19.851 -12.370  1.00  0.00    -0.544 OA
ENDBRANCH   3   8
ENDBRANCH   1   3
BRANCH   1  11
ATOM     11  C   UNL     1      -1.322 -21.979 -11.069  1.00  0.00     0.006 C 
ATOM     12  C   UNL     1      -0.172 -22.187 -12.055  1.00  0.00     0.004 C 
ENDBRANCH   1  11
TORSDOF 4
ENDMDL
MODEL 5
REMARK VINA RESULT:    -3.676      4.528      5.709
REMARK INTER + INTRA:          -4.546
REMARK INTER:                  -4.466
REMARK INTRA:                  -0.080
REMARK UNBOUND:                -0.117
REMARK SMILES CC[C@@H](C)[C@H]([NH3+])C(=O)[O-]
REMARK SMILES IDX 3 1 4 2 5 3 6 4 7 8 8 9 9 10 2 11 1 12
REMARK H PARENT 6 5 6 6 6 7
REMARK Flexibility Score: inf
ROOT
ATOM      1  C   UNL     1      -5.552 -20.151 -13.107  1.00  0.00     0.050 C 
ATOM      2  C   UNL     1      -6.178 -19.108 -12.163  1.00  0.00     0.014 C 
ENDROOT
BRANCH   1   3
ATOM      3  C   UNL     1      -5.528 -21.585 -12.486  1.00  0.00     0.230 C 
BRANCH   3   4
ATOM      4  N   UNL     1      -6.875 -22.036 -12.104  1.00  0.00    -0.350 N 
ATOM      5  H   UNL     1      -7.527 -21.915 -12.912  1.00  0.00     0.345 HD
ATOM      6  H   UNL     1      -7.233 -21.459 -11.309  1.00  0.00     0.345 HD
ATOM      7  H   UNL     1      -6.872 -23.043 -11.824  1.00  0.00     0.345 HD
ENDBRANCH   3   4
BRANCH   3   8
ATOM      8  C   UNL     1      -4.545 -21.754 -11.347  1.00  0.00     0.099 C 
ATOM      9  O   UNL     1      -3.306 -21.828 -11.562  1.00  0.00    -0.544 OA
ATOM     10  O   UNL     1      -5.006 -21.785 -10.037  1.00  0.00    -0.544 OA
ENDBRANCH   3   8
ENDBRANCH   1   3
BRANCH   1  11
ATOM     11  C   UNL     1      -6.111 -20.035 -14.550  1.00  0.00     0.006 C 
ATOM     12  C   UNL     1      -6.674 -18.666 -14.935  1.00  0.00     0.004 C 
ENDBRANCH   1  11
TORSDOF 4
ENDMDL
MODEL 6
REMARK VINA RESULT:    -3.643      5.308      6.590
REMARK INTER + INTRA:          -4.506
REMARK INTER:                  -4.380
REMARK INTRA:                  -0.126
REMARK UNBOUND:                -0.117
REMARK SMILES CC[C@@H](C)[C@H]([NH3+])C(=O)[O-]
REMARK SMILES IDX 3 1 4 2 5 3 6 4 7 8 8 9 9 10 2 11 1 12
REMARK H PARENT 6 5 6 6 6 7
REMARK Flexibility Score: inf
ROOT
ATOM      1  C   UNL     1      -5.566 -21.212 -11.129  1.00  0.00     0.050 C 
ATOM      2  C   UNL     1      -6.160 -22.181 -12.167  1.00  0.00     0.014 C 
ENDROOT
BRANCH   1   3
ATOM      3  C   UNL     1      -4.352 -21.824 -10.360  1.00  0.00     0.230 C 
BRANCH   3   4
ATOM      4  N   UNL     1      -3.832 -20.902  -9.339  1.00  0.00    -0.350 N 
ATOM      5  H   UNL     1      -2.954 -20.453  -9.686  1.00  0.00     0.345 HD
ATOM      6  H   UNL     1      -3.602 -21.430  -8.465  1.00  0.00     0.345 HD
ATOM      7  H   UNL     1      -4.526 -20.153  -9.115  1.00  0.00     0.345 HD
ENDBRANCH   3   4
BRANCH   3   8
ATOM      8  C   UNL     1      -3.243 -22.339 -11.255  1.00  0.00     0.099 C 
ATOM      9  O   UNL     1      -2.427 -21.548 -11.798  1.00  0.00    -0.544 OA
ATOM     10  O   UNL     1      -3.092 -23.706 -11.449  1.00  0.00    -0.544 OA
ENDBRANCH   3   8
ENDBRANCH   1   3
BRANCH   1  11
ATOM     11  C   UNL     1      -5.363 -19.789 -11.715  1.00  0.00     0.006 C 
ATOM     12  C   UNL     1      -5.581 -19.656 -13.223  1.00  0.00     0.004 C 
ENDBRANCH   1  11
TORSDOF 4
ENDMDL
MODEL 7
REMARK VINA RESULT:    -3.630      4.224      5.518
REMARK INTER + INTRA:          -4.491
REMARK INTER:                  -4.424
REMARK INTRA:                  -0.066
REMARK UNBOUND:                -0.117
REMARK SMILES CC[C@@H](C)[C@H]([NH3+])C(=O)[O-]
REMARK SMILES IDX 3 1 4 2 5 3 6 4 7 8 8 9 9 10 2 11 1 12
REMARK H PARENT 6 5 6 6 6 7
REMARK Flexibility Score: inf
ROOT
ATOM      1  C   UNL     1      -4.556 -22.088 -10.953  1.00  0.00     0.050 C 
ATOM      2  C   UNL     1      -4.337 -21.876  -9.444  1.00  0.00     0.014 C 
ENDROOT
BRANCH   1   3
ATOM      3  C   UNL     1      -5.947 -21.568 -11.438  1.00  0.00     0.230 C 
BRANCH   3   4
ATOM      4  N   UNL     1      -6.732 -22.633 -12.081  1.00  0.00    -0.350 N 
ATOM      5  H   UNL     1      -7.509 -22.208 -12.638  1.00  0.00     0.345 HD
ATOM      6  H   UNL     1      -7.157 -23.253 -11.354  1.00  0.00     0.345 HD
ATOM      7  H   UNL     1      -6.138 -23.209 -12.720  1.00  0.00     0.345 HD
ENDBRANCH   3   4
BRANCH   3   8
ATOM      8  C   UNL     1      -5.881 -20.329 -12.306  1.00  0.00     0.099 C 
ATOM      9  O   UNL     1      -5.660 -19.195 -11.804  1.00  0.00    -0.544 OA
ATOM     10  O   UNL     1      -6.023 -20.443 -13.683  1.00  0.00    -0.544 OA
ENDBRANCH   3   8
ENDBRANCH   1   3
BRANCH   1  11
ATOM     11  C   UNL     1      -3.324 -21.639 -11.785  1.00  0.00     0.006 C 
ATOM     12  C   UNL     1      -2.092 -22.539 -11.684  1.00  0.00     0.004 C 
ENDBRANCH   1  11
TORSDOF 4
ENDMDL
MODEL 8
REMARK VINA RESULT:    -3.544     15.141     16.057
REMARK INTER + INTRA:          -4.386
REMARK INTER:                  -4.266
REMARK INTRA:                  -0.120
REMARK UNBOUND:                -0.117
REMARK SMILES CC[C@@H](C)[C@H]([NH3+])C(=O)[O-]
REMARK SMILES IDX 3 1 4 2 5 3 6 4 7 8 8 9 9 10 2 11 1 12
REMARK H PARENT 6 5 6 6 6 7
REMARK Flexibility Score: inf
ROOT
ATOM      1  C   UNL     1       3.009 -30.428 -12.707  1.00  0.00     0.050 C 
ATOM      2  C   UNL     1       3.117 -30.373 -14.242  1.00  0.00     0.014 C 
ENDROOT
BRANCH   1   3
ATOM      3  C   UNL     1       2.814 -29.016 -12.068  1.00  0.00     0.230 C 
BRANCH   3   4
ATOM      4  N   UNL     1       2.739 -27.960 -13.090  1.00  0.00    -0.350 N 
ATOM      5  H   UNL     1       2.406 -27.071 -12.652  1.00  0.00     0.345 HD
ATOM      6  H   UNL     1       2.054 -28.231 -13.833  1.00  0.00     0.345 HD
ATOM      7  H   UNL     1       3.672 -27.790 -13.528  1.00  0.00     0.345 HD
ENDBRANCH   3   4
BRANCH   3   8
ATOM      8  C   UNL     1       3.825 -28.673 -10.994  1.00  0.00     0.099 C 
ATOM      9  O   UNL     1       4.391 -29.576 -10.322  1.00  0.00    -0.544 OA
ATOM     10  O   UNL     1       4.170 -27.347 -10.769  1.00  0.00    -0.544 OA
ENDBRANCH   3   8
ENDBRANCH   1   3
BRANCH   1  11
ATOM     11  C   UNL     1       2.032 -31.538 -12.236  1.00  0.00     0.006 C 
ATOM     12  C   UNL     1       2.597 -32.530 -11.219  1.00  0.00     0.004 C 
ENDBRANCH   1  11
TORSDOF 4
ENDMDL
MODEL 9
REMARK VINA RESULT:    -3.543      5.735      6.713
REMARK INTER + INTRA:          -4.385
REMARK INTER:                  -4.333
REMARK INTRA:                  -0.052
REMARK UNBOUND:                -0.117
REMARK SMILES CC[C@@H](C)[C@H]([NH3+])C(=O)[O-]
REMARK SMILES IDX 3 1 4 2 5 3 6 4 7 8 8 9 9 10 2 11 1 12
REMARK H PARENT 6 5 6 6 6 7
REMARK Flexibility Score: inf
ROOT
ATOM      1  C   UNL     1      -3.216 -22.481 -11.254  1.00  0.00     0.050 C 
ATOM      2  C   UNL     1      -1.864 -21.810 -11.559  1.00  0.00     0.014 C 
ENDROOT
BRANCH   1   3
ATOM      3  C   UNL     1      -4.428 -21.527 -11.499  1.00  0.00     0.230 C 
BRANCH   3   4
ATOM      4  N   UNL     1      -4.007 -20.255 -12.106  1.00  0.00    -0.350 N 
ATOM      5  H   UNL     1      -4.803 -19.843 -12.645  1.00  0.00     0.345 HD
ATOM      6  H   UNL     1      -3.218 -20.422 -12.773  1.00  0.00     0.345 HD
ATOM      7  H   UNL     1      -3.703 -19.569 -11.379  1.00  0.00     0.345 HD
ENDBRANCH   3   4
BRANCH   3   8
ATOM      8  C   UNL     1      -5.295 -21.295 -10.279  1.00  0.00     0.099 C 
ATOM      9  O   UNL     1      -4.828 -20.748  -9.244  1.00  0.00    -0.544 OA
ATOM     10  O   UNL     1      -6.637 -21.649 -10.309  1.00  0.00    -0.544 OA
ENDBRANCH   3   8
ENDBRANCH   1   3
BRANCH   1  11
ATOM     11  C   UNL     1      -3.314 -23.896 -11.884  1.00  0.00     0.006 C 
ATOM     12  C   UNL     1      -1.982 -24.573 -12.206  1.00  0.00     0.004 C 
ENDBRANCH   1  11
TORSDOF 4
ENDMDL
