MODEL 1
REMARK VINA RESULT:    -4.270      0.000      0.000
REMARK INTER + INTRA:          -6.016
REMARK INTER:                  -5.768
REMARK INTRA:                  -0.248
REMARK UNBOUND:                -0.248
REMARK SMILES CCCCCCCC(=O)[O-]
REMARK SMILES IDX 5 1 6 2 7 3 8 4 9 5 10 6 4 7 3 8 2 9 1 10
REMARK H PARENT
REMARK Flexibility Score: inf
ROOT
ATOM      1  C   UNL     1      23.893  -6.544  39.068  1.00  0.00     0.000 C 
ENDROOT
BRANCH   1   2
ATOM      2  C   UNL     1      24.463  -5.382  39.902  1.00  0.00     0.006 C 
BRANCH   2   3
ATOM      3  C   UNL     1      25.728  -5.747  40.700  1.00  0.00     0.053 C 
BRANCH   3   4
ATOM      4  C   UNL     1      26.893  -6.079  39.818  1.00  0.00     0.041 C 
ATOM      5  O   UNL     1      27.201  -7.280  39.597  1.00  0.00    -0.550 OA
ATOM      6  O   UNL     1      27.620  -5.061  39.214  1.00  0.00    -0.550 OA
ENDBRANCH   3   4
ENDBRANCH   2   3
ENDBRANCH   1   2
BRANCH   1   7
ATOM      7  C   UNL     1      23.349  -7.693  39.930  1.00  0.00     0.000 C 
BRANCH   7   8
ATOM      8  C   UNL     1      22.002  -8.197  39.389  1.00  0.00    -0.000 C 
BRANCH   8   9
ATOM      9  C   UNL     1      20.906  -8.220  40.465  1.00  0.00    -0.003 C 
ATOM     10  C   UNL     1      19.770  -7.240  40.176  1.00  0.00     0.004 C 
ENDBRANCH   8   9
ENDBRANCH   7   8
ENDBRANCH   1   7
TORSDOF 6
ENDMDL
MODEL 2
REMARK VINA RESULT:    -4.266     16.097     17.115
REMARK INTER + INTRA:          -6.010
REMARK INTER:                  -5.478
REMARK INTRA:                  -0.532
REMARK UNBOUND:                -0.248
REMARK SMILES CCCCCCCC(=O)[O-]
REMARK SMILES IDX 5 1 6 2 7 3 8 4 9 5 10 6 4 7 3 8 2 9 1 10
REMARK H PARENT
REMARK Flexibility Score: inf
ROOT
ATOM      1  C   UNL     1      12.851   2.977  39.789  1.00  0.00     0.000 C 
ENDROOT
BRANCH   1   2
ATOM      2  C   UNL     1      12.169   4.294  40.205  1.00  0.00     0.006 C 
BRANCH   2   3
ATOM      3  C   UNL     1      12.352   5.440  39.194  1.00  0.00     0.053 C 
BRANCH   3   4
ATOM      4  C   UNL     1      11.207   6.406  39.201  1.00  0.00     0.041 C 
ATOM      5  O   UNL     1      10.250   6.266  38.394  1.00  0.00    -0.550 OA
ATOM      6  O   UNL     1      11.180   7.445  40.123  1.00  0.00    -0.550 OA
ENDBRANCH   3   4
ENDBRANCH   2   3
ENDBRANCH   1   2
BRANCH   1   7
ATOM      7  C   UNL     1      11.954   2.083  38.921  1.00  0.00     0.000 C 
BRANCH   7   8
ATOM      8  C   UNL     1      12.431   2.075  37.461  1.00  0.00    -0.000 C 
BRANCH   8   9
ATOM      9  C   UNL     1      11.518   2.896  36.537  1.00  0.00    -0.003 C 
ATOM     10  C   UNL     1      10.084   2.994  37.056  1.00  0.00     0.004 C 
ENDBRANCH   8   9
ENDBRANCH   7   8
ENDBRANCH   1   7
TORSDOF 6
ENDMDL
MODEL 3
REMARK VINA RESULT:    -4.221      1.232      1.831
REMARK INTER + INTRA:          -5.950
REMARK INTER:                  -5.523
REMARK INTRA:                  -0.427
REMARK UNBOUND:                -0.248
REMARK SMILES CCCCCCCC(=O)[O-]
REMARK SMILES IDX 5 1 6 2 7 3 8 4 9 5 10 6 4 7 3 8 2 9 1 10
REMARK H PARENT
REMARK Flexibility Score: inf
ROOT
ATOM      1  C   UNL     1      23.389  -5.079  38.911  1.00  0.00     0.000 C 
ENDROOT
BRANCH   1   2
ATOM      2  C   UNL     1      24.468  -5.679  39.832  1.00  0.00     0.006 C 
BRANCH   2   3
ATOM      3  C   UNL     1      25.874  -5.717  39.206  1.00  0.00     0.053 C 
BRANCH   3   4
ATOM      4  C   UNL     1      26.608  -6.987  39.510  1.00  0.00     0.041 C 
ATOM      5  O   UNL     1      27.865  -7.028  39.443  1.00  0.00    -0.550 OA
ATOM      6  O   UNL     1      25.904  -8.121  39.898  1.00  0.00    -0.550 OA
ENDBRANCH   3   4
ENDBRANCH   2   3
ENDBRANCH   1   2
BRANCH   1   7
ATOM      7  C   UNL     1      22.184  -6.009  38.710  1.00  0.00     0.000 C 
BRANCH   7   8
ATOM      8  C   UNL     1      22.633  -7.388  38.201  1.00  0.00    -0.000 C 
BRANCH   8   9
ATOM      9  C   UNL     1      22.240  -8.525  39.156  1.00  0.00    -0.003 C 
ATOM     10  C   UNL     1      21.178  -8.107  40.172  1.00  0.00     0.004 C 
ENDBRANCH   8   9
ENDBRANCH   7   8
ENDBRANCH   1   7
TORSDOF 6
ENDMDL
MODEL 4
REMARK VINA RESULT:    -4.178      2.825      5.383
REMARK INTER + INTRA:          -5.891
REMARK INTER:                  -5.612
REMARK INTRA:                  -0.280
REMARK UNBOUND:                -0.248
REMARK SMILES CCCCCCCC(=O)[O-]
REMARK SMILES IDX 5 1 6 2 7 3 8 4 9 5 10 6 4 7 3 8 2 9 1 10
REMARK H PARENT
REMARK Flexibility Score: inf
ROOT
ATOM      1  C   UNL     1      24.487  -5.490  39.983  1.00  0.00     0.000 C 
ENDROOT
BRANCH   1   2
ATOM      2  C   UNL     1      23.849  -6.472  38.983  1.00  0.00     0.006 C 
BRANCH   2   3
ATOM      3  C   UNL     1      22.328  -6.638  39.152  1.00  0.00     0.053 C 
BRANCH   3   4
ATOM      4  C   UNL     1      21.936  -8.035  39.526  1.00  0.00     0.041 C 
ATOM      5  O   UNL     1      22.425  -9.019  38.911  1.00  0.00    -0.550 OA
ATOM      6  O   UNL     1      21.053  -8.252  40.576  1.00  0.00    -0.550 OA
ENDBRANCH   3   4
ENDBRANCH   2   3
ENDBRANCH   1   2
BRANCH   1   7
ATOM      7  C   UNL     1      25.869  -5.945  40.475  1.00  0.00     0.000 C 
BRANCH   7   8
ATOM      8  C   UNL     1      26.986  -5.358  39.598  1.00  0.00    -0.000 C 
BRANCH   8   9
ATOM      9  C   UNL     1      28.068  -6.391  39.252  1.00  0.00    -0.003 C 
ATOM     10  C   UNL     1      27.539  -7.825  39.243  1.00  0.00     0.004 C 
ENDBRANCH   8   9
ENDBRANCH   7   8
ENDBRANCH   1   7
TORSDOF 6
ENDMDL
MODEL 5
REMARK VINA RESULT:    -4.163     15.444     16.880
REMARK INTER + INTRA:          -5.872
REMARK INTER:                  -5.410
REMARK INTRA:                  -0.462
REMARK UNBOUND:                -0.248
REMARK SMILES CCCCCCCC(=O)[O-]
REMARK SMILES IDX 5 1 6 2 7 3 8 4 9 5 10 6 4 7 3 8 2 9 1 10
REMARK H PARENT
REMARK Flexibility Score: inf
ROOT
ATOM      1  C   UNL     1      11.686   3.162  39.874  1.00  0.00     0.000 C 
ENDROOT
BRANCH   1   2
ATOM      2  C   UNL     1      11.574   1.986  38.886  1.00  0.00     0.006 C 
BRANCH   2   3
ATOM      3  C   UNL     1      12.390   2.173  37.594  1.00  0.00     0.053 C 
BRANCH   3   4
ATOM      4  C   UNL     1      11.560   2.680  36.454  1.00  0.00     0.041 C 
ATOM      5  O   UNL     1      10.343   2.958  36.626  1.00  0.00    -0.550 OA
ATOM      6  O   UNL     1      12.138   2.877  35.206  1.00  0.00    -0.550 OA
ENDBRANCH   3   4
ENDBRANCH   2   3
ENDBRANCH   1   2
BRANCH   1   7
ATOM      7  C   UNL     1      12.955   4.001  39.668  1.00  0.00     0.000 C 
BRANCH   7   8
ATOM      8  C   UNL     1      12.604   5.440  39.258  1.00  0.00    -0.000 C 
BRANCH   8   9
ATOM      9  C   UNL     1      11.091   5.655  39.098  1.00  0.00    -0.003 C 
ATOM     10  C   UNL     1      10.586   6.890  39.843  1.00  0.00     0.004 C 
ENDBRANCH   8   9
ENDBRANCH   7   8
ENDBRANCH   1   7
TORSDOF 6
ENDMDL
MODEL 6
REMARK VINA RESULT:    -4.098      8.417      9.447
REMARK INTER + INTRA:          -5.784
REMARK INTER:                  -5.571
REMARK INTRA:                  -0.213
REMARK UNBOUND:                -0.248
REMARK SMILES CCCCCCCC(=O)[O-]
REMARK SMILES IDX 5 1 6 2 7 3 8 4 9 5 10 6 4 7 3 8 2 9 1 10
REMARK H PARENT
REMARK Flexibility Score: inf
ROOT
ATOM      1  C   UNL     1      18.664  -0.640  44.194  1.00  0.00     0.000 C 
ENDROOT
BRANCH   1   2
ATOM      2  C   UNL     1      20.203  -0.688  44.252  1.00  0.00     0.006 C 
BRANCH   2   3
ATOM      3  C   UNL     1      20.892   0.515  43.582  1.00  0.00     0.053 C 
BRANCH   3   4
ATOM      4  C   UNL     1      22.376   0.344  43.472  1.00  0.00     0.041 C 
ATOM      5  O   UNL     1      22.918   0.196  42.344  1.00  0.00    -0.550 OA
ATOM      6  O   UNL     1      23.167   0.380  44.613  1.00  0.00    -0.550 OA
ENDBRANCH   3   4
ENDBRANCH   2   3
ENDBRANCH   1   2
BRANCH   1   7
ATOM      7  C   UNL     1      18.012  -0.616  45.584  1.00  0.00     0.000 C 
BRANCH   7   8
ATOM      8  C   UNL     1      16.538  -0.192  45.492  1.00  0.00    -0.000 C 
BRANCH   8   9
ATOM      9  C   UNL     1      15.953  -0.391  44.085  1.00  0.00    -0.003 C 
ATOM     10  C   UNL     1      15.151   0.816  43.601  1.00  0.00     0.004 C 
ENDBRANCH   8   9
ENDBRANCH   7   8
ENDBRANCH   1   7
TORSDOF 6
ENDMDL
MODEL 7
REMARK VINA RESULT:    -4.071     10.573     12.300
REMARK INTER + INTRA:          -5.748
REMARK INTER:                  -5.506
REMARK INTRA:                  -0.241
REMARK UNBOUND:                -0.248
REMARK SMILES CCCCCCCC(=O)[O-]
REMARK SMILES IDX 5 1 6 2 7 3 8 4 9 5 10 6 4 7 3 8 2 9 1 10
REMARK H PARENT
REMARK Flexibility Score: inf
ROOT
ATOM      1  C   UNL     1      16.062  -0.302  44.222  1.00  0.00     0.000 C 
ENDROOT
BRANCH   1   2
ATOM      2  C   UNL     1      15.148   0.868  43.812  1.00  0.00     0.006 C 
BRANCH   2   3
ATOM      3  C   UNL     1      14.179   0.532  42.664  1.00  0.00     0.053 C 
BRANCH   3   4
ATOM      4  C   UNL     1      14.369   1.416  41.469  1.00  0.00     0.041 C 
ATOM      5  O   UNL     1      13.535   1.400  40.526  1.00  0.00    -0.550 OA
ATOM      6  O   UNL     1      15.454   2.283  41.411  1.00  0.00    -0.550 OA
ENDBRANCH   3   4
ENDBRANCH   2   3
ENDBRANCH   1   2
BRANCH   1   7
ATOM      7  C   UNL     1      16.599  -0.172  45.655  1.00  0.00     0.000 C 
BRANCH   7   8
ATOM      8  C   UNL     1      18.087  -0.547  45.720  1.00  0.00    -0.000 C 
BRANCH   8   9
ATOM      9  C   UNL     1      18.662  -0.927  44.347  1.00  0.00    -0.003 C 
ATOM     10  C   UNL     1      20.144  -0.585  44.209  1.00  0.00     0.004 C 
ENDBRANCH   8   9
ENDBRANCH   7   8
ENDBRANCH   1   7
TORSDOF 6
ENDMDL
MODEL 8
REMARK VINA RESULT:    -4.049      5.432      7.306
REMARK INTER + INTRA:          -5.717
REMARK INTER:                  -5.501
REMARK INTRA:                  -0.216
REMARK UNBOUND:                -0.248
REMARK SMILES CCCCCCCC(=O)[O-]
REMARK SMILES IDX 5 1 6 2 7 3 8 4 9 5 10 6 4 7 3 8 2 9 1 10
REMARK H PARENT
REMARK Flexibility Score: inf
ROOT
ATOM      1  C   UNL     1      19.857  -6.763  39.769  1.00  0.00     0.000 C 
ENDROOT
BRANCH   1   2
ATOM      2  C   UNL     1      18.356  -6.653  40.097  1.00  0.00     0.006 C 
BRANCH   2   3
ATOM      3  C   UNL     1      18.062  -6.190  41.535  1.00  0.00     0.053 C 
BRANCH   3   4
ATOM      4  C   UNL     1      16.689  -6.572  41.996  1.00  0.00     0.041 C 
ATOM      5  O   UNL     1      15.726  -6.589  41.184  1.00  0.00    -0.550 OA
ATOM      6  O   UNL     1      16.477  -6.940  43.319  1.00  0.00    -0.550 OA
ENDBRANCH   3   4
ENDBRANCH   2   3
ENDBRANCH   1   2
BRANCH   1   7
ATOM      7  C   UNL     1      20.535  -7.961  40.449  1.00  0.00     0.000 C 
BRANCH   7   8
ATOM      8  C   UNL     1      21.816  -8.365  39.703  1.00  0.00    -0.000 C 
BRANCH   8   9
ATOM      9  C   UNL     1      22.454  -7.190  38.947  1.00  0.00    -0.003 C 
ATOM     10  C   UNL     1      23.658  -6.598  39.679  1.00  0.00     0.004 C 
ENDBRANCH   8   9
ENDBRANCH   7   8
ENDBRANCH   1   7
TORSDOF 6
ENDMDL
MODEL 9
REMARK VINA RESULT:    -3.915      2.554      3.934
REMARK INTER + INTRA:          -5.536
REMARK INTER:                  -5.205
REMARK INTRA:                  -0.331
REMARK UNBOUND:                -0.248
REMARK SMILES CCCCCCCC(=O)[O-]
REMARK SMILES IDX 5 1 6 2 7 3 8 4 9 5 10 6 4 7 3 8 2 9 1 10
REMARK H PARENT
REMARK Flexibility Score: inf
ROOT
ATOM      1  C   UNL     1      24.351  -5.655  38.009  1.00  0.00     0.000 C 
ENDROOT
BRANCH   1   2
ATOM      2  C   UNL     1      24.157  -5.755  39.533  1.00  0.00     0.006 C 
BRANCH   2   3
ATOM      3  C   UNL     1      25.471  -5.757  40.333  1.00  0.00     0.053 C 
BRANCH   3   4
ATOM      4  C   UNL     1      26.353  -6.921  39.994  1.00  0.00     0.041 C 
ATOM      5  O   UNL     1      27.577  -6.744  39.756  1.00  0.00    -0.550 OA
ATOM      6  O   UNL     1      25.829  -8.207  39.973  1.00  0.00    -0.550 OA
ENDBRANCH   3   4
ENDBRANCH   2   3
ENDBRANCH   1   2
BRANCH   1   7
ATOM      7  C   UNL     1      23.177  -4.970  37.296  1.00  0.00     0.000 C 
BRANCH   7   8
ATOM      8  C   UNL     1      22.709  -3.730  38.073  1.00  0.00    -0.000 C 
BRANCH   8   9
ATOM      9  C   UNL     1      22.986  -2.421  37.318  1.00  0.00    -0.003 C 
ATOM     10  C   UNL     1      23.325  -2.646  35.845  1.00  0.00     0.004 C 
ENDBRANCH   8   9
ENDBRANCH   7   8
ENDBRANCH   1   7
TORSDOF 6
ENDMDL
