MODEL 1
REMARK VINA RESULT:    -5.405      0.000      0.000
REMARK INTER + INTRA:          -5.405
REMARK INTER:                  -5.405
REMARK INTRA:                   0.000
REMARK UNBOUND:                 0.000
REMARK SMILES CC1=CC(=O)[C@@H]2C[C@H]1C2(C)C
REMARK SMILES IDX 1 1 2 2 3 3 4 4 5 5 6 6 7 7 8 8 9 9 10 10 11 11
REMARK H PARENT
REMARK Flexibility Score: inf
ROOT
ATOM      1  C   UNL     1       2.620 142.271  -7.996  1.00  0.00     0.040 C 
ATOM      2  C   UNL     1       3.161 143.643  -7.751  1.00  0.00    -0.066 C 
ATOM      3  C   UNL     1       2.886 144.318  -6.599  1.00  0.00     0.047 C 
ATOM      4  C   UNL     1       3.513 145.672  -6.459  1.00  0.00     0.159 C 
ATOM      5  O   UNL     1       3.367 146.377  -5.426  1.00  0.00    -0.295 OA
ATOM      6  C   UNL     1       4.342 146.137  -7.657  1.00  0.00     0.067 C 
ATOM      7  C   UNL     1       3.461 145.800  -8.880  1.00  0.00     0.021 C 
ATOM      8  C   UNL     1       4.040 144.369  -8.792  1.00  0.00     0.022 C 
ATOM      9  C   UNL     1       5.286 144.977  -8.086  1.00  0.00    -0.019 C 
ATOM     10  C   UNL     1       5.981 144.141  -6.974  1.00  0.00     0.012 C 
ATOM     11  C   UNL     1       6.368 145.440  -9.094  1.00  0.00     0.012 C 
ENDROOT
TORSDOF 0
ENDMDL
MODEL 2
REMARK VINA RESULT:    -5.095      1.553      3.004
REMARK INTER + INTRA:          -5.095
REMARK INTER:                  -5.095
REMARK INTRA:                   0.000
REMARK UNBOUND:                 0.000
REMARK SMILES CC1=CC(=O)[C@@H]2C[C@H]1C2(C)C
REMARK SMILES IDX 1 1 2 2 3 3 4 4 5 5 6 6 7 7 8 8 9 9 10 10 11 11
REMARK H PARENT
REMARK Flexibility Score: inf
ROOT
ATOM      1  C   UNL     1       3.249 147.111  -5.331  1.00  0.00     0.040 C 
ATOM      2  C   UNL     1       3.687 145.947  -6.160  1.00  0.00    -0.066 C 
ATOM      3  C   UNL     1       2.871 144.875  -6.365  1.00  0.00     0.047 C 
ATOM      4  C   UNL     1       3.413 143.785  -7.239  1.00  0.00     0.159 C 
ATOM      5  O   UNL     1       2.741 142.763  -7.534  1.00  0.00    -0.295 OA
ATOM      6  C   UNL     1       4.839 144.003  -7.747  1.00  0.00     0.067 C 
ATOM      7  C   UNL     1       5.618 144.472  -6.499  1.00  0.00     0.021 C 
ATOM      8  C   UNL     1       5.087 145.890  -6.809  1.00  0.00     0.022 C 
ATOM      9  C   UNL     1       4.953 145.454  -8.296  1.00  0.00    -0.019 C 
ATOM     10  C   UNL     1       3.768 146.025  -9.125  1.00  0.00     0.012 C 
ATOM     11  C   UNL     1       6.260 145.680  -9.097  1.00  0.00     0.012 C 
ENDROOT
TORSDOF 0
ENDMDL
MODEL 3
REMARK VINA RESULT:    -5.021      1.747      3.533
REMARK INTER + INTRA:          -5.021
REMARK INTER:                  -5.021
REMARK INTRA:                   0.000
REMARK UNBOUND:                 0.000
REMARK SMILES CC1=CC(=O)[C@@H]2C[C@H]1C2(C)C
REMARK SMILES IDX 1 1 2 2 3 3 4 4 5 5 6 6 7 7 8 8 9 9 10 10 11 11
REMARK H PARENT
REMARK Flexibility Score: inf
ROOT
ATOM      1  C   UNL     1       5.712 147.264  -9.124  1.00  0.00     0.040 C 
ATOM      2  C   UNL     1       4.902 146.119  -8.607  1.00  0.00    -0.066 C 
ATOM      3  C   UNL     1       5.492 144.964  -8.190  1.00  0.00     0.047 C 
ATOM      4  C   UNL     1       4.574 143.902  -7.665  1.00  0.00     0.159 C 
ATOM      5  O   UNL     1       5.001 142.807  -7.215  1.00  0.00    -0.295 OA
ATOM      6  C   UNL     1       3.084 144.242  -7.714  1.00  0.00     0.067 C 
ATOM      7  C   UNL     1       2.877 144.834  -9.125  1.00  0.00     0.021 C 
ATOM      8  C   UNL     1       3.361 146.179  -8.536  1.00  0.00     0.022 C 
ATOM      9  C   UNL     1       2.885 145.676  -7.143  1.00  0.00    -0.019 C 
ATOM     10  C   UNL     1       3.707 146.093  -5.891  1.00  0.00     0.012 C 
ATOM     11  C   UNL     1       1.394 146.002  -6.876  1.00  0.00     0.012 C 
ENDROOT
TORSDOF 0
ENDMDL
MODEL 4
REMARK VINA RESULT:    -5.013      1.761      2.967
REMARK INTER + INTRA:          -5.013
REMARK INTER:                  -5.013
REMARK INTRA:                   0.000
REMARK UNBOUND:                 0.000
REMARK SMILES CC1=CC(=O)[C@@H]2C[C@H]1C2(C)C
REMARK SMILES IDX 1 1 2 2 3 3 4 4 5 5 6 6 7 7 8 8 9 9 10 10 11 11
REMARK H PARENT
REMARK Flexibility Score: inf
ROOT
ATOM      1  C   UNL     1       3.228 146.515  -5.397  1.00  0.00     0.040 C 
ATOM      2  C   UNL     1       3.818 146.099  -6.706  1.00  0.00    -0.066 C 
ATOM      3  C   UNL     1       4.881 146.760  -7.246  1.00  0.00     0.047 C 
ATOM      4  C   UNL     1       5.401 146.227  -8.546  1.00  0.00     0.159 C 
ATOM      5  O   UNL     1       6.402 146.727  -9.125  1.00  0.00    -0.295 OA
ATOM      6  C   UNL     1       4.632 145.038  -9.121  1.00  0.00     0.067 C 
ATOM      7  C   UNL     1       3.148 145.438  -8.971  1.00  0.00     0.021 C 
ATOM      8  C   UNL     1       3.246 144.918  -7.519  1.00  0.00     0.022 C 
ATOM      9  C   UNL     1       4.410 143.998  -7.986  1.00  0.00    -0.019 C 
ATOM     10  C   UNL     1       5.576 143.727  -6.994  1.00  0.00     0.012 C 
ATOM     11  C   UNL     1       3.904 142.636  -8.525  1.00  0.00     0.012 C 
ENDROOT
TORSDOF 0
ENDMDL
MODEL 5
REMARK VINA RESULT:    -4.936      1.454      2.443
REMARK INTER + INTRA:          -4.936
REMARK INTER:                  -4.936
REMARK INTRA:                   0.000
REMARK UNBOUND:                 0.000
REMARK SMILES CC1=CC(=O)[C@@H]2C[C@H]1C2(C)C
REMARK SMILES IDX 1 1 2 2 3 3 4 4 5 5 6 6 7 7 8 8 9 9 10 10 11 11
REMARK H PARENT
REMARK Flexibility Score: inf
ROOT
ATOM      1  C   UNL     1       0.750 146.373  -6.884  1.00  0.00     0.040 C 
ATOM      2  C   UNL     1       2.192 146.136  -7.198  1.00  0.00    -0.066 C 
ATOM      3  C   UNL     1       3.182 146.641  -6.409  1.00  0.00     0.047 C 
ATOM      4  C   UNL     1       4.587 146.308  -6.813  1.00  0.00     0.159 C 
ATOM      5  O   UNL     1       5.585 146.683  -6.144  1.00  0.00    -0.295 OA
ATOM      6  C   UNL     1       4.721 145.482  -8.093  1.00  0.00     0.067 C 
ATOM      7  C   UNL     1       3.757 146.165  -9.087  1.00  0.00     0.021 C 
ATOM      8  C   UNL     1       2.633 145.327  -8.437  1.00  0.00     0.022 C 
ATOM      9  C   UNL     1       3.720 144.294  -8.022  1.00  0.00    -0.019 C 
ATOM     10  C   UNL     1       3.549 143.552  -6.666  1.00  0.00     0.012 C 
ATOM     11  C   UNL     1       3.981 143.237  -9.125  1.00  0.00     0.012 C 
ENDROOT
TORSDOF 0
ENDMDL
MODEL 6
REMARK VINA RESULT:    -4.808      1.906      3.277
REMARK INTER + INTRA:          -4.808
REMARK INTER:                  -4.808
REMARK INTRA:                   0.000
REMARK UNBOUND:                 0.000
REMARK SMILES CC1=CC(=O)[C@@H]2C[C@H]1C2(C)C
REMARK SMILES IDX 1 1 2 2 3 3 4 4 5 5 6 6 7 7 8 8 9 9 10 10 11 11
REMARK H PARENT
REMARK Flexibility Score: inf
ROOT
ATOM      1  C   UNL     1       5.294 142.992  -7.246  1.00  0.00     0.040 C 
ATOM      2  C   UNL     1       4.808 144.397  -7.405  1.00  0.00    -0.066 C 
ATOM      3  C   UNL     1       5.425 145.269  -8.251  1.00  0.00     0.047 C 
ATOM      4  C   UNL     1       4.824 146.639  -8.345  1.00  0.00     0.159 C 
ATOM      5  O   UNL     1       5.280 147.520  -9.120  1.00  0.00    -0.295 OA
ATOM      6  C   UNL     1       3.621 146.889  -7.436  1.00  0.00     0.067 C 
ATOM      7  C   UNL     1       4.051 146.311  -6.071  1.00  0.00     0.021 C 
ATOM      8  C   UNL     1       3.599 144.935  -6.610  1.00  0.00     0.022 C 
ATOM      9  C   UNL     1       2.639 145.691  -7.573  1.00  0.00    -0.019 C 
ATOM     10  C   UNL     1       2.397 145.092  -8.988  1.00  0.00     0.012 C 
ATOM     11  C   UNL     1       1.261 145.980  -6.926  1.00  0.00     0.012 C 
ENDROOT
TORSDOF 0
ENDMDL
MODEL 7
REMARK VINA RESULT:    -4.773      2.009      3.409
REMARK INTER + INTRA:          -4.773
REMARK INTER:                  -4.773
REMARK INTRA:                   0.000
REMARK UNBOUND:                 0.000
REMARK SMILES CC1=CC(=O)[C@@H]2C[C@H]1C2(C)C
REMARK SMILES IDX 1 1 2 2 3 3 4 4 5 5 6 6 7 7 8 8 9 9 10 10 11 11
REMARK H PARENT
REMARK Flexibility Score: inf
ROOT
ATOM      1  C   UNL     1       6.689 144.126  -5.383  1.00  0.00     0.040 C 
ATOM      2  C   UNL     1       5.797 144.179  -6.582  1.00  0.00    -0.066 C 
ATOM      3  C   UNL     1       5.467 143.050  -7.270  1.00  0.00     0.047 C 
ATOM      4  C   UNL     1       4.541 143.231  -8.435  1.00  0.00     0.159 C 
ATOM      5  O   UNL     1       4.132 142.260  -9.125  1.00  0.00    -0.295 OA
ATOM      6  C   UNL     1       4.129 144.674  -8.725  1.00  0.00     0.067 C 
ATOM      7  C   UNL     1       5.450 145.469  -8.639  1.00  0.00     0.021 C 
ATOM      8  C   UNL     1       5.223 145.510  -7.110  1.00  0.00     0.022 C 
ATOM      9  C   UNL     1       3.701 145.345  -7.389  1.00  0.00    -0.019 C 
ATOM     10  C   UNL     1       2.856 144.514  -6.382  1.00  0.00     0.012 C 
ATOM     11  C   UNL     1       2.991 146.704  -7.612  1.00  0.00     0.012 C 
ENDROOT
TORSDOF 0
ENDMDL
MODEL 8
REMARK VINA RESULT:    -4.336      1.825      3.063
REMARK INTER + INTRA:          -4.336
REMARK INTER:                  -4.336
REMARK INTRA:                   0.000
REMARK UNBOUND:                 0.000
REMARK SMILES CC1=CC(=O)[C@@H]2C[C@H]1C2(C)C
REMARK SMILES IDX 1 1 2 2 3 3 4 4 5 5 6 6 7 7 8 8 9 9 10 10 11 11
REMARK H PARENT
REMARK Flexibility Score: inf
ROOT
ATOM      1  C   UNL     1       3.628 147.496  -5.385  1.00  0.00     0.040 C 
ATOM      2  C   UNL     1       3.611 146.481  -6.483  1.00  0.00    -0.066 C 
ATOM      3  C   UNL     1       2.495 146.269  -7.235  1.00  0.00     0.047 C 
ATOM      4  C   UNL     1       2.615 145.247  -8.326  1.00  0.00     0.159 C 
ATOM      5  O   UNL     1       1.666 144.990  -9.112  1.00  0.00    -0.295 OA
ATOM      6  C   UNL     1       3.968 144.540  -8.414  1.00  0.00     0.067 C 
ATOM      7  C   UNL     1       4.300 144.174  -6.952  1.00  0.00     0.021 C 
ATOM      8  C   UNL     1       4.845 145.613  -6.807  1.00  0.00     0.022 C 
ATOM      9  C   UNL     1       5.092 145.613  -8.343  1.00  0.00    -0.019 C 
ATOM     10  C   UNL     1       4.891 146.946  -9.119  1.00  0.00     0.012 C 
ATOM     11  C   UNL     1       6.481 145.038  -8.718  1.00  0.00     0.012 C 
ENDROOT
TORSDOF 0
ENDMDL
