MODEL 1
REMARK VINA RESULT:    -5.650      0.000      0.000
REMARK INTER + INTRA:          -6.019
REMARK INTER:                  -5.980
REMARK INTRA:                  -0.039
REMARK UNBOUND:                -0.039
REMARK SMILES COc1ccc2ccc(=O)oc2c1
REMARK SMILES IDX 3 1 13 2 12 3 6 4 5 5 4 6 7 7 8 8 9 9 10 10 11 11 2 12 1 13
REMARK H PARENT
REMARK Flexibility Score: inf
ROOT
ATOM      1  C   UNL     1      12.887  10.399  14.374  1.00  0.00     0.122 A 
ATOM      2  C   UNL     1      12.162   9.746  13.358  1.00  0.00     0.094 A 
ATOM      3  C   UNL     1      10.769   9.642  13.440  1.00  0.00     0.142 A 
ATOM      4  C   UNL     1      10.088  10.192  14.546  1.00  0.00     0.018 A 
ATOM      5  C   UNL     1      10.807  10.841  15.557  1.00  0.00     0.016 A 
ATOM      6  C   UNL     1      12.199  10.941  15.468  1.00  0.00     0.047 A 
ATOM      7  C   UNL     1       8.695  10.072  14.600  1.00  0.00     0.019 A 
ATOM      8  C   UNL     1       8.026   9.416  13.568  1.00  0.00     0.094 A 
ATOM      9  C   UNL     1       8.767   8.895  12.501  1.00  0.00     0.336 A 
ATOM     10  O   UNL     1       8.181   8.300  11.560  1.00  0.00    -0.246 OA
ATOM     11  O   UNL     1      10.091   9.024  12.475  1.00  0.00    -0.423 OA
ENDROOT
BRANCH   1  12
ATOM     12  O   UNL     1      14.283  10.529  14.337  1.00  0.00    -0.497 OA
ATOM     13  C   UNL     1      15.103  10.084  13.262  1.00  0.00     0.278 C 
ENDBRANCH   1  12
TORSDOF 1
ENDMDL
MODEL 2
REMARK VINA RESULT:    -5.587      1.049      4.577
REMARK INTER + INTRA:          -5.953
REMARK INTER:                  -5.914
REMARK INTRA:                  -0.039
REMARK UNBOUND:                -0.039
REMARK SMILES COc1ccc2ccc(=O)oc2c1
REMARK SMILES IDX 3 1 13 2 12 3 6 4 5 5 4 6 7 7 8 8 9 9 10 10 11 11 2 12 1 13
REMARK H PARENT
REMARK Flexibility Score: inf
ROOT
ATOM      1  C   UNL     1       8.732   8.904  12.430  1.00  0.00     0.122 A 
ATOM      2  C   UNL     1      10.126   9.097  12.367  1.00  0.00     0.094 A 
ATOM      3  C   UNL     1      10.797   9.743  13.411  1.00  0.00     0.142 A 
ATOM      4  C   UNL     1      10.075  10.203  14.532  1.00  0.00     0.018 A 
ATOM      5  C   UNL     1       8.689  10.012  14.596  1.00  0.00     0.016 A 
ATOM      6  C   UNL     1       8.025   9.366  13.549  1.00  0.00     0.047 A 
ATOM      7  C   UNL     1      10.774  10.844  15.560  1.00  0.00     0.019 A 
ATOM      8  C   UNL     1      12.153  11.010  15.447  1.00  0.00     0.094 A 
ATOM      9  C   UNL     1      12.805  10.528  14.306  1.00  0.00     0.336 A 
ATOM     10  O   UNL     1      14.049  10.668  14.187  1.00  0.00    -0.246 OA
ATOM     11  O   UNL     1      12.115   9.921  13.344  1.00  0.00    -0.423 OA
ENDROOT
BRANCH   1  12
ATOM     12  O   UNL     1       8.014   8.263  11.410  1.00  0.00    -0.497 OA
ATOM     13  C   UNL     1       8.612   7.620  10.289  1.00  0.00     0.278 C 
ENDBRANCH   1  12
TORSDOF 1
ENDMDL
MODEL 3
REMARK VINA RESULT:    -5.183      2.082      2.962
REMARK INTER + INTRA:          -5.525
REMARK INTER:                  -5.490
REMARK INTRA:                  -0.036
REMARK UNBOUND:                -0.039
REMARK SMILES COc1ccc2ccc(=O)oc2c1
REMARK SMILES IDX 3 1 13 2 12 3 6 4 5 5 4 6 7 7 8 8 9 9 10 10 11 11 2 12 1 13
REMARK H PARENT
REMARK Flexibility Score: inf
ROOT
ATOM      1  C   UNL     1      13.354  10.502  12.171  1.00  0.00     0.122 A 
ATOM      2  C   UNL     1      12.971  10.451  13.527  1.00  0.00     0.094 A 
ATOM      3  C   UNL     1      11.672  10.074  13.880  1.00  0.00     0.142 A 
ATOM      4  C   UNL     1      10.738   9.744  12.874  1.00  0.00     0.018 A 
ATOM      5  C   UNL     1      11.116   9.794  11.527  1.00  0.00     0.016 A 
ATOM      6  C   UNL     1      12.418  10.172  11.182  1.00  0.00     0.047 A 
ATOM      7  C   UNL     1       9.446   9.370  13.258  1.00  0.00     0.019 A 
ATOM      8  C   UNL     1       9.120   9.336  14.613  1.00  0.00     0.094 A 
ATOM      9  C   UNL     1      10.096   9.677  15.556  1.00  0.00     0.336 A 
ATOM     10  O   UNL     1       9.820   9.652  16.783  1.00  0.00    -0.246 OA
ATOM     11  O   UNL     1      11.318  10.028  15.162  1.00  0.00    -0.423 OA
ENDROOT
BRANCH   1  12
ATOM     12  O   UNL     1      14.644  10.874  11.768  1.00  0.00    -0.497 OA
ATOM     13  C   UNL     1      15.844  10.365  12.341  1.00  0.00     0.278 C 
ENDBRANCH   1  12
TORSDOF 1
ENDMDL
MODEL 4
REMARK VINA RESULT:    -5.135      1.634      2.002
REMARK INTER + INTRA:          -5.474
REMARK INTER:                  -5.439
REMARK INTRA:                  -0.035
REMARK UNBOUND:                -0.039
REMARK SMILES COc1ccc2ccc(=O)oc2c1
REMARK SMILES IDX 3 1 13 2 12 3 6 4 5 5 4 6 7 7 8 8 9 9 10 10 11 11 2 12 1 13
REMARK H PARENT
REMARK Flexibility Score: inf
ROOT
ATOM      1  C   UNL     1      13.659  10.519  12.194  1.00  0.00     0.122 A 
ATOM      2  C   UNL     1      12.429  10.160  11.609  1.00  0.00     0.094 A 
ATOM      3  C   UNL     1      11.364   9.735  12.409  1.00  0.00     0.142 A 
ATOM      4  C   UNL     1      11.521   9.665  13.810  1.00  0.00     0.018 A 
ATOM      5  C   UNL     1      12.743  10.021  14.393  1.00  0.00     0.016 A 
ATOM      6  C   UNL     1      13.804  10.445  13.586  1.00  0.00     0.047 A 
ATOM      7  C   UNL     1      10.438   9.236  14.583  1.00  0.00     0.019 A 
ATOM      8  C   UNL     1       9.243   8.893  13.954  1.00  0.00     0.094 A 
ATOM      9  C   UNL     1       9.158   8.987  12.560  1.00  0.00     0.336 A 
ATOM     10  O   UNL     1       8.088   8.681  11.974  1.00  0.00    -0.246 OA
ATOM     11  O   UNL     1      10.204   9.398  11.848  1.00  0.00    -0.423 OA
ENDROOT
BRANCH   1  12
ATOM     12  O   UNL     1      14.756  10.951  11.435  1.00  0.00    -0.497 OA
ATOM     13  C   UNL     1      14.717  12.033  10.509  1.00  0.00     0.278 C 
ENDBRANCH   1  12
TORSDOF 1
ENDMDL
MODEL 5
REMARK VINA RESULT:    -5.038      2.020      4.589
REMARK INTER + INTRA:          -5.371
REMARK INTER:                  -5.332
REMARK INTRA:                  -0.039
REMARK UNBOUND:                -0.039
REMARK SMILES COc1ccc2ccc(=O)oc2c1
REMARK SMILES IDX 3 1 13 2 12 3 6 4 5 5 4 6 7 7 8 8 9 9 10 10 11 11 2 12 1 13
REMARK H PARENT
REMARK Flexibility Score: inf
ROOT
ATOM      1  C   UNL     1       9.954   9.495  14.487  1.00  0.00     0.122 A 
ATOM      2  C   UNL     1      11.290   9.927  14.366  1.00  0.00     0.094 A 
ATOM      3  C   UNL     1      11.881  10.049  13.104  1.00  0.00     0.142 A 
ATOM      4  C   UNL     1      11.136   9.737  11.946  1.00  0.00     0.018 A 
ATOM      5  C   UNL     1       9.809   9.307  12.065  1.00  0.00     0.016 A 
ATOM      6  C   UNL     1       9.225   9.188  13.331  1.00  0.00     0.047 A 
ATOM      7  C   UNL     1      11.754   9.868  10.699  1.00  0.00     0.019 A 
ATOM      8  C   UNL     1      13.078  10.300  10.634  1.00  0.00     0.094 A 
ATOM      9  C   UNL     1      13.756  10.592  11.824  1.00  0.00     0.336 A 
ATOM     10  O   UNL     1      14.951  10.982  11.786  1.00  0.00    -0.246 OA
ATOM     11  O   UNL     1      13.143  10.458  12.997  1.00  0.00    -0.423 OA
ENDROOT
BRANCH   1  12
ATOM     12  O   UNL     1       9.319   9.358  15.729  1.00  0.00    -0.497 OA
ATOM     13  C   UNL     1       9.984   9.434  16.986  1.00  0.00     0.278 C 
ENDBRANCH   1  12
TORSDOF 1
ENDMDL
MODEL 6
REMARK VINA RESULT:    -5.036      1.667      4.531
REMARK INTER + INTRA:          -5.369
REMARK INTER:                  -5.334
REMARK INTRA:                  -0.035
REMARK UNBOUND:                -0.039
REMARK SMILES COc1ccc2ccc(=O)oc2c1
REMARK SMILES IDX 3 1 13 2 12 3 6 4 5 5 4 6 7 7 8 8 9 9 10 10 11 11 2 12 1 13
REMARK H PARENT
REMARK Flexibility Score: inf
ROOT
ATOM      1  C   UNL     1      10.114  10.413  14.441  1.00  0.00     0.122 A 
ATOM      2  C   UNL     1      10.778   9.815  13.351  1.00  0.00     0.094 A 
ATOM      3  C   UNL     1      12.176   9.764  13.318  1.00  0.00     0.142 A 
ATOM      4  C   UNL     1      12.924  10.313  14.381  1.00  0.00     0.018 A 
ATOM      5  C   UNL     1      12.266  10.907  15.464  1.00  0.00     0.016 A 
ATOM      6  C   UNL     1      10.868  10.955  15.490  1.00  0.00     0.047 A 
ATOM      7  C   UNL     1      14.320  10.246  14.320  1.00  0.00     0.019 A 
ATOM      8  C   UNL     1      14.927   9.645  13.218  1.00  0.00     0.094 A 
ATOM      9  C   UNL     1      14.122   9.121  12.201  1.00  0.00     0.336 A 
ATOM     10  O   UNL     1      14.651   8.574  11.200  1.00  0.00    -0.246 OA
ATOM     11  O   UNL     1      12.796   9.198  12.285  1.00  0.00    -0.423 OA
ENDROOT
BRANCH   1  12
ATOM     12  O   UNL     1       8.716  10.488  14.520  1.00  0.00    -0.497 OA
ATOM     13  C   UNL     1       7.840   9.381  14.337  1.00  0.00     0.278 C 
ENDBRANCH   1  12
TORSDOF 1
ENDMDL
MODEL 7
REMARK VINA RESULT:    -4.845     16.509     17.195
REMARK INTER + INTRA:          -5.167
REMARK INTER:                  -5.130
REMARK INTRA:                  -0.037
REMARK UNBOUND:                -0.039
REMARK SMILES COc1ccc2ccc(=O)oc2c1
REMARK SMILES IDX 3 1 13 2 12 3 6 4 5 5 4 6 7 7 8 8 9 9 10 10 11 11 2 12 1 13
REMARK H PARENT
REMARK Flexibility Score: inf
ROOT
ATOM      1  C   UNL     1      19.196  -5.514  16.615  1.00  0.00     0.122 A 
ATOM      2  C   UNL     1      18.020  -5.009  17.204  1.00  0.00     0.094 A 
ATOM      3  C   UNL     1      16.771  -5.524  16.841  1.00  0.00     0.142 A 
ATOM      4  C   UNL     1      16.688  -6.553  15.879  1.00  0.00     0.018 A 
ATOM      5  C   UNL     1      17.856  -7.055  15.291  1.00  0.00     0.016 A 
ATOM      6  C   UNL     1      19.101  -6.535  15.660  1.00  0.00     0.047 A 
ATOM      7  C   UNL     1      15.426  -7.048  15.536  1.00  0.00     0.019 A 
ATOM      8  C   UNL     1      14.294  -6.514  16.149  1.00  0.00     0.094 A 
ATOM      9  C   UNL     1      14.451  -5.495  17.096  1.00  0.00     0.336 A 
ATOM     10  O   UNL     1      13.441  -5.000  17.660  1.00  0.00    -0.246 OA
ATOM     11  O   UNL     1      15.664  -5.043  17.403  1.00  0.00    -0.423 OA
ENDROOT
BRANCH   1  12
ATOM     12  O   UNL     1      20.470  -5.030  16.946  1.00  0.00    -0.497 OA
ATOM     13  C   UNL     1      20.827  -4.515  18.225  1.00  0.00     0.278 C 
ENDBRANCH   1  12
TORSDOF 1
ENDMDL
MODEL 8
REMARK VINA RESULT:    -4.840      3.379      4.494
REMARK INTER + INTRA:          -5.162
REMARK INTER:                  -5.125
REMARK INTRA:                  -0.038
REMARK UNBOUND:                -0.039
REMARK SMILES COc1ccc2ccc(=O)oc2c1
REMARK SMILES IDX 3 1 13 2 12 3 6 4 5 5 4 6 7 7 8 8 9 9 10 10 11 11 2 12 1 13
REMARK H PARENT
REMARK Flexibility Score: inf
ROOT
ATOM      1  C   UNL     1      14.793   8.234  12.884  1.00  0.00     0.122 A 
ATOM      2  C   UNL     1      14.360   8.989  13.992  1.00  0.00     0.094 A 
ATOM      3  C   UNL     1      13.542  10.109  13.806  1.00  0.00     0.142 A 
ATOM      4  C   UNL     1      13.150  10.484  12.504  1.00  0.00     0.018 A 
ATOM      5  C   UNL     1      13.581   9.736  11.402  1.00  0.00     0.016 A 
ATOM      6  C   UNL     1      14.398   8.617  11.595  1.00  0.00     0.047 A 
ATOM      7  C   UNL     1      12.332  11.608  12.351  1.00  0.00     0.019 A 
ATOM      8  C   UNL     1      11.931  12.321  13.480  1.00  0.00     0.094 A 
ATOM      9  C   UNL     1      12.358  11.890  14.741  1.00  0.00     0.336 A 
ATOM     10  O   UNL     1      12.006  12.519  15.772  1.00  0.00    -0.246 OA
ATOM     11  O   UNL     1      13.136  10.817  14.858  1.00  0.00    -0.423 OA
ENDROOT
BRANCH   1  12
ATOM     12  O   UNL     1      15.613   7.104  13.019  1.00  0.00    -0.497 OA
ATOM     13  C   UNL     1      15.584   5.981  12.144  1.00  0.00     0.278 C 
ENDBRANCH   1  12
TORSDOF 1
ENDMDL
MODEL 9
REMARK VINA RESULT:    -4.703      2.615      4.484
REMARK INTER + INTRA:          -5.017
REMARK INTER:                  -4.983
REMARK INTRA:                  -0.034
REMARK UNBOUND:                -0.039
REMARK SMILES COc1ccc2ccc(=O)oc2c1
REMARK SMILES IDX 3 1 13 2 12 3 6 4 5 5 4 6 7 7 8 8 9 9 10 10 11 11 2 12 1 13
REMARK H PARENT
REMARK Flexibility Score: inf
ROOT
ATOM      1  C   UNL     1      11.524  10.730  14.670  1.00  0.00     0.122 A 
ATOM      2  C   UNL     1      12.223   9.755  13.931  1.00  0.00     0.094 A 
ATOM      3  C   UNL     1      12.859  10.098  12.734  1.00  0.00     0.142 A 
ATOM      4  C   UNL     1      12.799  11.427  12.262  1.00  0.00     0.018 A 
ATOM      5  C   UNL     1      12.104  12.397  12.995  1.00  0.00     0.016 A 
ATOM      6  C   UNL     1      11.471  12.046  14.192  1.00  0.00     0.047 A 
ATOM      7  C   UNL     1      13.445  11.739  11.062  1.00  0.00     0.019 A 
ATOM      8  C   UNL     1      14.123  10.737  10.370  1.00  0.00     0.094 A 
ATOM      9  C   UNL     1      14.140   9.441  10.897  1.00  0.00     0.336 A 
ATOM     10  O   UNL     1      14.747   8.523  10.287  1.00  0.00    -0.246 OA
ATOM     11  O   UNL     1      13.518   9.171  12.041  1.00  0.00    -0.423 OA
ENDROOT
BRANCH   1  12
ATOM     12  O   UNL     1      10.871  10.435  15.876  1.00  0.00    -0.497 OA
ATOM     13  C   UNL     1       9.763   9.549  15.994  1.00  0.00     0.278 C 
ENDBRANCH   1  12
TORSDOF 1
ENDMDL
