MODEL 1
REMARK VINA RESULT:    -6.986      0.000      0.000
REMARK INTER + INTRA:          -8.500
REMARK INTER:                  -8.415
REMARK INTRA:                  -0.085
REMARK UNBOUND:                -0.085
REMARK SMILES O=c1c(O)c(-c2ccc(O)c(O)c2)oc2cc(O)cc(O)c12
REMARK SMILES IDX 5 1 3 2 2 3 1 4 22 5 20 6 19 7 17 8 16 9 15 10 14 11 6 12
REMARK SMILES IDX 7 13 8 14 9 15 13 16 11 17 10 18 12 20 4 22 21 24 18 26
REMARK H PARENT 10 19 12 21 4 23 21 25 18 27
REMARK Flexibility Score: inf
ROOT
ATOM      1  C   UNL     1      27.814  13.071  65.550  1.00  0.00     0.180 A 
ATOM      2  C   UNL     1      27.461  13.255  66.897  1.00  0.00     0.208 A 
ATOM      3  C   UNL     1      26.378  14.093  67.210  1.00  0.00     0.238 A 
ATOM      4  O   UNL     1      26.102  14.297  68.421  1.00  0.00    -0.285 OA
ATOM      5  C   UNL     1      25.652  14.722  66.170  1.00  0.00     0.111 A 
ATOM      6  C   UNL     1      24.512  15.558  66.370  1.00  0.00     0.134 A 
ATOM      7  C   UNL     1      23.952  16.232  65.277  1.00  0.00     0.093 A 
ATOM      8  C   UNL     1      24.448  16.048  63.985  1.00  0.00     0.123 A 
ATOM      9  C   UNL     1      25.522  15.188  63.773  1.00  0.00     0.094 A 
ATOM     10  C   UNL     1      26.127  14.529  64.847  1.00  0.00     0.146 A 
ATOM     11  O   UNL     1      27.154  13.725  64.602  1.00  0.00    -0.452 OA
ENDROOT
BRANCH   1  12
ATOM     12  C   UNL     1      28.927  12.184  65.141  1.00  0.00     0.025 A 
ATOM     13  C   UNL     1      30.236  12.390  65.610  1.00  0.00     0.016 A 
ATOM     14  C   UNL     1      31.266  11.526  65.229  1.00  0.00     0.051 A 
ATOM     15  C   UNL     1      31.003  10.438  64.386  1.00  0.00     0.157 A 
ATOM     16  C   UNL     1      28.664  11.080  64.313  1.00  0.00     0.062 A 
ATOM     17  C   UNL     1      29.694  10.214  63.929  1.00  0.00     0.158 A 
BRANCH  15  18
ATOM     18  O   UNL     1      32.034   9.580  64.007  1.00  0.00    -0.504 OA
ATOM     19  H   UNL     1      31.861   8.766  63.430  1.00  0.00     0.293 HD
ENDBRANCH  15  18
BRANCH  17  20
ATOM     20  O   UNL     1      29.397   9.135  63.096  1.00  0.00    -0.504 OA
ATOM     21  H   UNL     1      30.117   8.528  62.725  1.00  0.00     0.293 HD
ENDBRANCH  17  20
ENDBRANCH   1  12
BRANCH   2  22
ATOM     22  O   UNL     1      28.206  12.642  67.910  1.00  0.00    -0.502 OA
ATOM     23  H   UNL     1      27.797  12.366  68.795  1.00  0.00     0.293 HD
ENDBRANCH   2  22
BRANCH   6  24
ATOM     24  O   UNL     1      23.882  15.738  67.604  1.00  0.00    -0.507 OA
ATOM     25  H   UNL     1      24.007  15.138  68.405  1.00  0.00     0.293 HD
ENDBRANCH   6  24
BRANCH   8  26
ATOM     26  O   UNL     1      23.875  16.711  62.902  1.00  0.00    -0.508 OA
ATOM     27  H   UNL     1      24.441  17.071  62.142  1.00  0.00     0.293 HD
ENDBRANCH   8  26
TORSDOF 6
ENDMDL
MODEL 2
REMARK VINA RESULT:    -6.980      2.995      8.019
REMARK INTER + INTRA:          -8.493
REMARK INTER:                  -8.174
REMARK INTRA:                  -0.320
REMARK UNBOUND:                -0.085
REMARK SMILES O=c1c(O)c(-c2ccc(O)c(O)c2)oc2cc(O)cc(O)c12
REMARK SMILES IDX 5 1 3 2 2 3 1 4 22 5 20 6 19 7 17 8 16 9 15 10 14 11 6 12
REMARK SMILES IDX 7 13 8 14 9 15 13 16 11 17 10 18 12 20 4 22 21 24 18 26
REMARK H PARENT 10 19 12 21 4 23 21 25 18 27
REMARK Flexibility Score: inf
ROOT
ATOM      1  C   UNL     1      30.552  10.795  64.094  1.00  0.00     0.180 A 
ATOM      2  C   UNL     1      30.131   9.793  63.204  1.00  0.00     0.208 A 
ATOM      3  C   UNL     1      30.968   9.436  62.134  1.00  0.00     0.238 A 
ATOM      4  O   UNL     1      30.562   8.577  61.310  1.00  0.00    -0.285 OA
ATOM      5  C   UNL     1      32.222  10.075  61.979  1.00  0.00     0.111 A 
ATOM      6  C   UNL     1      33.168   9.764  60.956  1.00  0.00     0.134 A 
ATOM      7  C   UNL     1      34.320  10.549  60.819  1.00  0.00     0.093 A 
ATOM      8  C   UNL     1      34.592  11.591  61.709  1.00  0.00     0.123 A 
ATOM      9  C   UNL     1      33.703  11.864  62.747  1.00  0.00     0.094 A 
ATOM     10  C   UNL     1      32.528  11.122  62.888  1.00  0.00     0.146 A 
ATOM     11  O   UNL     1      31.704  11.420  63.884  1.00  0.00    -0.452 OA
ENDROOT
BRANCH   1  12
ATOM     12  C   UNL     1      29.736  11.208  65.259  1.00  0.00     0.025 A 
ATOM     13  C   UNL     1      29.756  10.479  66.461  1.00  0.00     0.016 A 
ATOM     14  C   UNL     1      28.996  10.901  67.555  1.00  0.00     0.051 A 
ATOM     15  C   UNL     1      28.217  12.062  67.470  1.00  0.00     0.157 A 
ATOM     16  C   UNL     1      28.969  12.383  65.186  1.00  0.00     0.062 A 
ATOM     17  C   UNL     1      28.207  12.808  66.279  1.00  0.00     0.158 A 
BRANCH  15  18
ATOM     18  O   UNL     1      27.458  12.479  68.563  1.00  0.00    -0.504 OA
ATOM     19  H   UNL     1      27.197  11.839  69.303  1.00  0.00     0.293 HD
ENDBRANCH  15  18
BRANCH  17  20
ATOM     20  O   UNL     1      27.448  13.972  66.165  1.00  0.00    -0.504 OA
ATOM     21  H   UNL     1      27.483  14.708  66.860  1.00  0.00     0.293 HD
ENDBRANCH  17  20
ENDBRANCH   1  12
BRANCH   2  22
ATOM     22  O   UNL     1      28.879   9.191  63.363  1.00  0.00    -0.502 OA
ATOM     23  H   UNL     1      28.300   8.924  62.576  1.00  0.00     0.293 HD
ENDBRANCH   2  22
BRANCH   6  24
ATOM     24  O   UNL     1      33.038   8.688  60.073  1.00  0.00    -0.507 OA
ATOM     25  H   UNL     1      33.684   7.917  60.008  1.00  0.00     0.293 HD
ENDBRANCH   6  24
BRANCH   8  26
ATOM     26  O   UNL     1      35.747  12.358  61.576  1.00  0.00    -0.508 OA
ATOM     27  H   UNL     1      35.740  13.247  61.088  1.00  0.00     0.293 HD
ENDBRANCH   8  26
TORSDOF 6
ENDMDL
MODEL 3
REMARK VINA RESULT:    -6.808      5.095      8.293
REMARK INTER + INTRA:          -8.285
REMARK INTER:                  -7.955
REMARK INTRA:                  -0.331
REMARK UNBOUND:                -0.085
REMARK SMILES O=c1c(O)c(-c2ccc(O)c(O)c2)oc2cc(O)cc(O)c12
REMARK SMILES IDX 5 1 3 2 2 3 1 4 22 5 20 6 19 7 17 8 16 9 15 10 14 11 6 12
REMARK SMILES IDX 7 13 8 14 9 15 13 16 11 17 10 18 12 20 4 22 21 24 18 26
REMARK H PARENT 10 19 12 21 4 23 21 25 18 27
REMARK Flexibility Score: inf
ROOT
ATOM      1  C   UNL     1      34.026   9.367  62.045  1.00  0.00     0.180 A 
ATOM      2  C   UNL     1      34.488  10.564  62.616  1.00  0.00     0.208 A 
ATOM      3  C   UNL     1      33.605  11.336  63.389  1.00  0.00     0.238 A 
ATOM      4  O   UNL     1      34.008  12.434  63.851  1.00  0.00    -0.285 OA
ATOM      5  C   UNL     1      32.276  10.891  63.593  1.00  0.00     0.111 A 
ATOM      6  C   UNL     1      31.308  11.572  64.392  1.00  0.00     0.134 A 
ATOM      7  C   UNL     1      29.987  11.109  64.418  1.00  0.00     0.093 A 
ATOM      8  C   UNL     1      29.614   9.953  63.728  1.00  0.00     0.123 A 
ATOM      9  C   UNL     1      30.566   9.249  62.995  1.00  0.00     0.094 A 
ATOM     10  C   UNL     1      31.884   9.705  62.920  1.00  0.00     0.146 A 
ATOM     11  O   UNL     1      32.757   9.009  62.202  1.00  0.00    -0.452 OA
ENDROOT
BRANCH   1  12
ATOM     12  C   UNL     1      34.904   8.488  61.240  1.00  0.00     0.025 A 
ATOM     13  C   UNL     1      35.725   7.520  61.846  1.00  0.00     0.016 A 
ATOM     14  C   UNL     1      36.527   6.685  61.064  1.00  0.00     0.051 A 
ATOM     15  C   UNL     1      36.512   6.794  59.667  1.00  0.00     0.157 A 
ATOM     16  C   UNL     1      34.877   8.579  59.838  1.00  0.00     0.062 A 
ATOM     17  C   UNL     1      35.680   7.745  59.052  1.00  0.00     0.158 A 
BRANCH  15  18
ATOM     18  O   UNL     1      37.316   5.961  58.890  1.00  0.00    -0.504 OA
ATOM     19  H   UNL     1      36.957   5.105  58.484  1.00  0.00     0.293 HD
ENDBRANCH  15  18
BRANCH  17  20
ATOM     20  O   UNL     1      35.636   7.873  57.664  1.00  0.00    -0.504 OA
ATOM     21  H   UNL     1      36.404   7.580  57.072  1.00  0.00     0.293 HD
ENDBRANCH  17  20
ENDBRANCH   1  12
BRANCH   2  22
ATOM     22  O   UNL     1      35.797  10.996  62.382  1.00  0.00    -0.502 OA
ATOM     23  H   UNL     1      36.547  10.357  62.146  1.00  0.00     0.293 HD
ENDBRANCH   2  22
BRANCH   6  24
ATOM     24  O   UNL     1      31.597  12.682  65.191  1.00  0.00    -0.507 OA
ATOM     25  H   UNL     1      31.420  12.738  66.181  1.00  0.00     0.293 HD
ENDBRANCH   6  24
BRANCH   8  26
ATOM     26  O   UNL     1      28.301   9.491  63.772  1.00  0.00    -0.508 OA
ATOM     27  H   UNL     1      28.050   8.574  63.420  1.00  0.00     0.293 HD
ENDBRANCH   8  26
TORSDOF 6
ENDMDL
MODEL 4
REMARK VINA RESULT:    -6.771      7.133      8.758
REMARK INTER + INTRA:          -8.241
REMARK INTER:                  -8.027
REMARK INTRA:                  -0.214
REMARK UNBOUND:                -0.085
REMARK SMILES O=c1c(O)c(-c2ccc(O)c(O)c2)oc2cc(O)cc(O)c12
REMARK SMILES IDX 5 1 3 2 2 3 1 4 22 5 20 6 19 7 17 8 16 9 15 10 14 11 6 12
REMARK SMILES IDX 7 13 8 14 9 15 13 16 11 17 10 18 12 20 4 22 21 24 18 26
REMARK H PARENT 10 19 12 21 4 23 21 25 18 27
REMARK Flexibility Score: inf
ROOT
ATOM      1  C   UNL     1      34.189  12.127  63.489  1.00  0.00     0.180 A 
ATOM      2  C   UNL     1      33.824  12.318  64.832  1.00  0.00     0.208 A 
ATOM      3  C   UNL     1      34.505  13.281  65.594  1.00  0.00     0.238 A 
ATOM      4  O   UNL     1      34.210  13.409  66.810  1.00  0.00    -0.285 OA
ATOM      5  C   UNL     1      35.532  14.052  64.997  1.00  0.00     0.111 A 
ATOM      6  C   UNL     1      36.261  15.084  65.662  1.00  0.00     0.134 A 
ATOM      7  C   UNL     1      37.344  15.692  65.015  1.00  0.00     0.093 A 
ATOM      8  C   UNL     1      37.682  15.352  63.703  1.00  0.00     0.123 A 
ATOM      9  C   UNL     1      36.939  14.389  63.024  1.00  0.00     0.094 A 
ATOM     10  C   UNL     1      35.876  13.738  63.656  1.00  0.00     0.146 A 
ATOM     11  O   UNL     1      35.200  12.820  62.977  1.00  0.00    -0.452 OA
ENDROOT
BRANCH   1  12
ATOM     12  C   UNL     1      33.502  11.148  62.616  1.00  0.00     0.025 A 
ATOM     13  C   UNL     1      32.692  11.566  61.545  1.00  0.00     0.016 A 
ATOM     14  C   UNL     1      32.072  10.624  60.720  1.00  0.00     0.051 A 
ATOM     15  C   UNL     1      32.261   9.254  60.943  1.00  0.00     0.157 A 
ATOM     16  C   UNL     1      33.705   9.773  62.823  1.00  0.00     0.062 A 
ATOM     17  C   UNL     1      33.085   8.828  61.998  1.00  0.00     0.158 A 
BRANCH  15  18
ATOM     18  O   UNL     1      31.639   8.317  60.119  1.00  0.00    -0.504 OA
ATOM     19  H   UNL     1      32.165   7.586  59.654  1.00  0.00     0.293 HD
ENDBRANCH  15  18
BRANCH  17  20
ATOM     20  O   UNL     1      33.300   7.471  62.242  1.00  0.00    -0.504 OA
ATOM     21  H   UNL     1      32.579   6.873  62.626  1.00  0.00     0.293 HD
ENDBRANCH  17  20
ENDBRANCH   1  12
BRANCH   2  22
ATOM     22  O   UNL     1      32.822  11.530  65.407  1.00  0.00    -0.502 OA
ATOM     23  H   UNL     1      31.909  11.900  65.646  1.00  0.00     0.293 HD
ENDBRANCH   2  22
BRANCH   6  24
ATOM     24  O   UNL     1      35.948  15.562  66.938  1.00  0.00    -0.507 OA
ATOM     25  H   UNL     1      35.475  15.029  67.651  1.00  0.00     0.293 HD
ENDBRANCH   6  24
BRANCH   8  26
ATOM     26  O   UNL     1      38.751  15.973  63.060  1.00  0.00    -0.508 OA
ATOM     27  H   UNL     1      39.553  15.444  62.736  1.00  0.00     0.293 HD
ENDBRANCH   8  26
TORSDOF 6
ENDMDL
MODEL 5
REMARK VINA RESULT:    -6.753      3.749      5.810
REMARK INTER + INTRA:          -8.220
REMARK INTER:                  -8.380
REMARK INTRA:                   0.160
REMARK UNBOUND:                -0.085
REMARK SMILES O=c1c(O)c(-c2ccc(O)c(O)c2)oc2cc(O)cc(O)c12
REMARK SMILES IDX 5 1 3 2 2 3 1 4 22 5 20 6 19 7 17 8 16 9 15 10 14 11 6 12
REMARK SMILES IDX 7 13 8 14 9 15 13 16 11 17 10 18 12 20 4 22 21 24 18 26
REMARK H PARENT 10 19 12 21 4 23 21 25 18 27
REMARK Flexibility Score: inf
ROOT
ATOM      1  C   UNL     1      31.022  10.566  63.918  1.00  0.00     0.180 A 
ATOM      2  C   UNL     1      29.654  10.311  64.109  1.00  0.00     0.208 A 
ATOM      3  C   UNL     1      28.990  10.921  65.186  1.00  0.00     0.238 A 
ATOM      4  O   UNL     1      27.779  10.645  65.383  1.00  0.00    -0.285 OA
ATOM      5  C   UNL     1      29.701  11.790  66.049  1.00  0.00     0.111 A 
ATOM      6  C   UNL     1      29.119  12.494  67.147  1.00  0.00     0.134 A 
ATOM      7  C   UNL     1      29.944  13.225  68.012  1.00  0.00     0.093 A 
ATOM      8  C   UNL     1      31.317  13.332  67.780  1.00  0.00     0.123 A 
ATOM      9  C   UNL     1      31.883  12.698  66.676  1.00  0.00     0.094 A 
ATOM     10  C   UNL     1      31.093  11.931  65.816  1.00  0.00     0.146 A 
ATOM     11  O   UNL     1      31.675  11.336  64.782  1.00  0.00    -0.452 OA
ENDROOT
BRANCH   1  12
ATOM     12  C   UNL     1      31.784   9.981  62.792  1.00  0.00     0.025 A 
ATOM     13  C   UNL     1      31.199   9.807  61.525  1.00  0.00     0.016 A 
ATOM     14  C   UNL     1      31.944   9.274  60.470  1.00  0.00     0.051 A 
ATOM     15  C   UNL     1      33.287   8.920  60.660  1.00  0.00     0.157 A 
ATOM     16  C   UNL     1      33.136   9.643  62.971  1.00  0.00     0.062 A 
ATOM     17  C   UNL     1      33.885   9.109  61.917  1.00  0.00     0.158 A 
BRANCH  15  18
ATOM     18  O   UNL     1      34.027   8.387  59.606  1.00  0.00    -0.504 OA
ATOM     19  H   UNL     1      33.598   7.803  58.898  1.00  0.00     0.293 HD
ENDBRANCH  15  18
BRANCH  17  20
ATOM     20  O   UNL     1      35.221   8.774  62.137  1.00  0.00    -0.504 OA
ATOM     21  H   UNL     1      35.770   8.274  61.448  1.00  0.00     0.293 HD
ENDBRANCH  17  20
ENDBRANCH   1  12
BRANCH   2  22
ATOM     22  O   UNL     1      28.977   9.431  63.258  1.00  0.00    -0.502 OA
ATOM     23  H   UNL     1      29.168   9.380  62.265  1.00  0.00     0.293 HD
ENDBRANCH   2  22
BRANCH   6  24
ATOM     24  O   UNL     1      27.748  12.528  67.414  1.00  0.00    -0.507 OA
ATOM     25  H   UNL     1      27.183  13.363  67.413  1.00  0.00     0.293 HD
ENDBRANCH   6  24
BRANCH   8  26
ATOM     26  O   UNL     1      32.127  14.074  68.636  1.00  0.00    -0.508 OA
ATOM     27  H   UNL     1      33.065  13.770  68.874  1.00  0.00     0.293 HD
ENDBRANCH   8  26
TORSDOF 6
ENDMDL
MODEL 6
REMARK VINA RESULT:    -6.719     10.571     12.283
REMARK INTER + INTRA:          -8.179
REMARK INTER:                  -7.855
REMARK INTRA:                  -0.324
REMARK UNBOUND:                -0.085
REMARK SMILES O=c1c(O)c(-c2ccc(O)c(O)c2)oc2cc(O)cc(O)c12
REMARK SMILES IDX 5 1 3 2 2 3 1 4 22 5 20 6 19 7 17 8 16 9 15 10 14 11 6 12
REMARK SMILES IDX 7 13 8 14 9 15 13 16 11 17 10 18 12 20 4 22 21 24 18 26
REMARK H PARENT 10 19 12 21 4 23 21 25 18 27
REMARK Flexibility Score: inf
ROOT
ATOM      1  C   UNL     1      38.009  14.826  62.708  1.00  0.00     0.180 A 
ATOM      2  C   UNL     1      38.493  13.794  61.888  1.00  0.00     0.208 A 
ATOM      3  C   UNL     1      38.424  13.942  60.493  1.00  0.00     0.238 A 
ATOM      4  O   UNL     1      38.808  12.991  59.765  1.00  0.00    -0.285 OA
ATOM      5  C   UNL     1      37.885  15.128  59.938  1.00  0.00     0.111 A 
ATOM      6  C   UNL     1      37.804  15.402  58.539  1.00  0.00     0.134 A 
ATOM      7  C   UNL     1      37.134  16.551  58.099  1.00  0.00     0.093 A 
ATOM      8  C   UNL     1      36.602  17.468  59.009  1.00  0.00     0.123 A 
ATOM      9  C   UNL     1      36.729  17.238  60.377  1.00  0.00     0.094 A 
ATOM     10  C   UNL     1      37.360  16.083  60.846  1.00  0.00     0.146 A 
ATOM     11  O   UNL     1      37.451  15.898  62.157  1.00  0.00    -0.452 OA
ENDROOT
BRANCH   1  12
ATOM     12  C   UNL     1      38.071  14.754  64.186  1.00  0.00     0.025 A 
ATOM     13  C   UNL     1      37.028  14.179  64.934  1.00  0.00     0.016 A 
ATOM     14  C   UNL     1      37.118  14.100  66.326  1.00  0.00     0.051 A 
ATOM     15  C   UNL     1      38.255  14.580  66.990  1.00  0.00     0.157 A 
ATOM     16  C   UNL     1      39.217  15.214  64.855  1.00  0.00     0.062 A 
ATOM     17  C   UNL     1      39.311  15.137  66.249  1.00  0.00     0.158 A 
BRANCH  15  18
ATOM     18  O   UNL     1      38.341  14.501  68.379  1.00  0.00    -0.504 OA
ATOM     19  H   UNL     1      38.059  13.668  68.882  1.00  0.00     0.293 HD
ENDBRANCH  15  18
BRANCH  17  20
ATOM     20  O   UNL     1      40.459  15.616  66.879  1.00  0.00    -0.504 OA
ATOM     21  H   UNL     1      41.379  15.247  66.672  1.00  0.00     0.293 HD
ENDBRANCH  17  20
ENDBRANCH   1  12
BRANCH   2  22
ATOM     22  O   UNL     1      39.000  12.621  62.458  1.00  0.00    -0.502 OA
ATOM     23  H   UNL     1      39.794  12.621  63.086  1.00  0.00     0.293 HD
ENDBRANCH   2  22
BRANCH   6  24
ATOM     24  O   UNL     1      38.382  14.600  57.551  1.00  0.00    -0.507 OA
ATOM     25  H   UNL     1      37.886  13.907  57.011  1.00  0.00     0.293 HD
ENDBRANCH   6  24
BRANCH   8  26
ATOM     26  O   UNL     1      35.950  18.615  58.563  1.00  0.00    -0.508 OA
ATOM     27  H   UNL     1      36.410  19.283  57.955  1.00  0.00     0.293 HD
ENDBRANCH   8  26
TORSDOF 6
ENDMDL
MODEL 7
REMARK VINA RESULT:    -6.716      5.267      7.848
REMARK INTER + INTRA:          -8.175
REMARK INTER:                  -7.851
REMARK INTRA:                  -0.325
REMARK UNBOUND:                -0.085
REMARK SMILES O=c1c(O)c(-c2ccc(O)c(O)c2)oc2cc(O)cc(O)c12
REMARK SMILES IDX 5 1 3 2 2 3 1 4 22 5 20 6 19 7 17 8 16 9 15 10 14 11 6 12
REMARK SMILES IDX 7 13 8 14 9 15 13 16 11 17 10 18 12 20 4 22 21 24 18 26
REMARK H PARENT 10 19 12 21 4 23 21 25 18 27
REMARK Flexibility Score: inf
ROOT
ATOM      1  C   UNL     1      33.350  12.024  64.792  1.00  0.00     0.180 A 
ATOM      2  C   UNL     1      32.043  12.073  65.304  1.00  0.00     0.208 A 
ATOM      3  C   UNL     1      31.037  11.315  64.680  1.00  0.00     0.238 A 
ATOM      4  O   UNL     1      29.858  11.406  65.110  1.00  0.00    -0.285 OA
ATOM      5  C   UNL     1      31.357  10.506  63.563  1.00  0.00     0.111 A 
ATOM      6  C   UNL     1      30.427   9.666  62.879  1.00  0.00     0.134 A 
ATOM      7  C   UNL     1      30.823   9.010  61.707  1.00  0.00     0.093 A 
ATOM      8  C   UNL     1      32.133   9.110  61.232  1.00  0.00     0.123 A 
ATOM      9  C   UNL     1      33.063   9.880  61.926  1.00  0.00     0.094 A 
ATOM     10  C   UNL     1      32.689  10.576  63.079  1.00  0.00     0.146 A 
ATOM     11  O   UNL     1      33.604  11.306  63.704  1.00  0.00    -0.452 OA
ENDROOT
BRANCH   1  12
ATOM     12  C   UNL     1      34.467  12.775  65.410  1.00  0.00     0.025 A 
ATOM     13  C   UNL     1      35.306  12.179  66.368  1.00  0.00     0.016 A 
ATOM     14  C   UNL     1      36.369  12.899  66.919  1.00  0.00     0.051 A 
ATOM     15  C   UNL     1      36.617  14.218  66.514  1.00  0.00     0.157 A 
ATOM     16  C   UNL     1      34.733  14.089  64.991  1.00  0.00     0.062 A 
ATOM     17  C   UNL     1      35.796  14.813  65.542  1.00  0.00     0.158 A 
BRANCH  15  18
ATOM     18  O   UNL     1      37.678  14.933  67.068  1.00  0.00    -0.504 OA
ATOM     19  H   UNL     1      38.088  15.728  66.592  1.00  0.00     0.293 HD
ENDBRANCH  15  18
BRANCH  17  20
ATOM     20  O   UNL     1      36.021  16.120  65.111  1.00  0.00    -0.504 OA
ATOM     21  H   UNL     1      36.954  16.507  65.032  1.00  0.00     0.293 HD
ENDBRANCH  17  20
ENDBRANCH   1  12
BRANCH   2  22
ATOM     22  O   UNL     1      31.744  12.896  66.394  1.00  0.00    -0.502 OA
ATOM     23  H   UNL     1      31.342  12.538  67.252  1.00  0.00     0.293 HD
ENDBRANCH   2  22
BRANCH   6  24
ATOM     24  O   UNL     1      29.123   9.424  63.321  1.00  0.00    -0.507 OA
ATOM     25  H   UNL     1      28.882   9.072  64.234  1.00  0.00     0.293 HD
ENDBRANCH   6  24
BRANCH   8  26
ATOM     26  O   UNL     1      32.522   8.442  60.074  1.00  0.00    -0.508 OA
ATOM     27  H   UNL     1      32.197   7.504  59.868  1.00  0.00     0.293 HD
ENDBRANCH   8  26
TORSDOF 6
ENDMDL
MODEL 8
REMARK VINA RESULT:    -6.636      4.920      7.802
REMARK INTER + INTRA:          -8.079
REMARK INTER:                  -7.790
REMARK INTRA:                  -0.289
REMARK UNBOUND:                -0.085
REMARK SMILES O=c1c(O)c(-c2ccc(O)c(O)c2)oc2cc(O)cc(O)c12
REMARK SMILES IDX 5 1 3 2 2 3 1 4 22 5 20 6 19 7 17 8 16 9 15 10 14 11 6 12
REMARK SMILES IDX 7 13 8 14 9 15 13 16 11 17 10 18 12 20 4 22 21 24 18 26
REMARK H PARENT 10 19 12 21 4 23 21 25 18 27
REMARK Flexibility Score: inf
ROOT
ATOM      1  C   UNL     1      32.787  12.017  65.836  1.00  0.00     0.180 A 
ATOM      2  C   UNL     1      33.243  11.755  67.139  1.00  0.00     0.208 A 
ATOM      3  C   UNL     1      34.341  12.476  67.635  1.00  0.00     0.238 A 
ATOM      4  O   UNL     1      34.778  12.199  68.781  1.00  0.00    -0.285 OA
ATOM      5  C   UNL     1      34.959  13.461  66.827  1.00  0.00     0.111 A 
ATOM      6  C   UNL     1      36.052  14.281  67.242  1.00  0.00     0.134 A 
ATOM      7  C   UNL     1      36.667  15.131  66.315  1.00  0.00     0.093 A 
ATOM      8  C   UNL     1      36.188  15.241  65.008  1.00  0.00     0.123 A 
ATOM      9  C   UNL     1      35.084  14.490  64.611  1.00  0.00     0.094 A 
ATOM     10  C   UNL     1      34.471  13.605  65.502  1.00  0.00     0.146 A 
ATOM     11  O   UNL     1      33.428  12.902  65.080  1.00  0.00    -0.452 OA
ENDROOT
BRANCH   1  12
ATOM     12  C   UNL     1      31.621  11.316  65.253  1.00  0.00     0.025 A 
ATOM     13  C   UNL     1      30.306  11.654  65.619  1.00  0.00     0.016 A 
ATOM     14  C   UNL     1      29.220  10.995  65.037  1.00  0.00     0.051 A 
ATOM     15  C   UNL     1      29.429   9.999  64.074  1.00  0.00     0.157 A 
ATOM     16  C   UNL     1      31.824  10.331  64.271  1.00  0.00     0.062 A 
ATOM     17  C   UNL     1      30.739   9.669  63.688  1.00  0.00     0.158 A 
BRANCH  15  18
ATOM     18  O   UNL     1      28.343   9.342  63.498  1.00  0.00    -0.504 OA
ATOM     19  H   UNL     1      27.416   9.390  63.905  1.00  0.00     0.293 HD
ENDBRANCH  15  18
BRANCH  17  20
ATOM     20  O   UNL     1      30.980   8.688  62.726  1.00  0.00    -0.504 OA
ATOM     21  H   UNL     1      30.239   8.110  62.350  1.00  0.00     0.293 HD
ENDBRANCH  17  20
ENDBRANCH   1  12
BRANCH   2  22
ATOM     22  O   UNL     1      32.633  10.762  67.911  1.00  0.00    -0.502 OA
ATOM     23  H   UNL     1      32.301  10.932  68.853  1.00  0.00     0.293 HD
ENDBRANCH   2  22
BRANCH   6  24
ATOM     24  O   UNL     1      36.549  14.315  68.548  1.00  0.00    -0.507 OA
ATOM     25  H   UNL     1      36.049  13.992  69.361  1.00  0.00     0.293 HD
ENDBRANCH   6  24
BRANCH   8  26
ATOM     26  O   UNL     1      36.796  16.101  64.097  1.00  0.00    -0.508 OA
ATOM     27  H   UNL     1      36.505  17.068  64.005  1.00  0.00     0.293 HD
ENDBRANCH   8  26
TORSDOF 6
ENDMDL
MODEL 9
REMARK VINA RESULT:    -6.633      6.172      9.671
REMARK INTER + INTRA:          -8.075
REMARK INTER:                  -7.780
REMARK INTRA:                  -0.296
REMARK UNBOUND:                -0.085
REMARK SMILES O=c1c(O)c(-c2ccc(O)c(O)c2)oc2cc(O)cc(O)c12
REMARK SMILES IDX 5 1 3 2 2 3 1 4 22 5 20 6 19 7 17 8 16 9 15 10 14 11 6 12
REMARK SMILES IDX 7 13 8 14 9 15 13 16 11 17 10 18 12 20 4 22 21 24 18 26
REMARK H PARENT 10 19 12 21 4 23 21 25 18 27
REMARK Flexibility Score: inf
ROOT
ATOM      1  C   UNL     1      35.182  11.934  61.995  1.00  0.00     0.180 A 
ATOM      2  C   UNL     1      35.531  10.935  61.072  1.00  0.00     0.208 A 
ATOM      3  C   UNL     1      34.568   9.981  60.703  1.00  0.00     0.238 A 
ATOM      4  O   UNL     1      34.903   9.057  59.918  1.00  0.00    -0.285 OA
ATOM      5  C   UNL     1      33.265  10.049  61.252  1.00  0.00     0.111 A 
ATOM      6  C   UNL     1      32.198   9.160  60.918  1.00  0.00     0.134 A 
ATOM      7  C   UNL     1      30.989   9.241  61.619  1.00  0.00     0.093 A 
ATOM      8  C   UNL     1      30.784  10.220  62.594  1.00  0.00     0.123 A 
ATOM      9  C   UNL     1      31.798  11.130  62.884  1.00  0.00     0.094 A 
ATOM     10  C   UNL     1      33.029  11.052  62.228  1.00  0.00     0.146 A 
ATOM     11  O   UNL     1      33.971  11.933  62.541  1.00  0.00    -0.452 OA
ENDROOT
BRANCH   1  12
ATOM     12  C   UNL     1      36.135  12.988  62.414  1.00  0.00     0.025 A 
ATOM     13  C   UNL     1      37.115  12.742  63.391  1.00  0.00     0.016 A 
ATOM     14  C   UNL     1      38.019  13.744  63.753  1.00  0.00     0.051 A 
ATOM     15  C   UNL     1      37.965  15.001  63.136  1.00  0.00     0.157 A 
ATOM     16  C   UNL     1      36.099  14.243  61.784  1.00  0.00     0.062 A 
ATOM     17  C   UNL     1      37.002  15.249  62.145  1.00  0.00     0.158 A 
BRANCH  15  18
ATOM     18  O   UNL     1      38.867  16.000  63.501  1.00  0.00    -0.504 OA
ATOM     19  H   UNL     1      39.292  16.609  62.813  1.00  0.00     0.293 HD
ENDBRANCH  15  18
BRANCH  17  20
ATOM     20  O   UNL     1      36.928  16.487  61.506  1.00  0.00    -0.504 OA
ATOM     21  H   UNL     1      36.049  16.873  61.182  1.00  0.00     0.293 HD
ENDBRANCH  17  20
ENDBRANCH   1  12
BRANCH   2  22
ATOM     22  O   UNL     1      36.831  10.873  60.560  1.00  0.00    -0.502 OA
ATOM     23  H   UNL     1      37.643  10.741  61.151  1.00  0.00     0.293 HD
ENDBRANCH   2  22
BRANCH   6  24
ATOM     24  O   UNL     1      32.267   8.207  59.898  1.00  0.00    -0.507 OA
ATOM     25  H   UNL     1      31.689   7.383  59.842  1.00  0.00     0.293 HD
ENDBRANCH   6  24
BRANCH   8  26
ATOM     26  O   UNL     1      29.572  10.302  63.276  1.00  0.00    -0.508 OA
ATOM     27  H   UNL     1      29.213  11.189  63.612  1.00  0.00     0.293 HD
ENDBRANCH   8  26
TORSDOF 6
ENDMDL
