MODEL 1
REMARK VINA RESULT:    -5.265      0.000      0.000
REMARK INTER + INTRA:          -6.000
REMARK INTER:                  -5.572
REMARK INTRA:                  -0.428
REMARK UNBOUND:                -0.428
REMARK SMILES C=C(C)[C@H]1CC[C@@]2(C)CCCC(=C)[C@H]2C1
REMARK SMILES IDX 4 1 5 2 6 3 7 4 9 5 10 6 11 7 12 8 13 9 14 10 15 11 8 12
REMARK SMILES IDX 2 13 3 14 1 15
REMARK H PARENT
REMARK Flexibility Score: inf
ROOT
ATOM      1  C   UNL     1     166.820 169.452 199.950  1.00  0.00     0.015 C 
ATOM      2  C   UNL     1     165.477 170.160 199.648  1.00  0.00     0.008 C 
ATOM      3  C   UNL     1     164.539 170.058 200.854  1.00  0.00     0.008 C 
ATOM      4  C   UNL     1     164.075 168.582 201.090  1.00  0.00    -0.026 C 
ATOM      5  C   UNL     1     162.756 168.359 200.284  1.00  0.00     0.008 C 
ATOM      6  C   UNL     1     162.535 166.894 199.928  1.00  0.00     0.005 C 
ATOM      7  C   UNL     1     163.593 166.452 198.926  1.00  0.00     0.031 C 
ATOM      8  C   UNL     1     164.995 166.799 199.379  1.00  0.00    -0.074 C 
ATOM      9  C   UNL     1     166.002 166.248 198.672  1.00  0.00     0.008 C 
ATOM     10  C   UNL     1     165.221 167.537 200.713  1.00  0.00     0.021 C 
ATOM     11  C   UNL     1     166.622 168.198 200.851  1.00  0.00     0.016 C 
ATOM     12  C   UNL     1     163.745 168.432 202.597  1.00  0.00     0.012 C 
ENDROOT
BRANCH   1  13
ATOM     13  C   UNL     1     167.659 169.149 198.707  1.00  0.00    -0.077 C 
ATOM     14  C   UNL     1     168.921 168.317 198.773  1.00  0.00     0.039 C 
ATOM     15  C   UNL     1     167.222 169.573 197.508  1.00  0.00     0.008 C 
ENDBRANCH   1  13
TORSDOF 1
ENDMDL
MODEL 2
REMARK VINA RESULT:    -5.245      3.694      6.438
REMARK INTER + INTRA:          -5.980
REMARK INTER:                  -5.552
REMARK INTRA:                  -0.428
REMARK UNBOUND:                -0.428
REMARK SMILES C=C(C)[C@H]1CC[C@@]2(C)CCCC(=C)[C@H]2C1
REMARK SMILES IDX 4 1 5 2 6 3 7 4 9 5 10 6 11 7 12 8 13 9 14 10 15 11 8 12
REMARK SMILES IDX 2 13 3 14 1 15
REMARK H PARENT
REMARK Flexibility Score: inf
ROOT
ATOM      1  C   UNL     1     165.195 162.533 199.958  1.00  0.00     0.015 C 
ATOM      2  C   UNL     1     166.543 161.874 199.582  1.00  0.00     0.008 C 
ATOM      3  C   UNL     1     167.515 161.936 200.764  1.00  0.00     0.008 C 
ATOM      4  C   UNL     1     167.953 163.409 201.062  1.00  0.00    -0.026 C 
ATOM      5  C   UNL     1     169.241 163.704 200.231  1.00  0.00     0.008 C 
ATOM      6  C   UNL     1     169.419 165.190 199.945  1.00  0.00     0.005 C 
ATOM      7  C   UNL     1     168.321 165.658 198.998  1.00  0.00     0.031 C 
ATOM      8  C   UNL     1     166.941 165.255 199.473  1.00  0.00    -0.074 C 
ATOM      9  C   UNL     1     165.902 165.817 198.826  1.00  0.00     0.008 C 
ATOM     10  C   UNL     1     166.773 164.444 200.774  1.00  0.00     0.021 C 
ATOM     11  C   UNL     1     165.392 163.743 200.917  1.00  0.00     0.016 C 
ATOM     12  C   UNL     1     168.325 163.489 202.565  1.00  0.00     0.012 C 
ENDROOT
BRANCH   1  13
ATOM     13  C   UNL     1     164.311 162.879 198.758  1.00  0.00    -0.077 C 
ATOM     14  C   UNL     1     163.035 163.678 198.904  1.00  0.00     0.039 C 
ATOM     15  C   UNL     1     164.721 162.527 197.527  1.00  0.00     0.008 C 
ENDBRANCH   1  13
TORSDOF 1
ENDMDL
MODEL 3
REMARK VINA RESULT:    -5.144      3.131      5.572
REMARK INTER + INTRA:          -5.873
REMARK INTER:                  -5.429
REMARK INTRA:                  -0.444
REMARK UNBOUND:                -0.428
REMARK SMILES C=C(C)[C@H]1CC[C@@]2(C)CCCC(=C)[C@H]2C1
REMARK SMILES IDX 4 1 5 2 6 3 7 4 9 5 10 6 11 7 12 8 13 9 14 10 15 11 8 12
REMARK SMILES IDX 2 13 3 14 1 15
REMARK H PARENT
REMARK Flexibility Score: inf
ROOT
ATOM      1  C   UNL     1     166.039 162.422 198.834  1.00  0.00     0.015 C 
ATOM      2  C   UNL     1     164.706 162.116 199.558  1.00  0.00     0.008 C 
ATOM      3  C   UNL     1     163.518 162.444 198.648  1.00  0.00     0.008 C 
ATOM      4  C   UNL     1     163.401 163.985 198.400  1.00  0.00    -0.026 C 
ATOM      5  C   UNL     1     162.474 164.580 199.508  1.00  0.00     0.008 C 
ATOM      6  C   UNL     1     162.748 166.056 199.762  1.00  0.00     0.005 C 
ATOM      7  C   UNL     1     164.126 166.215 200.390  1.00  0.00     0.031 C 
ATOM      8  C   UNL     1     165.201 165.486 199.610  1.00  0.00    -0.074 C 
ATOM      9  C   UNL     1     166.474 165.756 199.958  1.00  0.00     0.008 C 
ATOM     10  C   UNL     1     164.835 164.684 198.346  1.00  0.00     0.021 C 
ATOM     11  C   UNL     1     165.918 163.661 197.900  1.00  0.00     0.016 C 
ATOM     12  C   UNL     1     162.700 164.185 197.032  1.00  0.00     0.012 C 
ENDROOT
BRANCH   1  13
ATOM     13  C   UNL     1     167.250 162.511 199.765  1.00  0.00    -0.077 C 
ATOM     14  C   UNL     1     168.625 162.890 199.261  1.00  0.00     0.039 C 
ATOM     15  C   UNL     1     167.071 162.321 201.084  1.00  0.00     0.008 C 
ENDBRANCH   1  13
TORSDOF 1
ENDMDL
MODEL 4
REMARK VINA RESULT:    -5.130      1.521      4.565
REMARK INTER + INTRA:          -5.858
REMARK INTER:                  -5.417
REMARK INTRA:                  -0.441
REMARK UNBOUND:                -0.428
REMARK SMILES C=C(C)[C@H]1CC[C@@]2(C)CCCC(=C)[C@H]2C1
REMARK SMILES IDX 4 1 5 2 6 3 7 4 9 5 10 6 11 7 12 8 13 9 14 10 15 11 8 12
REMARK SMILES IDX 2 13 3 14 1 15
REMARK H PARENT
REMARK Flexibility Score: inf
ROOT
ATOM      1  C   UNL     1     165.948 169.583 198.868  1.00  0.00     0.015 C 
ATOM      2  C   UNL     1     167.268 169.888 199.616  1.00  0.00     0.008 C 
ATOM      3  C   UNL     1     168.471 169.583 198.719  1.00  0.00     0.008 C 
ATOM      4  C   UNL     1     168.604 168.047 198.450  1.00  0.00    -0.026 C 
ATOM      5  C   UNL     1     169.519 167.443 199.561  1.00  0.00     0.008 C 
ATOM      6  C   UNL     1     169.253 165.960 199.789  1.00  0.00     0.005 C 
ATOM      7  C   UNL     1     167.868 165.782 200.393  1.00  0.00     0.031 C 
ATOM      8  C   UNL     1     166.799 166.514 199.609  1.00  0.00    -0.074 C 
ATOM      9  C   UNL     1     165.523 166.229 199.934  1.00  0.00     0.008 C 
ATOM     10  C   UNL     1     167.178 167.338 198.363  1.00  0.00     0.021 C 
ATOM     11  C   UNL     1     166.093 168.360 197.916  1.00  0.00     0.016 C 
ATOM     12  C   UNL     1     169.327 167.873 197.089  1.00  0.00     0.012 C 
ENDROOT
BRANCH   1  13
ATOM     13  C   UNL     1     164.724 169.470 199.779  1.00  0.00    -0.077 C 
ATOM     14  C   UNL     1     163.363 169.073 199.251  1.00  0.00     0.039 C 
ATOM     15  C   UNL     1     164.880 169.656 201.102  1.00  0.00     0.008 C 
ENDBRANCH   1  13
TORSDOF 1
ENDMDL
MODEL 5
REMARK VINA RESULT:    -5.112      1.483      4.773
REMARK INTER + INTRA:          -5.838
REMARK INTER:                  -5.393
REMARK INTRA:                  -0.445
REMARK UNBOUND:                -0.428
REMARK SMILES C=C(C)[C@H]1CC[C@@]2(C)CCCC(=C)[C@H]2C1
REMARK SMILES IDX 4 1 5 2 6 3 7 4 9 5 10 6 11 7 12 8 13 9 14 10 15 11 8 12
REMARK SMILES IDX 2 13 3 14 1 15
REMARK H PARENT
REMARK Flexibility Score: inf
ROOT
ATOM      1  C   UNL     1     163.792 167.557 198.065  1.00  0.00     0.015 C 
ATOM      2  C   UNL     1     164.058 168.995 197.556  1.00  0.00     0.008 C 
ATOM      3  C   UNL     1     165.257 169.009 196.602  1.00  0.00     0.008 C 
ATOM      4  C   UNL     1     166.588 168.687 197.359  1.00  0.00    -0.026 C 
ATOM      5  C   UNL     1     167.201 170.037 197.847  1.00  0.00     0.008 C 
ATOM      6  C   UNL     1     168.106 169.859 199.059  1.00  0.00     0.005 C 
ATOM      7  C   UNL     1     167.268 169.444 200.260  1.00  0.00     0.031 C 
ATOM      8  C   UNL     1     166.366 168.267 199.953  1.00  0.00    -0.074 C 
ATOM      9  C   UNL     1     165.761 167.690 201.009  1.00  0.00     0.008 C 
ATOM     10  C   UNL     1     166.355 167.643 198.543  1.00  0.00     0.021 C 
ATOM     11  C   UNL     1     165.114 166.755 198.245  1.00  0.00     0.016 C 
ATOM     12  C   UNL     1     167.568 168.061 196.333  1.00  0.00     0.012 C 
ENDROOT
BRANCH   1  13
ATOM     13  C   UNL     1     162.896 167.489 199.302  1.00  0.00    -0.077 C 
ATOM     14  C   UNL     1     162.582 166.181 199.995  1.00  0.00     0.039 C 
ATOM     15  C   UNL     1     162.433 168.634 199.834  1.00  0.00     0.008 C 
ENDBRANCH   1  13
TORSDOF 1
ENDMDL
MODEL 6
REMARK VINA RESULT:    -5.109      3.829      6.525
REMARK INTER + INTRA:          -5.836
REMARK INTER:                  -5.387
REMARK INTRA:                  -0.449
REMARK UNBOUND:                -0.428
REMARK SMILES C=C(C)[C@H]1CC[C@@]2(C)CCCC(=C)[C@H]2C1
REMARK SMILES IDX 4 1 5 2 6 3 7 4 9 5 10 6 11 7 12 8 13 9 14 10 15 11 8 12
REMARK SMILES IDX 2 13 3 14 1 15
REMARK H PARENT
REMARK Flexibility Score: inf
ROOT
ATOM      1  C   UNL     1     165.029 163.884 198.204  1.00  0.00     0.015 C 
ATOM      2  C   UNL     1     165.551 165.233 198.757  1.00  0.00     0.008 C 
ATOM      3  C   UNL     1     166.680 165.769 197.872  1.00  0.00     0.008 C 
ATOM      4  C   UNL     1     167.956 164.868 197.971  1.00  0.00    -0.026 C 
ATOM      5  C   UNL     1     168.849 165.427 199.124  1.00  0.00     0.008 C 
ATOM      6  C   UNL     1     169.759 164.361 199.721  1.00  0.00     0.005 C 
ATOM      7  C   UNL     1     168.915 163.327 200.453  1.00  0.00     0.031 C 
ATOM      8  C   UNL     1     167.782 162.800 199.597  1.00  0.00    -0.074 C 
ATOM      9  C   UNL     1     167.126 161.724 200.075  1.00  0.00     0.008 C 
ATOM     10  C   UNL     1     167.578 163.330 198.164  1.00  0.00     0.021 C 
ATOM     11  C   UNL     1     166.172 163.040 197.567  1.00  0.00     0.016 C 
ATOM     12  C   UNL     1     168.740 165.022 196.642  1.00  0.00     0.012 C 
ENDROOT
BRANCH   1  13
ATOM     13  C   UNL     1     164.199 163.078 199.205  1.00  0.00    -0.077 C 
ATOM     14  C   UNL     1     163.933 163.571 200.610  1.00  0.00     0.039 C 
ATOM     15  C   UNL     1     163.624 161.932 198.798  1.00  0.00     0.008 C 
ENDBRANCH   1  13
TORSDOF 1
ENDMDL
MODEL 7
REMARK VINA RESULT:    -5.107      4.220      5.761
REMARK INTER + INTRA:          -5.833
REMARK INTER:                  -5.389
REMARK INTRA:                  -0.444
REMARK UNBOUND:                -0.428
REMARK SMILES C=C(C)[C@H]1CC[C@@]2(C)CCCC(=C)[C@H]2C1
REMARK SMILES IDX 4 1 5 2 6 3 7 4 9 5 10 6 11 7 12 8 13 9 14 10 15 11 8 12
REMARK SMILES IDX 2 13 3 14 1 15
REMARK H PARENT
REMARK Flexibility Score: inf
ROOT
ATOM      1  C   UNL     1     168.185 164.429 198.017  1.00  0.00     0.015 C 
ATOM      2  C   UNL     1     167.918 162.997 197.493  1.00  0.00     0.008 C 
ATOM      3  C   UNL     1     166.716 162.993 196.544  1.00  0.00     0.008 C 
ATOM      4  C   UNL     1     165.387 163.305 197.310  1.00  0.00    -0.026 C 
ATOM      5  C   UNL     1     164.777 161.949 197.786  1.00  0.00     0.008 C 
ATOM      6  C   UNL     1     163.877 162.112 199.004  1.00  0.00     0.005 C 
ATOM      7  C   UNL     1     164.720 162.515 200.206  1.00  0.00     0.031 C 
ATOM      8  C   UNL     1     165.620 163.695 199.908  1.00  0.00    -0.074 C 
ATOM      9  C   UNL     1     166.229 164.261 200.968  1.00  0.00     0.008 C 
ATOM     10  C   UNL     1     165.624 164.335 198.505  1.00  0.00     0.021 C 
ATOM     11  C   UNL     1     166.864 165.228 198.212  1.00  0.00     0.016 C 
ATOM     12  C   UNL     1     164.403 163.942 196.296  1.00  0.00     0.012 C 
ENDROOT
BRANCH   1  13
ATOM     13  C   UNL     1     169.087 164.484 199.251  1.00  0.00    -0.077 C 
ATOM     14  C   UNL     1     169.405 165.784 199.957  1.00  0.00     0.039 C 
ATOM     15  C   UNL     1     169.551 163.333 199.770  1.00  0.00     0.008 C 
ENDBRANCH   1  13
TORSDOF 1
ENDMDL
MODEL 8
REMARK VINA RESULT:    -5.068      3.432      6.308
REMARK INTER + INTRA:          -5.792
REMARK INTER:                  -5.346
REMARK INTRA:                  -0.446
REMARK UNBOUND:                -0.428
REMARK SMILES C=C(C)[C@H]1CC[C@@]2(C)CCCC(=C)[C@H]2C1
REMARK SMILES IDX 4 1 5 2 6 3 7 4 9 5 10 6 11 7 12 8 13 9 14 10 15 11 8 12
REMARK SMILES IDX 2 13 3 14 1 15
REMARK H PARENT
REMARK Flexibility Score: inf
ROOT
ATOM      1  C   UNL     1     164.155 163.338 199.937  1.00  0.00     0.015 C 
ATOM      2  C   UNL     1     164.855 162.269 199.062  1.00  0.00     0.008 C 
ATOM      3  C   UNL     1     166.217 161.902 199.658  1.00  0.00     0.008 C 
ATOM      4  C   UNL     1     167.220 163.100 199.563  1.00  0.00    -0.026 C 
ATOM      5  C   UNL     1     167.990 162.975 198.210  1.00  0.00     0.008 C 
ATOM      6  C   UNL     1     168.514 164.316 197.714  1.00  0.00     0.005 C 
ATOM      7  C   UNL     1     167.342 165.206 197.325  1.00  0.00     0.031 C 
ATOM      8  C   UNL     1     166.295 165.288 198.417  1.00  0.00    -0.074 C 
ATOM      9  C   UNL     1     165.340 166.225 198.256  1.00  0.00     0.008 C 
ATOM     10  C   UNL     1     166.480 164.503 199.731  1.00  0.00     0.021 C 
ATOM     11  C   UNL     1     165.177 164.331 200.563  1.00  0.00     0.016 C 
ATOM     12  C   UNL     1     168.247 162.941 200.713  1.00  0.00     0.012 C 
ENDROOT
BRANCH   1  13
ATOM     13  C   UNL     1     162.998 164.055 199.240  1.00  0.00    -0.077 C 
ATOM     14  C   UNL     1     162.573 163.714 197.829  1.00  0.00     0.039 C 
ATOM     15  C   UNL     1     162.288 164.965 199.930  1.00  0.00     0.008 C 
ENDBRANCH   1  13
TORSDOF 1
ENDMDL
MODEL 9
REMARK VINA RESULT:    -5.060      3.231      5.506
REMARK INTER + INTRA:          -5.783
REMARK INTER:                  -5.343
REMARK INTRA:                  -0.440
REMARK UNBOUND:                -0.428
REMARK SMILES C=C(C)[C@H]1CC[C@@]2(C)CCCC(=C)[C@H]2C1
REMARK SMILES IDX 4 1 5 2 6 3 7 4 9 5 10 6 11 7 12 8 13 9 14 10 15 11 8 12
REMARK SMILES IDX 2 13 3 14 1 15
REMARK H PARENT
REMARK Flexibility Score: inf
ROOT
ATOM      1  C   UNL     1     169.125 166.038 199.912  1.00  0.00     0.015 C 
ATOM      2  C   UNL     1     169.585 164.628 200.352  1.00  0.00     0.008 C 
ATOM      3  C   UNL     1     169.450 163.637 199.192  1.00  0.00     0.008 C 
ATOM      4  C   UNL     1     167.947 163.385 198.832  1.00  0.00    -0.026 C 
ATOM      5  C   UNL     1     167.449 162.171 199.678  1.00  0.00     0.008 C 
ATOM      6  C   UNL     1     165.941 162.196 199.895  1.00  0.00     0.005 C 
ATOM      7  C   UNL     1     165.578 163.372 200.791  1.00  0.00     0.031 C 
ATOM      8  C   UNL     1     166.179 164.674 200.304  1.00  0.00    -0.074 C 
ATOM      9  C   UNL     1     165.729 165.796 200.898  1.00  0.00     0.008 C 
ATOM     10  C   UNL     1     167.064 164.697 199.041  1.00  0.00     0.021 C 
ATOM     11  C   UNL     1     167.944 165.971 198.900  1.00  0.00     0.016 C 
ATOM     12  C   UNL     1     167.888 162.982 197.336  1.00  0.00     0.012 C 
ENDROOT
BRANCH   1  13
ATOM     13  C   UNL     1     168.843 166.994 201.072  1.00  0.00    -0.077 C 
ATOM     14  C   UNL     1     168.267 168.376 200.853  1.00  0.00     0.039 C 
ATOM     15  C   UNL     1     169.042 166.565 202.331  1.00  0.00     0.008 C 
ENDBRANCH   1  13
TORSDOF 1
ENDMDL
