MODEL 1
REMARK VINA RESULT:    -6.053      0.000      0.000
REMARK INTER + INTRA:          -7.409
REMARK INTER:                  -7.115
REMARK INTRA:                  -0.294
REMARK UNBOUND:                -0.294
REMARK SMILES O=c1c(O)c(-c2ccc(O)cc2)oc2cc(O)cc(O)c12
REMARK SMILES IDX 5 1 3 2 2 3 1 4 21 5 19 6 18 7 16 8 15 9 14 10 13 11 6 12
REMARK SMILES IDX 7 13 8 14 9 15 12 16 11 17 10 18 4 20 20 22 17 24
REMARK H PARENT 10 19 4 21 20 23 17 25
REMARK Flexibility Score: inf
ROOT
ATOM      1  C   UNL     1     -20.427  39.921  -3.765  1.00  0.00     0.180 A 
ATOM      2  C   UNL     1     -19.857  40.809  -4.693  1.00  0.00     0.208 A 
ATOM      3  C   UNL     1     -19.630  40.367  -6.007  1.00  0.00     0.238 A 
ATOM      4  O   UNL     1     -19.069  41.150  -6.818  1.00  0.00    -0.285 OA
ATOM      5  C   UNL     1     -19.989  39.050  -6.380  1.00  0.00     0.111 A 
ATOM      6  C   UNL     1     -19.841  38.510  -7.693  1.00  0.00     0.134 A 
ATOM      7  C   UNL     1     -20.108  37.155  -7.916  1.00  0.00     0.093 A 
ATOM      8  C   UNL     1     -20.581  36.335  -6.888  1.00  0.00     0.123 A 
ATOM      9  C   UNL     1     -20.786  36.866  -5.618  1.00  0.00     0.094 A 
ATOM     10  C   UNL     1     -20.494  38.207  -5.355  1.00  0.00     0.146 A 
ATOM     11  O   UNL     1     -20.693  38.672  -4.127  1.00  0.00    -0.452 OA
ENDROOT
BRANCH   1  12
ATOM     12  C   UNL     1     -20.721  40.321  -2.369  1.00  0.00     0.021 A 
ATOM     13  C   UNL     1     -21.921  40.972  -2.030  1.00  0.00     0.016 A 
ATOM     14  C   UNL     1     -22.186  41.318  -0.701  1.00  0.00     0.047 A 
ATOM     15  C   UNL     1     -21.264  41.005   0.305  1.00  0.00     0.115 A 
ATOM     16  C   UNL     1     -19.811  39.993  -1.350  1.00  0.00     0.016 A 
ATOM     17  C   UNL     1     -20.078  40.340  -0.023  1.00  0.00     0.047 A 
BRANCH  15  18
ATOM     18  O   UNL     1     -21.517  41.347   1.632  1.00  0.00    -0.508 OA
ATOM     19  H   UNL     1     -21.094  40.837   2.400  1.00  0.00     0.293 HD
ENDBRANCH  15  18
ENDBRANCH   1  12
BRANCH   2  20
ATOM     20  O   UNL     1     -19.489  42.098  -4.297  1.00  0.00    -0.502 OA
ATOM     21  H   UNL     1     -19.168  42.308  -3.359  1.00  0.00     0.293 HD
ENDBRANCH   2  20
BRANCH   6  22
ATOM     22  O   UNL     1     -19.464  39.264  -8.808  1.00  0.00    -0.507 OA
ATOM     23  H   UNL     1     -20.095  39.575  -9.532  1.00  0.00     0.293 HD
ENDBRANCH   6  22
BRANCH   8  24
ATOM     24  O   UNL     1     -20.860  34.991  -7.123  1.00  0.00    -0.508 OA
ATOM     25  H   UNL     1     -20.287  34.254  -6.730  1.00  0.00     0.293 HD
ENDBRANCH   8  24
TORSDOF 5
ENDMDL
MODEL 2
REMARK VINA RESULT:    -5.665      3.015      5.227
REMARK INTER + INTRA:          -6.953
REMARK INTER:                  -6.862
REMARK INTRA:                  -0.091
REMARK UNBOUND:                -0.294
REMARK SMILES O=c1c(O)c(-c2ccc(O)cc2)oc2cc(O)cc(O)c12
REMARK SMILES IDX 5 1 3 2 2 3 1 4 21 5 19 6 18 7 16 8 15 9 14 10 13 11 6 12
REMARK SMILES IDX 7 13 8 14 9 15 12 16 11 17 10 18 4 20 20 22 17 24
REMARK H PARENT 10 19 4 21 20 23 17 25
REMARK Flexibility Score: inf
ROOT
ATOM      1  C   UNL     1     -19.898  40.446   0.814  1.00  0.00     0.180 A 
ATOM      2  C   UNL     1     -21.087  41.134   0.519  1.00  0.00     0.208 A 
ATOM      3  C   UNL     1     -21.756  40.851  -0.683  1.00  0.00     0.238 A 
ATOM      4  O   UNL     1     -22.791  41.510  -0.967  1.00  0.00    -0.285 OA
ATOM      5  C   UNL     1     -21.238  39.873  -1.565  1.00  0.00     0.111 A 
ATOM      6  C   UNL     1     -21.854  39.478  -2.790  1.00  0.00     0.134 A 
ATOM      7  C   UNL     1     -21.186  38.597  -3.647  1.00  0.00     0.093 A 
ATOM      8  C   UNL     1     -19.952  38.045  -3.293  1.00  0.00     0.123 A 
ATOM      9  C   UNL     1     -19.370  38.378  -2.072  1.00  0.00     0.094 A 
ATOM     10  C   UNL     1     -19.996  39.283  -1.212  1.00  0.00     0.146 A 
ATOM     11  O   UNL     1     -19.402  39.582  -0.063  1.00  0.00    -0.452 OA
ENDROOT
BRANCH   1  12
ATOM     12  C   UNL     1     -19.149  40.671   2.073  1.00  0.00     0.021 A 
ATOM     13  C   UNL     1     -18.612  41.932   2.391  1.00  0.00     0.016 A 
ATOM     14  C   UNL     1     -17.930  42.125   3.597  1.00  0.00     0.047 A 
ATOM     15  C   UNL     1     -17.788  41.067   4.503  1.00  0.00     0.115 A 
ATOM     16  C   UNL     1     -19.019  39.621   2.997  1.00  0.00     0.016 A 
ATOM     17  C   UNL     1     -18.336  39.817   4.201  1.00  0.00     0.047 A 
BRANCH  15  18
ATOM     18  O   UNL     1     -17.108  41.248   5.706  1.00  0.00    -0.508 OA
ATOM     19  H   UNL     1     -17.590  41.547   6.546  1.00  0.00     0.293 HD
ENDBRANCH  15  18
ENDBRANCH   1  12
BRANCH   2  20
ATOM     20  O   UNL     1     -21.569  42.112   1.394  1.00  0.00    -0.502 OA
ATOM     21  H   UNL     1     -22.402  41.975   1.957  1.00  0.00     0.293 HD
ENDBRANCH   2  20
BRANCH   6  22
ATOM     22  O   UNL     1     -23.125  39.899  -3.195  1.00  0.00    -0.507 OA
ATOM     23  H   UNL     1     -23.741  40.478  -2.644  1.00  0.00     0.293 HD
ENDBRANCH   6  22
BRANCH   8  24
ATOM     24  O   UNL     1     -19.301  37.155  -4.144  1.00  0.00    -0.508 OA
ATOM     25  H   UNL     1     -19.550  36.174  -4.176  1.00  0.00     0.293 HD
ENDBRANCH   8  24
TORSDOF 5
ENDMDL
MODEL 3
REMARK VINA RESULT:    -5.581      1.570      3.090
REMARK INTER + INTRA:          -6.854
REMARK INTER:                  -6.565
REMARK INTRA:                  -0.288
REMARK UNBOUND:                -0.294
REMARK SMILES O=c1c(O)c(-c2ccc(O)cc2)oc2cc(O)cc(O)c12
REMARK SMILES IDX 5 1 3 2 2 3 1 4 21 5 19 6 18 7 16 8 15 9 14 10 13 11 6 12
REMARK SMILES IDX 7 13 8 14 9 15 12 16 11 17 10 18 4 20 20 22 17 24
REMARK H PARENT 10 19 4 21 20 23 17 25
REMARK Flexibility Score: inf
ROOT
ATOM      1  C   UNL     1     -20.099  39.624  -2.677  1.00  0.00     0.180 A 
ATOM      2  C   UNL     1     -20.924  38.569  -3.100  1.00  0.00     0.208 A 
ATOM      3  C   UNL     1     -20.840  38.132  -4.433  1.00  0.00     0.238 A 
ATOM      4  O   UNL     1     -21.621  37.223  -4.820  1.00  0.00    -0.285 OA
ATOM      5  C   UNL     1     -19.920  38.743  -5.318  1.00  0.00     0.111 A 
ATOM      6  C   UNL     1     -19.722  38.354  -6.677  1.00  0.00     0.134 A 
ATOM      7  C   UNL     1     -18.881  39.114  -7.497  1.00  0.00     0.093 A 
ATOM      8  C   UNL     1     -18.180  40.210  -6.991  1.00  0.00     0.123 A 
ATOM      9  C   UNL     1     -18.320  40.563  -5.651  1.00  0.00     0.094 A 
ATOM     10  C   UNL     1     -19.180  39.845  -4.816  1.00  0.00     0.146 A 
ATOM     11  O   UNL     1     -19.294  40.221  -3.548  1.00  0.00    -0.452 OA
ENDROOT
BRANCH   1  12
ATOM     12  C   UNL     1     -20.112  40.124  -1.282  1.00  0.00     0.021 A 
ATOM     13  C   UNL     1     -21.006  41.130  -0.872  1.00  0.00     0.016 A 
ATOM     14  C   UNL     1     -21.016  41.568   0.456  1.00  0.00     0.047 A 
ATOM     15  C   UNL     1     -20.144  40.999   1.391  1.00  0.00     0.115 A 
ATOM     16  C   UNL     1     -19.255  39.545  -0.332  1.00  0.00     0.016 A 
ATOM     17  C   UNL     1     -19.266  39.985   0.995  1.00  0.00     0.047 A 
BRANCH  15  18
ATOM     18  O   UNL     1     -20.144  41.429   2.717  1.00  0.00    -0.508 OA
ATOM     19  H   UNL     1     -19.290  41.471   3.260  1.00  0.00     0.293 HD
ENDBRANCH  15  18
ENDBRANCH   1  12
BRANCH   2  20
ATOM     20  O   UNL     1     -21.841  37.994  -2.215  1.00  0.00    -0.502 OA
ATOM     21  H   UNL     1     -21.570  37.304  -1.524  1.00  0.00     0.293 HD
ENDBRANCH   2  20
BRANCH   6  22
ATOM     22  O   UNL     1     -20.303  37.222  -7.257  1.00  0.00    -0.507 OA
ATOM     23  H   UNL     1     -19.838  36.607  -7.908  1.00  0.00     0.293 HD
ENDBRANCH   6  22
BRANCH   8  24
ATOM     24  O   UNL     1     -17.331  40.952  -7.810  1.00  0.00    -0.508 OA
ATOM     25  H   UNL     1     -16.659  40.503  -8.421  1.00  0.00     0.293 HD
ENDBRANCH   8  24
TORSDOF 5
ENDMDL
MODEL 4
REMARK VINA RESULT:    -5.532      1.603      3.256
REMARK INTER + INTRA:          -6.796
REMARK INTER:                  -6.496
REMARK INTRA:                  -0.300
REMARK UNBOUND:                -0.294
REMARK SMILES O=c1c(O)c(-c2ccc(O)cc2)oc2cc(O)cc(O)c12
REMARK SMILES IDX 5 1 3 2 2 3 1 4 21 5 19 6 18 7 16 8 15 9 14 10 13 11 6 12
REMARK SMILES IDX 7 13 8 14 9 15 12 16 11 17 10 18 4 20 20 22 17 24
REMARK H PARENT 10 19 4 21 20 23 17 25
REMARK Flexibility Score: inf
ROOT
ATOM      1  C   UNL     1     -20.074  39.523  -2.661  1.00  0.00     0.180 A 
ATOM      2  C   UNL     1     -20.937  38.499  -3.088  1.00  0.00     0.208 A 
ATOM      3  C   UNL     1     -20.878  38.073  -4.425  1.00  0.00     0.238 A 
ATOM      4  O   UNL     1     -21.690  37.193  -4.814  1.00  0.00    -0.285 OA
ATOM      5  C   UNL     1     -19.947  38.663  -5.313  1.00  0.00     0.111 A 
ATOM      6  C   UNL     1     -19.773  38.281  -6.677  1.00  0.00     0.134 A 
ATOM      7  C   UNL     1     -18.915  39.022  -7.497  1.00  0.00     0.093 A 
ATOM      8  C   UNL     1     -18.174  40.090  -6.986  1.00  0.00     0.123 A 
ATOM      9  C   UNL     1     -18.292  40.434  -5.642  1.00  0.00     0.094 A 
ATOM     10  C   UNL     1     -19.167  39.736  -4.807  1.00  0.00     0.146 A 
ATOM     11  O   UNL     1     -19.258  40.102  -3.534  1.00  0.00    -0.452 OA
ENDROOT
BRANCH   1  12
ATOM     12  C   UNL     1     -20.059  40.009  -1.261  1.00  0.00     0.021 A 
ATOM     13  C   UNL     1     -19.241  39.410  -0.286  1.00  0.00     0.016 A 
ATOM     14  C   UNL     1     -19.226  39.902   1.023  1.00  0.00     0.047 A 
ATOM     15  C   UNL     1     -20.016  41.005   1.369  1.00  0.00     0.115 A 
ATOM     16  C   UNL     1     -20.832  41.128  -0.910  1.00  0.00     0.016 A 
ATOM     17  C   UNL     1     -20.816  41.617   0.399  1.00  0.00     0.047 A 
BRANCH  15  18
ATOM     18  O   UNL     1     -20.010  41.503   2.671  1.00  0.00    -0.508 OA
ATOM     19  H   UNL     1     -19.764  40.917   3.460  1.00  0.00     0.293 HD
ENDBRANCH  15  18
ENDBRANCH   1  12
BRANCH   2  20
ATOM     20  O   UNL     1     -21.863  37.945  -2.200  1.00  0.00    -0.502 OA
ATOM     21  H   UNL     1     -21.730  37.036  -1.771  1.00  0.00     0.293 HD
ENDBRANCH   2  20
BRANCH   6  22
ATOM     22  O   UNL     1     -20.395  37.174  -7.262  1.00  0.00    -0.507 OA
ATOM     23  H   UNL     1     -19.955  36.549  -7.922  1.00  0.00     0.293 HD
ENDBRANCH   6  22
BRANCH   8  24
ATOM     24  O   UNL     1     -17.310  40.812  -7.806  1.00  0.00    -0.508 OA
ATOM     25  H   UNL     1     -16.312  40.837  -7.632  1.00  0.00     0.293 HD
ENDBRANCH   8  24
TORSDOF 5
ENDMDL
MODEL 5
REMARK VINA RESULT:    -5.316      1.574      6.611
REMARK INTER + INTRA:          -6.543
REMARK INTER:                  -6.440
REMARK INTRA:                  -0.103
REMARK UNBOUND:                -0.294
REMARK SMILES O=c1c(O)c(-c2ccc(O)cc2)oc2cc(O)cc(O)c12
REMARK SMILES IDX 5 1 3 2 2 3 1 4 21 5 19 6 18 7 16 8 15 9 14 10 13 11 6 12
REMARK SMILES IDX 7 13 8 14 9 15 12 16 11 17 10 18 4 20 20 22 17 24
REMARK H PARENT 10 19 4 21 20 23 17 25
REMARK Flexibility Score: inf
ROOT
ATOM      1  C   UNL     1     -20.179  38.952  -5.725  1.00  0.00     0.180 A 
ATOM      2  C   UNL     1     -19.045  39.779  -5.645  1.00  0.00     0.208 A 
ATOM      3  C   UNL     1     -18.889  40.613  -4.526  1.00  0.00     0.238 A 
ATOM      4  O   UNL     1     -17.900  41.391  -4.486  1.00  0.00    -0.285 OA
ATOM      5  C   UNL     1     -19.859  40.598  -3.494  1.00  0.00     0.111 A 
ATOM      6  C   UNL     1     -19.781  41.371  -2.297  1.00  0.00     0.134 A 
ATOM      7  C   UNL     1     -20.860  41.376  -1.407  1.00  0.00     0.093 A 
ATOM      8  C   UNL     1     -21.988  40.584  -1.638  1.00  0.00     0.123 A 
ATOM      9  C   UNL     1     -22.048  39.779  -2.773  1.00  0.00     0.094 A 
ATOM     10  C   UNL     1     -21.001  39.781  -3.698  1.00  0.00     0.146 A 
ATOM     11  O   UNL     1     -21.103  39.008  -4.773  1.00  0.00    -0.452 OA
ENDROOT
BRANCH   1  12
ATOM     12  C   UNL     1     -20.401  38.027  -6.860  1.00  0.00     0.021 A 
ATOM     13  C   UNL     1     -20.475  36.635  -6.668  1.00  0.00     0.016 A 
ATOM     14  C   UNL     1     -20.709  35.784  -7.753  1.00  0.00     0.047 A 
ATOM     15  C   UNL     1     -20.887  36.312  -9.037  1.00  0.00     0.115 A 
ATOM     16  C   UNL     1     -20.601  38.549  -8.149  1.00  0.00     0.016 A 
ATOM     17  C   UNL     1     -20.835  37.696  -9.231  1.00  0.00     0.047 A 
BRANCH  15  18
ATOM     18  O   UNL     1     -21.120  35.473 -10.125  1.00  0.00    -0.508 OA
ATOM     19  H   UNL     1     -20.356  35.080 -10.664  1.00  0.00     0.293 HD
ENDBRANCH  15  18
ENDBRANCH   1  12
BRANCH   2  20
ATOM     20  O   UNL     1     -18.112  39.795  -6.685  1.00  0.00    -0.502 OA
ATOM     21  H   UNL     1     -18.227  40.372  -7.510  1.00  0.00     0.293 HD
ENDBRANCH   2  20
BRANCH   6  22
ATOM     22  O   UNL     1     -18.663  42.125  -1.927  1.00  0.00    -0.507 OA
ATOM     23  H   UNL     1     -18.071  41.923  -1.135  1.00  0.00     0.293 HD
ENDBRANCH   6  22
BRANCH   8  24
ATOM     24  O   UNL     1     -23.051  40.581  -0.738  1.00  0.00    -0.508 OA
ATOM     25  H   UNL     1     -23.023  41.125   0.117  1.00  0.00     0.293 HD
ENDBRANCH   8  24
TORSDOF 5
ENDMDL
MODEL 6
REMARK VINA RESULT:    -5.223      1.823      7.026
REMARK INTER + INTRA:          -6.434
REMARK INTER:                  -6.155
REMARK INTRA:                  -0.279
REMARK UNBOUND:                -0.294
REMARK SMILES O=c1c(O)c(-c2ccc(O)cc2)oc2cc(O)cc(O)c12
REMARK SMILES IDX 5 1 3 2 2 3 1 4 21 5 19 6 18 7 16 8 15 9 14 10 13 11 6 12
REMARK SMILES IDX 7 13 8 14 9 15 12 16 11 17 10 18 4 20 20 22 17 24
REMARK H PARENT 10 19 4 21 20 23 17 25
REMARK Flexibility Score: inf
ROOT
ATOM      1  C   UNL     1     -20.680  39.342  -2.770  1.00  0.00     0.180 A 
ATOM      2  C   UNL     1     -21.730  40.241  -2.515  1.00  0.00     0.208 A 
ATOM      3  C   UNL     1     -21.830  40.826  -1.242  1.00  0.00     0.238 A 
ATOM      4  O   UNL     1     -22.803  41.588  -1.003  1.00  0.00    -0.285 OA
ATOM      5  C   UNL     1     -20.871  40.518  -0.247  1.00  0.00     0.111 A 
ATOM      6  C   UNL     1     -20.853  41.083   1.063  1.00  0.00     0.134 A 
ATOM      7  C   UNL     1     -19.936  40.607   2.008  1.00  0.00     0.093 A 
ATOM      8  C   UNL     1     -18.994  39.632   1.669  1.00  0.00     0.123 A 
ATOM      9  C   UNL     1     -18.965  39.117   0.376  1.00  0.00     0.094 A 
ATOM     10  C   UNL     1     -19.891  39.547  -0.578  1.00  0.00     0.146 A 
ATOM     11  O   UNL     1     -19.836  39.022  -1.797  1.00  0.00    -0.452 OA
ENDROOT
BRANCH   1  12
ATOM     12  C   UNL     1     -20.494  38.704  -4.094  1.00  0.00     0.021 A 
ATOM     13  C   UNL     1     -21.022  37.431  -4.376  1.00  0.00     0.016 A 
ATOM     14  C   UNL     1     -20.854  36.860  -5.641  1.00  0.00     0.047 A 
ATOM     15  C   UNL     1     -20.168  37.558  -6.643  1.00  0.00     0.115 A 
ATOM     16  C   UNL     1     -19.825  39.405  -5.111  1.00  0.00     0.016 A 
ATOM     17  C   UNL     1     -19.657  38.832  -6.375  1.00  0.00     0.047 A 
BRANCH  15  18
ATOM     18  O   UNL     1     -19.992  36.997  -7.907  1.00  0.00    -0.508 OA
ATOM     19  H   UNL     1     -19.872  35.999  -8.031  1.00  0.00     0.293 HD
ENDBRANCH  15  18
ENDBRANCH   1  12
BRANCH   2  20
ATOM     20  O   UNL     1     -22.678  40.514  -3.505  1.00  0.00    -0.502 OA
ATOM     21  H   UNL     1     -22.725  41.408  -3.981  1.00  0.00     0.293 HD
ENDBRANCH   2  20
BRANCH   6  22
ATOM     22  O   UNL     1     -21.689  42.125   1.476  1.00  0.00    -0.507 OA
ATOM     23  H   UNL     1     -21.896  42.947   0.928  1.00  0.00     0.293 HD
ENDBRANCH   6  22
BRANCH   8  24
ATOM     24  O   UNL     1     -18.074  39.176   2.611  1.00  0.00    -0.508 OA
ATOM     25  H   UNL     1     -17.595  38.291   2.497  1.00  0.00     0.293 HD
ENDBRANCH   8  24
TORSDOF 5
ENDMDL
MODEL 7
REMARK VINA RESULT:    -5.215      2.218      7.332
REMARK INTER + INTRA:          -6.424
REMARK INTER:                  -6.196
REMARK INTRA:                  -0.228
REMARK UNBOUND:                -0.294
REMARK SMILES O=c1c(O)c(-c2ccc(O)cc2)oc2cc(O)cc(O)c12
REMARK SMILES IDX 5 1 3 2 2 3 1 4 21 5 19 6 18 7 16 8 15 9 14 10 13 11 6 12
REMARK SMILES IDX 7 13 8 14 9 15 12 16 11 17 10 18 4 20 20 22 17 24
REMARK H PARENT 10 19 4 21 20 23 17 25
REMARK Flexibility Score: inf
ROOT
ATOM      1  C   UNL     1     -20.043  40.585  -2.842  1.00  0.00     0.180 A 
ATOM      2  C   UNL     1     -21.409  40.372  -2.594  1.00  0.00     0.208 A 
ATOM      3  C   UNL     1     -21.911  40.607  -1.304  1.00  0.00     0.238 A 
ATOM      4  O   UNL     1     -23.125  40.362  -1.075  1.00  0.00    -0.285 OA
ATOM      5  C   UNL     1     -21.045  41.068  -0.283  1.00  0.00     0.111 A 
ATOM      6  C   UNL     1     -21.454  41.377   1.049  1.00  0.00     0.134 A 
ATOM      7  C   UNL     1     -20.489  41.699   2.010  1.00  0.00     0.093 A 
ATOM      8  C   UNL     1     -19.137  41.787   1.671  1.00  0.00     0.123 A 
ATOM      9  C   UNL     1     -18.734  41.546   0.360  1.00  0.00     0.094 A 
ATOM     10  C   UNL     1     -19.670  41.187  -0.613  1.00  0.00     0.146 A 
ATOM     11  O   UNL     1     -19.243  40.954  -1.849  1.00  0.00    -0.452 OA
ENDROOT
BRANCH   1  12
ATOM     12  C   UNL     1     -19.444  40.384  -4.183  1.00  0.00     0.021 A 
ATOM     13  C   UNL     1     -19.206  39.094  -4.692  1.00  0.00     0.016 A 
ATOM     14  C   UNL     1     -18.662  38.929  -5.970  1.00  0.00     0.047 A 
ATOM     15  C   UNL     1     -18.363  40.047  -6.758  1.00  0.00     0.115 A 
ATOM     16  C   UNL     1     -19.159  41.499  -4.988  1.00  0.00     0.016 A 
ATOM     17  C   UNL     1     -18.616  41.331  -6.264  1.00  0.00     0.047 A 
BRANCH  15  18
ATOM     18  O   UNL     1     -17.819  39.894  -8.032  1.00  0.00    -0.508 OA
ATOM     19  H   UNL     1     -17.601  40.695  -8.613  1.00  0.00     0.293 HD
ENDBRANCH  15  18
ENDBRANCH   1  12
BRANCH   2  20
ATOM     20  O   UNL     1     -22.242  39.896  -3.611  1.00  0.00    -0.502 OA
ATOM     21  H   UNL     1     -21.942  39.191  -4.274  1.00  0.00     0.293 HD
ENDBRANCH   2  20
BRANCH   6  22
ATOM     22  O   UNL     1     -22.788  41.409   1.468  1.00  0.00    -0.507 OA
ATOM     23  H   UNL     1     -23.541  41.845   0.957  1.00  0.00     0.293 HD
ENDBRANCH   6  22
BRANCH   8  24
ATOM     24  O   UNL     1     -18.185  42.125   2.630  1.00  0.00    -0.508 OA
ATOM     25  H   UNL     1     -17.538  42.892   2.488  1.00  0.00     0.293 HD
ENDBRANCH   8  24
TORSDOF 5
ENDMDL
MODEL 8
REMARK VINA RESULT:    -5.179      3.063      6.985
REMARK INTER + INTRA:          -6.381
REMARK INTER:                  -6.122
REMARK INTRA:                  -0.259
REMARK UNBOUND:                -0.294
REMARK SMILES O=c1c(O)c(-c2ccc(O)cc2)oc2cc(O)cc(O)c12
REMARK SMILES IDX 5 1 3 2 2 3 1 4 21 5 19 6 18 7 16 8 15 9 14 10 13 11 6 12
REMARK SMILES IDX 7 13 8 14 9 15 12 16 11 17 10 18 4 20 20 22 17 24
REMARK H PARENT 10 19 4 21 20 23 17 25
REMARK Flexibility Score: inf
ROOT
ATOM      1  C   UNL     1     -20.190  37.986  -7.014  1.00  0.00     0.180 A 
ATOM      2  C   UNL     1     -20.411  38.120  -5.632  1.00  0.00     0.208 A 
ATOM      3  C   UNL     1     -19.705  39.106  -4.923  1.00  0.00     0.238 A 
ATOM      4  O   UNL     1     -19.866  39.184  -3.677  1.00  0.00    -0.285 OA
ATOM      5  C   UNL     1     -18.802  39.955  -5.606  1.00  0.00     0.111 A 
ATOM      6  C   UNL     1     -18.065  41.014  -4.995  1.00  0.00     0.134 A 
ATOM      7  C   UNL     1     -17.103  41.705  -5.739  1.00  0.00     0.093 A 
ATOM      8  C   UNL     1     -16.898  41.421  -7.091  1.00  0.00     0.123 A 
ATOM      9  C   UNL     1     -17.654  40.430  -7.713  1.00  0.00     0.094 A 
ATOM     10  C   UNL     1     -18.596  39.698  -6.986  1.00  0.00     0.146 A 
ATOM     11  O   UNL     1     -19.288  38.754  -7.614  1.00  0.00    -0.452 OA
ENDROOT
BRANCH   1  12
ATOM     12  C   UNL     1     -20.914  36.988  -7.835  1.00  0.00     0.021 A 
ATOM     13  C   UNL     1     -20.520  35.637  -7.862  1.00  0.00     0.016 A 
ATOM     14  C   UNL     1     -21.234  34.709  -8.626  1.00  0.00     0.047 A 
ATOM     15  C   UNL     1     -22.356  35.114  -9.359  1.00  0.00     0.115 A 
ATOM     16  C   UNL     1     -22.052  37.381  -8.558  1.00  0.00     0.016 A 
ATOM     17  C   UNL     1     -22.764  36.451  -9.320  1.00  0.00     0.047 A 
BRANCH  15  18
ATOM     18  O   UNL     1     -23.074  34.197 -10.125  1.00  0.00    -0.508 OA
ATOM     19  H   UNL     1     -23.429  34.438 -11.043  1.00  0.00     0.293 HD
ENDBRANCH  15  18
ENDBRANCH   1  12
BRANCH   2  20
ATOM     20  O   UNL     1     -21.290  37.255  -4.974  1.00  0.00    -0.502 OA
ATOM     21  H   UNL     1     -22.292  37.406  -4.961  1.00  0.00     0.293 HD
ENDBRANCH   2  20
BRANCH   6  22
ATOM     22  O   UNL     1     -18.259  41.440  -3.677  1.00  0.00    -0.507 OA
ATOM     23  H   UNL     1     -17.783  42.220  -3.249  1.00  0.00     0.293 HD
ENDBRANCH   6  22
BRANCH   8  24
ATOM     24  O   UNL     1     -15.950  42.125  -7.830  1.00  0.00    -0.508 OA
ATOM     25  H   UNL     1     -15.625  43.040  -7.540  1.00  0.00     0.293 HD
ENDBRANCH   8  24
TORSDOF 5
ENDMDL
MODEL 9
REMARK VINA RESULT:    -5.044      6.183     11.638
REMARK INTER + INTRA:          -6.223
REMARK INTER:                  -5.934
REMARK INTRA:                  -0.289
REMARK UNBOUND:                -0.294
REMARK SMILES O=c1c(O)c(-c2ccc(O)cc2)oc2cc(O)cc(O)c12
REMARK SMILES IDX 5 1 3 2 2 3 1 4 21 5 19 6 18 7 16 8 15 9 14 10 13 11 6 12
REMARK SMILES IDX 7 13 8 14 9 15 12 16 11 17 10 18 4 20 20 22 17 24
REMARK H PARENT 10 19 4 21 20 23 17 25
REMARK Flexibility Score: inf
ROOT
ATOM      1  C   UNL     1     -18.687  41.056   4.479  1.00  0.00     0.180 A 
ATOM      2  C   UNL     1     -17.417  41.527   4.854  1.00  0.00     0.208 A 
ATOM      3  C   UNL     1     -17.114  41.651   6.220  1.00  0.00     0.238 A 
ATOM      4  O   UNL     1     -15.995  42.125   6.549  1.00  0.00    -0.285 OA
ATOM      5  C   UNL     1     -18.077  41.288   7.192  1.00  0.00     0.111 A 
ATOM      6  C   UNL     1     -17.863  41.335   8.602  1.00  0.00     0.134 A 
ATOM      7  C   UNL     1     -18.929  41.078   9.471  1.00  0.00     0.093 A 
ATOM      8  C   UNL     1     -20.185  40.710   8.981  1.00  0.00     0.123 A 
ATOM      9  C   UNL     1     -20.388  40.603   7.608  1.00  0.00     0.094 A 
ATOM     10  C   UNL     1     -19.353  40.889   6.714  1.00  0.00     0.146 A 
ATOM     11  O   UNL     1     -19.591  40.786   5.412  1.00  0.00    -0.452 OA
ENDROOT
BRANCH   1  12
ATOM     12  C   UNL     1     -19.072  40.874   3.060  1.00  0.00     0.021 A 
ATOM     13  C   UNL     1     -19.659  41.917   2.320  1.00  0.00     0.016 A 
ATOM     14  C   UNL     1     -19.992  41.728   0.975  1.00  0.00     0.047 A 
ATOM     15  C   UNL     1     -19.730  40.503   0.350  1.00  0.00     0.115 A 
ATOM     16  C   UNL     1     -18.795  39.655   2.419  1.00  0.00     0.016 A 
ATOM     17  C   UNL     1     -19.129  39.469   1.074  1.00  0.00     0.047 A 
BRANCH  15  18
ATOM     18  O   UNL     1     -20.059  40.304  -0.990  1.00  0.00    -0.508 OA
ATOM     19  H   UNL     1     -20.990  40.497  -1.340  1.00  0.00     0.293 HD
ENDBRANCH  15  18
ENDBRANCH   1  12
BRANCH   2  20
ATOM     20  O   UNL     1     -16.489  41.901   3.878  1.00  0.00    -0.502 OA
ATOM     21  H   UNL     1     -15.505  42.033   4.085  1.00  0.00     0.293 HD
ENDBRANCH   2  20
BRANCH   6  22
ATOM     22  O   UNL     1     -16.625  41.601   9.195  1.00  0.00    -0.507 OA
ATOM     23  H   UNL     1     -16.146  42.488   9.153  1.00  0.00     0.293 HD
ENDBRANCH   6  22
BRANCH   8  24
ATOM     24  O   UNL     1     -21.237  40.440   9.854  1.00  0.00    -0.508 OA
ATOM     25  H   UNL     1     -21.857  39.652   9.708  1.00  0.00     0.293 HD
ENDBRANCH   8  24
TORSDOF 5
ENDMDL
