MODEL 1
REMARK VINA RESULT:    -8.204      0.000      0.000
REMARK INTER + INTRA:          -8.923
REMARK INTER:                  -8.923
REMARK INTRA:                   0.000
REMARK UNBOUND:                 0.000
REMARK SMILES Cc1cc(O)c2c(c1)C(=O)c1cc(O)cc(O)c1C2=O
REMARK SMILES IDX 1 1 2 2 8 3 7 4 6 5 4 6 3 7 19 8 20 9 18 10 11 11 9 12 10 13
REMARK SMILES IDX 12 14 13 15 15 16 16 17 5 18 17 20 14 22
REMARK H PARENT 5 19 17 21 14 23
REMARK Flexibility Score: inf
ROOT
ATOM      1  C   UNL     1      41.944   4.841   1.163  1.00  0.00     0.044 C 
ATOM      2  C   UNL     1      40.546   5.025   0.650  1.00  0.00    -0.047 A 
ATOM      3  C   UNL     1      40.177   4.504  -0.596  1.00  0.00     0.016 A 
ATOM      4  C   UNL     1      38.861   4.642  -1.070  1.00  0.00     0.038 A 
ATOM      5  C   UNL     1      37.894   5.293  -0.276  1.00  0.00     0.076 A 
ATOM      6  C   UNL     1      38.267   5.807   0.987  1.00  0.00     0.127 A 
ATOM      7  C   UNL     1      39.584   5.663   1.442  1.00  0.00     0.050 A 
ATOM      8  C   UNL     1      36.498   5.396  -0.776  1.00  0.00     0.201 C 
ATOM      9  O   UNL     1      35.565   5.636   0.037  1.00  0.00    -0.288 OA
ATOM     10  C   UNL     1      36.190   5.102  -2.203  1.00  0.00     0.076 A 
ATOM     11  C   UNL     1      37.147   4.392  -2.965  1.00  0.00     0.041 A 
ATOM     12  C   UNL     1      38.484   4.101  -2.395  1.00  0.00     0.194 C 
ATOM     13  O   UNL     1      39.310   3.407  -3.050  1.00  0.00    -0.289 OA
ATOM     14  C   UNL     1      36.832   3.969  -4.269  1.00  0.00     0.059 A 
ATOM     15  C   UNL     1      35.584   4.259  -4.826  1.00  0.00     0.120 A 
ATOM     16  C   UNL     1      34.656   5.000  -4.098  1.00  0.00     0.093 A 
ATOM     17  C   UNL     1      34.953   5.455  -2.810  1.00  0.00     0.131 A 
ENDROOT
BRANCH   6  18
ATOM     18  O   UNL     1      37.337   6.468   1.791  1.00  0.00    -0.507 OA
ATOM     19  H   UNL     1      36.355   6.217   1.787  1.00  0.00     0.293 HD
ENDBRANCH   6  18
BRANCH  17  20
ATOM     20  O   UNL     1      34.010   6.281  -2.193  1.00  0.00    -0.507 OA
ATOM     21  H   UNL     1      34.088   6.607  -1.240  1.00  0.00     0.293 HD
ENDBRANCH  17  20
BRANCH  15  22
ATOM     22  O   UNL     1      35.263   3.827  -6.111  1.00  0.00    -0.508 OA
ATOM     23  H   UNL     1      34.315   3.573  -6.363  1.00  0.00     0.293 HD
ENDBRANCH  15  22
TORSDOF 3
ENDMDL
MODEL 2
REMARK VINA RESULT:    -7.599      1.347      3.644
REMARK INTER + INTRA:          -8.265
REMARK INTER:                  -8.265
REMARK INTRA:                   0.000
REMARK UNBOUND:                 0.000
REMARK SMILES Cc1cc(O)c2c(c1)C(=O)c1cc(O)cc(O)c1C2=O
REMARK SMILES IDX 1 1 2 2 8 3 7 4 6 5 4 6 3 7 19 8 20 9 18 10 11 11 9 12 10 13
REMARK SMILES IDX 12 14 13 15 15 16 16 17 5 18 17 20 14 22
REMARK H PARENT 5 19 17 21 14 23
REMARK Flexibility Score: inf
ROOT
ATOM      1  C   UNL     1      42.312   5.357   3.271  1.00  0.00     0.044 C 
ATOM      2  C   UNL     1      41.555   5.160   1.989  1.00  0.00    -0.047 A 
ATOM      3  C   UNL     1      40.235   5.613   1.874  1.00  0.00     0.016 A 
ATOM      4  C   UNL     1      39.529   5.464   0.667  1.00  0.00     0.038 A 
ATOM      5  C   UNL     1      40.160   4.870  -0.446  1.00  0.00     0.076 A 
ATOM      6  C   UNL     1      41.497   4.426  -0.329  1.00  0.00     0.127 A 
ATOM      7  C   UNL     1      42.184   4.580   0.882  1.00  0.00     0.050 A 
ATOM      8  C   UNL     1      39.412   4.756  -1.725  1.00  0.00     0.201 C 
ATOM      9  O   UNL     1      40.045   4.574  -2.800  1.00  0.00    -0.288 OA
ATOM     10  C   UNL     1      37.938   4.971  -1.752  1.00  0.00     0.076 A 
ATOM     11  C   UNL     1      37.334   5.625  -0.653  1.00  0.00     0.041 A 
ATOM     12  C   UNL     1      38.129   5.932   0.559  1.00  0.00     0.194 C 
ATOM     13  O   UNL     1      37.606   6.578   1.509  1.00  0.00    -0.289 OA
ATOM     14  C   UNL     1      35.973   5.976  -0.708  1.00  0.00     0.059 A 
ATOM     15  C   UNL     1      35.206   5.669  -1.834  1.00  0.00     0.120 A 
ATOM     16  C   UNL     1      35.784   4.983  -2.899  1.00  0.00     0.093 A 
ATOM     17  C   UNL     1      37.128   4.598  -2.861  1.00  0.00     0.131 A 
ENDROOT
BRANCH   6  18
ATOM     18  O   UNL     1      42.144   3.822  -1.409  1.00  0.00    -0.507 OA
ATOM     19  H   UNL     1      42.847   3.106  -1.275  1.00  0.00     0.293 HD
ENDBRANCH   6  18
BRANCH  17  20
ATOM     20  O   UNL     1      37.599   3.820  -3.920  1.00  0.00    -0.507 OA
ATOM     21  H   UNL     1      38.491   3.966  -4.371  1.00  0.00     0.293 HD
ENDBRANCH  17  20
BRANCH  15  22
ATOM     22  O   UNL     1      33.862   6.030  -1.898  1.00  0.00    -0.508 OA
ATOM     23  H   UNL     1      33.578   6.988  -2.068  1.00  0.00     0.293 HD
ENDBRANCH  15  22
TORSDOF 3
ENDMDL
MODEL 3
REMARK VINA RESULT:    -7.534      1.794      1.952
REMARK INTER + INTRA:          -8.195
REMARK INTER:                  -8.195
REMARK INTRA:                   0.000
REMARK UNBOUND:                 0.000
REMARK SMILES Cc1cc(O)c2c(c1)C(=O)c1cc(O)cc(O)c1C2=O
REMARK SMILES IDX 1 1 2 2 8 3 7 4 6 5 4 6 3 7 19 8 20 9 18 10 11 11 9 12 10 13
REMARK SMILES IDX 12 14 13 15 15 16 16 17 5 18 17 20 14 22
REMARK H PARENT 5 19 17 21 14 23
REMARK Flexibility Score: inf
ROOT
ATOM      1  C   UNL     1      42.554   4.519  -0.378  1.00  0.00     0.044 C 
ATOM      2  C   UNL     1      41.117   4.642  -0.794  1.00  0.00    -0.047 A 
ATOM      3  C   UNL     1      40.461   3.558  -1.390  1.00  0.00     0.016 A 
ATOM      4  C   UNL     1      39.105   3.653  -1.753  1.00  0.00     0.038 A 
ATOM      5  C   UNL     1      38.392   4.843  -1.497  1.00  0.00     0.076 A 
ATOM      6  C   UNL     1      39.056   5.930  -0.884  1.00  0.00     0.127 A 
ATOM      7  C   UNL     1      40.406   5.819  -0.532  1.00  0.00     0.050 A 
ATOM      8  C   UNL     1      36.950   4.911  -1.852  1.00  0.00     0.201 C 
ATOM      9  O   UNL     1      36.222   5.793  -1.321  1.00  0.00    -0.288 OA
ATOM     10  C   UNL     1      36.346   3.875  -2.736  1.00  0.00     0.076 A 
ATOM     11  C   UNL     1      37.049   2.663  -2.928  1.00  0.00     0.041 A 
ATOM     12  C   UNL     1      38.424   2.507  -2.396  1.00  0.00     0.194 C 
ATOM     13  O   UNL     1      39.021   1.401  -2.508  1.00  0.00    -0.289 OA
ATOM     14  C   UNL     1      36.446   1.607  -3.635  1.00  0.00     0.059 A 
ATOM     15  C   UNL     1      35.161   1.750  -4.164  1.00  0.00     0.120 A 
ATOM     16  C   UNL     1      34.483   2.959  -4.018  1.00  0.00     0.093 A 
ATOM     17  C   UNL     1      35.070   4.034  -3.344  1.00  0.00     0.131 A 
ENDROOT
BRANCH   6  18
ATOM     18  O   UNL     1      38.380   7.125  -0.630  1.00  0.00    -0.507 OA
ATOM     19  H   UNL     1      37.632   7.180   0.049  1.00  0.00     0.293 HD
ENDBRANCH   6  18
BRANCH  17  20
ATOM     20  O   UNL     1      34.368   5.241  -3.337  1.00  0.00    -0.507 OA
ATOM     21  H   UNL     1      33.569   5.424  -2.746  1.00  0.00     0.293 HD
ENDBRANCH  17  20
BRANCH  15  22
ATOM     22  O   UNL     1      34.554   0.701  -4.849  1.00  0.00    -0.508 OA
ATOM     23  H   UNL     1      33.746   0.218  -4.472  1.00  0.00     0.293 HD
ENDBRANCH  15  22
TORSDOF 3
ENDMDL
MODEL 4
REMARK VINA RESULT:    -7.477      1.066      1.102
REMARK INTER + INTRA:          -8.133
REMARK INTER:                  -8.133
REMARK INTRA:                   0.000
REMARK UNBOUND:                 0.000
REMARK SMILES Cc1cc(O)c2c(c1)C(=O)c1cc(O)cc(O)c1C2=O
REMARK SMILES IDX 1 1 2 2 8 3 7 4 6 5 4 6 3 7 19 8 20 9 18 10 11 11 9 12 10 13
REMARK SMILES IDX 12 14 13 15 15 16 16 17 5 18 17 20 14 22
REMARK H PARENT 5 19 17 21 14 23
REMARK Flexibility Score: inf
ROOT
ATOM      1  C   UNL     1      42.861   4.547  -0.033  1.00  0.00     0.044 C 
ATOM      2  C   UNL     1      41.415   4.826  -0.324  1.00  0.00    -0.047 A 
ATOM      3  C   UNL     1      40.714   4.029  -1.237  1.00  0.00     0.016 A 
ATOM      4  C   UNL     1      39.350   4.261  -1.491  1.00  0.00     0.038 A 
ATOM      5  C   UNL     1      38.674   5.294  -0.806  1.00  0.00     0.076 A 
ATOM      6  C   UNL     1      39.384   6.087   0.124  1.00  0.00     0.127 A 
ATOM      7  C   UNL     1      40.742   5.844   0.362  1.00  0.00     0.050 A 
ATOM      8  C   UNL     1      37.224   5.499  -1.058  1.00  0.00     0.201 C 
ATOM      9  O   UNL     1      36.536   6.146  -0.224  1.00  0.00    -0.288 OA
ATOM     10  C   UNL     1      36.567   4.848  -2.225  1.00  0.00     0.076 A 
ATOM     11  C   UNL     1      37.233   3.773  -2.858  1.00  0.00     0.041 A 
ATOM     12  C   UNL     1      38.620   3.423  -2.468  1.00  0.00     0.194 C 
ATOM     13  O   UNL     1      39.186   2.420  -2.985  1.00  0.00    -0.289 OA
ATOM     14  C   UNL     1      36.582   3.040  -3.867  1.00  0.00     0.059 A 
ATOM     15  C   UNL     1      35.285   3.375  -4.262  1.00  0.00     0.120 A 
ATOM     16  C   UNL     1      34.642   4.463  -3.675  1.00  0.00     0.093 A 
ATOM     17  C   UNL     1      35.276   5.226  -2.689  1.00  0.00     0.131 A 
ENDROOT
BRANCH   6  18
ATOM     18  O   UNL     1      38.747   7.125   0.807  1.00  0.00    -0.507 OA
ATOM     19  H   UNL     1      38.923   8.097   0.584  1.00  0.00     0.293 HD
ENDBRANCH   6  18
BRANCH  17  20
ATOM     20  O   UNL     1      34.605   6.362  -2.232  1.00  0.00    -0.507 OA
ATOM     21  H   UNL     1      34.970   7.301  -2.314  1.00  0.00     0.293 HD
ENDBRANCH  17  20
BRANCH  15  22
ATOM     22  O   UNL     1      34.631   2.642  -5.248  1.00  0.00    -0.508 OA
ATOM     23  H   UNL     1      33.631   2.724  -5.395  1.00  0.00     0.293 HD
ENDBRANCH  15  22
TORSDOF 3
ENDMDL
MODEL 5
REMARK VINA RESULT:    -7.464      1.888      6.167
REMARK INTER + INTRA:          -8.119
REMARK INTER:                  -8.119
REMARK INTRA:                   0.000
REMARK UNBOUND:                 0.000
REMARK SMILES Cc1cc(O)c2c(c1)C(=O)c1cc(O)cc(O)c1C2=O
REMARK SMILES IDX 1 1 2 2 8 3 7 4 6 5 4 6 3 7 19 8 20 9 18 10 11 11 9 12 10 13
REMARK SMILES IDX 12 14 13 15 15 16 16 17 5 18 17 20 14 22
REMARK H PARENT 5 19 17 21 14 23
REMARK Flexibility Score: inf
ROOT
ATOM      1  C   UNL     1      31.578   4.133  -2.434  1.00  0.00     0.044 C 
ATOM      2  C   UNL     1      33.062   3.928  -2.534  1.00  0.00    -0.047 A 
ATOM      3  C   UNL     1      33.931   4.664  -1.719  1.00  0.00     0.016 A 
ATOM      4  C   UNL     1      35.320   4.455  -1.780  1.00  0.00     0.038 A 
ATOM      5  C   UNL     1      35.846   3.481  -2.655  1.00  0.00     0.076 A 
ATOM      6  C   UNL     1      34.963   2.731  -3.466  1.00  0.00     0.127 A 
ATOM      7  C   UNL     1      33.583   2.955  -3.394  1.00  0.00     0.050 A 
ATOM      8  C   UNL     1      37.313   3.246  -2.678  1.00  0.00     0.201 C 
ATOM      9  O   UNL     1      37.761   2.171  -3.160  1.00  0.00    -0.288 OA
ATOM     10  C   UNL     1      38.238   4.220  -2.033  1.00  0.00     0.076 A 
ATOM     11  C   UNL     1      37.700   5.147  -1.111  1.00  0.00     0.041 A 
ATOM     12  C   UNL     1      36.232   5.248  -0.926  1.00  0.00     0.194 C 
ATOM     13  O   UNL     1      35.759   6.027  -0.052  1.00  0.00    -0.289 OA
ATOM     14  C   UNL     1      38.559   5.982  -0.374  1.00  0.00     0.059 A 
ATOM     15  C   UNL     1      39.942   5.915  -0.557  1.00  0.00     0.120 A 
ATOM     16  C   UNL     1      40.474   5.037  -1.498  1.00  0.00     0.093 A 
ATOM     17  C   UNL     1      39.641   4.215  -2.264  1.00  0.00     0.131 A 
ENDROOT
BRANCH   6  18
ATOM     18  O   UNL     1      35.453   1.769  -4.352  1.00  0.00    -0.507 OA
ATOM     19  H   UNL     1      34.887   1.403  -5.107  1.00  0.00     0.293 HD
ENDBRANCH   6  18
BRANCH  17  20
ATOM     20  O   UNL     1      40.246   3.444  -3.259  1.00  0.00    -0.507 OA
ATOM     21  H   UNL     1      40.273   2.434  -3.250  1.00  0.00     0.293 HD
ENDBRANCH  17  20
BRANCH  15  22
ATOM     22  O   UNL     1      40.797   6.728   0.183  1.00  0.00    -0.508 OA
ATOM     23  H   UNL     1      41.001   7.680  -0.100  1.00  0.00     0.293 HD
ENDBRANCH  15  22
TORSDOF 3
ENDMDL
MODEL 6
REMARK VINA RESULT:    -7.437      4.377      6.641
REMARK INTER + INTRA:          -8.089
REMARK INTER:                  -8.089
REMARK INTRA:                   0.000
REMARK UNBOUND:                 0.000
REMARK SMILES Cc1cc(O)c2c(c1)C(=O)c1cc(O)cc(O)c1C2=O
REMARK SMILES IDX 1 1 2 2 8 3 7 4 6 5 4 6 3 7 19 8 20 9 18 10 11 11 9 12 10 13
REMARK SMILES IDX 12 14 13 15 15 16 16 17 5 18 17 20 14 22
REMARK H PARENT 5 19 17 21 14 23
REMARK Flexibility Score: inf
ROOT
ATOM      1  C   UNL     1      36.023  -4.510  -4.124  1.00  0.00     0.044 C 
ATOM      2  C   UNL     1      36.488  -3.106  -3.865  1.00  0.00    -0.047 A 
ATOM      3  C   UNL     1      35.599  -2.033  -4.005  1.00  0.00     0.016 A 
ATOM      4  C   UNL     1      36.016  -0.717  -3.732  1.00  0.00     0.038 A 
ATOM      5  C   UNL     1      37.335  -0.476  -3.293  1.00  0.00     0.076 A 
ATOM      6  C   UNL     1      38.224  -1.564  -3.142  1.00  0.00     0.127 A 
ATOM      7  C   UNL     1      37.793  -2.867  -3.421  1.00  0.00     0.050 A 
ATOM      8  C   UNL     1      37.746   0.916  -2.972  1.00  0.00     0.201 C 
ATOM      9  O   UNL     1      38.764   1.111  -2.255  1.00  0.00    -0.288 OA
ATOM     10  C   UNL     1      36.897   2.064  -3.396  1.00  0.00     0.076 A 
ATOM     11  C   UNL     1      35.558   1.808  -3.771  1.00  0.00     0.041 A 
ATOM     12  C   UNL     1      35.074   0.412  -3.896  1.00  0.00     0.194 C 
ATOM     13  O   UNL     1      33.861   0.188  -4.162  1.00  0.00    -0.289 OA
ATOM     14  C   UNL     1      34.686   2.880  -4.035  1.00  0.00     0.059 A 
ATOM     15  C   UNL     1      35.137   4.199  -3.946  1.00  0.00     0.120 A 
ATOM     16  C   UNL     1      36.467   4.456  -3.624  1.00  0.00     0.093 A 
ATOM     17  C   UNL     1      37.362   3.409  -3.382  1.00  0.00     0.131 A 
ENDROOT
BRANCH   6  18
ATOM     18  O   UNL     1      39.540  -1.356  -2.723  1.00  0.00    -0.507 OA
ATOM     19  H   UNL     1      40.323  -1.458  -3.357  1.00  0.00     0.293 HD
ENDBRANCH   6  18
BRANCH  17  20
ATOM     20  O   UNL     1      38.700   3.749  -3.173  1.00  0.00    -0.507 OA
ATOM     21  H   UNL     1      39.182   3.621  -2.294  1.00  0.00     0.293 HD
ENDBRANCH  17  20
BRANCH  15  22
ATOM     22  O   UNL     1      34.272   5.263  -4.190  1.00  0.00    -0.508 OA
ATOM     23  H   UNL     1      34.043   5.937  -3.468  1.00  0.00     0.293 HD
ENDBRANCH  15  22
TORSDOF 3
ENDMDL
MODEL 7
REMARK VINA RESULT:    -7.350      4.720      6.317
REMARK INTER + INTRA:          -7.995
REMARK INTER:                  -7.995
REMARK INTRA:                   0.000
REMARK UNBOUND:                 0.000
REMARK SMILES Cc1cc(O)c2c(c1)C(=O)c1cc(O)cc(O)c1C2=O
REMARK SMILES IDX 1 1 2 2 8 3 7 4 6 5 4 6 3 7 19 8 20 9 18 10 11 11 9 12 10 13
REMARK SMILES IDX 12 14 13 15 15 16 16 17 5 18 17 20 14 22
REMARK H PARENT 5 19 17 21 14 23
REMARK Flexibility Score: inf
ROOT
ATOM      1  C   UNL     1      38.982   4.652  -2.233  1.00  0.00     0.044 C 
ATOM      2  C   UNL     1      38.046   3.587  -2.727  1.00  0.00    -0.047 A 
ATOM      3  C   UNL     1      38.379   2.235  -2.583  1.00  0.00     0.016 A 
ATOM      4  C   UNL     1      37.493   1.229  -3.011  1.00  0.00     0.038 A 
ATOM      5  C   UNL     1      36.249   1.583  -3.574  1.00  0.00     0.076 A 
ATOM      6  C   UNL     1      35.912   2.950  -3.705  1.00  0.00     0.127 A 
ATOM      7  C   UNL     1      36.807   3.938  -3.276  1.00  0.00     0.050 A 
ATOM      8  C   UNL     1      35.310   0.508  -3.985  1.00  0.00     0.201 C 
ATOM      9  O   UNL     1      34.089   0.778  -4.143  1.00  0.00    -0.288 OA
ATOM     10  C   UNL     1      35.785  -0.900  -4.095  1.00  0.00     0.076 A 
ATOM     11  C   UNL     1      37.005  -1.249  -3.471  1.00  0.00     0.041 A 
ATOM     12  C   UNL     1      37.860  -0.197  -2.869  1.00  0.00     0.194 C 
ATOM     13  O   UNL     1      38.912  -0.519  -2.251  1.00  0.00    -0.289 OA
ATOM     14  C   UNL     1      37.412  -2.594  -3.428  1.00  0.00     0.059 A 
ATOM     15  C   UNL     1      36.628  -3.591  -4.014  1.00  0.00     0.120 A 
ATOM     16  C   UNL     1      35.449  -3.247  -4.672  1.00  0.00     0.093 A 
ATOM     17  C   UNL     1      35.035  -1.914  -4.753  1.00  0.00     0.131 A 
ENDROOT
BRANCH   6  18
ATOM     18  O   UNL     1      34.694   3.332  -4.270  1.00  0.00    -0.507 OA
ATOM     19  H   UNL     1      34.214   4.176  -3.981  1.00  0.00     0.293 HD
ENDBRANCH   6  18
BRANCH  17  20
ATOM     20  O   UNL     1      33.901  -1.645  -5.522  1.00  0.00    -0.507 OA
ATOM     21  H   UNL     1      33.020  -2.129  -5.414  1.00  0.00     0.293 HD
ENDBRANCH  17  20
BRANCH  15  22
ATOM     22  O   UNL     1      37.019  -4.926  -3.959  1.00  0.00    -0.508 OA
ATOM     23  H   UNL     1      36.437  -5.666  -4.335  1.00  0.00     0.293 HD
ENDBRANCH  15  22
TORSDOF 3
ENDMDL
MODEL 8
REMARK VINA RESULT:    -7.294      2.566      5.728
REMARK INTER + INTRA:          -7.933
REMARK INTER:                  -7.933
REMARK INTRA:                   0.000
REMARK UNBOUND:                 0.000
REMARK SMILES Cc1cc(O)c2c(c1)C(=O)c1cc(O)cc(O)c1C2=O
REMARK SMILES IDX 1 1 2 2 8 3 7 4 6 5 4 6 3 7 19 8 20 9 18 10 11 11 9 12 10 13
REMARK SMILES IDX 12 14 13 15 15 16 16 17 5 18 17 20 14 22
REMARK H PARENT 5 19 17 21 14 23
REMARK Flexibility Score: inf
ROOT
ATOM      1  C   UNL     1      34.870  -0.709  -4.202  1.00  0.00     0.044 C 
ATOM      2  C   UNL     1      35.458   0.603  -3.770  1.00  0.00    -0.047 A 
ATOM      3  C   UNL     1      36.798   0.678  -3.369  1.00  0.00     0.016 A 
ATOM      4  C   UNL     1      37.367   1.908  -2.995  1.00  0.00     0.038 A 
ATOM      5  C   UNL     1      36.589   3.084  -3.043  1.00  0.00     0.076 A 
ATOM      6  C   UNL     1      35.241   3.006  -3.461  1.00  0.00     0.127 A 
ATOM      7  C   UNL     1      34.690   1.772  -3.827  1.00  0.00     0.050 A 
ATOM      8  C   UNL     1      37.218   4.382  -2.682  1.00  0.00     0.201 C 
ATOM      9  O   UNL     1      36.676   5.458  -3.054  1.00  0.00    -0.288 OA
ATOM     10  C   UNL     1      38.536   4.408  -1.989  1.00  0.00     0.076 A 
ATOM     11  C   UNL     1      39.328   3.237  -2.007  1.00  0.00     0.041 A 
ATOM     12  C   UNL     1      38.779   1.975  -2.558  1.00  0.00     0.194 C 
ATOM     13  O   UNL     1      39.512   0.950  -2.637  1.00  0.00    -0.289 OA
ATOM     14  C   UNL     1      40.637   3.267  -1.492  1.00  0.00     0.059 A 
ATOM     15  C   UNL     1      41.157   4.443  -0.946  1.00  0.00     0.120 A 
ATOM     16  C   UNL     1      40.364   5.586  -0.882  1.00  0.00     0.093 A 
ATOM     17  C   UNL     1      39.051   5.577  -1.362  1.00  0.00     0.131 A 
ENDROOT
BRANCH   6  18
ATOM     18  O   UNL     1      34.442   4.150  -3.506  1.00  0.00    -0.507 OA
ATOM     19  H   UNL     1      34.217   4.609  -4.380  1.00  0.00     0.293 HD
ENDBRANCH   6  18
BRANCH  17  20
ATOM     20  O   UNL     1      38.291   6.731  -1.162  1.00  0.00    -0.507 OA
ATOM     21  H   UNL     1      37.723   6.894  -0.342  1.00  0.00     0.293 HD
ENDBRANCH  17  20
BRANCH  15  22
ATOM     22  O   UNL     1      42.458   4.480  -0.451  1.00  0.00    -0.508 OA
ATOM     23  H   UNL     1      43.011   5.330  -0.476  1.00  0.00     0.293 HD
ENDBRANCH  15  22
TORSDOF 3
ENDMDL
MODEL 9
REMARK VINA RESULT:    -7.222      3.536      6.109
REMARK INTER + INTRA:          -7.855
REMARK INTER:                  -7.855
REMARK INTRA:                   0.000
REMARK UNBOUND:                 0.000
REMARK SMILES Cc1cc(O)c2c(c1)C(=O)c1cc(O)cc(O)c1C2=O
REMARK SMILES IDX 1 1 2 2 8 3 7 4 6 5 4 6 3 7 19 8 20 9 18 10 11 11 9 12 10 13
REMARK SMILES IDX 12 14 13 15 15 16 16 17 5 18 17 20 14 22
REMARK H PARENT 5 19 17 21 14 23
REMARK Flexibility Score: inf
ROOT
ATOM      1  C   UNL     1      37.139  -3.309  -3.566  1.00  0.00     0.044 C 
ATOM      2  C   UNL     1      36.653  -1.901  -3.755  1.00  0.00    -0.047 A 
ATOM      3  C   UNL     1      37.347  -0.832  -3.176  1.00  0.00     0.016 A 
ATOM      4  C   UNL     1      36.919   0.493  -3.375  1.00  0.00     0.038 A 
ATOM      5  C   UNL     1      35.791   0.751  -4.182  1.00  0.00     0.076 A 
ATOM      6  C   UNL     1      35.101  -0.331  -4.774  1.00  0.00     0.127 A 
ATOM      7  C   UNL     1      35.540  -1.643  -4.562  1.00  0.00     0.050 A 
ATOM      8  C   UNL     1      35.376   2.159  -4.413  1.00  0.00     0.201 C 
ATOM      9  O   UNL     1      34.625   2.432  -5.388  1.00  0.00    -0.288 OA
ATOM     10  C   UNL     1      35.936   3.254  -3.571  1.00  0.00     0.076 A 
ATOM     11  C   UNL     1      37.104   2.992  -2.819  1.00  0.00     0.041 A 
ATOM     12  C   UNL     1      37.650   1.615  -2.747  1.00  0.00     0.194 C 
ATOM     13  O   UNL     1      38.732   1.398  -2.133  1.00  0.00    -0.289 OA
ATOM     14  C   UNL     1      37.743   4.038  -2.129  1.00  0.00     0.059 A 
ATOM     15  C   UNL     1      37.224   5.334  -2.168  1.00  0.00     0.120 A 
ATOM     16  C   UNL     1      36.047   5.587  -2.868  1.00  0.00     0.093 A 
ATOM     17  C   UNL     1      35.376   4.561  -3.540  1.00  0.00     0.131 A 
ENDROOT
BRANCH   6  18
ATOM     18  O   UNL     1      33.973  -0.108  -5.567  1.00  0.00    -0.507 OA
ATOM     19  H   UNL     1      33.889  -0.500  -6.497  1.00  0.00     0.293 HD
ENDBRANCH   6  18
BRANCH  17  20
ATOM     20  O   UNL     1      34.149   4.878  -4.125  1.00  0.00    -0.507 OA
ATOM     21  H   UNL     1      33.407   4.208  -4.273  1.00  0.00     0.293 HD
ENDBRANCH  17  20
BRANCH  15  22
ATOM     22  O   UNL     1      37.864   6.375  -1.500  1.00  0.00    -0.508 OA
ATOM     23  H   UNL     1      37.853   6.443  -0.488  1.00  0.00     0.293 HD
ENDBRANCH  15  22
TORSDOF 3
ENDMDL
