MODEL 1
REMARK VINA RESULT:    -5.157      0.000      0.000
REMARK INTER + INTRA:          -5.157
REMARK INTER:                  -5.157
REMARK INTRA:                   0.000
REMARK UNBOUND:                 0.000
REMARK SMILES O=c1ccc2ccc3occc3c2o1
REMARK SMILES IDX 6 1 7 2 8 3 12 4 11 5 10 6 9 7 13 8 5 9 4 10 3 11 2 12 1 13
REMARK SMILES IDX 14 14
REMARK H PARENT
REMARK Flexibility Score: inf
ROOT
ATOM      1  C   UNL     1      18.827 -44.001   7.960  1.00  0.00     0.016 A 
ATOM      2  C   UNL     1      18.447 -45.176   7.282  1.00  0.00     0.048 A 
ATOM      3  C   UNL     1      19.454 -45.974   6.741  1.00  0.00     0.137 A 
ATOM      4  C   UNL     1      20.778 -45.646   6.854  1.00  0.00     0.064 A 
ATOM      5  C   UNL     1      21.492 -46.635   6.218  1.00  0.00     0.054 A 
ATOM      6  C   UNL     1      20.524 -47.519   5.750  1.00  0.00     0.196 A 
ATOM      7  O   UNL     1      19.316 -47.096   6.078  1.00  0.00    -0.464 OA
ATOM      8  C   UNL     1      21.193 -44.493   7.518  1.00  0.00     0.149 A 
ATOM      9  C   UNL     1      20.195 -43.657   8.081  1.00  0.00     0.018 A 
ATOM     10  C   UNL     1      20.606 -42.499   8.747  1.00  0.00     0.019 A 
ATOM     11  C   UNL     1      21.968 -42.207   8.837  1.00  0.00     0.094 A 
ATOM     12  C   UNL     1      22.894 -43.082   8.256  1.00  0.00     0.336 A 
ATOM     13  O   UNL     1      24.125 -42.832   8.330  1.00  0.00    -0.246 OA
ATOM     14  O   UNL     1      22.482 -44.180   7.626  1.00  0.00    -0.422 OA
ENDROOT
TORSDOF 0
ENDMDL
MODEL 2
REMARK VINA RESULT:    -5.002      1.931      4.800
REMARK INTER + INTRA:          -5.002
REMARK INTER:                  -5.002
REMARK INTRA:                   0.000
REMARK UNBOUND:                 0.000
REMARK SMILES O=c1ccc2ccc3occc3c2o1
REMARK SMILES IDX 6 1 7 2 8 3 12 4 11 5 10 6 9 7 13 8 5 9 4 10 3 11 2 12 1 13
REMARK SMILES IDX 14 14
REMARK H PARENT
REMARK Flexibility Score: inf
ROOT
ATOM      1  C   UNL     1      20.998 -46.757   7.378  1.00  0.00     0.016 A 
ATOM      2  C   UNL     1      22.088 -45.865   7.376  1.00  0.00     0.048 A 
ATOM      3  C   UNL     1      21.839 -44.525   7.668  1.00  0.00     0.137 A 
ATOM      4  C   UNL     1      20.580 -44.068   7.951  1.00  0.00     0.064 A 
ATOM      5  C   UNL     1      20.689 -42.717   8.190  1.00  0.00     0.054 A 
ATOM      6  C   UNL     1      22.044 -42.442   8.029  1.00  0.00     0.196 A 
ATOM      7  O   UNL     1      22.704 -43.542   7.717  1.00  0.00    -0.464 OA
ATOM      8  C   UNL     1      19.477 -44.919   7.964  1.00  0.00     0.149 A 
ATOM      9  C   UNL     1      19.694 -46.289   7.671  1.00  0.00     0.018 A 
ATOM     10  C   UNL     1      18.591 -47.147   7.682  1.00  0.00     0.019 A 
ATOM     11  C   UNL     1      17.327 -46.634   7.977  1.00  0.00     0.094 A 
ATOM     12  C   UNL     1      17.192 -45.268   8.257  1.00  0.00     0.336 A 
ATOM     13  O   UNL     1      16.059 -44.792   8.525  1.00  0.00    -0.246 OA
ATOM     14  O   UNL     1      18.256 -44.469   8.241  1.00  0.00    -0.422 OA
ENDROOT
TORSDOF 0
ENDMDL
MODEL 3
REMARK VINA RESULT:    -4.927      1.291      4.300
REMARK INTER + INTRA:          -4.927
REMARK INTER:                  -4.927
REMARK INTRA:                   0.000
REMARK UNBOUND:                 0.000
REMARK SMILES O=c1ccc2ccc3occc3c2o1
REMARK SMILES IDX 6 1 7 2 8 3 12 4 11 5 10 6 9 7 13 8 5 9 4 10 3 11 2 12 1 13
REMARK SMILES IDX 14 14
REMARK H PARENT
REMARK Flexibility Score: inf
ROOT
ATOM      1  C   UNL     1      19.601 -43.383   7.582  1.00  0.00     0.016 A 
ATOM      2  C   UNL     1      20.526 -42.466   8.119  1.00  0.00     0.048 A 
ATOM      3  C   UNL     1      21.870 -42.835   8.154  1.00  0.00     0.137 A 
ATOM      4  C   UNL     1      22.300 -44.048   7.687  1.00  0.00     0.064 A 
ATOM      5  C   UNL     1      23.663 -44.087   7.869  1.00  0.00     0.054 A 
ATOM      6  C   UNL     1      23.973 -42.862   8.451  1.00  0.00     0.196 A 
ATOM      7  O   UNL     1      22.880 -42.136   8.609  1.00  0.00    -0.464 OA
ATOM      8  C   UNL     1      21.417 -44.981   7.149  1.00  0.00     0.149 A 
ATOM      9  C   UNL     1      20.041 -44.639   7.097  1.00  0.00     0.018 A 
ATOM     10  C   UNL     1      19.150 -45.571   6.558  1.00  0.00     0.019 A 
ATOM     11  C   UNL     1      19.637 -46.794   6.094  1.00  0.00     0.094 A 
ATOM     12  C   UNL     1      21.010 -47.060   6.178  1.00  0.00     0.336 A 
ATOM     13  O   UNL     1      21.463 -48.158   5.763  1.00  0.00    -0.246 OA
ATOM     14  O   UNL     1      21.841 -46.158   6.695  1.00  0.00    -0.422 OA
ENDROOT
TORSDOF 0
ENDMDL
MODEL 4
REMARK VINA RESULT:    -4.855      1.660      1.745
REMARK INTER + INTRA:          -4.855
REMARK INTER:                  -4.855
REMARK INTRA:                   0.000
REMARK UNBOUND:                 0.000
REMARK SMILES O=c1ccc2ccc3occc3c2o1
REMARK SMILES IDX 6 1 7 2 8 3 12 4 11 5 10 6 9 7 13 8 5 9 4 10 3 11 2 12 1 13
REMARK SMILES IDX 14 14
REMARK H PARENT
REMARK Flexibility Score: inf
ROOT
ATOM      1  C   UNL     1      18.901 -43.733   7.378  1.00  0.00     0.016 A 
ATOM      2  C   UNL     1      18.153 -44.914   7.549  1.00  0.00     0.048 A 
ATOM      3  C   UNL     1      18.776 -46.004   8.155  1.00  0.00     0.137 A 
ATOM      4  C   UNL     1      20.077 -45.951   8.578  1.00  0.00     0.064 A 
ATOM      5  C   UNL     1      20.371 -47.180   9.122  1.00  0.00     0.054 A 
ATOM      6  C   UNL     1      19.197 -47.913   8.987  1.00  0.00     0.196 A 
ATOM      7  O   UNL     1      18.262 -47.183   8.404  1.00  0.00    -0.464 OA
ATOM      8  C   UNL     1      20.850 -44.802   8.427  1.00  0.00     0.149 A 
ATOM      9  C   UNL     1      20.247 -43.673   7.815  1.00  0.00     0.018 A 
ATOM     10  C   UNL     1      21.018 -42.518   7.661  1.00  0.00     0.019 A 
ATOM     11  C   UNL     1      22.340 -42.512   8.109  1.00  0.00     0.094 A 
ATOM     12  C   UNL     1      22.865 -43.665   8.705  1.00  0.00     0.336 A 
ATOM     13  O   UNL     1      24.055 -43.674   9.114  1.00  0.00    -0.246 OA
ATOM     14  O   UNL     1      22.113 -44.755   8.842  1.00  0.00    -0.422 OA
ENDROOT
TORSDOF 0
ENDMDL
MODEL 5
REMARK VINA RESULT:    -4.847      2.189      3.264
REMARK INTER + INTRA:          -4.847
REMARK INTER:                  -4.847
REMARK INTRA:                   0.000
REMARK UNBOUND:                 0.000
REMARK SMILES O=c1ccc2ccc3occc3c2o1
REMARK SMILES IDX 6 1 7 2 8 3 12 4 11 5 10 6 9 7 13 8 5 9 4 10 3 11 2 12 1 13
REMARK SMILES IDX 14 14
REMARK H PARENT
REMARK Flexibility Score: inf
ROOT
ATOM      1  C   UNL     1      18.207 -47.991   7.129  1.00  0.00     0.016 A 
ATOM      2  C   UNL     1      19.005 -48.987   6.533  1.00  0.00     0.048 A 
ATOM      3  C   UNL     1      20.236 -48.608   6.000  1.00  0.00     0.137 A 
ATOM      4  C   UNL     1      20.676 -47.313   6.044  1.00  0.00     0.064 A 
ATOM      5  C   UNL     1      21.911 -47.288   5.438  1.00  0.00     0.054 A 
ATOM      6  C   UNL     1      22.140 -48.607   5.057  1.00  0.00     0.196 A 
ATOM      7  O   UNL     1      21.120 -49.372   5.406  1.00  0.00    -0.464 OA
ATOM      8  C   UNL     1      19.917 -46.300   6.626  1.00  0.00     0.149 A 
ATOM      9  C   UNL     1      18.658 -46.650   7.178  1.00  0.00     0.018 A 
ATOM     10  C   UNL     1      17.891 -45.638   7.762  1.00  0.00     0.019 A 
ATOM     11  C   UNL     1      18.383 -44.332   7.784  1.00  0.00     0.094 A 
ATOM     12  C   UNL     1      19.636 -44.064   7.218  1.00  0.00     0.336 A 
ATOM     13  O   UNL     1      20.093 -42.892   7.231  1.00  0.00    -0.246 OA
ATOM     14  O   UNL     1      20.350 -45.043   6.667  1.00  0.00    -0.422 OA
ENDROOT
TORSDOF 0
ENDMDL
MODEL 6
REMARK VINA RESULT:    -4.544      1.891      3.010
REMARK INTER + INTRA:          -4.544
REMARK INTER:                  -4.544
REMARK INTRA:                   0.000
REMARK UNBOUND:                 0.000
REMARK SMILES O=c1ccc2ccc3occc3c2o1
REMARK SMILES IDX 6 1 7 2 8 3 12 4 11 5 10 6 9 7 13 8 5 9 4 10 3 11 2 12 1 13
REMARK SMILES IDX 14 14
REMARK H PARENT
REMARK Flexibility Score: inf
ROOT
ATOM      1  C   UNL     1      21.285 -42.678   8.214  1.00  0.00     0.016 A 
ATOM      2  C   UNL     1      19.888 -42.770   8.366  1.00  0.00     0.048 A 
ATOM      3  C   UNL     1      19.285 -44.008   8.148  1.00  0.00     0.137 A 
ATOM      4  C   UNL     1      20.010 -45.115   7.796  1.00  0.00     0.064 A 
ATOM      5  C   UNL     1      19.118 -46.153   7.662  1.00  0.00     0.054 A 
ATOM      6  C   UNL     1      17.879 -45.588   7.949  1.00  0.00     0.196 A 
ATOM      7  O   UNL     1      18.012 -44.305   8.235  1.00  0.00    -0.464 OA
ATOM      8  C   UNL     1      21.393 -45.064   7.637  1.00  0.00     0.149 A 
ATOM      9  C   UNL     1      22.040 -43.820   7.851  1.00  0.00     0.018 A 
ATOM     10  C   UNL     1      23.427 -43.763   7.692  1.00  0.00     0.019 A 
ATOM     11  C   UNL     1      24.124 -44.919   7.333  1.00  0.00     0.094 A 
ATOM     12  C   UNL     1      23.415 -46.111   7.140  1.00  0.00     0.336 A 
ATOM     13  O   UNL     1      24.029 -47.161   6.817  1.00  0.00    -0.246 OA
ATOM     14  O   UNL     1      22.094 -46.143   7.296  1.00  0.00    -0.422 OA
ENDROOT
TORSDOF 0
ENDMDL
MODEL 7
REMARK VINA RESULT:    -4.513      3.206      4.377
REMARK INTER + INTRA:          -4.513
REMARK INTER:                  -4.513
REMARK INTRA:                   0.000
REMARK UNBOUND:                 0.000
REMARK SMILES O=c1ccc2ccc3occc3c2o1
REMARK SMILES IDX 6 1 7 2 8 3 12 4 11 5 10 6 9 7 13 8 5 9 4 10 3 11 2 12 1 13
REMARK SMILES IDX 14 14
REMARK H PARENT
REMARK Flexibility Score: inf
ROOT
ATOM      1  C   UNL     1      20.811 -46.856   5.690  1.00  0.00     0.016 A 
ATOM      2  C   UNL     1      21.018 -48.245   5.794  1.00  0.00     0.048 A 
ATOM      3  C   UNL     1      20.174 -48.972   6.632  1.00  0.00     0.137 A 
ATOM      4  C   UNL     1      19.167 -48.375   7.341  1.00  0.00     0.064 A 
ATOM      5  C   UNL     1      18.536 -49.367   8.055  1.00  0.00     0.054 A 
ATOM      6  C   UNL     1      19.223 -50.530   7.720  1.00  0.00     0.196 A 
ATOM      7  O   UNL     1      20.197 -50.261   6.868  1.00  0.00    -0.464 OA
ATOM      8  C   UNL     1      18.930 -47.004   7.263  1.00  0.00     0.149 A 
ATOM      9  C   UNL     1      19.770 -46.233   6.420  1.00  0.00     0.018 A 
ATOM     10  C   UNL     1      19.538 -44.857   6.340  1.00  0.00     0.019 A 
ATOM     11  C   UNL     1      18.498 -44.293   7.081  1.00  0.00     0.094 A 
ATOM     12  C   UNL     1      17.710 -45.121   7.891  1.00  0.00     0.336 A 
ATOM     13  O   UNL     1      16.769 -44.627   8.565  1.00  0.00    -0.246 OA
ATOM     14  O   UNL     1      17.949 -46.429   7.954  1.00  0.00    -0.422 OA
ENDROOT
TORSDOF 0
ENDMDL
MODEL 8
REMARK VINA RESULT:    -4.329      1.348      2.793
REMARK INTER + INTRA:          -4.329
REMARK INTER:                  -4.329
REMARK INTRA:                   0.000
REMARK UNBOUND:                 0.000
REMARK SMILES O=c1ccc2ccc3occc3c2o1
REMARK SMILES IDX 6 1 7 2 8 3 12 4 11 5 10 6 9 7 13 8 5 9 4 10 3 11 2 12 1 13
REMARK SMILES IDX 14 14
REMARK H PARENT
REMARK Flexibility Score: inf
ROOT
ATOM      1  C   UNL     1      21.337 -47.106   6.945  1.00  0.00     0.016 A 
ATOM      2  C   UNL     1      19.954 -47.359   7.027  1.00  0.00     0.048 A 
ATOM      3  C   UNL     1      19.122 -46.325   7.451  1.00  0.00     0.137 A 
ATOM      4  C   UNL     1      19.613 -45.091   7.784  1.00  0.00     0.064 A 
ATOM      5  C   UNL     1      18.537 -44.318   8.153  1.00  0.00     0.054 A 
ATOM      6  C   UNL     1      17.438 -45.160   8.016  1.00  0.00     0.196 A 
ATOM      7  O   UNL     1      17.820 -46.352   7.595  1.00  0.00    -0.464 OA
ATOM      8  C   UNL     1      20.974 -44.802   7.716  1.00  0.00     0.149 A 
ATOM      9  C   UNL     1      21.850 -45.832   7.288  1.00  0.00     0.018 A 
ATOM     10  C   UNL     1      23.217 -45.547   7.219  1.00  0.00     0.019 A 
ATOM     11  C   UNL     1      23.670 -44.273   7.568  1.00  0.00     0.094 A 
ATOM     12  C   UNL     1      22.743 -43.308   7.980  1.00  0.00     0.336 A 
ATOM     13  O   UNL     1      23.137 -42.156   8.297  1.00  0.00    -0.246 OA
ATOM     14  O   UNL     1      21.446 -43.600   8.039  1.00  0.00    -0.422 OA
ENDROOT
TORSDOF 0
ENDMDL
MODEL 9
REMARK VINA RESULT:    -2.847      1.801      4.378
REMARK INTER + INTRA:          -2.847
REMARK INTER:                  -2.847
REMARK INTRA:                   0.000
REMARK UNBOUND:                 0.000
REMARK SMILES O=c1ccc2ccc3occc3c2o1
REMARK SMILES IDX 6 1 7 2 8 3 12 4 11 5 10 6 9 7 13 8 5 9 4 10 3 11 2 12 1 13
REMARK SMILES IDX 14 14
REMARK H PARENT
REMARK Flexibility Score: inf
ROOT
ATOM      1  C   UNL     1      19.876 -43.070   7.464  1.00  0.00     0.016 A 
ATOM      2  C   UNL     1      21.223 -42.719   7.678  1.00  0.00     0.048 A 
ATOM      3  C   UNL     1      22.066 -43.672   8.248  1.00  0.00     0.137 A 
ATOM      4  C   UNL     1      21.619 -44.917   8.598  1.00  0.00     0.064 A 
ATOM      5  C   UNL     1      22.695 -45.595   9.125  1.00  0.00     0.054 A 
ATOM      6  C   UNL     1      23.748 -44.689   9.057  1.00  0.00     0.196 A 
ATOM      7  O   UNL     1      23.341 -43.548   8.529  1.00  0.00    -0.464 OA
ATOM      8  C   UNL     1      20.295 -45.302   8.402  1.00  0.00     0.149 A 
ATOM      9  C   UNL     1      19.409 -44.358   7.824  1.00  0.00     0.018 A 
ATOM     10  C   UNL     1      18.079 -44.738   7.626  1.00  0.00     0.019 A 
ATOM     11  C   UNL     1      17.670 -46.020   7.998  1.00  0.00     0.094 A 
ATOM     12  C   UNL     1      18.604 -46.897   8.563  1.00  0.00     0.336 A 
ATOM     13  O   UNL     1      18.251 -48.056   8.903  1.00  0.00    -0.246 OA
ATOM     14  O   UNL     1      19.866 -46.515   8.743  1.00  0.00    -0.422 OA
ENDROOT
TORSDOF 0
ENDMDL
