MODEL 1
REMARK VINA RESULT:    -4.045      0.000      0.000
REMARK INTER + INTRA:          -5.897
REMARK INTER:                  -5.700
REMARK INTRA:                  -0.197
REMARK UNBOUND:                -0.197
REMARK SMILES C=CCCCCCCC(=O)[O-]
REMARK SMILES IDX 6 1 7 2 8 3 9 4 10 5 11 6 5 7 4 8 3 9 2 10 1 11
REMARK H PARENT
REMARK Flexibility Score: inf
ROOT
ATOM      1  C   UNL     1      46.599  26.388   4.858  1.00  0.00     0.000 C 
ENDROOT
BRANCH   1   2
ATOM      2  C   UNL     1      46.375  27.237   6.121  1.00  0.00     0.006 C 
BRANCH   2   3
ATOM      3  C   UNL     1      46.566  26.422   7.407  1.00  0.00     0.053 C 
BRANCH   3   4
ATOM      4  C   UNL     1      45.706  26.932   8.523  1.00  0.00     0.041 C 
ATOM      5  O   UNL     1      45.317  28.129   8.528  1.00  0.00    -0.550 OA
ATOM      6  O   UNL     1      45.310  26.075   9.543  1.00  0.00    -0.550 OA
ENDBRANCH   3   4
ENDBRANCH   2   3
ENDBRANCH   1   2
BRANCH   1   7
ATOM      7  C   UNL     1      45.306  26.171   4.055  1.00  0.00     0.000 C 
BRANCH   7   8
ATOM      8  C   UNL     1      45.004  27.330   3.093  1.00  0.00     0.004 C 
BRANCH   8   9
ATOM      9  C   UNL     1      43.734  27.050   2.280  1.00  0.00     0.027 C 
BRANCH   9  10
ATOM     10  C   UNL     1      42.804  28.231   2.298  1.00  0.00    -0.035 C 
ATOM     11  C   UNL     1      41.505  28.099   2.586  1.00  0.00     0.004 C 
ENDBRANCH   9  10
ENDBRANCH   8   9
ENDBRANCH   7   8
ENDBRANCH   1   7
TORSDOF 7
ENDMDL
MODEL 2
REMARK VINA RESULT:    -3.946      0.976      1.486
REMARK INTER + INTRA:          -5.758
REMARK INTER:                  -5.385
REMARK INTRA:                  -0.374
REMARK UNBOUND:                -0.197
REMARK SMILES C=CCCCCCCC(=O)[O-]
REMARK SMILES IDX 6 1 7 2 8 3 9 4 10 5 11 6 5 7 4 8 3 9 2 10 1 11
REMARK H PARENT
REMARK Flexibility Score: inf
ROOT
ATOM      1  C   UNL     1      46.346  27.782   5.365  1.00  0.00     0.000 C 
ENDROOT
BRANCH   1   2
ATOM      2  C   UNL     1      46.949  27.874   6.778  1.00  0.00     0.006 C 
BRANCH   2   3
ATOM      3  C   UNL     1      45.901  27.626   7.871  1.00  0.00     0.053 C 
BRANCH   3   4
ATOM      4  C   UNL     1      46.181  26.368   8.636  1.00  0.00     0.041 C 
ATOM      5  O   UNL     1      47.123  25.611   8.288  1.00  0.00    -0.550 OA
ATOM      6  O   UNL     1      45.417  26.049   9.752  1.00  0.00    -0.550 OA
ENDBRANCH   3   4
ENDBRANCH   2   3
ENDBRANCH   1   2
BRANCH   1   7
ATOM      7  C   UNL     1      46.318  26.342   4.828  1.00  0.00     0.000 C 
BRANCH   7   8
ATOM      8  C   UNL     1      45.164  26.097   3.845  1.00  0.00     0.004 C 
BRANCH   8   9
ATOM      9  C   UNL     1      44.814  27.381   3.082  1.00  0.00     0.027 C 
BRANCH   9  10
ATOM     10  C   UNL     1      43.608  27.183   2.206  1.00  0.00    -0.035 C 
ATOM     11  C   UNL     1      42.485  27.885   2.386  1.00  0.00     0.004 C 
ENDBRANCH   9  10
ENDBRANCH   8   9
ENDBRANCH   7   8
ENDBRANCH   1   7
TORSDOF 7
ENDMDL
MODEL 3
REMARK VINA RESULT:    -3.836      3.446      5.945
REMARK INTER + INTRA:          -5.603
REMARK INTER:                  -5.254
REMARK INTRA:                  -0.349
REMARK UNBOUND:                -0.197
REMARK SMILES C=CCCCCCCC(=O)[O-]
REMARK SMILES IDX 6 1 7 2 8 3 9 4 10 5 11 6 5 7 4 8 3 9 2 10 1 11
REMARK H PARENT
REMARK Flexibility Score: inf
ROOT
ATOM      1  C   UNL     1      46.065  26.414   5.070  1.00  0.00     0.000 C 
ENDROOT
BRANCH   1   2
ATOM      2  C   UNL     1      45.581  26.328   3.612  1.00  0.00     0.006 C 
BRANCH   2   3
ATOM      3  C   UNL     1      44.868  27.610   3.164  1.00  0.00     0.053 C 
BRANCH   3   4
ATOM      4  C   UNL     1      44.117  27.410   1.882  1.00  0.00     0.041 C 
ATOM      5  O   UNL     1      42.862  27.491   1.863  1.00  0.00    -0.550 OA
ATOM      6  O   UNL     1      44.810  27.164   0.703  1.00  0.00    -0.550 OA
ENDBRANCH   3   4
ENDBRANCH   2   3
ENDBRANCH   1   2
BRANCH   1   7
ATOM      7  C   UNL     1      46.267  27.863   5.542  1.00  0.00     0.000 C 
BRANCH   7   8
ATOM      8  C   UNL     1      46.311  27.989   7.072  1.00  0.00     0.004 C 
BRANCH   8   9
ATOM      9  C   UNL     1      46.478  26.613   7.729  1.00  0.00     0.027 C 
BRANCH   9  10
ATOM     10  C   UNL     1      45.596  26.477   8.940  1.00  0.00    -0.035 C 
ATOM     11  C   UNL     1      45.250  27.534   9.680  1.00  0.00     0.004 C 
ENDBRANCH   9  10
ENDBRANCH   8   9
ENDBRANCH   7   8
ENDBRANCH   1   7
TORSDOF 7
ENDMDL
MODEL 4
REMARK VINA RESULT:    -3.690      3.735      6.074
REMARK INTER + INTRA:          -5.397
REMARK INTER:                  -5.030
REMARK INTRA:                  -0.367
REMARK UNBOUND:                -0.197
REMARK SMILES C=CCCCCCCC(=O)[O-]
REMARK SMILES IDX 6 1 7 2 8 3 9 4 10 5 11 6 5 7 4 8 3 9 2 10 1 11
REMARK H PARENT
REMARK Flexibility Score: inf
ROOT
ATOM      1  C   UNL     1      45.589  26.095   4.281  1.00  0.00     0.000 C 
ENDROOT
BRANCH   1   2
ATOM      2  C   UNL     1      45.264  27.435   3.596  1.00  0.00     0.006 C 
BRANCH   2   3
ATOM      3  C   UNL     1      44.284  27.264   2.428  1.00  0.00     0.053 C 
BRANCH   3   4
ATOM      4  C   UNL     1      44.766  27.958   1.191  1.00  0.00     0.041 C 
ATOM      5  O   UNL     1      45.177  27.290   0.207  1.00  0.00    -0.550 OA
ATOM      6  O   UNL     1      44.732  29.346   1.115  1.00  0.00    -0.550 OA
ENDBRANCH   3   4
ENDBRANCH   2   3
ENDBRANCH   1   2
BRANCH   1   7
ATOM      7  C   UNL     1      46.409  26.275   5.569  1.00  0.00     0.000 C 
BRANCH   7   8
ATOM      8  C   UNL     1      46.557  27.748   5.978  1.00  0.00     0.004 C 
BRANCH   8   9
ATOM      9  C   UNL     1      46.091  27.964   7.423  1.00  0.00     0.027 C 
BRANCH   9  10
ATOM     10  C   UNL     1      45.889  26.655   8.133  1.00  0.00    -0.035 C 
ATOM     11  C   UNL     1      45.522  26.601   9.417  1.00  0.00     0.004 C 
ENDBRANCH   9  10
ENDBRANCH   8   9
ENDBRANCH   7   8
ENDBRANCH   1   7
TORSDOF 7
ENDMDL
MODEL 5
REMARK VINA RESULT:    -3.654      3.289      5.592
REMARK INTER + INTRA:          -5.347
REMARK INTER:                  -5.064
REMARK INTRA:                  -0.282
REMARK UNBOUND:                -0.197
REMARK SMILES C=CCCCCCCC(=O)[O-]
REMARK SMILES IDX 6 1 7 2 8 3 9 4 10 5 11 6 5 7 4 8 3 9 2 10 1 11
REMARK H PARENT
REMARK Flexibility Score: inf
ROOT
ATOM      1  C   UNL     1      45.223  25.963   3.871  1.00  0.00     0.000 C 
ENDROOT
BRANCH   1   2
ATOM      2  C   UNL     1      44.931  27.270   3.112  1.00  0.00     0.006 C 
BRANCH   2   3
ATOM      3  C   UNL     1      43.725  27.136   2.174  1.00  0.00     0.053 C 
BRANCH   3   4
ATOM      4  C   UNL     1      42.774  28.285   2.323  1.00  0.00     0.041 C 
ATOM      5  O   UNL     1      43.195  29.469   2.269  1.00  0.00    -0.550 OA
ATOM      6  O   UNL     1      41.416  28.044   2.493  1.00  0.00    -0.550 OA
ENDBRANCH   3   4
ENDBRANCH   2   3
ENDBRANCH   1   2
BRANCH   1   7
ATOM      7  C   UNL     1      46.645  25.923   4.452  1.00  0.00     0.000 C 
BRANCH   7   8
ATOM      8  C   UNL     1      46.888  27.015   5.504  1.00  0.00     0.004 C 
BRANCH   8   9
ATOM      9  C   UNL     1      46.094  26.728   6.784  1.00  0.00     0.027 C 
BRANCH   9  10
ATOM     10  C   UNL     1      45.936  27.970   7.618  1.00  0.00    -0.035 C 
ATOM     11  C   UNL     1      45.460  27.923   8.866  1.00  0.00     0.004 C 
ENDBRANCH   9  10
ENDBRANCH   8   9
ENDBRANCH   7   8
ENDBRANCH   1   7
TORSDOF 7
ENDMDL
MODEL 6
REMARK VINA RESULT:    -3.549      3.467      5.752
REMARK INTER + INTRA:          -5.199
REMARK INTER:                  -4.788
REMARK INTRA:                  -0.411
REMARK UNBOUND:                -0.197
REMARK SMILES C=CCCCCCCC(=O)[O-]
REMARK SMILES IDX 6 1 7 2 8 3 9 4 10 5 11 6 5 7 4 8 3 9 2 10 1 11
REMARK H PARENT
REMARK Flexibility Score: inf
ROOT
ATOM      1  C   UNL     1      46.026  29.120   6.056  1.00  0.00     0.000 C 
ENDROOT
BRANCH   1   2
ATOM      2  C   UNL     1      46.179  28.237   4.805  1.00  0.00     0.006 C 
BRANCH   2   3
ATOM      3  C   UNL     1      46.193  26.743   5.151  1.00  0.00     0.053 C 
BRANCH   3   4
ATOM      4  C   UNL     1      45.858  25.893   3.963  1.00  0.00     0.041 C 
ATOM      5  O   UNL     1      46.604  24.933   3.639  1.00  0.00    -0.550 OA
ATOM      6  O   UNL     1      44.704  26.146   3.231  1.00  0.00    -0.550 OA
ENDBRANCH   3   4
ENDBRANCH   2   3
ENDBRANCH   1   2
BRANCH   1   7
ATOM      7  C   UNL     1      46.475  28.406   7.342  1.00  0.00     0.000 C 
BRANCH   7   8
ATOM      8  C   UNL     1      45.908  29.058   8.612  1.00  0.00     0.004 C 
BRANCH   8   9
ATOM      9  C   UNL     1      45.098  28.046   9.431  1.00  0.00     0.027 C 
BRANCH   9  10
ATOM     10  C   UNL     1      45.607  26.646   9.227  1.00  0.00    -0.035 C 
ATOM     11  C   UNL     1      46.407  26.052  10.118  1.00  0.00     0.004 C 
ENDBRANCH   9  10
ENDBRANCH   8   9
ENDBRANCH   7   8
ENDBRANCH   1   7
TORSDOF 7
ENDMDL
MODEL 7
REMARK VINA RESULT:    -3.428      1.023      1.835
REMARK INTER + INTRA:          -5.027
REMARK INTER:                  -4.764
REMARK INTRA:                  -0.264
REMARK UNBOUND:                -0.197
REMARK SMILES C=CCCCCCCC(=O)[O-]
REMARK SMILES IDX 6 1 7 2 8 3 9 4 10 5 11 6 5 7 4 8 3 9 2 10 1 11
REMARK H PARENT
REMARK Flexibility Score: inf
ROOT
ATOM      1  C   UNL     1      45.471  26.240   4.129  1.00  0.00     0.000 C 
ENDROOT
BRANCH   1   2
ATOM      2  C   UNL     1      46.917  26.470   4.604  1.00  0.00     0.006 C 
BRANCH   2   3
ATOM      3  C   UNL     1      47.125  26.027   6.058  1.00  0.00     0.053 C 
BRANCH   3   4
ATOM      4  C   UNL     1      46.371  26.896   7.018  1.00  0.00     0.041 C 
ATOM      5  O   UNL     1      45.854  26.400   8.052  1.00  0.00    -0.550 OA
ATOM      6  O   UNL     1      46.266  28.262   6.783  1.00  0.00    -0.550 OA
ENDBRANCH   3   4
ENDBRANCH   2   3
ENDBRANCH   1   2
BRANCH   1   7
ATOM      7  C   UNL     1      44.943  27.396   3.265  1.00  0.00     0.000 C 
BRANCH   7   8
ATOM      8  C   UNL     1      43.751  26.985   2.388  1.00  0.00     0.004 C 
BRANCH   8   9
ATOM      9  C   UNL     1      42.956  28.215   1.933  1.00  0.00     0.027 C 
BRANCH   9  10
ATOM     10  C   UNL     1      41.623  28.291   2.625  1.00  0.00    -0.035 C 
ATOM     11  C   UNL     1      41.090  29.458   2.997  1.00  0.00     0.004 C 
ENDBRANCH   9  10
ENDBRANCH   8   9
ENDBRANCH   7   8
ENDBRANCH   1   7
TORSDOF 7
ENDMDL
MODEL 8
REMARK VINA RESULT:    -3.389      6.036      7.612
REMARK INTER + INTRA:          -4.973
REMARK INTER:                  -4.549
REMARK INTRA:                  -0.424
REMARK UNBOUND:                -0.197
REMARK SMILES C=CCCCCCCC(=O)[O-]
REMARK SMILES IDX 6 1 7 2 8 3 9 4 10 5 11 6 5 7 4 8 3 9 2 10 1 11
REMARK H PARENT
REMARK Flexibility Score: inf
ROOT
ATOM      1  C   UNL     1      45.559  30.054   0.038  1.00  0.00     0.000 C 
ENDROOT
BRANCH   1   2
ATOM      2  C   UNL     1      46.481  29.069  -0.703  1.00  0.00     0.006 C 
BRANCH   2   3
ATOM      3  C   UNL     1      46.300  29.142  -2.225  1.00  0.00     0.053 C 
BRANCH   3   4
ATOM      4  C   UNL     1      46.256  27.780  -2.846  1.00  0.00     0.041 C 
ATOM      5  O   UNL     1      46.843  27.561  -3.938  1.00  0.00    -0.550 OA
ATOM      6  O   UNL     1      45.590  26.744  -2.202  1.00  0.00    -0.550 OA
ENDBRANCH   3   4
ENDBRANCH   2   3
ENDBRANCH   1   2
BRANCH   1   7
ATOM      7  C   UNL     1      44.830  29.401   1.224  1.00  0.00     0.000 C 
BRANCH   7   8
ATOM      8  C   UNL     1      44.969  27.872   1.237  1.00  0.00     0.004 C 
BRANCH   8   9
ATOM      9  C   UNL     1      43.710  27.212   1.812  1.00  0.00     0.027 C 
BRANCH   9  10
ATOM     10  C   UNL     1      42.731  28.242   2.305  1.00  0.00    -0.035 C 
ATOM     11  C   UNL     1      41.467  27.925   2.602  1.00  0.00     0.004 C 
ENDBRANCH   9  10
ENDBRANCH   8   9
ENDBRANCH   7   8
ENDBRANCH   1   7
TORSDOF 7
ENDMDL
MODEL 9
REMARK VINA RESULT:    -3.351      2.608      3.649
REMARK INTER + INTRA:          -4.919
REMARK INTER:                  -4.257
REMARK INTRA:                  -0.662
REMARK UNBOUND:                -0.197
REMARK SMILES C=CCCCCCCC(=O)[O-]
REMARK SMILES IDX 6 1 7 2 8 3 9 4 10 5 11 6 5 7 4 8 3 9 2 10 1 11
REMARK H PARENT
REMARK Flexibility Score: inf
ROOT
ATOM      1  C   UNL     1      46.202  29.734   2.579  1.00  0.00     0.000 C 
ENDROOT
BRANCH   1   2
ATOM      2  C   UNL     1      46.572  28.286   2.948  1.00  0.00     0.006 C 
BRANCH   2   3
ATOM      3  C   UNL     1      45.864  27.817   4.226  1.00  0.00     0.053 C 
BRANCH   3   4
ATOM      4  C   UNL     1      46.124  26.368   4.506  1.00  0.00     0.041 C 
ATOM      5  O   UNL     1      46.833  26.029   5.488  1.00  0.00    -0.550 OA
ATOM      6  O   UNL     1      45.557  25.392   3.696  1.00  0.00    -0.550 OA
ENDBRANCH   3   4
ENDBRANCH   2   3
ENDBRANCH   1   2
BRANCH   1   7
ATOM      7  C   UNL     1      44.794  30.124   3.056  1.00  0.00     0.000 C 
BRANCH   7   8
ATOM      8  C   UNL     1      43.727  29.946   1.966  1.00  0.00     0.004 C 
BRANCH   8   9
ATOM      9  C   UNL     1      42.405  29.454   2.568  1.00  0.00     0.027 C 
BRANCH   9  10
ATOM     10  C   UNL     1      42.254  27.966   2.412  1.00  0.00    -0.035 C 
ATOM     11  C   UNL     1      43.168  27.230   1.772  1.00  0.00     0.004 C 
ENDBRANCH   9  10
ENDBRANCH   8   9
ENDBRANCH   7   8
ENDBRANCH   1   7
TORSDOF 7
ENDMDL
