MODEL 1
REMARK VINA RESULT:    -6.818      0.000      0.000
REMARK INTER + INTRA:          -8.750
REMARK INTER:                  -8.413
REMARK INTRA:                  -0.337
REMARK UNBOUND:                -0.337
REMARK SMILES O=c1c(O)c(-c2cc(O)c(O)c(O)c2)oc2cc(O)cc(O)c12
REMARK SMILES IDX 5 1 3 2 2 3 1 4 23 5 21 6 20 7 18 8 17 9 16 10 15 11 6 12
REMARK SMILES IDX 7 13 8 14 14 15 10 16 12 17 9 18 11 20 13 22 4 24 22 26
REMARK SMILES IDX 19 28
REMARK H PARENT 9 19 11 21 13 23 4 25 22 27 19 29
REMARK Flexibility Score: inf
ROOT
ATOM      1  C   UNL     1       5.771  11.111 -21.873  1.00  0.00     0.180 A 
ATOM      2  C   UNL     1       6.056  10.840 -20.524  1.00  0.00     0.208 A 
ATOM      3  C   UNL     1       7.287  11.256 -19.990  1.00  0.00     0.238 A 
ATOM      4  O   UNL     1       7.558  10.962 -18.797  1.00  0.00    -0.285 OA
ATOM      5  C   UNL     1       8.208  11.952 -20.808  1.00  0.00     0.111 A 
ATOM      6  C   UNL     1       9.468  12.455 -20.361  1.00  0.00     0.134 A 
ATOM      7  C   UNL     1      10.356  13.014 -21.289  1.00  0.00     0.093 A 
ATOM      8  C   UNL     1      10.003  13.146 -22.634  1.00  0.00     0.123 A 
ATOM      9  C   UNL     1       8.754  12.711 -23.068  1.00  0.00     0.094 A 
ATOM     10  C   UNL     1       7.860  12.117 -22.174  1.00  0.00     0.146 A 
ATOM     11  O   UNL     1       6.684  11.707 -22.631  1.00  0.00    -0.452 OA
ENDROOT
BRANCH   1  12
ATOM     12  C   UNL     1       4.486  10.726 -22.500  1.00  0.00     0.029 A 
ATOM     13  C   UNL     1       3.446  11.656 -22.666  1.00  0.00     0.062 A 
ATOM     14  C   UNL     1       2.246  11.282 -23.281  1.00  0.00     0.162 A 
ATOM     15  C   UNL     1       4.320   9.422 -22.990  1.00  0.00     0.062 A 
ATOM     16  C   UNL     1       2.078   9.968 -23.751  1.00  0.00     0.200 A 
ATOM     17  C   UNL     1       3.121   9.038 -23.607  1.00  0.00     0.162 A 
BRANCH  14  18
ATOM     18  O   UNL     1       1.235  12.232 -23.423  1.00  0.00    -0.504 OA
ATOM     19  H   UNL     1       0.671  12.540 -22.639  1.00  0.00     0.293 HD
ENDBRANCH  14  18
BRANCH  16  20
ATOM     20  O   UNL     1       0.876   9.602 -24.359  1.00  0.00    -0.502 OA
ATOM     21  H   UNL     1       0.741   9.651 -25.362  1.00  0.00     0.293 HD
ENDBRANCH  16  20
BRANCH  17  22
ATOM     22  O   UNL     1       2.964   7.735 -24.078  1.00  0.00    -0.504 OA
ATOM     23  H   UNL     1       2.165   7.466 -24.642  1.00  0.00     0.293 HD
ENDBRANCH  17  22
ENDBRANCH   1  12
BRANCH   2  24
ATOM     24  O   UNL     1       5.140  10.131 -19.741  1.00  0.00    -0.502 OA
ATOM     25  H   UNL     1       5.415   9.616 -18.913  1.00  0.00     0.293 HD
ENDBRANCH   2  24
BRANCH   6  26
ATOM     26  O   UNL     1       9.879  12.457 -19.025  1.00  0.00    -0.507 OA
ATOM     27  H   UNL     1       9.263  12.338 -18.235  1.00  0.00     0.293 HD
ENDBRANCH   6  26
BRANCH   8  28
ATOM     28  O   UNL     1      10.888  13.717 -23.548  1.00  0.00    -0.508 OA
ATOM     29  H   UNL     1      11.004  14.721 -23.616  1.00  0.00     0.293 HD
ENDBRANCH   8  28
TORSDOF 7
ENDMDL
MODEL 2
REMARK VINA RESULT:    -6.654      2.155      7.456
REMARK INTER + INTRA:          -8.546
REMARK INTER:                  -8.599
REMARK INTRA:                   0.052
REMARK UNBOUND:                -0.337
REMARK SMILES O=c1c(O)c(-c2cc(O)c(O)c(O)c2)oc2cc(O)cc(O)c12
REMARK SMILES IDX 5 1 3 2 2 3 1 4 23 5 21 6 20 7 18 8 17 9 16 10 15 11 6 12
REMARK SMILES IDX 7 13 8 14 14 15 10 16 12 17 9 18 11 20 13 22 4 24 22 26
REMARK SMILES IDX 19 28
REMARK H PARENT 9 19 11 21 13 23 4 25 22 27 19 29
REMARK Flexibility Score: inf
ROOT
ATOM      1  C   UNL     1       9.002  12.530 -21.252  1.00  0.00     0.180 A 
ATOM      2  C   UNL     1       8.369  11.907 -20.163  1.00  0.00     0.208 A 
ATOM      3  C   UNL     1       7.073  11.394 -20.330  1.00  0.00     0.238 A 
ATOM      4  O   UNL     1       6.490  10.887 -19.336  1.00  0.00    -0.285 OA
ATOM      5  C   UNL     1       6.433  11.496 -21.589  1.00  0.00     0.111 A 
ATOM      6  C   UNL     1       5.136  10.976 -21.882  1.00  0.00     0.134 A 
ATOM      7  C   UNL     1       4.549  11.249 -23.124  1.00  0.00     0.093 A 
ATOM      8  C   UNL     1       5.237  11.967 -24.104  1.00  0.00     0.123 A 
ATOM      9  C   UNL     1       6.525  12.428 -23.848  1.00  0.00     0.094 A 
ATOM     10  C   UNL     1       7.125  12.203 -22.606  1.00  0.00     0.146 A 
ATOM     11  O   UNL     1       8.350  12.669 -22.400  1.00  0.00    -0.452 OA
ENDROOT
BRANCH   1  12
ATOM     12  C   UNL     1      10.377  13.073 -21.159  1.00  0.00     0.029 A 
ATOM     13  C   UNL     1      10.785  13.847 -20.060  1.00  0.00     0.062 A 
ATOM     14  C   UNL     1      12.095  14.333 -19.976  1.00  0.00     0.162 A 
ATOM     15  C   UNL     1      11.311  12.763 -22.160  1.00  0.00     0.062 A 
ATOM     16  C   UNL     1      13.019  14.037 -20.992  1.00  0.00     0.200 A 
ATOM     17  C   UNL     1      12.624  13.246 -22.085  1.00  0.00     0.162 A 
BRANCH  14  18
ATOM     18  O   UNL     1      12.460  15.102 -18.872  1.00  0.00    -0.504 OA
ATOM     19  H   UNL     1      13.395  15.076 -18.483  1.00  0.00     0.293 HD
ENDBRANCH  14  18
BRANCH  16  20
ATOM     20  O   UNL     1      14.322  14.530 -20.904  1.00  0.00    -0.502 OA
ATOM     21  H   UNL     1      14.662  15.012 -20.081  1.00  0.00     0.293 HD
ENDBRANCH  16  20
BRANCH  17  22
ATOM     22  O   UNL     1      13.538  12.943 -23.093  1.00  0.00    -0.504 OA
ATOM     23  H   UNL     1      13.776  11.985 -23.325  1.00  0.00     0.293 HD
ENDBRANCH  17  22
ENDBRANCH   1  12
BRANCH   2  24
ATOM     24  O   UNL     1       9.012  11.837 -18.923  1.00  0.00    -0.502 OA
ATOM     25  H   UNL     1       8.541  11.521 -18.083  1.00  0.00     0.293 HD
ENDBRANCH   2  24
BRANCH   6  26
ATOM     26  O   UNL     1       4.403  10.169 -21.008  1.00  0.00    -0.507 OA
ATOM     27  H   UNL     1       3.428   9.935 -21.125  1.00  0.00     0.293 HD
ENDBRANCH   6  26
BRANCH   8  28
ATOM     28  O   UNL     1       4.649  12.221 -25.343  1.00  0.00    -0.508 OA
ATOM     29  H   UNL     1       4.690  13.138 -25.771  1.00  0.00     0.293 HD
ENDBRANCH   8  28
TORSDOF 7
ENDMDL
MODEL 3
REMARK VINA RESULT:    -6.518      2.222      7.923
REMARK INTER + INTRA:          -8.380
REMARK INTER:                  -8.361
REMARK INTRA:                  -0.019
REMARK UNBOUND:                -0.337
REMARK SMILES O=c1c(O)c(-c2cc(O)c(O)c(O)c2)oc2cc(O)cc(O)c12
REMARK SMILES IDX 5 1 3 2 2 3 1 4 23 5 21 6 20 7 18 8 17 9 16 10 15 11 6 12
REMARK SMILES IDX 7 13 8 14 14 15 10 16 12 17 9 18 11 20 13 22 4 24 22 26
REMARK SMILES IDX 19 28
REMARK H PARENT 9 19 11 21 13 23 4 25 22 27 19 29
REMARK Flexibility Score: inf
ROOT
ATOM      1  C   UNL     1       9.045  12.768 -21.719  1.00  0.00     0.180 A 
ATOM      2  C   UNL     1       8.467  12.990 -22.980  1.00  0.00     0.208 A 
ATOM      3  C   UNL     1       7.154  12.550 -23.216  1.00  0.00     0.238 A 
ATOM      4  O   UNL     1       6.661  12.703 -24.364  1.00  0.00    -0.285 OA
ATOM      5  C   UNL     1       6.431  11.909 -22.180  1.00  0.00     0.111 A 
ATOM      6  C   UNL     1       5.081  11.459 -22.296  1.00  0.00     0.134 A 
ATOM      7  C   UNL     1       4.509  10.721 -21.251  1.00  0.00     0.093 A 
ATOM      8  C   UNL     1       5.215  10.474 -20.072  1.00  0.00     0.123 A 
ATOM      9  C   UNL     1       6.513  10.960 -19.928  1.00  0.00     0.094 A 
ATOM     10  C   UNL     1       7.123  11.668 -20.966  1.00  0.00     0.146 A 
ATOM     11  O   UNL     1       8.364  12.105 -20.791  1.00  0.00    -0.452 OA
ENDROOT
BRANCH   1  12
ATOM     12  C   UNL     1      10.415  13.224 -21.388  1.00  0.00     0.029 A 
ATOM     13  C   UNL     1      10.675  13.972 -20.228  1.00  0.00     0.062 A 
ATOM     14  C   UNL     1      11.979  14.376 -19.918  1.00  0.00     0.162 A 
ATOM     15  C   UNL     1      11.484  12.856 -22.218  1.00  0.00     0.062 A 
ATOM     16  C   UNL     1      13.043  14.022 -20.764  1.00  0.00     0.200 A 
ATOM     17  C   UNL     1      12.793  13.256 -21.916  1.00  0.00     0.162 A 
BRANCH  14  18
ATOM     18  O   UNL     1      12.196  15.122 -18.760  1.00  0.00    -0.504 OA
ATOM     19  H   UNL     1      11.691  14.943 -17.900  1.00  0.00     0.293 HD
ENDBRANCH  14  18
BRANCH  16  20
ATOM     20  O   UNL     1      14.340  14.433 -20.450  1.00  0.00    -0.502 OA
ATOM     21  H   UNL     1      14.553  15.383 -20.172  1.00  0.00     0.293 HD
ENDBRANCH  16  20
BRANCH  17  22
ATOM     22  O   UNL     1      13.846  12.896 -22.756  1.00  0.00    -0.504 OA
ATOM     23  H   UNL     1      13.811  12.053 -23.319  1.00  0.00     0.293 HD
ENDBRANCH  17  22
ENDBRANCH   1  12
BRANCH   2  24
ATOM     24  O   UNL     1       9.207  13.606 -23.994  1.00  0.00    -0.502 OA
ATOM     25  H   UNL     1      10.203  13.457 -24.106  1.00  0.00     0.293 HD
ENDBRANCH   2  24
BRANCH   6  26
ATOM     26  O   UNL     1       4.257  11.732 -23.391  1.00  0.00    -0.507 OA
ATOM     27  H   UNL     1       3.282  11.985 -23.328  1.00  0.00     0.293 HD
ENDBRANCH   6  26
BRANCH   8  28
ATOM     28  O   UNL     1       4.632   9.752 -19.033  1.00  0.00    -0.508 OA
ATOM     29  H   UNL     1       4.111   8.900 -19.206  1.00  0.00     0.293 HD
ENDBRANCH   8  28
TORSDOF 7
ENDMDL
MODEL 4
REMARK VINA RESULT:    -6.475      2.421      3.835
REMARK INTER + INTRA:          -8.326
REMARK INTER:                  -8.302
REMARK INTRA:                  -0.024
REMARK UNBOUND:                -0.337
REMARK SMILES O=c1c(O)c(-c2cc(O)c(O)c(O)c2)oc2cc(O)cc(O)c12
REMARK SMILES IDX 5 1 3 2 2 3 1 4 23 5 21 6 20 7 18 8 17 9 16 10 15 11 6 12
REMARK SMILES IDX 7 13 8 14 14 15 10 16 12 17 9 18 11 20 13 22 4 24 22 26
REMARK SMILES IDX 19 28
REMARK H PARENT 9 19 11 21 13 23 4 25 22 27 19 29
REMARK Flexibility Score: inf
ROOT
ATOM      1  C   UNL     1       6.593  11.775 -21.440  1.00  0.00     0.180 A 
ATOM      2  C   UNL     1       6.755  12.123 -22.792  1.00  0.00     0.208 A 
ATOM      3  C   UNL     1       8.018  12.540 -23.242  1.00  0.00     0.238 A 
ATOM      4  O   UNL     1       8.144  12.902 -24.441  1.00  0.00    -0.285 OA
ATOM      5  C   UNL     1       9.106  12.588 -22.337  1.00  0.00     0.111 A 
ATOM      6  C   UNL     1      10.439  12.957 -22.693  1.00  0.00     0.134 A 
ATOM      7  C   UNL     1      11.407  13.096 -21.690  1.00  0.00     0.093 A 
ATOM      8  C   UNL     1      11.107  12.816 -20.356  1.00  0.00     0.123 A 
ATOM      9  C   UNL     1       9.825  12.399 -20.007  1.00  0.00     0.094 A 
ATOM     10  C   UNL     1       8.828  12.285 -20.979  1.00  0.00     0.146 A 
ATOM     11  O   UNL     1       7.617  11.894 -20.603  1.00  0.00    -0.452 OA
ENDROOT
BRANCH   1  12
ATOM     12  C   UNL     1       5.298  11.303 -20.898  1.00  0.00     0.029 A 
ATOM     13  C   UNL     1       5.210  10.122 -20.142  1.00  0.00     0.062 A 
ATOM     14  C   UNL     1       3.983   9.702 -19.617  1.00  0.00     0.162 A 
ATOM     15  C   UNL     1       4.144  12.077 -21.092  1.00  0.00     0.062 A 
ATOM     16  C   UNL     1       2.826  10.470 -19.833  1.00  0.00     0.200 A 
ATOM     17  C   UNL     1       2.911  11.663 -20.571  1.00  0.00     0.162 A 
BRANCH  14  18
ATOM     18  O   UNL     1       3.935   8.521 -18.876  1.00  0.00    -0.504 OA
ATOM     19  H   UNL     1       3.412   8.448 -18.011  1.00  0.00     0.293 HD
ENDBRANCH  14  18
BRANCH  16  20
ATOM     20  O   UNL     1       1.606  10.041 -19.310  1.00  0.00    -0.502 OA
ATOM     21  H   UNL     1       1.489   9.809 -18.331  1.00  0.00     0.293 HD
ENDBRANCH  16  20
BRANCH  17  22
ATOM     22  O   UNL     1       1.769  12.434 -20.783  1.00  0.00    -0.504 OA
ATOM     23  H   UNL     1       1.410  12.607 -21.716  1.00  0.00     0.293 HD
ENDBRANCH  17  22
ENDBRANCH   1  12
BRANCH   2  24
ATOM     24  O   UNL     1       5.662  12.088 -23.662  1.00  0.00    -0.502 OA
ATOM     25  H   UNL     1       5.429  11.269 -24.212  1.00  0.00     0.293 HD
ENDBRANCH   2  24
BRANCH   6  26
ATOM     26  O   UNL     1      10.867  13.168 -24.007  1.00  0.00    -0.507 OA
ATOM     27  H   UNL     1      11.825  13.105 -24.316  1.00  0.00     0.293 HD
ENDBRANCH   6  26
BRANCH   8  28
ATOM     28  O   UNL     1      12.081  12.942 -19.367  1.00  0.00    -0.508 OA
ATOM     29  H   UNL     1      12.625  12.147 -19.054  1.00  0.00     0.293 HD
ENDBRANCH   8  28
TORSDOF 7
ENDMDL
MODEL 5
REMARK VINA RESULT:    -6.442      2.255      3.416
REMARK INTER + INTRA:          -8.285
REMARK INTER:                  -8.369
REMARK INTRA:                   0.083
REMARK UNBOUND:                -0.337
REMARK SMILES O=c1c(O)c(-c2cc(O)c(O)c(O)c2)oc2cc(O)cc(O)c12
REMARK SMILES IDX 5 1 3 2 2 3 1 4 23 5 21 6 20 7 18 8 17 9 16 10 15 11 6 12
REMARK SMILES IDX 7 13 8 14 14 15 10 16 12 17 9 18 11 20 13 22 4 24 22 26
REMARK SMILES IDX 19 28
REMARK H PARENT 9 19 11 21 13 23 4 25 22 27 19 29
REMARK Flexibility Score: inf
ROOT
ATOM      1  C   UNL     1       6.523  11.750 -21.529  1.00  0.00     0.180 A 
ATOM      2  C   UNL     1       6.695  12.100 -22.879  1.00  0.00     0.208 A 
ATOM      3  C   UNL     1       7.960  12.524 -23.318  1.00  0.00     0.238 A 
ATOM      4  O   UNL     1       8.094  12.889 -24.515  1.00  0.00    -0.285 OA
ATOM      5  C   UNL     1       9.040  12.576 -22.404  1.00  0.00     0.111 A 
ATOM      6  C   UNL     1      10.374  12.953 -22.748  1.00  0.00     0.134 A 
ATOM      7  C   UNL     1      11.333  13.094 -21.737  1.00  0.00     0.093 A 
ATOM      8  C   UNL     1      11.022  12.811 -20.405  1.00  0.00     0.123 A 
ATOM      9  C   UNL     1       9.739  12.387 -20.068  1.00  0.00     0.094 A 
ATOM     10  C   UNL     1       8.751  12.270 -21.049  1.00  0.00     0.146 A 
ATOM     11  O   UNL     1       7.539  11.873 -20.683  1.00  0.00    -0.452 OA
ENDROOT
BRANCH   1  12
ATOM     12  C   UNL     1       5.226  11.270 -20.999  1.00  0.00     0.029 A 
ATOM     13  C   UNL     1       4.017  11.887 -21.358  1.00  0.00     0.062 A 
ATOM     14  C   UNL     1       2.798  11.408 -20.866  1.00  0.00     0.162 A 
ATOM     15  C   UNL     1       5.196  10.142 -20.165  1.00  0.00     0.062 A 
ATOM     16  C   UNL     1       2.775  10.290 -20.014  1.00  0.00     0.200 A 
ATOM     17  C   UNL     1       3.980   9.655 -19.667  1.00  0.00     0.162 A 
BRANCH  14  18
ATOM     18  O   UNL     1       1.618  12.051 -21.241  1.00  0.00    -0.504 OA
ATOM     19  H   UNL     1       1.235  12.825 -20.712  1.00  0.00     0.293 HD
ENDBRANCH  14  18
BRANCH  16  20
ATOM     20  O   UNL     1       1.556   9.821 -19.523  1.00  0.00    -0.502 OA
ATOM     21  H   UNL     1       1.332   8.834 -19.488  1.00  0.00     0.293 HD
ENDBRANCH  16  20
BRANCH  17  22
ATOM     22  O   UNL     1       3.965   8.542 -18.827  1.00  0.00    -0.504 OA
ATOM     23  H   UNL     1       4.792   7.974 -18.683  1.00  0.00     0.293 HD
ENDBRANCH  17  22
ENDBRANCH   1  12
BRANCH   2  24
ATOM     24  O   UNL     1       5.609  12.062 -23.759  1.00  0.00    -0.502 OA
ATOM     25  H   UNL     1       5.061  12.884 -23.982  1.00  0.00     0.293 HD
ENDBRANCH   2  24
BRANCH   6  26
ATOM     26  O   UNL     1      10.811  13.168 -24.057  1.00  0.00    -0.507 OA
ATOM     27  H   UNL     1      11.348  13.968 -24.359  1.00  0.00     0.293 HD
ENDBRANCH   6  26
BRANCH   8  28
ATOM     28  O   UNL     1      11.987  12.941 -19.407  1.00  0.00    -0.508 OA
ATOM     29  H   UNL     1      12.711  13.648 -19.459  1.00  0.00     0.293 HD
ENDBRANCH   8  28
TORSDOF 7
ENDMDL
MODEL 6
REMARK VINA RESULT:    -6.441      3.062      5.209
REMARK INTER + INTRA:          -8.283
REMARK INTER:                  -7.924
REMARK INTRA:                  -0.359
REMARK UNBOUND:                -0.337
REMARK SMILES O=c1c(O)c(-c2cc(O)c(O)c(O)c2)oc2cc(O)cc(O)c12
REMARK SMILES IDX 5 1 3 2 2 3 1 4 23 5 21 6 20 7 18 8 17 9 16 10 15 11 6 12
REMARK SMILES IDX 7 13 8 14 14 15 10 16 12 17 9 18 11 20 13 22 4 24 22 26
REMARK SMILES IDX 19 28
REMARK H PARENT 9 19 11 21 13 23 4 25 22 27 19 29
REMARK Flexibility Score: inf
ROOT
ATOM      1  C   UNL     1       4.385  10.522 -23.090  1.00  0.00     0.180 A 
ATOM      2  C   UNL     1       3.842   9.429 -23.787  1.00  0.00     0.208 A 
ATOM      3  C   UNL     1       4.588   8.841 -24.821  1.00  0.00     0.238 A 
ATOM      4  O   UNL     1       4.074   7.899 -25.477  1.00  0.00    -0.285 OA
ATOM      5  C   UNL     1       5.875   9.343 -25.132  1.00  0.00     0.111 A 
ATOM      6  C   UNL     1       6.735   8.798 -26.133  1.00  0.00     0.134 A 
ATOM      7  C   UNL     1       7.932   9.455 -26.446  1.00  0.00     0.093 A 
ATOM      8  C   UNL     1       8.329  10.599 -25.749  1.00  0.00     0.123 A 
ATOM      9  C   UNL     1       7.524  11.104 -24.731  1.00  0.00     0.094 A 
ATOM     10  C   UNL     1       6.307  10.491 -24.420  1.00  0.00     0.146 A 
ATOM     11  O   UNL     1       5.566  11.011 -23.450  1.00  0.00    -0.452 OA
ENDROOT
BRANCH   1  12
ATOM     12  C   UNL     1       3.669  11.179 -21.972  1.00  0.00     0.029 A 
ATOM     13  C   UNL     1       3.888  10.796 -20.639  1.00  0.00     0.062 A 
ATOM     14  C   UNL     1       3.221  11.442 -19.592  1.00  0.00     0.162 A 
ATOM     15  C   UNL     1       2.795  12.243 -22.242  1.00  0.00     0.062 A 
ATOM     16  C   UNL     1       2.330  12.493 -19.870  1.00  0.00     0.200 A 
ATOM     17  C   UNL     1       2.121  12.895 -21.200  1.00  0.00     0.162 A 
BRANCH  14  18
ATOM     18  O   UNL     1       3.461  11.030 -18.282  1.00  0.00    -0.504 OA
ATOM     19  H   UNL     1       3.298  10.077 -17.978  1.00  0.00     0.293 HD
ENDBRANCH  14  18
BRANCH  16  20
ATOM     20  O   UNL     1       1.665  13.129 -18.821  1.00  0.00    -0.502 OA
ATOM     21  H   UNL     1       2.159  13.540 -18.038  1.00  0.00     0.293 HD
ENDBRANCH  16  20
BRANCH  17  22
ATOM     22  O   UNL     1       1.245  13.942 -21.483  1.00  0.00    -0.504 OA
ATOM     23  H   UNL     1       1.558  14.906 -21.504  1.00  0.00     0.293 HD
ENDBRANCH  17  22
ENDBRANCH   1  12
BRANCH   2  24
ATOM     24  O   UNL     1       2.560   8.965 -23.476  1.00  0.00    -0.502 OA
ATOM     25  H   UNL     1       2.365   7.987 -23.295  1.00  0.00     0.293 HD
ENDBRANCH   2  24
BRANCH   6  26
ATOM     26  O   UNL     1       6.477   7.611 -26.823  1.00  0.00    -0.507 OA
ATOM     27  H   UNL     1       6.477   6.692 -26.405  1.00  0.00     0.293 HD
ENDBRANCH   6  26
BRANCH   8  28
ATOM     28  O   UNL     1       9.529  11.237 -26.057  1.00  0.00    -0.508 OA
ATOM     29  H   UNL     1      10.368  11.083 -25.508  1.00  0.00     0.293 HD
ENDBRANCH   8  28
TORSDOF 7
ENDMDL
MODEL 7
REMARK VINA RESULT:    -6.308      1.731      7.351
REMARK INTER + INTRA:          -8.120
REMARK INTER:                  -8.195
REMARK INTRA:                   0.075
REMARK UNBOUND:                -0.337
REMARK SMILES O=c1c(O)c(-c2cc(O)c(O)c(O)c2)oc2cc(O)cc(O)c12
REMARK SMILES IDX 5 1 3 2 2 3 1 4 23 5 21 6 20 7 18 8 17 9 16 10 15 11 6 12
REMARK SMILES IDX 7 13 8 14 14 15 10 16 12 17 9 18 11 20 13 22 4 24 22 26
REMARK SMILES IDX 19 28
REMARK H PARENT 9 19 11 21 13 23 4 25 22 27 19 29
REMARK Flexibility Score: inf
ROOT
ATOM      1  C   UNL     1       6.776  12.018 -22.200  1.00  0.00     0.180 A 
ATOM      2  C   UNL     1       6.403  11.491 -23.448  1.00  0.00     0.208 A 
ATOM      3  C   UNL     1       5.045  11.242 -23.705  1.00  0.00     0.238 A 
ATOM      4  O   UNL     1       4.723  10.719 -24.803  1.00  0.00    -0.285 OA
ATOM      5  C   UNL     1       4.076  11.539 -22.716  1.00  0.00     0.111 A 
ATOM      6  C   UNL     1       2.669  11.364 -22.884  1.00  0.00     0.134 A 
ATOM      7  C   UNL     1       1.814  11.568 -21.793  1.00  0.00     0.093 A 
ATOM      8  C   UNL     1       2.309  12.002 -20.561  1.00  0.00     0.123 A 
ATOM      9  C   UNL     1       3.674  12.231 -20.405  1.00  0.00     0.094 A 
ATOM     10  C   UNL     1       4.556  12.003 -21.464  1.00  0.00     0.146 A 
ATOM     11  O   UNL     1       5.850  12.224 -21.270  1.00  0.00    -0.452 OA
ENDROOT
BRANCH   1  12
ATOM     12  C   UNL     1       8.184  12.331 -21.865  1.00  0.00     0.029 A 
ATOM     13  C   UNL     1       8.747  11.940 -20.638  1.00  0.00     0.062 A 
ATOM     14  C   UNL     1      10.086  12.222 -20.346  1.00  0.00     0.162 A 
ATOM     15  C   UNL     1       8.991  12.979 -22.811  1.00  0.00     0.062 A 
ATOM     16  C   UNL     1      10.884  12.892 -21.290  1.00  0.00     0.200 A 
ATOM     17  C   UNL     1      10.333  13.267 -22.527  1.00  0.00     0.162 A 
BRANCH  14  18
ATOM     18  O   UNL     1      10.607  11.823 -19.116  1.00  0.00    -0.504 OA
ATOM     19  H   UNL     1      10.344  10.948 -18.677  1.00  0.00     0.293 HD
ENDBRANCH  14  18
BRANCH  16  20
ATOM     20  O   UNL     1      12.217  13.174 -20.989  1.00  0.00    -0.502 OA
ATOM     21  H   UNL     1      12.497  13.581 -20.104  1.00  0.00     0.293 HD
ENDBRANCH  16  20
BRANCH  17  22
ATOM     22  O   UNL     1      11.122  13.925 -23.470  1.00  0.00    -0.504 OA
ATOM     23  H   UNL     1      10.769  14.150 -24.394  1.00  0.00     0.293 HD
ENDBRANCH  17  22
ENDBRANCH   1  12
BRANCH   2  24
ATOM     24  O   UNL     1       7.379  11.185 -24.401  1.00  0.00    -0.502 OA
ATOM     25  H   UNL     1       8.097  10.488 -24.240  1.00  0.00     0.293 HD
ENDBRANCH   2  24
BRANCH   6  26
ATOM     26  O   UNL     1       2.063  11.023 -24.096  1.00  0.00    -0.507 OA
ATOM     27  H   UNL     1       1.383  10.286 -24.211  1.00  0.00     0.293 HD
ENDBRANCH   6  26
BRANCH   8  28
ATOM     28  O   UNL     1       1.449  12.216 -19.486  1.00  0.00    -0.508 OA
ATOM     29  H   UNL     1       0.549  12.666 -19.608  1.00  0.00     0.293 HD
ENDBRANCH   8  28
TORSDOF 7
ENDMDL
MODEL 8
REMARK VINA RESULT:    -6.306      2.134      7.191
REMARK INTER + INTRA:          -8.117
REMARK INTER:                  -8.066
REMARK INTRA:                  -0.051
REMARK UNBOUND:                -0.337
REMARK SMILES O=c1c(O)c(-c2cc(O)c(O)c(O)c2)oc2cc(O)cc(O)c12
REMARK SMILES IDX 5 1 3 2 2 3 1 4 23 5 21 6 20 7 18 8 17 9 16 10 15 11 6 12
REMARK SMILES IDX 7 13 8 14 14 15 10 16 12 17 9 18 11 20 13 22 4 24 22 26
REMARK SMILES IDX 19 28
REMARK H PARENT 9 19 11 21 13 23 4 25 22 27 19 29
REMARK Flexibility Score: inf
ROOT
ATOM      1  C   UNL     1       5.798  11.617 -21.474  1.00  0.00     0.180 A 
ATOM      2  C   UNL     1       5.204  10.960 -22.565  1.00  0.00     0.208 A 
ATOM      3  C   UNL     1       3.845  10.611 -22.494  1.00  0.00     0.238 A 
ATOM      4  O   UNL     1       3.333   9.975 -23.451  1.00  0.00    -0.285 OA
ATOM      5  C   UNL     1       3.095  10.940 -21.339  1.00  0.00     0.111 A 
ATOM      6  C   UNL     1       1.703  10.670 -21.175  1.00  0.00     0.134 A 
ATOM      7  C   UNL     1       1.092  10.921 -19.939  1.00  0.00     0.093 A 
ATOM      8  C   UNL     1       1.809  11.490 -18.884  1.00  0.00     0.123 A 
ATOM      9  C   UNL     1       3.154  11.810 -19.054  1.00  0.00     0.094 A 
ATOM     10  C   UNL     1       3.799  11.540 -20.263  1.00  0.00     0.146 A 
ATOM     11  O   UNL     1       5.084  11.851 -20.379  1.00  0.00    -0.452 OA
ENDROOT
BRANCH   1  12
ATOM     12  C   UNL     1       7.218  12.038 -21.486  1.00  0.00     0.029 A 
ATOM     13  C   UNL     1       7.754  12.772 -22.557  1.00  0.00     0.062 A 
ATOM     14  C   UNL     1       9.092  13.182 -22.542  1.00  0.00     0.162 A 
ATOM     15  C   UNL     1       8.033  11.749 -20.381  1.00  0.00     0.062 A 
ATOM     16  C   UNL     1       9.909  12.871 -21.442  1.00  0.00     0.200 A 
ATOM     17  C   UNL     1       9.374  12.156 -20.357  1.00  0.00     0.162 A 
BRANCH  14  18
ATOM     18  O   UNL     1       9.588  13.904 -23.627  1.00  0.00    -0.504 OA
ATOM     19  H   UNL     1      10.450  14.434 -23.573  1.00  0.00     0.293 HD
ENDBRANCH  14  18
BRANCH  16  20
ATOM     20  O   UNL     1      11.243  13.280 -21.437  1.00  0.00    -0.502 OA
ATOM     21  H   UNL     1      11.956  12.802 -21.976  1.00  0.00     0.293 HD
ENDBRANCH  16  20
BRANCH  17  22
ATOM     22  O   UNL     1      10.177  11.850 -19.259  1.00  0.00    -0.504 OA
ATOM     23  H   UNL     1      10.289  12.497 -18.486  1.00  0.00     0.293 HD
ENDBRANCH  17  22
ENDBRANCH   1  12
BRANCH   2  24
ATOM     24  O   UNL     1       5.970  10.627 -23.687  1.00  0.00    -0.502 OA
ATOM     25  H   UNL     1       5.867   9.743 -24.172  1.00  0.00     0.293 HD
ENDBRANCH   2  24
BRANCH   6  26
ATOM     26  O   UNL     1       0.875  10.188 -22.193  1.00  0.00    -0.507 OA
ATOM     27  H   UNL     1       1.181   9.980 -23.131  1.00  0.00     0.293 HD
ENDBRANCH   6  26
BRANCH   8  28
ATOM     28  O   UNL     1       1.190  11.750 -17.663  1.00  0.00    -0.508 OA
ATOM     29  H   UNL     1       0.529  11.099 -17.255  1.00  0.00     0.293 HD
ENDBRANCH   8  28
TORSDOF 7
ENDMDL
MODEL 9
REMARK VINA RESULT:    -6.128      1.659      6.844
REMARK INTER + INTRA:          -7.898
REMARK INTER:                  -8.323
REMARK INTRA:                   0.425
REMARK UNBOUND:                -0.337
REMARK SMILES O=c1c(O)c(-c2cc(O)c(O)c(O)c2)oc2cc(O)cc(O)c12
REMARK SMILES IDX 5 1 3 2 2 3 1 4 23 5 21 6 20 7 18 8 17 9 16 10 15 11 6 12
REMARK SMILES IDX 7 13 8 14 14 15 10 16 12 17 9 18 11 20 13 22 4 24 22 26
REMARK SMILES IDX 19 28
REMARK H PARENT 9 19 11 21 13 23 4 25 22 27 19 29
REMARK Flexibility Score: inf
ROOT
ATOM      1  C   UNL     1       5.578  11.424 -21.295  1.00  0.00     0.180 A 
ATOM      2  C   UNL     1       5.003  11.180 -20.036  1.00  0.00     0.208 A 
ATOM      3  C   UNL     1       3.667  10.752 -19.967  1.00  0.00     0.238 A 
ATOM      4  O   UNL     1       3.142  10.588 -18.835  1.00  0.00    -0.285 OA
ATOM      5  C   UNL     1       2.929  10.559 -21.160  1.00  0.00     0.111 A 
ATOM      6  C   UNL     1       1.581  10.090 -21.209  1.00  0.00     0.134 A 
ATOM      7  C   UNL     1       0.906  10.060 -22.437  1.00  0.00     0.093 A 
ATOM      8  C   UNL     1       1.550  10.421 -23.622  1.00  0.00     0.123 A 
ATOM      9  C   UNL     1       2.883  10.824 -23.590  1.00  0.00     0.094 A 
ATOM     10  C   UNL     1       3.572  10.898 -22.378  1.00  0.00     0.146 A 
ATOM     11  O   UNL     1       4.838  11.297 -22.391  1.00  0.00    -0.452 OA
ENDROOT
BRANCH   1  12
ATOM     12  C   UNL     1       6.987  11.852 -21.449  1.00  0.00     0.029 A 
ATOM     13  C   UNL     1       7.438  12.470 -22.627  1.00  0.00     0.062 A 
ATOM     14  C   UNL     1       8.767  12.890 -22.748  1.00  0.00     0.162 A 
ATOM     15  C   UNL     1       7.878  11.691 -20.378  1.00  0.00     0.062 A 
ATOM     16  C   UNL     1       9.661  12.707 -21.680  1.00  0.00     0.200 A 
ATOM     17  C   UNL     1       9.212  12.108 -20.491  1.00  0.00     0.162 A 
BRANCH  14  18
ATOM     18  O   UNL     1       9.178  13.496 -23.936  1.00  0.00    -0.504 OA
ATOM     19  H   UNL     1       9.503  14.455 -23.967  1.00  0.00     0.293 HD
ENDBRANCH  14  18
BRANCH  16  20
ATOM     20  O   UNL     1      10.987  13.124 -21.810  1.00  0.00    -0.502 OA
ATOM     21  H   UNL     1      11.667  12.601 -22.350  1.00  0.00     0.293 HD
ENDBRANCH  16  20
BRANCH  17  22
ATOM     22  O   UNL     1      10.092  11.928 -19.424  1.00  0.00    -0.504 OA
ATOM     23  H   UNL     1       9.912  12.334 -18.512  1.00  0.00     0.293 HD
ENDBRANCH  17  22
ENDBRANCH   1  12
BRANCH   2  24
ATOM     24  O   UNL     1       5.745  11.398 -18.872  1.00  0.00    -0.502 OA
ATOM     25  H   UNL     1       5.379  11.920 -18.083  1.00  0.00     0.293 HD
ENDBRANCH   2  24
BRANCH   6  26
ATOM     26  O   UNL     1       0.876   9.619 -20.098  1.00  0.00    -0.507 OA
ATOM     27  H   UNL     1       1.089   8.767 -19.602  1.00  0.00     0.293 HD
ENDBRANCH   6  26
BRANCH   8  28
ATOM     28  O   UNL     1       0.875  10.374 -24.840  1.00  0.00    -0.508 OA
ATOM     29  H   UNL     1      -0.115  10.166 -24.890  1.00  0.00     0.293 HD
ENDBRANCH   8  28
TORSDOF 7
ENDMDL
