MODEL 1
REMARK VINA RESULT:    -3.566      0.000      0.000
REMARK INTER + INTRA:          -6.087
REMARK INTER:                  -5.442
REMARK INTRA:                  -0.645
REMARK UNBOUND:                -0.645
REMARK SMILES CCCCCCCCCCC(=O)[O-]
REMARK SMILES IDX 7 1 8 2 9 3 10 4 11 5 12 6 13 7 6 8 5 9 4 10 3 11 2 12 1 13
REMARK H PARENT
REMARK Flexibility Score: inf
ROOT
ATOM      1  C   UNL     1     -14.517 -16.168   4.535  1.00  0.00     0.000 C 
ENDROOT
BRANCH   1   2
ATOM      2  C   UNL     1     -14.196 -14.707   4.183  1.00  0.00     0.000 C 
BRANCH   2   3
ATOM      3  C   UNL     1     -14.567 -13.729   5.308  1.00  0.00     0.006 C 
BRANCH   3   4
ATOM      4  C   UNL     1     -13.374 -12.844   5.679  1.00  0.00     0.053 C 
BRANCH   4   5
ATOM      5  C   UNL     1     -13.189 -11.761   4.665  1.00  0.00     0.041 C 
ATOM      6  O   UNL     1     -12.339 -11.892   3.746  1.00  0.00    -0.550 OA
ATOM      7  O   UNL     1     -13.919 -10.583   4.763  1.00  0.00    -0.550 OA
ENDBRANCH   4   5
ENDBRANCH   3   4
ENDBRANCH   2   3
ENDBRANCH   1   2
BRANCH   1   8
ATOM      8  C   UNL     1     -15.370 -16.296   5.808  1.00  0.00     0.000 C 
BRANCH   8   9
ATOM      9  C   UNL     1     -15.135 -17.629   6.538  1.00  0.00    -0.000 C 
BRANCH   9  10
ATOM     10  C   UNL     1     -14.809 -18.782   5.571  1.00  0.00    -0.000 C 
BRANCH  10  11
ATOM     11  C   UNL     1     -13.429 -19.409   5.860  1.00  0.00    -0.000 C 
BRANCH  11  12
ATOM     12  C   UNL     1     -12.440 -19.282   4.689  1.00  0.00    -0.003 C 
ATOM     13  C   UNL     1     -11.189 -18.483   5.045  1.00  0.00     0.004 C 
ENDBRANCH  11  12
ENDBRANCH  10  11
ENDBRANCH   9  10
ENDBRANCH   8   9
ENDBRANCH   1   8
TORSDOF 9
ENDMDL
MODEL 2
REMARK VINA RESULT:    -3.441     18.602     20.178
REMARK INTER + INTRA:          -5.896
REMARK INTER:                  -5.645
REMARK INTRA:                  -0.251
REMARK UNBOUND:                -0.645
REMARK SMILES CCCCCCCCCCC(=O)[O-]
REMARK SMILES IDX 7 1 8 2 9 3 10 4 11 5 12 6 13 7 6 8 5 9 4 10 3 11 2 12 1 13
REMARK H PARENT
REMARK Flexibility Score: inf
ROOT
ATOM      1  C   UNL     1      -2.169  -6.984  19.613  1.00  0.00     0.000 C 
ENDROOT
BRANCH   1   2
ATOM      2  C   UNL     1      -1.414  -6.954  20.952  1.00  0.00     0.000 C 
BRANCH   2   3
ATOM      3  C   UNL     1      -0.077  -6.203  20.864  1.00  0.00     0.006 C 
BRANCH   3   4
ATOM      4  C   UNL     1      -0.238  -4.887  20.098  1.00  0.00     0.053 C 
BRANCH   4   5
ATOM      5  C   UNL     1       0.450  -4.964  18.773  1.00  0.00     0.041 C 
ATOM      6  O   UNL     1      -0.214  -4.875  17.707  1.00  0.00    -0.550 OA
ATOM      7  O   UNL     1       1.821  -5.184  18.712  1.00  0.00    -0.550 OA
ENDBRANCH   4   5
ENDBRANCH   3   4
ENDBRANCH   2   3
ENDBRANCH   1   2
BRANCH   1   8
ATOM      8  C   UNL     1      -2.934  -8.301  19.395  1.00  0.00     0.000 C 
BRANCH   8   9
ATOM      9  C   UNL     1      -3.814  -8.264  18.135  1.00  0.00    -0.000 C 
BRANCH   9  10
ATOM     10  C   UNL     1      -5.281  -8.631  18.428  1.00  0.00    -0.000 C 
BRANCH  10  11
ATOM     11  C   UNL     1      -5.398  -9.785  19.444  1.00  0.00    -0.000 C 
BRANCH  11  12
ATOM     12  C   UNL     1      -6.851 -10.184  19.756  1.00  0.00    -0.003 C 
ATOM     13  C   UNL     1      -7.869  -9.495  18.850  1.00  0.00     0.004 C 
ENDBRANCH  11  12
ENDBRANCH  10  11
ENDBRANCH   9  10
ENDBRANCH   8   9
ENDBRANCH   1   8
TORSDOF 9
ENDMDL
MODEL 3
REMARK VINA RESULT:    -3.438      1.069      1.413
REMARK INTER + INTRA:          -5.892
REMARK INTER:                  -5.308
REMARK INTRA:                  -0.584
REMARK UNBOUND:                -0.645
REMARK SMILES CCCCCCCCCCC(=O)[O-]
REMARK SMILES IDX 7 1 8 2 9 3 10 4 11 5 12 6 13 7 6 8 5 9 4 10 3 11 2 12 1 13
REMARK H PARENT
REMARK Flexibility Score: inf
ROOT
ATOM      1  C   UNL     1     -15.653 -16.030   5.499  1.00  0.00     0.000 C 
ENDROOT
BRANCH   1   2
ATOM      2  C   UNL     1     -14.444 -15.351   4.838  1.00  0.00     0.000 C 
BRANCH   2   3
ATOM      3  C   UNL     1     -14.786 -13.977   4.242  1.00  0.00     0.006 C 
BRANCH   3   4
ATOM      4  C   UNL     1     -14.576 -12.865   5.273  1.00  0.00     0.053 C 
BRANCH   4   5
ATOM      5  C   UNL     1     -13.135 -12.470   5.333  1.00  0.00     0.041 C 
ATOM      6  O   UNL     1     -12.464 -12.674   6.378  1.00  0.00    -0.550 OA
ATOM      7  O   UNL     1     -12.544 -11.829   4.251  1.00  0.00    -0.550 OA
ENDBRANCH   4   5
ENDBRANCH   3   4
ENDBRANCH   2   3
ENDBRANCH   1   2
BRANCH   1   8
ATOM      8  C   UNL     1     -15.558 -17.566   5.471  1.00  0.00     0.000 C 
BRANCH   8   9
ATOM      9  C   UNL     1     -14.590 -18.110   6.535  1.00  0.00    -0.000 C 
BRANCH   9  10
ATOM     10  C   UNL     1     -13.544 -19.074   5.944  1.00  0.00    -0.000 C 
BRANCH  10  11
ATOM     11  C   UNL     1     -13.143 -18.683   4.507  1.00  0.00    -0.000 C 
BRANCH  11  12
ATOM     12  C   UNL     1     -11.687 -19.039   4.157  1.00  0.00    -0.003 C 
ATOM     13  C   UNL     1     -10.679 -18.491   5.164  1.00  0.00     0.004 C 
ENDBRANCH  11  12
ENDBRANCH  10  11
ENDBRANCH   9  10
ENDBRANCH   8   9
ENDBRANCH   1   8
TORSDOF 9
ENDMDL
MODEL 4
REMARK VINA RESULT:    -3.422      3.249      6.061
REMARK INTER + INTRA:          -5.867
REMARK INTER:                  -5.054
REMARK INTRA:                  -0.813
REMARK UNBOUND:                -0.645
REMARK SMILES CCCCCCCCCCC(=O)[O-]
REMARK SMILES IDX 7 1 8 2 9 3 10 4 11 5 12 6 13 7 6 8 5 9 4 10 3 11 2 12 1 13
REMARK H PARENT
REMARK Flexibility Score: inf
ROOT
ATOM      1  C   UNL     1     -14.880 -14.349   5.386  1.00  0.00     0.000 C 
ENDROOT
BRANCH   1   2
ATOM      2  C   UNL     1     -14.200 -15.210   4.310  1.00  0.00     0.000 C 
BRANCH   2   3
ATOM      3  C   UNL     1     -14.211 -16.707   4.652  1.00  0.00     0.006 C 
BRANCH   3   4
ATOM      4  C   UNL     1     -13.049 -17.433   3.968  1.00  0.00     0.053 C 
BRANCH   4   5
ATOM      5  C   UNL     1     -12.410 -18.404   4.909  1.00  0.00     0.041 C 
ATOM      6  O   UNL     1     -13.122 -19.172   5.607  1.00  0.00    -0.550 OA
ATOM      7  O   UNL     1     -11.028 -18.427   5.053  1.00  0.00    -0.550 OA
ENDBRANCH   4   5
ENDBRANCH   3   4
ENDBRANCH   2   3
ENDBRANCH   1   2
BRANCH   1   8
ATOM      8  C   UNL     1     -14.636 -12.844   5.181  1.00  0.00     0.000 C 
BRANCH   8   9
ATOM      9  C   UNL     1     -13.149 -12.471   5.301  1.00  0.00    -0.000 C 
BRANCH   9  10
ATOM     10  C   UNL     1     -12.609 -11.784   4.032  1.00  0.00    -0.000 C 
BRANCH  10  11
ATOM     11  C   UNL     1     -13.701 -11.612   2.956  1.00  0.00    -0.000 C 
BRANCH  11  12
ATOM     12  C   UNL     1     -13.424 -12.407   1.668  1.00  0.00    -0.003 C 
ATOM     13  C   UNL     1     -12.116 -13.193   1.718  1.00  0.00     0.004 C 
ENDBRANCH  11  12
ENDBRANCH  10  11
ENDBRANCH   9  10
ENDBRANCH   8   9
ENDBRANCH   1   8
TORSDOF 9
ENDMDL
MODEL 5
REMARK VINA RESULT:    -3.415      3.080      6.086
REMARK INTER + INTRA:          -5.856
REMARK INTER:                  -5.276
REMARK INTRA:                  -0.580
REMARK UNBOUND:                -0.645
REMARK SMILES CCCCCCCCCCC(=O)[O-]
REMARK SMILES IDX 7 1 8 2 9 3 10 4 11 5 12 6 13 7 6 8 5 9 4 10 3 11 2 12 1 13
REMARK H PARENT
REMARK Flexibility Score: inf
ROOT
ATOM      1  C   UNL     1     -14.928 -16.390   5.412  1.00  0.00     0.000 C 
ENDROOT
BRANCH   1   2
ATOM      2  C   UNL     1     -15.032 -17.922   5.466  1.00  0.00     0.000 C 
BRANCH   2   3
ATOM      3  C   UNL     1     -13.871 -18.569   6.236  1.00  0.00     0.006 C 
BRANCH   3   4
ATOM      4  C   UNL     1     -13.166 -19.623   5.377  1.00  0.00     0.053 C 
BRANCH   4   5
ATOM      5  C   UNL     1     -12.041 -19.006   4.608  1.00  0.00     0.041 C 
ATOM      6  O   UNL     1     -12.041 -19.040   3.349  1.00  0.00    -0.550 OA
ATOM      7  O   UNL     1     -10.967 -18.436   5.280  1.00  0.00    -0.550 OA
ENDBRANCH   4   5
ENDBRANCH   3   4
ENDBRANCH   2   3
ENDBRANCH   1   2
BRANCH   1   8
ATOM      8  C   UNL     1     -14.099 -15.895   4.214  1.00  0.00     0.000 C 
BRANCH   8   9
ATOM      9  C   UNL     1     -14.142 -14.366   4.064  1.00  0.00    -0.000 C 
BRANCH   9  10
ATOM     10  C   UNL     1     -14.172 -13.640   5.422  1.00  0.00    -0.000 C 
BRANCH  10  11
ATOM     11  C   UNL     1     -13.150 -12.486   5.485  1.00  0.00    -0.000 C 
BRANCH  11  12
ATOM     12  C   UNL     1     -12.771 -11.925   4.103  1.00  0.00    -0.003 C 
ATOM     13  C   UNL     1     -13.191 -10.469   3.912  1.00  0.00     0.004 C 
ENDBRANCH  11  12
ENDBRANCH  10  11
ENDBRANCH   9  10
ENDBRANCH   8   9
ENDBRANCH   1   8
TORSDOF 9
ENDMDL
MODEL 6
REMARK VINA RESULT:    -3.369      1.313      1.868
REMARK INTER + INTRA:          -5.786
REMARK INTER:                  -5.211
REMARK INTRA:                  -0.576
REMARK UNBOUND:                -0.645
REMARK SMILES CCCCCCCCCCC(=O)[O-]
REMARK SMILES IDX 7 1 8 2 9 3 10 4 11 5 12 6 13 7 6 8 5 9 4 10 3 11 2 12 1 13
REMARK H PARENT
REMARK Flexibility Score: inf
ROOT
ATOM      1  C   UNL     1     -14.338 -14.736   5.056  1.00  0.00     0.000 C 
ENDROOT
BRANCH   1   2
ATOM      2  C   UNL     1     -14.464 -13.205   5.090  1.00  0.00     0.000 C 
BRANCH   2   3
ATOM      3  C   UNL     1     -13.128 -12.506   5.383  1.00  0.00     0.006 C 
BRANCH   3   4
ATOM      4  C   UNL     1     -12.604 -11.783   4.139  1.00  0.00     0.053 C 
BRANCH   4   5
ATOM      5  C   UNL     1     -13.562 -10.720   3.707  1.00  0.00     0.041 C 
ATOM      6  O   UNL     1     -14.029 -10.724   2.538  1.00  0.00    -0.550 OA
ATOM      7  O   UNL     1     -13.903  -9.693   4.580  1.00  0.00    -0.550 OA
ENDBRANCH   4   5
ENDBRANCH   3   4
ENDBRANCH   2   3
ENDBRANCH   1   2
BRANCH   1   8
ATOM      8  C   UNL     1     -14.016 -15.272   3.650  1.00  0.00     0.000 C 
BRANCH   8   9
ATOM      9  C   UNL     1     -13.618 -16.757   3.667  1.00  0.00    -0.000 C 
BRANCH   9  10
ATOM     10  C   UNL     1     -14.060 -17.472   4.958  1.00  0.00    -0.000 C 
BRANCH  10  11
ATOM     11  C   UNL     1     -13.153 -18.673   5.295  1.00  0.00    -0.000 C 
BRANCH  11  12
ATOM     12  C   UNL     1     -11.857 -18.716   4.468  1.00  0.00    -0.003 C 
ATOM     13  C   UNL     1     -10.603 -18.483   5.308  1.00  0.00     0.004 C 
ENDBRANCH  11  12
ENDBRANCH  10  11
ENDBRANCH   9  10
ENDBRANCH   8   9
ENDBRANCH   1   8
TORSDOF 9
ENDMDL
MODEL 7
REMARK VINA RESULT:    -3.346      3.427      6.260
REMARK INTER + INTRA:          -5.752
REMARK INTER:                  -4.947
REMARK INTRA:                  -0.804
REMARK UNBOUND:                -0.645
REMARK SMILES CCCCCCCCCCC(=O)[O-]
REMARK SMILES IDX 7 1 8 2 9 3 10 4 11 5 12 6 13 7 6 8 5 9 4 10 3 11 2 12 1 13
REMARK H PARENT
REMARK Flexibility Score: inf
ROOT
ATOM      1  C   UNL     1     -14.154 -15.264   3.015  1.00  0.00     0.000 C 
ENDROOT
BRANCH   1   2
ATOM      2  C   UNL     1     -13.495 -16.329   3.906  1.00  0.00     0.000 C 
BRANCH   2   3
ATOM      3  C   UNL     1     -13.705 -17.757   3.380  1.00  0.00     0.006 C 
BRANCH   3   4
ATOM      4  C   UNL     1     -12.411 -18.571   3.475  1.00  0.00     0.053 C 
BRANCH   4   5
ATOM      5  C   UNL     1     -11.971 -18.692   4.899  1.00  0.00     0.041 C 
ATOM      6  O   UNL     1     -12.778 -19.090   5.779  1.00  0.00    -0.550 OA
ATOM      7  O   UNL     1     -10.684 -18.319   5.264  1.00  0.00    -0.550 OA
ENDBRANCH   4   5
ENDBRANCH   3   4
ENDBRANCH   2   3
ENDBRANCH   1   2
BRANCH   1   8
ATOM      8  C   UNL     1     -13.268 -14.860   1.824  1.00  0.00     0.000 C 
BRANCH   8   9
ATOM      9  C   UNL     1     -12.585 -13.500   2.038  1.00  0.00    -0.000 C 
BRANCH   9  10
ATOM     10  C   UNL     1     -13.477 -12.505   2.804  1.00  0.00    -0.000 C 
BRANCH  10  11
ATOM     11  C   UNL     1     -12.716 -11.805   3.948  1.00  0.00    -0.000 C 
BRANCH  11  12
ATOM     12  C   UNL     1     -12.930 -12.464   5.322  1.00  0.00    -0.003 C 
ATOM     13  C   UNL     1     -14.396 -12.771   5.617  1.00  0.00     0.004 C 
ENDBRANCH  11  12
ENDBRANCH  10  11
ENDBRANCH   9  10
ENDBRANCH   8   9
ENDBRANCH   1   8
TORSDOF 9
ENDMDL
MODEL 8
REMARK VINA RESULT:    -3.111      1.584      2.550
REMARK INTER + INTRA:          -5.393
REMARK INTER:                  -4.530
REMARK INTRA:                  -0.863
REMARK UNBOUND:                -0.645
REMARK SMILES CCCCCCCCCCC(=O)[O-]
REMARK SMILES IDX 7 1 8 2 9 3 10 4 11 5 12 6 13 7 6 8 5 9 4 10 3 11 2 12 1 13
REMARK H PARENT
REMARK Flexibility Score: inf
ROOT
ATOM      1  C   UNL     1     -14.649 -14.631   5.234  1.00  0.00     0.000 C 
ENDROOT
BRANCH   1   2
ATOM      2  C   UNL     1     -14.614 -13.102   5.089  1.00  0.00     0.000 C 
BRANCH   2   3
ATOM      3  C   UNL     1     -13.199 -12.523   5.236  1.00  0.00     0.006 C 
BRANCH   3   4
ATOM      4  C   UNL     1     -12.925 -11.471   4.157  1.00  0.00     0.053 C 
BRANCH   4   5
ATOM      5  C   UNL     1     -13.185 -12.034   2.796  1.00  0.00     0.041 C 
ATOM      6  O   UNL     1     -12.439 -12.934   2.330  1.00  0.00    -0.550 OA
ATOM      7  O   UNL     1     -14.223 -11.531   2.022  1.00  0.00    -0.550 OA
ENDBRANCH   4   5
ENDBRANCH   3   4
ENDBRANCH   2   3
ENDBRANCH   1   2
BRANCH   1   8
ATOM      8  C   UNL     1     -15.057 -15.340   3.931  1.00  0.00     0.000 C 
BRANCH   8   9
ATOM      9  C   UNL     1     -13.891 -16.117   3.298  1.00  0.00    -0.000 C 
BRANCH   9  10
ATOM     10  C   UNL     1     -13.296 -17.169   4.252  1.00  0.00    -0.000 C 
BRANCH  10  11
ATOM     11  C   UNL     1     -14.329 -18.244   4.648  1.00  0.00    -0.000 C 
BRANCH  11  12
ATOM     12  C   UNL     1     -14.239 -18.669   6.124  1.00  0.00    -0.003 C 
ATOM     13  C   UNL     1     -15.198 -17.898   7.028  1.00  0.00     0.004 C 
ENDBRANCH  11  12
ENDBRANCH  10  11
ENDBRANCH   9  10
ENDBRANCH   8   9
ENDBRANCH   1   8
TORSDOF 9
ENDMDL
MODEL 9
REMARK VINA RESULT:    -3.061      1.357      2.696
REMARK INTER + INTRA:          -5.317
REMARK INTER:                  -4.246
REMARK INTRA:                  -1.071
REMARK UNBOUND:                -0.645
REMARK SMILES CCCCCCCCCCC(=O)[O-]
REMARK SMILES IDX 7 1 8 2 9 3 10 4 11 5 12 6 13 7 6 8 5 9 4 10 3 11 2 12 1 13
REMARK H PARENT
REMARK Flexibility Score: inf
ROOT
ATOM      1  C   UNL     1     -13.496 -16.554   3.330  1.00  0.00     0.000 C 
ENDROOT
BRANCH   1   2
ATOM      2  C   UNL     1     -15.010 -16.309   3.417  1.00  0.00     0.000 C 
BRANCH   2   3
ATOM      3  C   UNL     1     -15.361 -15.019   4.174  1.00  0.00     0.006 C 
BRANCH   3   4
ATOM      4  C   UNL     1     -14.193 -14.566   5.054  1.00  0.00     0.053 C 
BRANCH   4   5
ATOM      5  C   UNL     1     -14.085 -13.074   5.055  1.00  0.00     0.041 C 
ATOM      6  O   UNL     1     -13.177 -12.505   5.716  1.00  0.00    -0.550 OA
ATOM      7  O   UNL     1     -15.019 -12.308   4.368  1.00  0.00    -0.550 OA
ENDBRANCH   4   5
ENDBRANCH   3   4
ENDBRANCH   2   3
ENDBRANCH   1   2
BRANCH   1   8
ATOM      8  C   UNL     1     -13.152 -17.996   2.918  1.00  0.00     0.000 C 
BRANCH   8   9
ATOM      9  C   UNL     1     -12.250 -18.698   3.946  1.00  0.00    -0.000 C 
BRANCH   9  10
ATOM     10  C   UNL     1     -13.013 -19.736   4.790  1.00  0.00    -0.000 C 
BRANCH  10  11
ATOM     11  C   UNL     1     -13.528 -19.139   6.116  1.00  0.00    -0.000 C 
BRANCH  11  12
ATOM     12  C   UNL     1     -15.033 -18.823   6.104  1.00  0.00    -0.003 C 
ATOM     13  C   UNL     1     -15.404 -17.640   6.995  1.00  0.00     0.004 C 
ENDBRANCH  11  12
ENDBRANCH  10  11
ENDBRANCH   9  10
ENDBRANCH   8   9
ENDBRANCH   1   8
TORSDOF 9
ENDMDL
