MODEL 1
REMARK VINA RESULT:    -5.362      0.000      0.000
REMARK INTER + INTRA:          -6.567
REMARK INTER:                  -6.303
REMARK INTRA:                  -0.264
REMARK UNBOUND:                -0.264
REMARK SMILES O=c1cc(-c2ccc(O)c(O)c2)oc2cc(O)cc(O)c12
REMARK SMILES IDX 4 1 3 2 2 3 1 4 21 5 19 6 18 7 16 8 15 9 14 10 13 11 5 12
REMARK SMILES IDX 6 13 7 14 8 15 12 16 10 17 9 18 11 20 20 22 17 24
REMARK H PARENT 9 19 11 21 20 23 17 25
REMARK Flexibility Score: inf
ROOT
ATOM      1  C   UNL     1      11.311  -0.262  14.817  1.00  0.00     0.138 A 
ATOM      2  C   UNL     1      11.356   0.589  13.704  1.00  0.00     0.100 A 
ATOM      3  C   UNL     1      10.210   1.288  13.322  1.00  0.00     0.197 A 
ATOM      4  O   UNL     1      10.298   2.085  12.353  1.00  0.00    -0.289 OA
ATOM      5  C   UNL     1       9.003   1.105  14.038  1.00  0.00     0.107 A 
ATOM      6  C   UNL     1       7.763   1.738  13.719  1.00  0.00     0.134 A 
ATOM      7  C   UNL     1       6.659   1.557  14.561  1.00  0.00     0.093 A 
ATOM      8  C   UNL     1       6.733   0.719  15.677  1.00  0.00     0.123 A 
ATOM      9  C   UNL     1       7.924   0.058  15.967  1.00  0.00     0.094 A 
ATOM     10  C   UNL     1       9.053   0.245  15.168  1.00  0.00     0.146 A 
ATOM     11  O   UNL     1      10.174  -0.391  15.491  1.00  0.00    -0.456 OA
ENDROOT
BRANCH   1  12
ATOM     12  C   UNL     1      12.499  -1.032  15.265  1.00  0.00     0.021 A 
ATOM     13  C   UNL     1      13.227  -0.668  16.414  1.00  0.00     0.016 A 
ATOM     14  C   UNL     1      14.335  -1.418  16.817  1.00  0.00     0.051 A 
ATOM     15  C   UNL     1      14.730  -2.546  16.087  1.00  0.00     0.157 A 
ATOM     16  C   UNL     1      12.894  -2.174  14.546  1.00  0.00     0.062 A 
ATOM     17  C   UNL     1      14.004  -2.927  14.947  1.00  0.00     0.158 A 
BRANCH  15  18
ATOM     18  O   UNL     1      15.838  -3.290  16.491  1.00  0.00    -0.504 OA
ATOM     19  H   UNL     1      16.329  -3.901  15.850  1.00  0.00     0.293 HD
ENDBRANCH  15  18
BRANCH  17  20
ATOM     20  O   UNL     1      14.368  -4.046  14.201  1.00  0.00    -0.504 OA
ATOM     21  H   UNL     1      14.620  -3.982  13.222  1.00  0.00     0.293 HD
ENDBRANCH  17  20
ENDBRANCH   1  12
BRANCH   6  22
ATOM     22  O   UNL     1       7.557   2.531  12.586  1.00  0.00    -0.507 OA
ATOM     23  H   UNL     1       7.984   2.377  11.685  1.00  0.00     0.293 HD
ENDBRANCH   6  22
BRANCH   8  24
ATOM     24  O   UNL     1       5.625   0.532  16.499  1.00  0.00    -0.508 OA
ATOM     25  H   UNL     1       5.495  -0.322  17.027  1.00  0.00     0.293 HD
ENDBRANCH   8  24
TORSDOF 5
ENDMDL
MODEL 2
REMARK VINA RESULT:    -4.949      1.527      7.038
REMARK INTER + INTRA:          -6.081
REMARK INTER:                  -5.818
REMARK INTRA:                  -0.264
REMARK UNBOUND:                -0.264
REMARK SMILES O=c1cc(-c2ccc(O)c(O)c2)oc2cc(O)cc(O)c12
REMARK SMILES IDX 4 1 3 2 2 3 1 4 21 5 19 6 18 7 16 8 15 9 14 10 13 11 5 12
REMARK SMILES IDX 6 13 7 14 8 15 12 16 10 17 9 18 11 20 20 22 17 24
REMARK H PARENT 9 19 11 21 20 23 17 25
REMARK Flexibility Score: inf
ROOT
ATOM      1  C   UNL     1       9.659  -0.517  14.761  1.00  0.00     0.138 A 
ATOM      2  C   UNL     1       9.749  -1.489  13.755  1.00  0.00     0.100 A 
ATOM      3  C   UNL     1      10.943  -2.190  13.578  1.00  0.00     0.197 A 
ATOM      4  O   UNL     1      10.976  -3.093  12.703  1.00  0.00    -0.289 OA
ATOM      5  C   UNL     1      12.063  -1.890  14.390  1.00  0.00     0.107 A 
ATOM      6  C   UNL     1      13.342  -2.515  14.278  1.00  0.00     0.134 A 
ATOM      7  C   UNL     1      14.345  -2.205  15.204  1.00  0.00     0.093 A 
ATOM      8  C   UNL     1      14.135  -1.251  16.202  1.00  0.00     0.123 A 
ATOM      9  C   UNL     1      12.908  -0.598  16.288  1.00  0.00     0.094 A 
ATOM     10  C   UNL     1      11.875  -0.910  15.402  1.00  0.00     0.146 A 
ATOM     11  O   UNL     1      10.714  -0.277  15.531  1.00  0.00    -0.456 OA
ENDROOT
BRANCH   1  12
ATOM     12  C   UNL     1       8.414   0.261  14.991  1.00  0.00     0.021 A 
ATOM     13  C   UNL     1       7.633   0.083  16.148  1.00  0.00     0.016 A 
ATOM     14  C   UNL     1       6.472   0.836  16.342  1.00  0.00     0.051 A 
ATOM     15  C   UNL     1       6.076   1.785  15.390  1.00  0.00     0.157 A 
ATOM     16  C   UNL     1       8.018   1.225  14.047  1.00  0.00     0.062 A 
ATOM     17  C   UNL     1       6.855   1.981  14.239  1.00  0.00     0.158 A 
BRANCH  15  18
ATOM     18  O   UNL     1       4.917   2.533  15.586  1.00  0.00    -0.504 OA
ATOM     19  H   UNL     1       4.008   2.187  15.302  1.00  0.00     0.293 HD
ENDBRANCH  15  18
BRANCH  17  20
ATOM     20  O   UNL     1       6.492   2.919  13.274  1.00  0.00    -0.504 OA
ATOM     21  H   UNL     1       7.062   3.732  13.072  1.00  0.00     0.293 HD
ENDBRANCH  17  20
ENDBRANCH   1  12
BRANCH   6  22
ATOM     22  O   UNL     1      13.684  -3.423  13.271  1.00  0.00    -0.507 OA
ATOM     23  H   UNL     1      14.389  -4.140  13.352  1.00  0.00     0.293 HD
ENDBRANCH   6  22
BRANCH   8  24
ATOM     24  O   UNL     1      15.145  -0.938  17.109  1.00  0.00    -0.508 OA
ATOM     25  H   UNL     1      15.414   0.022  17.293  1.00  0.00     0.293 HD
ENDBRANCH   8  24
TORSDOF 5
ENDMDL
MODEL 3
REMARK VINA RESULT:    -4.886     10.974     11.913
REMARK INTER + INTRA:          -6.007
REMARK INTER:                  -5.697
REMARK INTRA:                  -0.310
REMARK UNBOUND:                -0.264
REMARK SMILES O=c1cc(-c2ccc(O)c(O)c2)oc2cc(O)cc(O)c12
REMARK SMILES IDX 4 1 3 2 2 3 1 4 21 5 19 6 18 7 16 8 15 9 14 10 13 11 5 12
REMARK SMILES IDX 6 13 7 14 8 15 12 16 10 17 9 18 11 20 20 22 17 24
REMARK H PARENT 9 19 11 21 20 23 17 25
REMARK Flexibility Score: inf
ROOT
ATOM      1  C   UNL     1      14.008   8.322  22.327  1.00  0.00     0.138 A 
ATOM      2  C   UNL     1      12.761   8.345  22.969  1.00  0.00     0.100 A 
ATOM      3  C   UNL     1      11.628   7.891  22.293  1.00  0.00     0.197 A 
ATOM      4  O   UNL     1      10.534   7.873  22.914  1.00  0.00    -0.289 OA
ATOM      5  C   UNL     1      11.738   7.447  20.953  1.00  0.00     0.107 A 
ATOM      6  C   UNL     1      10.646   6.995  20.152  1.00  0.00     0.134 A 
ATOM      7  C   UNL     1      10.894   6.485  18.872  1.00  0.00     0.093 A 
ATOM      8  C   UNL     1      12.186   6.465  18.341  1.00  0.00     0.123 A 
ATOM      9  C   UNL     1      13.251   6.950  19.096  1.00  0.00     0.094 A 
ATOM     10  C   UNL     1      13.043   7.432  20.389  1.00  0.00     0.146 A 
ATOM     11  O   UNL     1      14.090   7.869  21.081  1.00  0.00    -0.456 OA
ENDROOT
BRANCH   1  12
ATOM     12  C   UNL     1      15.245   8.794  22.999  1.00  0.00     0.021 A 
ATOM     13  C   UNL     1      15.204   9.706  24.070  1.00  0.00     0.016 A 
ATOM     14  C   UNL     1      16.385  10.125  24.689  1.00  0.00     0.051 A 
ATOM     15  C   UNL     1      17.624   9.635  24.256  1.00  0.00     0.157 A 
ATOM     16  C   UNL     1      16.492   8.296  22.580  1.00  0.00     0.062 A 
ATOM     17  C   UNL     1      17.676   8.714  23.198  1.00  0.00     0.158 A 
BRANCH  15  18
ATOM     18  O   UNL     1      18.800  10.057  24.875  1.00  0.00    -0.504 OA
ATOM     19  H   UNL     1      19.236  10.940  24.639  1.00  0.00     0.293 HD
ENDBRANCH  15  18
BRANCH  17  20
ATOM     20  O   UNL     1      18.892   8.204  22.745  1.00  0.00    -0.504 OA
ATOM     21  H   UNL     1      19.582   7.817  23.379  1.00  0.00     0.293 HD
ENDBRANCH  17  20
ENDBRANCH   1  12
BRANCH   6  22
ATOM     22  O   UNL     1       9.308   7.045  20.553  1.00  0.00    -0.507 OA
ATOM     23  H   UNL     1       8.903   7.761  21.138  1.00  0.00     0.293 HD
ENDBRANCH   6  22
BRANCH   8  24
ATOM     24  O   UNL     1      12.420   5.970  17.060  1.00  0.00    -0.508 OA
ATOM     25  H   UNL     1      12.401   4.977  16.863  1.00  0.00     0.293 HD
ENDBRANCH   8  24
TORSDOF 5
ENDMDL
MODEL 4
REMARK VINA RESULT:    -4.785      9.413     10.911
REMARK INTER + INTRA:          -5.888
REMARK INTER:                  -5.623
REMARK INTRA:                  -0.265
REMARK UNBOUND:                -0.264
REMARK SMILES O=c1cc(-c2ccc(O)c(O)c2)oc2cc(O)cc(O)c12
REMARK SMILES IDX 4 1 3 2 2 3 1 4 21 5 19 6 18 7 16 8 15 9 14 10 13 11 5 12
REMARK SMILES IDX 6 13 7 14 8 15 12 16 10 17 9 18 11 20 20 22 17 24
REMARK H PARENT 9 19 11 21 20 23 17 25
REMARK Flexibility Score: inf
ROOT
ATOM      1  C   UNL     1      13.161   8.841  17.474  1.00  0.00     0.138 A 
ATOM      2  C   UNL     1      11.915   8.901  16.835  1.00  0.00     0.100 A 
ATOM      3  C   UNL     1      11.850   9.221  15.478  1.00  0.00     0.197 A 
ATOM      4  O   UNL     1      10.722   9.213  14.921  1.00  0.00    -0.289 OA
ATOM      5  C   UNL     1      13.038   9.518  14.767  1.00  0.00     0.107 A 
ATOM      6  C   UNL     1      13.090   9.891  13.390  1.00  0.00     0.134 A 
ATOM      7  C   UNL     1      14.333  10.064  12.769  1.00  0.00     0.093 A 
ATOM      8  C   UNL     1      15.523   9.935  13.489  1.00  0.00     0.123 A 
ATOM      9  C   UNL     1      15.480   9.621  14.845  1.00  0.00     0.094 A 
ATOM     10  C   UNL     1      14.258   9.407  15.486  1.00  0.00     0.146 A 
ATOM     11  O   UNL     1      14.264   9.092  16.776  1.00  0.00    -0.456 OA
ENDROOT
BRANCH   1  12
ATOM     12  C   UNL     1      13.288   8.508  18.916  1.00  0.00     0.021 A 
ATOM     13  C   UNL     1      13.760   9.445  19.854  1.00  0.00     0.016 A 
ATOM     14  C   UNL     1      13.859   9.106  21.206  1.00  0.00     0.051 A 
ATOM     15  C   UNL     1      13.482   7.831  21.646  1.00  0.00     0.157 A 
ATOM     16  C   UNL     1      12.898   7.235  19.367  1.00  0.00     0.062 A 
ATOM     17  C   UNL     1      12.997   6.892  20.721  1.00  0.00     0.158 A 
BRANCH  15  18
ATOM     18  O   UNL     1      13.584   7.496  22.995  1.00  0.00    -0.504 OA
ATOM     19  H   UNL     1      14.483   7.358  23.440  1.00  0.00     0.293 HD
ENDBRANCH  15  18
BRANCH  17  20
ATOM     20  O   UNL     1      12.609   5.616  21.126  1.00  0.00    -0.504 OA
ATOM     21  H   UNL     1      12.313   4.908  20.464  1.00  0.00     0.293 HD
ENDBRANCH  17  20
ENDBRANCH   1  12
BRANCH   6  22
ATOM     22  O   UNL     1      11.962  10.124  12.597  1.00  0.00    -0.507 OA
ATOM     23  H   UNL     1      11.560   9.462  11.951  1.00  0.00     0.293 HD
ENDBRANCH   6  22
BRANCH   8  24
ATOM     24  O   UNL     1      16.755  10.125  12.866  1.00  0.00    -0.508 OA
ATOM     25  H   UNL     1      17.059  11.042  12.562  1.00  0.00     0.293 HD
ENDBRANCH   8  24
TORSDOF 5
ENDMDL
MODEL 5
REMARK VINA RESULT:    -4.751      1.738      7.136
REMARK INTER + INTRA:          -5.848
REMARK INTER:                  -5.585
REMARK INTRA:                  -0.263
REMARK UNBOUND:                -0.264
REMARK SMILES O=c1cc(-c2ccc(O)c(O)c2)oc2cc(O)cc(O)c12
REMARK SMILES IDX 4 1 3 2 2 3 1 4 21 5 19 6 18 7 16 8 15 9 14 10 13 11 5 12
REMARK SMILES IDX 6 13 7 14 8 15 12 16 10 17 9 18 11 20 20 22 17 24
REMARK H PARENT 9 19 11 21 20 23 17 25
REMARK Flexibility Score: inf
ROOT
ATOM      1  C   UNL     1      10.269  -0.569  14.541  1.00  0.00     0.138 A 
ATOM      2  C   UNL     1      11.324  -0.325  15.431  1.00  0.00     0.100 A 
ATOM      3  C   UNL     1      12.494  -1.080  15.338  1.00  0.00     0.197 A 
ATOM      4  O   UNL     1      13.443  -0.801  16.115  1.00  0.00    -0.289 OA
ATOM      5  C   UNL     1      12.593  -2.109  14.370  1.00  0.00     0.107 A 
ATOM      6  C   UNL     1      13.723  -2.966  14.205  1.00  0.00     0.134 A 
ATOM      7  C   UNL     1      13.745  -3.883  13.147  1.00  0.00     0.093 A 
ATOM      8  C   UNL     1      12.655  -4.014  12.284  1.00  0.00     0.123 A 
ATOM      9  C   UNL     1      11.527  -3.218  12.468  1.00  0.00     0.094 A 
ATOM     10  C   UNL     1      11.488  -2.269  13.492  1.00  0.00     0.146 A 
ATOM     11  O   UNL     1      10.400  -1.518  13.621  1.00  0.00    -0.456 OA
ENDROOT
BRANCH   1  12
ATOM     12  C   UNL     1       9.001   0.203  14.597  1.00  0.00     0.021 A 
ATOM     13  C   UNL     1       8.676   1.165  13.623  1.00  0.00     0.016 A 
ATOM     14  C   UNL     1       7.471   1.869  13.697  1.00  0.00     0.051 A 
ATOM     15  C   UNL     1       6.567   1.618  14.737  1.00  0.00     0.157 A 
ATOM     16  C   UNL     1       8.082  -0.054  15.630  1.00  0.00     0.062 A 
ATOM     17  C   UNL     1       6.874   0.650  15.706  1.00  0.00     0.158 A 
BRANCH  15  18
ATOM     18  O   UNL     1       5.367   2.323  14.808  1.00  0.00    -0.504 OA
ATOM     19  H   UNL     1       4.683   2.282  14.062  1.00  0.00     0.293 HD
ENDBRANCH  15  18
BRANCH  17  20
ATOM     20  O   UNL     1       5.995   0.373  16.752  1.00  0.00    -0.504 OA
ATOM     21  H   UNL     1       5.358   1.071  17.119  1.00  0.00     0.293 HD
ENDBRANCH  17  20
ENDBRANCH   1  12
BRANCH   6  22
ATOM     22  O   UNL     1      14.832  -2.974  15.057  1.00  0.00    -0.507 OA
ATOM     23  H   UNL     1      15.227  -3.797  15.487  1.00  0.00     0.293 HD
ENDBRANCH   6  22
BRANCH   8  24
ATOM     24  O   UNL     1      12.680  -4.941  11.244  1.00  0.00    -0.508 OA
ATOM     25  H   UNL     1      13.276  -5.759  11.277  1.00  0.00     0.293 HD
ENDBRANCH   8  24
TORSDOF 5
ENDMDL
MODEL 6
REMARK VINA RESULT:    -4.716      1.519      3.261
REMARK INTER + INTRA:          -5.807
REMARK INTER:                  -5.545
REMARK INTRA:                  -0.262
REMARK UNBOUND:                -0.264
REMARK SMILES O=c1cc(-c2ccc(O)c(O)c2)oc2cc(O)cc(O)c12
REMARK SMILES IDX 4 1 3 2 2 3 1 4 21 5 19 6 18 7 16 8 15 9 14 10 13 11 5 12
REMARK SMILES IDX 6 13 7 14 8 15 12 16 10 17 9 18 11 20 20 22 17 24
REMARK H PARENT 9 19 11 21 20 23 17 25
REMARK Flexibility Score: inf
ROOT
ATOM      1  C   UNL     1      10.881  -0.078  14.596  1.00  0.00     0.138 A 
ATOM      2  C   UNL     1       9.604  -0.318  15.124  1.00  0.00     0.100 A 
ATOM      3  C   UNL     1       8.528   0.469  14.712  1.00  0.00     0.197 A 
ATOM      4  O   UNL     1       7.386   0.195  15.162  1.00  0.00    -0.289 OA
ATOM      5  C   UNL     1       8.739   1.526  13.793  1.00  0.00     0.107 A 
ATOM      6  C   UNL     1       7.724   2.415  13.328  1.00  0.00     0.134 A 
ATOM      7  C   UNL     1       8.034   3.360  12.342  1.00  0.00     0.093 A 
ATOM      8  C   UNL     1       9.334   3.486  11.847  1.00  0.00     0.123 A 
ATOM      9  C   UNL     1      10.342   2.656  12.331  1.00  0.00     0.094 A 
ATOM     10  C   UNL     1      10.059   1.680  13.289  1.00  0.00     0.146 A 
ATOM     11  O   UNL     1      11.046   0.898  13.710  1.00  0.00    -0.456 OA
ENDROOT
BRANCH   1  12
ATOM     12  C   UNL     1      12.061  -0.884  15.001  1.00  0.00     0.021 A 
ATOM     13  C   UNL     1      12.489  -1.998  14.256  1.00  0.00     0.016 A 
ATOM     14  C   UNL     1      13.609  -2.730  14.656  1.00  0.00     0.051 A 
ATOM     15  C   UNL     1      14.326  -2.359  15.800  1.00  0.00     0.157 A 
ATOM     16  C   UNL     1      12.795  -0.508  16.141  1.00  0.00     0.062 A 
ATOM     17  C   UNL     1      13.917  -1.240  16.544  1.00  0.00     0.158 A 
BRANCH  15  18
ATOM     18  O   UNL     1      15.443  -3.093  16.198  1.00  0.00    -0.504 OA
ATOM     19  H   UNL     1      16.041  -3.554  15.524  1.00  0.00     0.293 HD
ENDBRANCH  15  18
BRANCH  17  20
ATOM     20  O   UNL     1      14.611  -0.841  17.686  1.00  0.00    -0.504 OA
ATOM     21  H   UNL     1      14.134  -0.533  18.525  1.00  0.00     0.293 HD
ENDBRANCH  17  20
ENDBRANCH   1  12
BRANCH   6  22
ATOM     22  O   UNL     1       6.413   2.430  13.812  1.00  0.00    -0.507 OA
ATOM     23  H   UNL     1       6.021   3.145  14.406  1.00  0.00     0.293 HD
ENDBRANCH   6  22
BRANCH   8  24
ATOM     24  O   UNL     1       9.636   4.440  10.878  1.00  0.00    -0.508 OA
ATOM     25  H   UNL     1       9.357   5.408  10.982  1.00  0.00     0.293 HD
ENDBRANCH   8  24
TORSDOF 5
ENDMDL
MODEL 7
REMARK VINA RESULT:    -4.546      5.966     10.571
REMARK INTER + INTRA:          -5.608
REMARK INTER:                  -5.345
REMARK INTRA:                  -0.263
REMARK UNBOUND:                -0.264
REMARK SMILES O=c1cc(-c2ccc(O)c(O)c2)oc2cc(O)cc(O)c12
REMARK SMILES IDX 4 1 3 2 2 3 1 4 21 5 19 6 18 7 16 8 15 9 14 10 13 11 5 12
REMARK SMILES IDX 6 13 7 14 8 15 12 16 10 17 9 18 11 20 20 22 17 24
REMARK H PARENT 9 19 11 21 20 23 17 25
REMARK Flexibility Score: inf
ROOT
ATOM      1  C   UNL     1      13.210  -4.812  20.248  1.00  0.00     0.138 A 
ATOM      2  C   UNL     1      12.694  -5.915  19.553  1.00  0.00     0.100 A 
ATOM      3  C   UNL     1      13.360  -7.140  19.611  1.00  0.00     0.197 A 
ATOM      4  O   UNL     1      12.843  -8.124  19.022  1.00  0.00    -0.289 OA
ATOM      5  C   UNL     1      14.570  -7.251  20.340  1.00  0.00     0.107 A 
ATOM      6  C   UNL     1      15.354  -8.439  20.441  1.00  0.00     0.134 A 
ATOM      7  C   UNL     1      16.480  -8.454  21.272  1.00  0.00     0.093 A 
ATOM      8  C   UNL     1      16.883  -7.307  21.960  1.00  0.00     0.123 A 
ATOM      9  C   UNL     1      16.154  -6.129  21.828  1.00  0.00     0.094 A 
ATOM     10  C   UNL     1      15.005  -6.090  21.035  1.00  0.00     0.146 A 
ATOM     11  O   UNL     1      14.329  -4.950  20.951  1.00  0.00    -0.456 OA
ENDROOT
BRANCH   1  12
ATOM     12  C   UNL     1      12.543  -3.485  20.219  1.00  0.00     0.021 A 
ATOM     13  C   UNL     1      13.044  -2.421  19.446  1.00  0.00     0.016 A 
ATOM     14  C   UNL     1      12.389  -1.187  19.431  1.00  0.00     0.051 A 
ATOM     15  C   UNL     1      11.221  -0.996  20.179  1.00  0.00     0.157 A 
ATOM     16  C   UNL     1      11.362  -3.290  20.956  1.00  0.00     0.062 A 
ATOM     17  C   UNL     1      10.704  -2.054  20.944  1.00  0.00     0.158 A 
BRANCH  15  18
ATOM     18  O   UNL     1      10.572   0.238  20.163  1.00  0.00    -0.504 OA
ATOM     19  H   UNL     1      10.441   0.757  19.304  1.00  0.00     0.293 HD
ENDBRANCH  15  18
BRANCH  17  20
ATOM     20  O   UNL     1       9.541  -1.899  21.696  1.00  0.00    -0.504 OA
ATOM     21  H   UNL     1       9.117  -0.991  21.850  1.00  0.00     0.293 HD
ENDBRANCH  17  20
ENDBRANCH   1  12
BRANCH   6  22
ATOM     22  O   UNL     1      15.087  -9.616  19.735  1.00  0.00    -0.507 OA
ATOM     23  H   UNL     1      14.925 -10.520  20.154  1.00  0.00     0.293 HD
ENDBRANCH   6  22
BRANCH   8  24
ATOM     24  O   UNL     1      18.015  -7.328  22.773  1.00  0.00    -0.508 OA
ATOM     25  H   UNL     1      18.562  -6.492  22.941  1.00  0.00     0.293 HD
ENDBRANCH   8  24
TORSDOF 5
ENDMDL
MODEL 8
REMARK VINA RESULT:    -4.530      1.538      2.269
REMARK INTER + INTRA:          -5.589
REMARK INTER:                  -5.279
REMARK INTRA:                  -0.310
REMARK UNBOUND:                -0.264
REMARK SMILES O=c1cc(-c2ccc(O)c(O)c2)oc2cc(O)cc(O)c12
REMARK SMILES IDX 4 1 3 2 2 3 1 4 21 5 19 6 18 7 16 8 15 9 14 10 13 11 5 12
REMARK SMILES IDX 6 13 7 14 8 15 12 16 10 17 9 18 11 20 20 22 17 24
REMARK H PARENT 9 19 11 21 20 23 17 25
REMARK Flexibility Score: inf
ROOT
ATOM      1  C   UNL     1      10.673  -0.760  13.321  1.00  0.00     0.138 A 
ATOM      2  C   UNL     1      10.264   0.195  12.380  1.00  0.00     0.100 A 
ATOM      3  C   UNL     1       9.139   0.980  12.638  1.00  0.00     0.197 A 
ATOM      4  O   UNL     1       8.829   1.866  11.799  1.00  0.00    -0.289 OA
ATOM      5  C   UNL     1       8.399   0.781  13.828  1.00  0.00     0.107 A 
ATOM      6  C   UNL     1       7.216   1.498  14.181  1.00  0.00     0.134 A 
ATOM      7  C   UNL     1       6.626   1.283  15.432  1.00  0.00     0.093 A 
ATOM      8  C   UNL     1       7.143   0.336  16.320  1.00  0.00     0.123 A 
ATOM      9  C   UNL     1       8.267  -0.405  15.964  1.00  0.00     0.094 A 
ATOM     10  C   UNL     1       8.899  -0.189  14.737  1.00  0.00     0.146 A 
ATOM     11  O   UNL     1       9.980  -0.905  14.445  1.00  0.00    -0.456 OA
ENDROOT
BRANCH   1  12
ATOM     12  C   UNL     1      11.860  -1.624  13.097  1.00  0.00     0.021 A 
ATOM     13  C   UNL     1      12.332  -1.913  11.804  1.00  0.00     0.016 A 
ATOM     14  C   UNL     1      13.458  -2.721  11.625  1.00  0.00     0.051 A 
ATOM     15  C   UNL     1      14.137  -3.246  12.732  1.00  0.00     0.157 A 
ATOM     16  C   UNL     1      12.555  -2.142  14.204  1.00  0.00     0.062 A 
ATOM     17  C   UNL     1      13.683  -2.952  14.028  1.00  0.00     0.158 A 
BRANCH  15  18
ATOM     18  O   UNL     1      15.259  -4.052  12.550  1.00  0.00    -0.504 OA
ATOM     19  H   UNL     1      15.658  -4.587  13.312  1.00  0.00     0.293 HD
ENDBRANCH  15  18
BRANCH  17  20
ATOM     20  O   UNL     1      14.337  -3.455  15.152  1.00  0.00    -0.504 OA
ATOM     21  H   UNL     1      14.956  -2.883  15.715  1.00  0.00     0.293 HD
ENDBRANCH  17  20
ENDBRANCH   1  12
BRANCH   6  22
ATOM     22  O   UNL     1       6.570   2.408  13.338  1.00  0.00    -0.507 OA
ATOM     23  H   UNL     1       5.591   2.645  13.382  1.00  0.00     0.293 HD
ENDBRANCH   6  22
BRANCH   8  24
ATOM     24  O   UNL     1       6.539   0.117  17.556  1.00  0.00    -0.508 OA
ATOM     25  H   UNL     1       5.540   0.223  17.685  1.00  0.00     0.293 HD
ENDBRANCH   8  24
TORSDOF 5
ENDMDL
MODEL 9
REMARK VINA RESULT:    -3.718     13.488     14.794
REMARK INTER + INTRA:          -4.635
REMARK INTER:                  -4.366
REMARK INTRA:                  -0.268
REMARK UNBOUND:                -0.264
REMARK SMILES O=c1cc(-c2ccc(O)c(O)c2)oc2cc(O)cc(O)c12
REMARK SMILES IDX 4 1 3 2 2 3 1 4 21 5 19 6 18 7 16 8 15 9 14 10 13 11 5 12
REMARK SMILES IDX 6 13 7 14 8 15 12 16 10 17 9 18 11 20 20 22 17 24
REMARK H PARENT 9 19 11 21 20 23 17 25
REMARK Flexibility Score: inf
ROOT
ATOM      1  C   UNL     1      11.940   8.254  25.687  1.00  0.00     0.138 A 
ATOM      2  C   UNL     1      10.641   8.718  25.937  1.00  0.00     0.100 A 
ATOM      3  C   UNL     1      10.006   8.380  27.133  1.00  0.00     0.197 A 
ATOM      4  O   UNL     1       8.863   8.857  27.352  1.00  0.00    -0.289 OA
ATOM      5  C   UNL     1      10.662   7.541  28.067  1.00  0.00     0.107 A 
ATOM      6  C   UNL     1      10.099   7.102  29.303  1.00  0.00     0.134 A 
ATOM      7  C   UNL     1      10.882   6.355  30.191  1.00  0.00     0.093 A 
ATOM      8  C   UNL     1      12.188   5.982  29.862  1.00  0.00     0.123 A 
ATOM      9  C   UNL     1      12.728   6.363  28.637  1.00  0.00     0.094 A 
ATOM     10  C   UNL     1      11.986   7.139  27.744  1.00  0.00     0.146 A 
ATOM     11  O   UNL     1      12.546   7.495  26.594  1.00  0.00    -0.456 OA
ENDROOT
BRANCH   1  12
ATOM     12  C   UNL     1      12.662   8.581  24.431  1.00  0.00     0.021 A 
ATOM     13  C   UNL     1      13.230   9.850  24.212  1.00  0.00     0.016 A 
ATOM     14  C   UNL     1      13.912  10.125  23.024  1.00  0.00     0.051 A 
ATOM     15  C   UNL     1      14.046   9.138  22.039  1.00  0.00     0.157 A 
ATOM     16  C   UNL     1      12.814   7.591  23.444  1.00  0.00     0.062 A 
ATOM     17  C   UNL     1      13.496   7.864  22.253  1.00  0.00     0.158 A 
BRANCH  15  18
ATOM     18  O   UNL     1      14.726   9.417  20.855  1.00  0.00    -0.504 OA
ATOM     19  H   UNL     1      14.235   9.535  19.977  1.00  0.00     0.293 HD
ENDBRANCH  15  18
BRANCH  17  20
ATOM     20  O   UNL     1      13.615   6.858  21.295  1.00  0.00    -0.504 OA
ATOM     21  H   UNL     1      14.462   6.729  20.753  1.00  0.00     0.293 HD
ENDBRANCH  17  20
ENDBRANCH   1  12
BRANCH   6  22
ATOM     22  O   UNL     1       8.780   7.350  29.695  1.00  0.00    -0.507 OA
ATOM     23  H   UNL     1       8.021   6.689  29.628  1.00  0.00     0.293 HD
ENDBRANCH   6  22
BRANCH   8  24
ATOM     24  O   UNL     1      12.954   5.225  30.746  1.00  0.00    -0.508 OA
ATOM     25  H   UNL     1      12.689   4.282  31.003  1.00  0.00     0.293 HD
ENDBRANCH   8  24
TORSDOF 5
ENDMDL
