MODEL 1
REMARK VINA RESULT:    -4.344      0.000      0.000
REMARK INTER + INTRA:          -7.978
REMARK INTER:                  -6.883
REMARK INTRA:                  -1.096
REMARK UNBOUND:                -1.096
REMARK SMILES CCCCCCCCCCCC(=O)[O-]
REMARK SMILES IDX 7 1 8 2 9 3 10 4 11 5 12 6 13 7 14 8 6 9 5 10 4 11 3 12 2 13
REMARK SMILES IDX 1 14
REMARK H PARENT
REMARK Flexibility Score: inf
ROOT
ATOM      1  C   UNL     1     -29.124 -10.733  17.437  1.00  0.00     0.000 C 
ENDROOT
BRANCH   1   2
ATOM      2  C   UNL     1     -29.520 -12.053  16.764  1.00  0.00     0.000 C 
BRANCH   2   3
ATOM      3  C   UNL     1     -30.384 -12.910  17.699  1.00  0.00     0.000 C 
BRANCH   3   4
ATOM      4  C   UNL     1     -30.463 -14.379  17.253  1.00  0.00     0.006 C 
BRANCH   4   5
ATOM      5  C   UNL     1     -30.519 -14.530  15.726  1.00  0.00     0.053 C 
BRANCH   5   6
ATOM      6  C   UNL     1     -30.042 -15.888  15.319  1.00  0.00     0.041 C 
ATOM      7  O   UNL     1     -29.770 -16.753  16.192  1.00  0.00    -0.550 OA
ATOM      8  O   UNL     1     -29.849 -16.182  13.974  1.00  0.00    -0.550 OA
ENDBRANCH   5   6
ENDBRANCH   4   5
ENDBRANCH   3   4
ENDBRANCH   2   3
ENDBRANCH   1   2
BRANCH   1   9
ATOM      9  C   UNL     1     -27.598 -10.552  17.436  1.00  0.00     0.000 C 
BRANCH   9  10
ATOM     10  C   UNL     1     -26.866 -11.683  16.696  1.00  0.00    -0.000 C 
BRANCH  10  11
ATOM     11  C   UNL     1     -25.518 -12.038  17.345  1.00  0.00    -0.000 C 
BRANCH  11  12
ATOM     12  C   UNL     1     -25.502 -13.450  17.959  1.00  0.00    -0.000 C 
BRANCH  12  13
ATOM     13  C   UNL     1     -26.795 -14.260  17.760  1.00  0.00    -0.003 C 
ATOM     14  C   UNL     1     -26.621 -15.749  18.057  1.00  0.00     0.004 C 
ENDBRANCH  12  13
ENDBRANCH  11  12
ENDBRANCH  10  11
ENDBRANCH   9  10
ENDBRANCH   1   9
TORSDOF 10
ENDMDL
MODEL 2
REMARK VINA RESULT:    -4.288      1.535      2.512
REMARK INTER + INTRA:          -7.891
REMARK INTER:                  -6.857
REMARK INTRA:                  -1.034
REMARK UNBOUND:                -1.096
REMARK SMILES CCCCCCCCCCCC(=O)[O-]
REMARK SMILES IDX 7 1 8 2 9 3 10 4 11 5 12 6 13 7 14 8 6 9 5 10 4 11 3 12 2 13
REMARK SMILES IDX 1 14
REMARK H PARENT
REMARK Flexibility Score: inf
ROOT
ATOM      1  C   UNL     1     -26.999 -11.656  16.636  1.00  0.00     0.000 C 
ENDROOT
BRANCH   1   2
ATOM      2  C   UNL     1     -27.823 -10.613  17.400  1.00  0.00     0.000 C 
BRANCH   2   3
ATOM      3  C   UNL     1     -29.271 -11.085  17.588  1.00  0.00     0.000 C 
BRANCH   3   4
ATOM      4  C   UNL     1     -29.634 -12.265  16.671  1.00  0.00     0.006 C 
BRANCH   4   5
ATOM      5  C   UNL     1     -30.101 -13.499  17.454  1.00  0.00     0.053 C 
BRANCH   5   6
ATOM      6  C   UNL     1     -31.365 -14.042  16.867  1.00  0.00     0.041 C 
ATOM      7  O   UNL     1     -32.481 -13.596  17.243  1.00  0.00    -0.550 OA
ATOM      8  O   UNL     1     -31.314 -15.076  15.940  1.00  0.00    -0.550 OA
ENDBRANCH   5   6
ENDBRANCH   4   5
ENDBRANCH   3   4
ENDBRANCH   2   3
ENDBRANCH   1   2
BRANCH   1   9
ATOM      9  C   UNL     1     -25.543 -11.673  17.126  1.00  0.00     0.000 C 
BRANCH   9  10
ATOM     10  C   UNL     1     -25.223 -12.900  17.996  1.00  0.00    -0.000 C 
BRANCH  10  11
ATOM     11  C   UNL     1     -26.404 -13.881  18.089  1.00  0.00    -0.000 C 
BRANCH  11  12
ATOM     12  C   UNL     1     -26.082 -15.263  17.490  1.00  0.00    -0.000 C 
BRANCH  12  13
ATOM     13  C   UNL     1     -27.127 -16.355  17.780  1.00  0.00    -0.003 C 
ATOM     14  C   UNL     1     -28.129 -16.543  16.641  1.00  0.00     0.004 C 
ENDBRANCH  12  13
ENDBRANCH  11  12
ENDBRANCH  10  11
ENDBRANCH   9  10
ENDBRANCH   1   9
TORSDOF 10
ENDMDL
MODEL 3
REMARK VINA RESULT:    -4.277      1.760      2.036
REMARK INTER + INTRA:          -7.873
REMARK INTER:                  -6.872
REMARK INTRA:                  -1.001
REMARK UNBOUND:                -1.096
REMARK SMILES CCCCCCCCCCCC(=O)[O-]
REMARK SMILES IDX 7 1 8 2 9 3 10 4 11 5 12 6 13 7 14 8 6 9 5 10 4 11 3 12 2 13
REMARK SMILES IDX 1 14
REMARK H PARENT
REMARK Flexibility Score: inf
ROOT
ATOM      1  C   UNL     1     -28.718 -11.112  17.576  1.00  0.00     0.000 C 
ENDROOT
BRANCH   1   2
ATOM      2  C   UNL     1     -29.825 -12.173  17.551  1.00  0.00     0.000 C 
BRANCH   2   3
ATOM      3  C   UNL     1     -29.718 -13.051  16.296  1.00  0.00     0.000 C 
BRANCH   3   4
ATOM      4  C   UNL     1     -30.274 -14.467  16.513  1.00  0.00     0.006 C 
BRANCH   4   5
ATOM      5  C   UNL     1     -31.150 -14.943  15.347  1.00  0.00     0.053 C 
BRANCH   5   6
ATOM      6  C   UNL     1     -32.598 -14.816  15.696  1.00  0.00     0.041 C 
ATOM      7  O   UNL     1     -33.315 -13.951  15.126  1.00  0.00    -0.550 OA
ATOM      8  O   UNL     1     -33.147 -15.619  16.689  1.00  0.00    -0.550 OA
ENDBRANCH   5   6
ENDBRANCH   4   5
ENDBRANCH   3   4
ENDBRANCH   2   3
ENDBRANCH   1   2
BRANCH   1   9
ATOM      9  C   UNL     1     -27.561 -11.501  16.643  1.00  0.00     0.000 C 
BRANCH   9  10
ATOM     10  C   UNL     1     -26.181 -11.267  17.279  1.00  0.00    -0.000 C 
BRANCH  10  11
ATOM     11  C   UNL     1     -25.381 -12.569  17.446  1.00  0.00    -0.000 C 
BRANCH  11  12
ATOM     12  C   UNL     1     -26.205 -13.701  18.087  1.00  0.00    -0.000 C 
BRANCH  12  13
ATOM     13  C   UNL     1     -26.033 -15.082  17.430  1.00  0.00    -0.003 C 
ATOM     14  C   UNL     1     -27.197 -16.030  17.716  1.00  0.00     0.004 C 
ENDBRANCH  12  13
ENDBRANCH  11  12
ENDBRANCH  10  11
ENDBRANCH   9  10
ENDBRANCH   1   9
TORSDOF 10
ENDMDL
MODEL 4
REMARK VINA RESULT:    -4.220      1.156      1.734
REMARK INTER + INTRA:          -7.782
REMARK INTER:                  -6.632
REMARK INTRA:                  -1.150
REMARK UNBOUND:                -1.096
REMARK SMILES CCCCCCCCCCCC(=O)[O-]
REMARK SMILES IDX 7 1 8 2 9 3 10 4 11 5 12 6 13 7 14 8 6 9 5 10 4 11 3 12 2 13
REMARK SMILES IDX 1 14
REMARK H PARENT
REMARK Flexibility Score: inf
ROOT
ATOM      1  C   UNL     1     -27.807 -10.599  17.361  1.00  0.00     0.000 C 
ENDROOT
BRANCH   1   2
ATOM      2  C   UNL     1     -29.190 -11.192  17.655  1.00  0.00     0.000 C 
BRANCH   2   3
ATOM      3  C   UNL     1     -29.625 -12.152  16.539  1.00  0.00     0.000 C 
BRANCH   3   4
ATOM      4  C   UNL     1     -30.194 -13.473  17.081  1.00  0.00     0.006 C 
BRANCH   4   5
ATOM      5  C   UNL     1     -30.378 -14.531  15.985  1.00  0.00     0.053 C 
BRANCH   5   6
ATOM      6  C   UNL     1     -31.260 -15.637  16.470  1.00  0.00     0.041 C 
ATOM      7  O   UNL     1     -32.075 -16.189  15.685  1.00  0.00    -0.550 OA
ATOM      8  O   UNL     1     -31.219 -16.026  17.804  1.00  0.00    -0.550 OA
ENDBRANCH   5   6
ENDBRANCH   4   5
ENDBRANCH   3   4
ENDBRANCH   2   3
ENDBRANCH   1   2
BRANCH   1   9
ATOM      9  C   UNL     1     -26.925 -11.607  16.607  1.00  0.00     0.000 C 
BRANCH   9  10
ATOM     10  C   UNL     1     -25.512 -11.720  17.202  1.00  0.00    -0.000 C 
BRANCH  10  11
ATOM     11  C   UNL     1     -25.281 -13.057  17.925  1.00  0.00    -0.000 C 
BRANCH  11  12
ATOM     12  C   UNL     1     -26.556 -13.917  18.014  1.00  0.00    -0.000 C 
BRANCH  12  13
ATOM     13  C   UNL     1     -26.401 -15.363  17.509  1.00  0.00    -0.003 C 
ATOM     14  C   UNL     1     -27.618 -16.237  17.811  1.00  0.00     0.004 C 
ENDBRANCH  12  13
ENDBRANCH  11  12
ENDBRANCH  10  11
ENDBRANCH   9  10
ENDBRANCH   1   9
TORSDOF 10
ENDMDL
MODEL 5
REMARK VINA RESULT:    -4.168      1.285      2.540
REMARK INTER + INTRA:          -7.700
REMARK INTER:                  -6.813
REMARK INTRA:                  -0.888
REMARK UNBOUND:                -1.096
REMARK SMILES CCCCCCCCCCCC(=O)[O-]
REMARK SMILES IDX 7 1 8 2 9 3 10 4 11 5 12 6 13 7 14 8 6 9 5 10 4 11 3 12 2 13
REMARK SMILES IDX 1 14
REMARK H PARENT
REMARK Flexibility Score: inf
ROOT
ATOM      1  C   UNL     1     -30.052 -13.412  17.698  1.00  0.00     0.000 C 
ENDROOT
BRANCH   1   2
ATOM      2  C   UNL     1     -30.193 -14.826  17.123  1.00  0.00     0.000 C 
BRANCH   2   3
ATOM      3  C   UNL     1     -31.607 -15.060  16.574  1.00  0.00     0.000 C 
BRANCH   3   4
ATOM      4  C   UNL     1     -31.626 -15.262  15.051  1.00  0.00     0.006 C 
BRANCH   4   5
ATOM      5  C   UNL     1     -30.281 -15.758  14.504  1.00  0.00     0.053 C 
BRANCH   5   6
ATOM      6  C   UNL     1     -30.471 -17.010  13.708  1.00  0.00     0.041 C 
ATOM      7  O   UNL     1     -29.629 -17.338  12.831  1.00  0.00    -0.550 OA
ATOM      8  O   UNL     1     -31.605 -17.790  13.899  1.00  0.00    -0.550 OA
ENDBRANCH   5   6
ENDBRANCH   4   5
ENDBRANCH   3   4
ENDBRANCH   2   3
ENDBRANCH   1   2
BRANCH   1   9
ATOM      9  C   UNL     1     -29.754 -12.394  16.586  1.00  0.00     0.000 C 
BRANCH   9  10
ATOM     10  C   UNL     1     -29.082 -11.117  17.116  1.00  0.00    -0.000 C 
BRANCH  10  11
ATOM     11  C   UNL     1     -27.738 -11.401  17.807  1.00  0.00    -0.000 C 
BRANCH  11  12
ATOM     12  C   UNL     1     -26.558 -11.463  16.820  1.00  0.00    -0.000 C 
BRANCH  12  13
ATOM     13  C   UNL     1     -25.523 -12.565  17.111  1.00  0.00    -0.003 C 
ATOM     14  C   UNL     1     -26.129 -13.787  17.800  1.00  0.00     0.004 C 
ENDBRANCH  12  13
ENDBRANCH  11  12
ENDBRANCH  10  11
ENDBRANCH   9  10
ENDBRANCH   1   9
TORSDOF 10
ENDMDL
MODEL 6
REMARK VINA RESULT:    -4.125      2.591      5.368
REMARK INTER + INTRA:          -7.632
REMARK INTER:                  -6.888
REMARK INTRA:                  -0.745
REMARK UNBOUND:                -1.096
REMARK SMILES CCCCCCCCCCCC(=O)[O-]
REMARK SMILES IDX 7 1 8 2 9 3 10 4 11 5 12 6 13 7 14 8 6 9 5 10 4 11 3 12 2 13
REMARK SMILES IDX 1 14
REMARK H PARENT
REMARK Flexibility Score: inf
ROOT
ATOM      1  C   UNL     1     -29.813 -13.638  17.566  1.00  0.00     0.000 C 
ENDROOT
BRANCH   1   2
ATOM      2  C   UNL     1     -29.631 -12.445  16.619  1.00  0.00     0.000 C 
BRANCH   2   3
ATOM      3  C   UNL     1     -29.298 -11.167  17.402  1.00  0.00     0.000 C 
BRANCH   3   4
ATOM      4  C   UNL     1     -27.806 -11.060  17.755  1.00  0.00     0.006 C 
BRANCH   4   5
ATOM      5  C   UNL     1     -26.895 -11.576  16.633  1.00  0.00     0.053 C 
BRANCH   5   6
ATOM      6  C   UNL     1     -25.880 -12.529  17.181  1.00  0.00     0.041 C 
ATOM      7  O   UNL     1     -26.204 -13.717  17.446  1.00  0.00    -0.550 OA
ATOM      8  O   UNL     1     -24.588 -12.092  17.448  1.00  0.00    -0.550 OA
ENDBRANCH   5   6
ENDBRANCH   4   5
ENDBRANCH   3   4
ENDBRANCH   2   3
ENDBRANCH   1   2
BRANCH   1   9
ATOM      9  C   UNL     1     -31.271 -14.121  17.569  1.00  0.00     0.000 C 
BRANCH   9  10
ATOM     10  C   UNL     1     -31.953 -13.959  16.200  1.00  0.00    -0.000 C 
BRANCH  10  11
ATOM     11  C   UNL     1     -31.996 -15.274  15.404  1.00  0.00    -0.000 C 
BRANCH  11  12
ATOM     12  C   UNL     1     -30.729 -15.506  14.561  1.00  0.00    -0.000 C 
BRANCH  12  13
ATOM     13  C   UNL     1     -30.520 -16.956  14.087  1.00  0.00    -0.003 C 
ATOM     14  C   UNL     1     -31.771 -17.820  14.235  1.00  0.00     0.004 C 
ENDBRANCH  12  13
ENDBRANCH  11  12
ENDBRANCH  10  11
ENDBRANCH   9  10
ENDBRANCH   1   9
TORSDOF 10
ENDMDL
MODEL 7
REMARK VINA RESULT:    -4.096      1.628      3.012
REMARK INTER + INTRA:          -7.586
REMARK INTER:                  -6.741
REMARK INTRA:                  -0.846
REMARK UNBOUND:                -1.096
REMARK SMILES CCCCCCCCCCCC(=O)[O-]
REMARK SMILES IDX 7 1 8 2 9 3 10 4 11 5 12 6 13 7 14 8 6 9 5 10 4 11 3 12 2 13
REMARK SMILES IDX 1 14
REMARK H PARENT
REMARK Flexibility Score: inf
ROOT
ATOM      1  C   UNL     1     -29.560 -14.031  17.430  1.00  0.00     0.000 C 
ENDROOT
BRANCH   1   2
ATOM      2  C   UNL     1     -29.097 -15.214  16.571  1.00  0.00     0.000 C 
BRANCH   2   3
ATOM      3  C   UNL     1     -30.274 -15.831  15.803  1.00  0.00     0.000 C 
BRANCH   3   4
ATOM      4  C   UNL     1     -30.113 -15.717  14.279  1.00  0.00     0.006 C 
BRANCH   4   5
ATOM      5  C   UNL     1     -30.250 -17.070  13.568  1.00  0.00     0.053 C 
BRANCH   5   6
ATOM      6  C   UNL     1     -28.951 -17.463  12.940  1.00  0.00     0.041 C 
ATOM      7  O   UNL     1     -28.086 -18.087  13.610  1.00  0.00    -0.550 OA
ATOM      8  O   UNL     1     -28.673 -17.097  11.629  1.00  0.00    -0.550 OA
ENDBRANCH   5   6
ENDBRANCH   4   5
ENDBRANCH   3   4
ENDBRANCH   2   3
ENDBRANCH   1   2
BRANCH   1   9
ATOM      9  C   UNL     1     -29.933 -12.827  16.551  1.00  0.00     0.000 C 
BRANCH   9  10
ATOM     10  C   UNL     1     -29.345 -11.506  17.074  1.00  0.00    -0.000 C 
BRANCH  10  11
ATOM     11  C   UNL     1     -27.999 -11.702  17.791  1.00  0.00    -0.000 C 
BRANCH  11  12
ATOM     12  C   UNL     1     -26.793 -11.297  16.923  1.00  0.00    -0.000 C 
BRANCH  12  13
ATOM     13  C   UNL     1     -25.564 -12.215  17.049  1.00  0.00    -0.003 C 
ATOM     14  C   UNL     1     -25.875 -13.539  17.746  1.00  0.00     0.004 C 
ENDBRANCH  12  13
ENDBRANCH  11  12
ENDBRANCH  10  11
ENDBRANCH   9  10
ENDBRANCH   1   9
TORSDOF 10
ENDMDL
MODEL 8
REMARK VINA RESULT:    -4.083      2.840      3.614
REMARK INTER + INTRA:          -7.565
REMARK INTER:                  -6.800
REMARK INTRA:                  -0.765
REMARK UNBOUND:                -1.096
REMARK SMILES CCCCCCCCCCCC(=O)[O-]
REMARK SMILES IDX 7 1 8 2 9 3 10 4 11 5 12 6 13 7 14 8 6 9 5 10 4 11 3 12 2 13
REMARK SMILES IDX 1 14
REMARK H PARENT
REMARK Flexibility Score: inf
ROOT
ATOM      1  C   UNL     1     -29.946 -13.616  17.512  1.00  0.00     0.000 C 
ENDROOT
BRANCH   1   2
ATOM      2  C   UNL     1     -31.465 -13.578  17.717  1.00  0.00     0.000 C 
BRANCH   2   3
ATOM      3  C   UNL     1     -32.154 -14.703  16.932  1.00  0.00     0.000 C 
BRANCH   3   4
ATOM      4  C   UNL     1     -32.526 -14.285  15.500  1.00  0.00     0.006 C 
BRANCH   4   5
ATOM      5  C   UNL     1     -33.957 -13.741  15.396  1.00  0.00     0.053 C 
BRANCH   5   6
ATOM      6  C   UNL     1     -34.938 -14.753  15.897  1.00  0.00     0.041 C 
ATOM      7  O   UNL     1     -35.149 -15.809  15.244  1.00  0.00    -0.550 OA
ATOM      8  O   UNL     1     -35.658 -14.508  17.060  1.00  0.00    -0.550 OA
ENDBRANCH   5   6
ENDBRANCH   4   5
ENDBRANCH   3   4
ENDBRANCH   2   3
ENDBRANCH   1   2
BRANCH   1   9
ATOM      9  C   UNL     1     -29.481 -12.449  16.626  1.00  0.00     0.000 C 
BRANCH   9  10
ATOM     10  C   UNL     1     -29.247 -11.156  17.423  1.00  0.00    -0.000 C 
BRANCH  10  11
ATOM     11  C   UNL     1     -27.754 -10.861  17.643  1.00  0.00    -0.000 C 
BRANCH  11  12
ATOM     12  C   UNL     1     -26.842 -11.621  16.662  1.00  0.00    -0.000 C 
BRANCH  12  13
ATOM     13  C   UNL     1     -25.631 -12.318  17.308  1.00  0.00    -0.003 C 
ATOM     14  C   UNL     1     -25.983 -13.663  17.944  1.00  0.00     0.004 C 
ENDBRANCH  12  13
ENDBRANCH  11  12
ENDBRANCH  10  11
ENDBRANCH   9  10
ENDBRANCH   1   9
TORSDOF 10
ENDMDL
