MODEL 1
REMARK VINA RESULT:    -4.717      0.000      0.000
REMARK INTER + INTRA:          -5.308
REMARK INTER:                  -5.821
REMARK INTRA:                   0.512
REMARK UNBOUND:                 0.512
REMARK SMILES C=C1[C@@H]2CC[C@H]3[C@H]2C(C)(C)CCC[C@@]13C
REMARK SMILES IDX 14 1 6 2 7 3 3 4 2 5 1 6 4 7 5 8 15 9 8 10 9 11 10 12 11 13
REMARK SMILES IDX 13 15 12 16
REMARK H PARENT
REMARK Flexibility Score: 80.00
ROOT
ATOM      1  C   UNL     1     110.207 107.403 128.353  1.00  0.00    -0.008 C 
ATOM      2  C   UNL     1     110.383 107.750 126.882  1.00  0.00     0.003 C 
ATOM      3  C   UNL     1     109.238 106.903 126.297  1.00  0.00     0.006 C 
ATOM      4  C   UNL     1     109.864 105.577 126.695  1.00  0.00     0.019 C 
ATOM      5  C   UNL     1     110.023 105.886 128.203  1.00  0.00    -0.068 C 
ATOM      6  C   UNL     1     109.938 104.991 129.192  1.00  0.00     0.009 C 
ATOM      7  C   UNL     1     111.249 105.638 126.066  1.00  0.00     0.008 C 
ATOM      8  C   UNL     1     111.625 107.115 126.209  1.00  0.00     0.005 C 
ATOM      9  C   UNL     1     111.451 107.726 129.208  1.00  0.00     0.016 C 
ENDROOT
BRANCH   3  10
ATOM     10  C   UNL     1     108.279 107.786 125.468  1.00  0.00    -0.032 C 
ATOM     11  C   UNL     1     109.003 108.396 124.246  1.00  0.00     0.011 C 
ATOM     12  C   UNL     1     107.069 106.973 124.930  1.00  0.00     0.011 C 
BRANCH  10  13
ATOM     13  C   UNL     1     107.783 108.934 126.463  1.00  0.00     0.007 CG0
ATOM     14  G   UNL     1     107.660 108.545 128.000  1.00  0.00     0.000 G0
ENDBRANCH  10  13
ENDBRANCH   3  10
BRANCH   1  15
ATOM     15  C   UNL     1     108.960 108.251 128.881  1.00  0.00     0.011 C 
BRANCH  15  16
ATOM     16  C   UNL     1     107.663 108.553 127.999  1.00  0.00     0.001 CG0
ATOM     17  G   UNL     1     107.788 108.942 126.462  1.00  0.00     0.000 G0
ENDBRANCH  15  16
ENDBRANCH   1  15
TORSDOF 0
ENDMDL
MODEL 2
REMARK VINA RESULT:    -4.701      4.054      5.313
REMARK INTER + INTRA:          -5.288
REMARK INTER:                  -5.797
REMARK INTRA:                   0.510
REMARK UNBOUND:                 0.512
REMARK SMILES C=C1[C@@H]2CC[C@H]3[C@H]2C(C)(C)CCC[C@@]13C
REMARK SMILES IDX 14 1 6 2 7 3 3 4 2 5 1 6 4 7 5 8 15 9 8 10 9 11 10 12 11 13
REMARK SMILES IDX 13 15 12 16
REMARK H PARENT
REMARK Flexibility Score: 80.00
ROOT
ATOM      1  C   UNL     1     107.334 102.318 128.329  1.00  0.00    -0.008 C 
ATOM      2  C   UNL     1     107.762 102.084 126.887  1.00  0.00     0.003 C 
ATOM      3  C   UNL     1     106.945 103.202 126.211  1.00  0.00     0.006 C 
ATOM      4  C   UNL     1     105.601 102.586 126.560  1.00  0.00     0.019 C 
ATOM      5  C   UNL     1     105.826 102.489 128.088  1.00  0.00    -0.068 C 
ATOM      6  C   UNL     1     104.878 102.609 129.022  1.00  0.00     0.009 C 
ATOM      7  C   UNL     1     105.699 101.177 125.992  1.00  0.00     0.008 C 
ATOM      8  C   UNL     1     107.168 100.814 126.231  1.00  0.00     0.005 C 
ATOM      9  C   UNL     1     107.612 101.110 129.250  1.00  0.00     0.016 C 
ENDROOT
BRANCH   3  10
ATOM     10  C   UNL     1     107.871 104.130 125.394  1.00  0.00    -0.032 C 
ATOM     11  C   UNL     1     108.569 103.355 124.253  1.00  0.00     0.011 C 
ATOM     12  C   UNL     1     107.082 105.300 124.742  1.00  0.00     0.011 C 
BRANCH  10  13
ATOM     13  C   UNL     1     108.944 104.693 126.436  1.00  0.00     0.007 CG0
ATOM     14  G   UNL     1     108.457 104.874 127.939  1.00  0.00     0.000 G0
ENDBRANCH  10  13
ENDBRANCH   3  10
BRANCH   1  15
ATOM     15  C   UNL     1     108.148 103.589 128.852  1.00  0.00     0.011 C 
BRANCH  15  16
ATOM     16  C   UNL     1     108.471 104.863 127.945  1.00  0.00     0.001 CG0
ATOM     17  G   UNL     1     108.944 104.698 126.436  1.00  0.00     0.000 G0
ENDBRANCH  15  16
ENDBRANCH   1  15
TORSDOF 0
ENDMDL
MODEL 3
REMARK VINA RESULT:    -4.669      3.931      5.183
REMARK INTER + INTRA:          -5.249
REMARK INTER:                  -5.756
REMARK INTRA:                   0.507
REMARK UNBOUND:                 0.512
REMARK SMILES C=C1[C@@H]2CC[C@H]3[C@H]2C(C)(C)CCC[C@@]13C
REMARK SMILES IDX 14 1 6 2 7 3 3 4 2 5 1 6 4 7 5 8 15 9 8 10 9 11 10 12 11 13
REMARK SMILES IDX 13 15 12 16
REMARK H PARENT
REMARK Flexibility Score: 80.00
ROOT
ATOM      1  C   UNL     1     105.159 110.218 128.181  1.00  0.00    -0.008 C 
ATOM      2  C   UNL     1     104.912 110.380 126.688  1.00  0.00     0.003 C 
ATOM      3  C   UNL     1     105.735 109.182 126.177  1.00  0.00     0.006 C 
ATOM      4  C   UNL     1     107.064 109.751 126.646  1.00  0.00     0.019 C 
ATOM      5  C   UNL     1     106.672 109.957 128.128  1.00  0.00    -0.068 C 
ATOM      6  C   UNL     1     107.499 109.849 129.172  1.00  0.00     0.009 C 
ATOM      7  C   UNL     1     107.111 111.125 125.990  1.00  0.00     0.008 C 
ATOM      8  C   UNL     1     105.648 111.575 126.034  1.00  0.00     0.005 C 
ATOM      9  C   UNL     1     104.847 111.493 128.992  1.00  0.00     0.016 C 
ENDROOT
BRANCH   3  10
ATOM     10  C   UNL     1     104.857 108.251 125.312  1.00  0.00    -0.032 C 
ATOM     11  C   UNL     1     104.351 108.982 124.047  1.00  0.00     0.011 C 
ATOM     12  C   UNL     1     105.644 106.997 124.837  1.00  0.00     0.011 C 
BRANCH  10  13
ATOM     13  C   UNL     1     103.633 107.823 126.246  1.00  0.00     0.007 CG0
ATOM     14  G   UNL     1     103.924 107.724 127.807  1.00  0.00     0.000 G0
ENDBRANCH  10  13
ENDBRANCH   3  10
BRANCH   1  15
ATOM     15  C   UNL     1     104.219 109.024 128.677  1.00  0.00     0.011 C 
BRANCH  15  16
ATOM     16  C   UNL     1     103.916 107.721 127.806  1.00  0.00     0.001 CG0
ATOM     17  G   UNL     1     103.637 107.824 126.243  1.00  0.00     0.000 G0
ENDBRANCH  15  16
ENDBRANCH   1  15
TORSDOF 0
ENDMDL
MODEL 4
REMARK VINA RESULT:    -4.669      5.490      7.459
REMARK INTER + INTRA:          -5.248
REMARK INTER:                  -5.758
REMARK INTRA:                   0.510
REMARK UNBOUND:                 0.512
REMARK SMILES C=C1[C@@H]2CC[C@H]3[C@H]2C(C)(C)CCC[C@@]13C
REMARK SMILES IDX 14 1 6 2 7 3 3 4 2 5 1 6 4 7 5 8 15 9 8 10 9 11 10 12 11 13
REMARK SMILES IDX 13 15 12 16
REMARK H PARENT
REMARK Flexibility Score: 80.00
ROOT
ATOM      1  C   UNL     1     102.412 105.096 128.342  1.00  0.00    -0.008 C 
ATOM      2  C   UNL     1     102.165 104.673 126.901  1.00  0.00     0.003 C 
ATOM      3  C   UNL     1     103.314 105.444 126.225  1.00  0.00     0.006 C 
ATOM      4  C   UNL     1     102.750 106.812 126.569  1.00  0.00     0.019 C 
ATOM      5  C   UNL     1     102.641 106.596 128.096  1.00  0.00    -0.068 C 
ATOM      6  C   UNL     1     102.795 107.542 129.028  1.00  0.00     0.009 C 
ATOM      7  C   UNL     1     101.339 106.765 125.998  1.00  0.00     0.008 C 
ATOM      8  C   UNL     1     100.920 105.312 126.241  1.00  0.00     0.005 C 
ATOM      9  C   UNL     1     101.193 104.867 129.261  1.00  0.00     0.016 C 
ENDROOT
BRANCH   3  10
ATOM     10  C   UNL     1     104.209 104.481 125.413  1.00  0.00    -0.032 C 
ATOM     11  C   UNL     1     103.416 103.827 124.258  1.00  0.00     0.011 C 
ATOM     12  C   UNL     1     105.422 105.220 124.780  1.00  0.00     0.011 C 
BRANCH  10  13
ATOM     13  C   UNL     1     104.708 103.377 126.454  1.00  0.00     0.007 CG0
ATOM     14  G   UNL     1     104.906 103.849 127.959  1.00  0.00     0.000 G0
ENDBRANCH  10  13
ENDBRANCH   3  10
BRANCH   1  15
ATOM     15  C   UNL     1     103.651 104.236 128.870  1.00  0.00     0.011 C 
BRANCH  15  16
ATOM     16  C   UNL     1     104.901 103.840 127.959  1.00  0.00     0.001 CG0
ATOM     17  G   UNL     1     104.705 103.385 126.448  1.00  0.00     0.000 G0
ENDBRANCH  15  16
ENDBRANCH   1  15
TORSDOF 0
ENDMDL
MODEL 5
REMARK VINA RESULT:    -4.546      4.637      6.139
REMARK INTER + INTRA:          -5.097
REMARK INTER:                  -5.618
REMARK INTRA:                   0.521
REMARK UNBOUND:                 0.512
REMARK SMILES C=C1[C@@H]2CC[C@H]3[C@H]2C(C)(C)CCC[C@@]13C
REMARK SMILES IDX 14 1 6 2 7 3 3 4 2 5 1 6 4 7 5 8 15 9 8 10 9 11 10 12 11 13
REMARK SMILES IDX 13 15 12 16
REMARK H PARENT
REMARK Flexibility Score: 80.00
ROOT
ATOM      1  C   UNL     1     105.866 104.623 128.281  1.00  0.00    -0.008 C 
ATOM      2  C   UNL     1     106.507 103.641 127.311  1.00  0.00     0.003 C 
ATOM      3  C   UNL     1     107.393 102.866 128.305  1.00  0.00     0.006 C 
ATOM      4  C   UNL     1     108.268 104.064 128.634  1.00  0.00     0.019 C 
ATOM      5  C   UNL     1     107.129 105.020 129.060  1.00  0.00    -0.068 C 
ATOM      6  C   UNL     1     107.223 105.970 129.996  1.00  0.00     0.009 C 
ATOM      7  C   UNL     1     108.764 104.523 127.269  1.00  0.00     0.008 C 
ATOM      8  C   UNL     1     107.561 104.261 126.361  1.00  0.00     0.005 C 
ATOM      9  C   UNL     1     105.241 105.849 127.582  1.00  0.00     0.016 C 
ENDROOT
BRANCH   3  10
ATOM     10  C   UNL     1     107.088 101.353 128.236  1.00  0.00    -0.032 C 
ATOM     11  C   UNL     1     107.453 100.775 126.849  1.00  0.00     0.011 C 
ATOM     12  C   UNL     1     107.898 100.555 129.296  1.00  0.00     0.011 C 
BRANCH  10  13
ATOM     13  C   UNL     1     105.520 101.217 128.511  1.00  0.00     0.007 CG0
ATOM     14  G   UNL     1     104.868 102.293 129.482  1.00  0.00     0.000 G0
ENDBRANCH  10  13
ENDBRANCH   3  10
BRANCH   1  15
ATOM     15  C   UNL     1     104.732 103.819 129.070  1.00  0.00     0.011 C 
BRANCH  15  16
ATOM     16  C   UNL     1     104.873 102.286 129.494  1.00  0.00     0.001 CG0
ATOM     17  G   UNL     1     105.514 101.216 128.508  1.00  0.00     0.000 G0
ENDBRANCH  15  16
ENDBRANCH   1  15
TORSDOF 0
ENDMDL
MODEL 6
REMARK VINA RESULT:    -4.503      3.033      4.997
REMARK INTER + INTRA:          -5.043
REMARK INTER:                  -5.551
REMARK INTRA:                   0.507
REMARK UNBOUND:                 0.512
REMARK SMILES C=C1[C@@H]2CC[C@H]3[C@H]2C(C)(C)CCC[C@@]13C
REMARK SMILES IDX 14 1 6 2 7 3 3 4 2 5 1 6 4 7 5 8 15 9 8 10 9 11 10 12 11 13
REMARK SMILES IDX 13 15 12 16
REMARK H PARENT
REMARK Flexibility Score: 80.00
ROOT
ATOM      1  C   UNL     1     106.576 107.716 127.975  1.00  0.00    -0.008 C 
ATOM      2  C   UNL     1     105.793 108.708 127.127  1.00  0.00     0.003 C 
ATOM      3  C   UNL     1     105.145 109.529 128.258  1.00  0.00     0.006 C 
ATOM      4  C   UNL     1     104.311 108.370 128.776  1.00  0.00     0.019 C 
ATOM      5  C   UNL     1     105.477 107.377 128.993  1.00  0.00    -0.068 C 
ATOM      6  C   UNL     1     105.536 106.445 129.949  1.00  0.00     0.009 C 
ATOM      7  C   UNL     1     103.542 107.911 127.545  1.00  0.00     0.008 C 
ATOM      8  C   UNL     1     104.553 108.115 126.414  1.00  0.00     0.005 C 
ATOM      9  C   UNL     1     107.011 106.458 127.193  1.00  0.00     0.016 C 
ENDROOT
BRANCH   3  10
ATOM     10  C   UNL     1     105.482 111.029 128.100  1.00  0.00    -0.032 C 
ATOM     11  C   UNL     1     104.917 111.588 126.774  1.00  0.00     0.011 C 
ATOM     12  C   UNL     1     104.879 111.878 129.253  1.00  0.00     0.011 C 
BRANCH  10  13
ATOM     13  C   UNL     1     107.077 111.115 128.117  1.00  0.00     0.007 CG0
ATOM     14  G   UNL     1     107.845 110.019 128.976  1.00  0.00     0.000 G0
ENDBRANCH  10  13
ENDBRANCH   3  10
BRANCH   1  15
ATOM     15  C   UNL     1     107.869 108.487 128.510  1.00  0.00     0.011 C 
BRANCH  15  16
ATOM     16  C   UNL     1     107.858 110.019 128.962  1.00  0.00     0.001 CG0
ATOM     17  G   UNL     1     107.072 111.116 128.121  1.00  0.00     0.000 G0
ENDBRANCH  15  16
ENDBRANCH   1  15
TORSDOF 0
ENDMDL
MODEL 7
REMARK VINA RESULT:    -4.455      2.191      4.268
REMARK INTER + INTRA:          -4.984
REMARK INTER:                  -5.506
REMARK INTRA:                   0.521
REMARK UNBOUND:                 0.512
REMARK SMILES C=C1[C@@H]2CC[C@H]3[C@H]2C(C)(C)CCC[C@@]13C
REMARK SMILES IDX 14 1 6 2 7 3 3 4 2 5 1 6 4 7 5 8 15 9 8 10 9 11 10 12 11 13
REMARK SMILES IDX 13 15 12 16
REMARK H PARENT
REMARK Flexibility Score: 80.00
ROOT
ATOM      1  C   UNL     1     107.833 105.694 128.231  1.00  0.00    -0.008 C 
ATOM      2  C   UNL     1     108.775 106.397 127.265  1.00  0.00     0.003 C 
ATOM      3  C   UNL     1     109.526 107.291 128.271  1.00  0.00     0.006 C 
ATOM      4  C   UNL     1     108.297 108.107 128.634  1.00  0.00     0.019 C 
ATOM      5  C   UNL     1     107.393 106.921 129.045  1.00  0.00    -0.068 C 
ATOM      6  C   UNL     1     106.453 106.953 129.994  1.00  0.00     0.009 C 
ATOM      7  C   UNL     1     107.800 108.616 127.288  1.00  0.00     0.008 C 
ATOM      8  C   UNL     1     108.101 107.446 126.348  1.00  0.00     0.005 C 
ATOM      9  C   UNL     1     106.625 105.034 127.532  1.00  0.00     0.016 C 
ENDROOT
BRANCH   3  10
ATOM     10  C   UNL     1     111.049 107.051 128.177  1.00  0.00    -0.032 C 
ATOM     11  C   UNL     1     111.593 107.472 126.793  1.00  0.00     0.011 C 
ATOM     12  C   UNL     1     111.826 107.868 129.247  1.00  0.00     0.011 C 
BRANCH  10  13
ATOM     13  C   UNL     1     111.253 105.484 128.413  1.00  0.00     0.007 CG0
ATOM     14  G   UNL     1     110.229 104.769 129.398  1.00  0.00     0.000 G0
ENDBRANCH  10  13
ENDBRANCH   3  10
BRANCH   1  15
ATOM     15  C   UNL     1     108.692 104.576 128.983  1.00  0.00     0.011 C 
BRANCH  15  16
ATOM     16  C   UNL     1     110.223 104.771 129.397  1.00  0.00     0.001 CG0
ATOM     17  G   UNL     1     111.250 105.496 128.423  1.00  0.00     0.000 G0
ENDBRANCH  15  16
ENDBRANCH   1  15
TORSDOF 0
ENDMDL
MODEL 8
REMARK VINA RESULT:    -4.373      5.179      7.496
REMARK INTER + INTRA:          -4.883
REMARK INTER:                  -5.399
REMARK INTRA:                   0.516
REMARK UNBOUND:                 0.512
REMARK SMILES C=C1[C@@H]2CC[C@H]3[C@H]2C(C)(C)CCC[C@@]13C
REMARK SMILES IDX 14 1 6 2 7 3 3 4 2 5 1 6 4 7 5 8 15 9 8 10 9 11 10 12 11 13
REMARK SMILES IDX 13 15 12 16
REMARK H PARENT
REMARK Flexibility Score: 80.00
ROOT
ATOM      1  C   UNL     1     102.696 105.885 126.189  1.00  0.00    -0.008 C 
ATOM      2  C   UNL     1     103.636 106.300 127.312  1.00  0.00     0.003 C 
ATOM      3  C   UNL     1     103.550 105.029 128.179  1.00  0.00     0.006 C 
ATOM      4  C   UNL     1     102.078 105.216 128.507  1.00  0.00     0.019 C 
ATOM      5  C   UNL     1     101.566 105.300 127.050  1.00  0.00    -0.068 C 
ATOM      6  C   UNL     1     100.378 104.868 126.618  1.00  0.00     0.009 C 
ATOM      7  C   UNL     1     102.023 106.620 129.094  1.00  0.00     0.008 C 
ATOM      8  C   UNL     1     103.067 107.377 128.269  1.00  0.00     0.005 C 
ATOM      9  C   UNL     1     102.190 107.075 125.347  1.00  0.00     0.016 C 
ENDROOT
BRANCH   3  10
ATOM     10  C   UNL     1     104.959 104.446 128.425  1.00  0.00    -0.032 C 
ATOM     11  C   UNL     1     105.832 105.428 129.240  1.00  0.00     0.011 C 
ATOM     12  C   UNL     1     104.898 103.113 129.221  1.00  0.00     0.011 C 
BRANCH  10  13
ATOM     13  C   UNL     1     105.584 104.204 126.974  1.00  0.00     0.007 CG0
ATOM     14  G   UNL     1     104.570 103.807 125.816  1.00  0.00     0.000 G0
ENDBRANCH  10  13
ENDBRANCH   3  10
BRANCH   1  15
ATOM     15  C   UNL     1     103.512 104.877 125.255  1.00  0.00     0.011 C 
BRANCH  15  16
ATOM     16  C   UNL     1     104.571 103.820 125.813  1.00  0.00     0.001 CG0
ATOM     17  G   UNL     1     105.581 104.207 126.979  1.00  0.00     0.000 G0
ENDBRANCH  15  16
ENDBRANCH   1  15
TORSDOF 0
ENDMDL
MODEL 9
REMARK VINA RESULT:    -4.346      4.034      5.827
REMARK INTER + INTRA:          -4.850
REMARK INTER:                  -5.363
REMARK INTRA:                   0.512
REMARK UNBOUND:                 0.512
REMARK SMILES C=C1[C@@H]2CC[C@H]3[C@H]2C(C)(C)CCC[C@@]13C
REMARK SMILES IDX 14 1 6 2 7 3 3 4 2 5 1 6 4 7 5 8 15 9 8 10 9 11 10 12 11 13
REMARK SMILES IDX 13 15 12 16
REMARK H PARENT
REMARK Flexibility Score: 80.00
ROOT
ATOM      1  C   UNL     1     106.361 102.643 126.231  1.00  0.00    -0.008 C 
ATOM      2  C   UNL     1     105.913 103.549 127.369  1.00  0.00     0.003 C 
ATOM      3  C   UNL     1     107.197 103.520 128.219  1.00  0.00     0.006 C 
ATOM      4  C   UNL     1     107.090 102.038 128.535  1.00  0.00     0.019 C 
ATOM      5  C   UNL     1     107.013 101.536 127.073  1.00  0.00    -0.068 C 
ATOM      6  C   UNL     1     107.500 100.375 126.625  1.00  0.00     0.009 C 
ATOM      7  C   UNL     1     105.697 101.905 129.137  1.00  0.00     0.008 C 
ATOM      8  C   UNL     1     104.878 102.917 128.332  1.00  0.00     0.005 C 
ATOM      9  C   UNL     1     105.188 102.085 125.398  1.00  0.00     0.016 C 
ENDROOT
BRANCH   3  10
ATOM     10  C   UNL     1     107.711 104.954 128.473  1.00  0.00    -0.032 C 
ATOM     11  C   UNL     1     106.693 105.770 129.303  1.00  0.00     0.011 C 
ATOM     12  C   UNL     1     109.052 104.954 129.259  1.00  0.00     0.011 C 
BRANCH  10  13
ATOM     13  C   UNL     1     107.910 105.602 127.026  1.00  0.00     0.007 CG0
ATOM     14  G   UNL     1     108.321 104.614 125.850  1.00  0.00     0.000 G0
ENDBRANCH  10  13
ENDBRANCH   3  10
BRANCH   1  15
ATOM     15  C   UNL     1     107.315 103.518 125.294  1.00  0.00     0.011 C 
BRANCH  15  16
ATOM     16  C   UNL     1     108.331 104.617 125.851  1.00  0.00     0.001 CG0
ATOM     17  G   UNL     1     107.911 105.602 127.027  1.00  0.00     0.000 G0
ENDBRANCH  15  16
ENDBRANCH   1  15
TORSDOF 0
ENDMDL
