MODEL 1
REMARK VINA RESULT:    -3.378      0.000      0.000
REMARK INTER + INTRA:          -9.053
REMARK INTER:                  -6.537
REMARK INTRA:                  -2.516
REMARK UNBOUND:                -2.516
REMARK SMILES CCCCCCCCCCCCCCCCCC(=O)[O-]
REMARK SMILES IDX 10 1 11 2 12 3 13 4 14 5 15 6 16 7 17 8 18 9 19 10 20 11
REMARK SMILES IDX 9 12 8 13 7 14 6 15 5 16 4 17 3 18 2 19 1 20
REMARK H PARENT
REMARK Flexibility Score: inf
ROOT
ATOM      1  C   UNL     1      -7.811  37.836  44.300  1.00  0.00     0.000 C 
ENDROOT
BRANCH   1   2
ATOM      2  C   UNL     1      -7.078  39.139  43.932  1.00  0.00     0.000 C 
BRANCH   2   3
ATOM      3  C   UNL     1      -5.754  38.894  43.189  1.00  0.00     0.000 C 
BRANCH   3   4
ATOM      4  C   UNL     1      -4.766  38.033  43.998  1.00  0.00     0.000 C 
BRANCH   4   5
ATOM      5  C   UNL     1      -4.354  36.705  43.331  1.00  0.00     0.000 C 
BRANCH   5   6
ATOM      6  C   UNL     1      -4.209  36.758  41.797  1.00  0.00     0.000 C 
BRANCH   6   7
ATOM      7  C   UNL     1      -4.018  35.389  41.115  1.00  0.00     0.006 C 
BRANCH   7   8
ATOM      8  C   UNL     1      -4.814  34.242  41.757  1.00  0.00     0.053 C 
BRANCH   8   9
ATOM      9  C   UNL     1      -3.917  33.207  42.363  1.00  0.00     0.041 C 
ATOM     10  O   UNL     1      -4.375  32.389  43.205  1.00  0.00    -0.550 OA
ATOM     11  O   UNL     1      -2.570  33.168  42.026  1.00  0.00    -0.550 OA
ENDBRANCH   8   9
ENDBRANCH   7   8
ENDBRANCH   6   7
ENDBRANCH   5   6
ENDBRANCH   4   5
ENDBRANCH   3   4
ENDBRANCH   2   3
ENDBRANCH   1   2
BRANCH   1  12
ATOM     12  C   UNL     1      -8.419  37.802  45.715  1.00  0.00     0.000 C 
BRANCH  12  13
ATOM     13  C   UNL     1      -7.364  37.630  46.818  1.00  0.00    -0.000 C 
BRANCH  13  14
ATOM     14  C   UNL     1      -7.143  36.149  47.144  1.00  0.00    -0.000 C 
BRANCH  14  15
ATOM     15  C   UNL     1      -5.793  35.660  46.600  1.00  0.00    -0.000 C 
BRANCH  15  16
ATOM     16  C   UNL     1      -5.927  34.411  45.717  1.00  0.00    -0.000 C 
BRANCH  16  17
ATOM     17  C   UNL     1      -7.391  34.085  45.372  1.00  0.00    -0.000 C 
BRANCH  17  18
ATOM     18  C   UNL     1      -7.693  34.235  43.872  1.00  0.00    -0.000 C 
BRANCH  18  19
ATOM     19  C   UNL     1      -8.665  33.165  43.356  1.00  0.00    -0.003 C 
ATOM     20  C   UNL     1      -8.565  33.016  41.841  1.00  0.00     0.004 C 
ENDBRANCH  18  19
ENDBRANCH  17  18
ENDBRANCH  16  17
ENDBRANCH  15  16
ENDBRANCH  14  15
ENDBRANCH  13  14
ENDBRANCH  12  13
ENDBRANCH   1  12
TORSDOF 16
ENDMDL
MODEL 2
REMARK VINA RESULT:    -3.338      2.801      4.750
REMARK INTER + INTRA:          -8.977
REMARK INTER:                  -6.613
REMARK INTRA:                  -2.364
REMARK UNBOUND:                -2.516
REMARK SMILES CCCCCCCCCCCCCCCCCC(=O)[O-]
REMARK SMILES IDX 10 1 11 2 12 3 13 4 14 5 15 6 16 7 17 8 18 9 19 10 20 11
REMARK SMILES IDX 9 12 8 13 7 14 6 15 5 16 4 17 3 18 2 19 1 20
REMARK H PARENT
REMARK Flexibility Score: inf
ROOT
ATOM      1  C   UNL     1      -3.828  33.733  41.753  1.00  0.00     0.000 C 
ENDROOT
BRANCH   1   2
ATOM      2  C   UNL     1      -3.030  35.047  41.675  1.00  0.00     0.000 C 
BRANCH   2   3
ATOM      3  C   UNL     1      -3.315  35.847  40.392  1.00  0.00     0.000 C 
BRANCH   3   4
ATOM      4  C   UNL     1      -3.897  37.244  40.675  1.00  0.00     0.000 C 
BRANCH   4   5
ATOM      5  C   UNL     1      -3.891  37.670  42.157  1.00  0.00     0.000 C 
BRANCH   5   6
ATOM      6  C   UNL     1      -5.002  38.659  42.561  1.00  0.00     0.000 C 
BRANCH   6   7
ATOM      7  C   UNL     1      -5.675  38.363  43.916  1.00  0.00     0.006 C 
BRANCH   7   8
ATOM      8  C   UNL     1      -7.179  38.675  43.960  1.00  0.00     0.053 C 
BRANCH   8   9
ATOM      9  C   UNL     1      -7.737  38.552  45.344  1.00  0.00     0.041 C 
ATOM     10  O   UNL     1      -7.082  38.982  46.330  1.00  0.00    -0.550 OA
ATOM     11  O   UNL     1      -8.963  37.931  45.548  1.00  0.00    -0.550 OA
ENDBRANCH   8   9
ENDBRANCH   7   8
ENDBRANCH   6   7
ENDBRANCH   5   6
ENDBRANCH   4   5
ENDBRANCH   3   4
ENDBRANCH   2   3
ENDBRANCH   1   2
BRANCH   1  12
ATOM     12  C   UNL     1      -5.258  33.866  42.309  1.00  0.00     0.000 C 
BRANCH  12  13
ATOM     13  C   UNL     1      -5.313  34.608  43.652  1.00  0.00    -0.000 C 
BRANCH  13  14
ATOM     14  C   UNL     1      -6.744  35.052  43.978  1.00  0.00    -0.000 C 
BRANCH  14  15
ATOM     15  C   UNL     1      -7.093  34.755  45.444  1.00  0.00    -0.000 C 
BRANCH  15  16
ATOM     16  C   UNL     1      -8.198  33.699  45.588  1.00  0.00    -0.000 C 
BRANCH  16  17
ATOM     17  C   UNL     1      -7.682  32.267  45.361  1.00  0.00    -0.000 C 
BRANCH  17  18
ATOM     18  C   UNL     1      -8.290  31.610  44.112  1.00  0.00    -0.000 C 
BRANCH  18  19
ATOM     19  C   UNL     1      -9.279  32.531  43.384  1.00  0.00    -0.003 C 
ATOM     20  C   UNL     1      -8.832  32.795  41.949  1.00  0.00     0.004 C 
ENDBRANCH  18  19
ENDBRANCH  17  18
ENDBRANCH  16  17
ENDBRANCH  15  16
ENDBRANCH  14  15
ENDBRANCH  13  14
ENDBRANCH  12  13
ENDBRANCH   1  12
TORSDOF 16
ENDMDL
MODEL 3
REMARK VINA RESULT:    -3.295      1.983      4.536
REMARK INTER + INTRA:          -8.893
REMARK INTER:                  -6.557
REMARK INTRA:                  -2.336
REMARK UNBOUND:                -2.516
REMARK SMILES CCCCCCCCCCCCCCCCCC(=O)[O-]
REMARK SMILES IDX 10 1 11 2 12 3 13 4 14 5 15 6 16 7 17 8 18 9 19 10 20 11
REMARK SMILES IDX 9 12 8 13 7 14 6 15 5 16 4 17 3 18 2 19 1 20
REMARK H PARENT
REMARK Flexibility Score: inf
ROOT
ATOM      1  C   UNL     1      -4.812  37.635  42.662  1.00  0.00     0.000 C 
ENDROOT
BRANCH   1   2
ATOM      2  C   UNL     1      -4.025  37.849  41.356  1.00  0.00     0.000 C 
BRANCH   2   3
ATOM      3  C   UNL     1      -3.935  36.578  40.495  1.00  0.00     0.000 C 
BRANCH   3   4
ATOM      4  C   UNL     1      -2.899  35.570  41.025  1.00  0.00     0.000 C 
BRANCH   4   5
ATOM      5  C   UNL     1      -3.360  34.099  41.038  1.00  0.00     0.000 C 
BRANCH   5   6
ATOM      6  C   UNL     1      -4.070  33.644  42.329  1.00  0.00     0.000 C 
BRANCH   6   7
ATOM      7  C   UNL     1      -5.606  33.765  42.303  1.00  0.00     0.006 C 
BRANCH   7   8
ATOM      8  C   UNL     1      -6.222  34.302  43.605  1.00  0.00     0.053 C 
BRANCH   8   9
ATOM      9  C   UNL     1      -7.678  33.971  43.715  1.00  0.00     0.041 C 
ATOM     10  O   UNL     1      -8.278  34.113  44.813  1.00  0.00    -0.550 OA
ATOM     11  O   UNL     1      -8.365  33.472  42.615  1.00  0.00    -0.550 OA
ENDBRANCH   8   9
ENDBRANCH   7   8
ENDBRANCH   6   7
ENDBRANCH   5   6
ENDBRANCH   4   5
ENDBRANCH   3   4
ENDBRANCH   2   3
ENDBRANCH   1   2
BRANCH   1  12
ATOM     12  C   UNL     1      -5.193  38.923  43.417  1.00  0.00     0.000 C 
BRANCH  12  13
ATOM     13  C   UNL     1      -6.708  39.082  43.607  1.00  0.00    -0.000 C 
BRANCH  13  14
ATOM     14  C   UNL     1      -7.365  37.740  43.948  1.00  0.00    -0.000 C 
BRANCH  14  15
ATOM     15  C   UNL     1      -8.507  37.925  44.958  1.00  0.00    -0.000 C 
BRANCH  15  16
ATOM     16  C   UNL     1      -8.009  37.974  46.410  1.00  0.00    -0.000 C 
BRANCH  16  17
ATOM     17  C   UNL     1      -7.049  36.820  46.747  1.00  0.00    -0.000 C 
BRANCH  17  18
ATOM     18  C   UNL     1      -5.883  37.263  47.643  1.00  0.00    -0.000 C 
BRANCH  18  19
ATOM     19  C   UNL     1      -4.612  37.582  46.843  1.00  0.00    -0.003 C 
ATOM     20  C   UNL     1      -4.211  39.046  47.007  1.00  0.00     0.004 C 
ENDBRANCH  18  19
ENDBRANCH  17  18
ENDBRANCH  16  17
ENDBRANCH  15  16
ENDBRANCH  14  15
ENDBRANCH  13  14
ENDBRANCH  12  13
ENDBRANCH   1  12
TORSDOF 16
ENDMDL
MODEL 4
REMARK VINA RESULT:    -3.283      2.079      5.193
REMARK INTER + INTRA:          -8.869
REMARK INTER:                  -6.726
REMARK INTRA:                  -2.143
REMARK UNBOUND:                -2.516
REMARK SMILES CCCCCCCCCCCCCCCCCC(=O)[O-]
REMARK SMILES IDX 10 1 11 2 12 3 13 4 14 5 15 6 16 7 17 8 18 9 19 10 20 11
REMARK SMILES IDX 9 12 8 13 7 14 6 15 5 16 4 17 3 18 2 19 1 20
REMARK H PARENT
REMARK Flexibility Score: inf
ROOT
ATOM      1  C   UNL     1      -2.936  36.139  40.333  1.00  0.00     0.000 C 
ENDROOT
BRANCH   1   2
ATOM      2  C   UNL     1      -3.043  34.763  41.017  1.00  0.00     0.000 C 
BRANCH   2   3
ATOM      3  C   UNL     1      -4.495  34.346  41.302  1.00  0.00     0.000 C 
BRANCH   3   4
ATOM      4  C   UNL     1      -4.638  33.526  42.598  1.00  0.00     0.000 C 
BRANCH   4   5
ATOM      5  C   UNL     1      -5.600  34.118  43.647  1.00  0.00     0.000 C 
BRANCH   5   6
ATOM      6  C   UNL     1      -6.156  33.109  44.671  1.00  0.00     0.000 C 
BRANCH   6   7
ATOM      7  C   UNL     1      -7.612  32.666  44.425  1.00  0.00     0.006 C 
BRANCH   7   8
ATOM      8  C   UNL     1      -8.340  33.459  43.328  1.00  0.00     0.053 C 
BRANCH   8   9
ATOM      9  C   UNL     1      -8.922  32.562  42.280  1.00  0.00     0.041 C 
ATOM     10  O   UNL     1      -9.449  31.466  42.608  1.00  0.00    -0.550 OA
ATOM     11  O   UNL     1      -8.853  32.919  40.939  1.00  0.00    -0.550 OA
ENDBRANCH   8   9
ENDBRANCH   7   8
ENDBRANCH   6   7
ENDBRANCH   5   6
ENDBRANCH   4   5
ENDBRANCH   3   4
ENDBRANCH   2   3
ENDBRANCH   1   2
BRANCH   1  12
ATOM     12  C   UNL     1      -3.999  37.168  40.761  1.00  0.00     0.000 C 
BRANCH  12  13
ATOM     13  C   UNL     1      -3.532  38.072  41.911  1.00  0.00    -0.000 C 
BRANCH  13  14
ATOM     14  C   UNL     1      -3.807  37.420  43.271  1.00  0.00    -0.000 C 
BRANCH  14  15
ATOM     15  C   UNL     1      -4.912  38.171  44.029  1.00  0.00    -0.000 C 
BRANCH  15  16
ATOM     16  C   UNL     1      -6.321  37.700  43.640  1.00  0.00    -0.000 C 
BRANCH  16  17
ATOM     17  C   UNL     1      -7.429  38.578  44.249  1.00  0.00    -0.000 C 
BRANCH  17  18
ATOM     18  C   UNL     1      -8.431  37.769  45.086  1.00  0.00    -0.000 C 
BRANCH  18  19
ATOM     19  C   UNL     1      -7.874  36.406  45.520  1.00  0.00    -0.003 C 
ATOM     20  C   UNL     1      -7.246  36.485  46.909  1.00  0.00     0.004 C 
ENDBRANCH  18  19
ENDBRANCH  17  18
ENDBRANCH  16  17
ENDBRANCH  15  16
ENDBRANCH  14  15
ENDBRANCH  13  14
ENDBRANCH  12  13
ENDBRANCH   1  12
TORSDOF 16
ENDMDL
MODEL 5
REMARK VINA RESULT:    -3.241      1.984      4.682
REMARK INTER + INTRA:          -8.789
REMARK INTER:                  -6.941
REMARK INTRA:                  -1.847
REMARK UNBOUND:                -2.516
REMARK SMILES CCCCCCCCCCCCCCCCCC(=O)[O-]
REMARK SMILES IDX 10 1 11 2 12 3 13 4 14 5 15 6 16 7 17 8 18 9 19 10 20 11
REMARK SMILES IDX 9 12 8 13 7 14 6 15 5 16 4 17 3 18 2 19 1 20
REMARK H PARENT
REMARK Flexibility Score: inf
ROOT
ATOM      1  C   UNL     1      -7.114  39.735  44.932  1.00  0.00     0.000 C 
ENDROOT
BRANCH   1   2
ATOM      2  C   UNL     1      -8.142  38.871  45.686  1.00  0.00     0.000 C 
BRANCH   2   3
ATOM      3  C   UNL     1      -8.134  37.401  45.235  1.00  0.00     0.000 C 
BRANCH   3   4
ATOM      4  C   UNL     1      -7.135  36.537  46.027  1.00  0.00     0.000 C 
BRANCH   4   5
ATOM      5  C   UNL     1      -6.471  35.400  45.225  1.00  0.00     0.000 C 
BRANCH   5   6
ATOM      6  C   UNL     1      -6.802  33.975  45.710  1.00  0.00     0.000 C 
BRANCH   6   7
ATOM      7  C   UNL     1      -7.896  33.250  44.902  1.00  0.00     0.006 C 
BRANCH   7   8
ATOM      8  C   UNL     1      -8.161  33.850  43.512  1.00  0.00     0.053 C 
BRANCH   8   9
ATOM      9  C   UNL     1      -8.889  32.894  42.619  1.00  0.00     0.041 C 
ATOM     10  O   UNL     1      -9.655  32.025  43.113  1.00  0.00    -0.550 OA
ATOM     11  O   UNL     1      -8.694  32.939  41.244  1.00  0.00    -0.550 OA
ENDBRANCH   8   9
ENDBRANCH   7   8
ENDBRANCH   6   7
ENDBRANCH   5   6
ENDBRANCH   4   5
ENDBRANCH   3   4
ENDBRANCH   2   3
ENDBRANCH   1   2
BRANCH   1  12
ATOM     12  C   UNL     1      -6.690  39.197  43.553  1.00  0.00     0.000 C 
BRANCH  12  13
ATOM     13  C   UNL     1      -5.180  38.934  43.448  1.00  0.00    -0.000 C 
BRANCH  13  14
ATOM     14  C   UNL     1      -4.899  37.620  42.711  1.00  0.00    -0.000 C 
BRANCH  14  15
ATOM     15  C   UNL     1      -3.948  37.845  41.526  1.00  0.00    -0.000 C 
BRANCH  15  16
ATOM     16  C   UNL     1      -3.838  36.615  40.613  1.00  0.00    -0.000 C 
BRANCH  16  17
ATOM     17  C   UNL     1      -4.285  35.318  41.311  1.00  0.00    -0.000 C 
BRANCH  17  18
ATOM     18  C   UNL     1      -3.316  34.151  41.066  1.00  0.00    -0.000 C 
BRANCH  18  19
ATOM     19  C   UNL     1      -3.196  33.220  42.280  1.00  0.00    -0.003 C 
ATOM     20  C   UNL     1      -4.552  33.007  42.946  1.00  0.00     0.004 C 
ENDBRANCH  18  19
ENDBRANCH  17  18
ENDBRANCH  16  17
ENDBRANCH  15  16
ENDBRANCH  14  15
ENDBRANCH  13  14
ENDBRANCH  12  13
ENDBRANCH   1  12
TORSDOF 16
ENDMDL
MODEL 6
REMARK VINA RESULT:    -3.233      5.152      8.697
REMARK INTER + INTRA:          -8.773
REMARK INTER:                  -6.486
REMARK INTRA:                  -2.287
REMARK UNBOUND:                -2.516
REMARK SMILES CCCCCCCCCCCCCCCCCC(=O)[O-]
REMARK SMILES IDX 10 1 11 2 12 3 13 4 14 5 15 6 16 7 17 8 18 9 19 10 20 11
REMARK SMILES IDX 9 12 8 13 7 14 6 15 5 16 4 17 3 18 2 19 1 20
REMARK H PARENT
REMARK Flexibility Score: inf
ROOT
ATOM      1  C   UNL     1       2.105  30.058  43.910  1.00  0.00     0.000 C 
ENDROOT
BRANCH   1   2
ATOM      2  C   UNL     1       2.145  30.688  42.505  1.00  0.00     0.000 C 
BRANCH   2   3
ATOM      3  C   UNL     1       2.169  29.641  41.379  1.00  0.00     0.000 C 
BRANCH   3   4
ATOM      4  C   UNL     1       0.895  29.665  40.514  1.00  0.00     0.000 C 
BRANCH   4   5
ATOM      5  C   UNL     1       0.113  28.337  40.461  1.00  0.00     0.000 C 
BRANCH   5   6
ATOM      6  C   UNL     1      -0.335  27.783  41.829  1.00  0.00     0.000 C 
BRANCH   6   7
ATOM      7  C   UNL     1      -1.201  28.744  42.667  1.00  0.00     0.006 C 
BRANCH   7   8
ATOM      8  C   UNL     1      -1.181  28.462  44.178  1.00  0.00     0.053 C 
BRANCH   8   9
ATOM      9  C   UNL     1      -2.526  28.044  44.688  1.00  0.00     0.041 C 
ATOM     10  O   UNL     1      -3.531  28.777  44.494  1.00  0.00    -0.550 OA
ATOM     11  O   UNL     1      -2.662  26.863  45.408  1.00  0.00    -0.550 OA
ENDBRANCH   8   9
ENDBRANCH   7   8
ENDBRANCH   6   7
ENDBRANCH   5   6
ENDBRANCH   4   5
ENDBRANCH   3   4
ENDBRANCH   2   3
ENDBRANCH   1   2
BRANCH   1  12
ATOM     12  C   UNL     1       1.492  30.946  45.009  1.00  0.00     0.000 C 
BRANCH  12  13
ATOM     13  C   UNL     1       0.976  32.291  44.478  1.00  0.00    -0.000 C 
BRANCH  13  14
ATOM     14  C   UNL     1      -0.549  32.387  44.611  1.00  0.00    -0.000 C 
BRANCH  14  15
ATOM     15  C   UNL     1      -1.235  32.159  43.256  1.00  0.00    -0.000 C 
BRANCH  15  16
ATOM     16  C   UNL     1      -0.683  33.073  42.152  1.00  0.00    -0.000 C 
BRANCH  16  17
ATOM     17  C   UNL     1      -1.788  33.869  41.434  1.00  0.00    -0.000 C 
BRANCH  17  18
ATOM     18  C   UNL     1      -3.198  33.476  41.901  1.00  0.00    -0.000 C 
BRANCH  18  19
ATOM     19  C   UNL     1      -4.276  34.453  41.411  1.00  0.00    -0.003 C 
ATOM     20  C   UNL     1      -3.652  35.632  40.669  1.00  0.00     0.004 C 
ENDBRANCH  18  19
ENDBRANCH  17  18
ENDBRANCH  16  17
ENDBRANCH  15  16
ENDBRANCH  14  15
ENDBRANCH  13  14
ENDBRANCH  12  13
ENDBRANCH   1  12
TORSDOF 16
ENDMDL
MODEL 7
REMARK VINA RESULT:    -3.232      1.329      2.137
REMARK INTER + INTRA:          -8.771
REMARK INTER:                  -6.553
REMARK INTRA:                  -2.218
REMARK UNBOUND:                -2.516
REMARK SMILES CCCCCCCCCCCCCCCCCC(=O)[O-]
REMARK SMILES IDX 10 1 11 2 12 3 13 4 14 5 15 6 16 7 17 8 18 9 19 10 20 11
REMARK SMILES IDX 9 12 8 13 7 14 6 15 5 16 4 17 3 18 2 19 1 20
REMARK H PARENT
REMARK Flexibility Score: inf
ROOT
ATOM      1  C   UNL     1      -6.571  39.130  43.528  1.00  0.00     0.000 C 
ENDROOT
BRANCH   1   2
ATOM      2  C   UNL     1      -5.272  38.628  42.873  1.00  0.00     0.000 C 
BRANCH   2   3
ATOM      3  C   UNL     1      -4.552  37.558  43.710  1.00  0.00     0.000 C 
BRANCH   3   4
ATOM      4  C   UNL     1      -3.577  36.704  42.878  1.00  0.00     0.000 C 
BRANCH   4   5
ATOM      5  C   UNL     1      -4.007  36.450  41.420  1.00  0.00     0.000 C 
BRANCH   5   6
ATOM      6  C   UNL     1      -4.189  34.967  41.037  1.00  0.00     0.000 C 
BRANCH   6   7
ATOM      7  C   UNL     1      -2.968  34.069  41.319  1.00  0.00     0.006 C 
BRANCH   7   8
ATOM      8  C   UNL     1      -3.227  32.946  42.336  1.00  0.00     0.053 C 
BRANCH   8   9
ATOM      9  C   UNL     1      -2.077  31.992  42.423  1.00  0.00     0.041 C 
ATOM     10  O   UNL     1      -0.896  32.427  42.476  1.00  0.00    -0.550 OA
ATOM     11  O   UNL     1      -2.305  30.622  42.409  1.00  0.00    -0.550 OA
ENDBRANCH   8   9
ENDBRANCH   7   8
ENDBRANCH   6   7
ENDBRANCH   5   6
ENDBRANCH   4   5
ENDBRANCH   3   4
ENDBRANCH   2   3
ENDBRANCH   1   2
BRANCH   1  12
ATOM     12  C   UNL     1      -6.531  39.240  45.064  1.00  0.00     0.000 C 
BRANCH  12  13
ATOM     13  C   UNL     1      -7.925  39.386  45.693  1.00  0.00    -0.000 C 
BRANCH  13  14
ATOM     14  C   UNL     1      -8.522  38.016  46.033  1.00  0.00    -0.000 C 
BRANCH  14  15
ATOM     15  C   UNL     1      -7.417  36.992  46.331  1.00  0.00    -0.000 C 
BRANCH  15  16
ATOM     16  C   UNL     1      -7.761  35.585  45.819  1.00  0.00    -0.000 C 
BRANCH  16  17
ATOM     17  C   UNL     1      -7.523  35.432  44.306  1.00  0.00    -0.000 C 
BRANCH  17  18
ATOM     18  C   UNL     1      -6.406  34.428  43.982  1.00  0.00    -0.000 C 
BRANCH  18  19
ATOM     19  C   UNL     1      -6.868  33.320  43.026  1.00  0.00    -0.003 C 
ATOM     20  C   UNL     1      -8.381  33.358  42.830  1.00  0.00     0.004 C 
ENDBRANCH  18  19
ENDBRANCH  17  18
ENDBRANCH  16  17
ENDBRANCH  15  16
ENDBRANCH  14  15
ENDBRANCH  13  14
ENDBRANCH  12  13
ENDBRANCH   1  12
TORSDOF 16
ENDMDL
MODEL 8
REMARK VINA RESULT:    -3.223      2.058      5.016
REMARK INTER + INTRA:          -8.753
REMARK INTER:                  -6.026
REMARK INTRA:                  -2.728
REMARK UNBOUND:                -2.516
REMARK SMILES CCCCCCCCCCCCCCCCCC(=O)[O-]
REMARK SMILES IDX 10 1 11 2 12 3 13 4 14 5 15 6 16 7 17 8 18 9 19 10 20 11
REMARK SMILES IDX 9 12 8 13 7 14 6 15 5 16 4 17 3 18 2 19 1 20
REMARK H PARENT
REMARK Flexibility Score: inf
ROOT
ATOM      1  C   UNL     1      -4.071  37.476  42.125  1.00  0.00     0.000 C 
ENDROOT
BRANCH   1   2
ATOM      2  C   UNL     1      -4.026  36.133  41.374  1.00  0.00     0.000 C 
BRANCH   2   3
ATOM      3  C   UNL     1      -3.407  35.000  42.209  1.00  0.00     0.000 C 
BRANCH   3   4
ATOM      4  C   UNL     1      -4.232  33.700  42.157  1.00  0.00     0.000 C 
BRANCH   4   5
ATOM      5  C   UNL     1      -5.743  33.871  42.410  1.00  0.00     0.000 C 
BRANCH   5   6
ATOM      6  C   UNL     1      -6.134  34.178  43.870  1.00  0.00     0.000 C 
BRANCH   6   7
ATOM      7  C   UNL     1      -7.650  34.249  44.136  1.00  0.00     0.006 C 
BRANCH   7   8
ATOM      8  C   UNL     1      -8.108  33.509  45.403  1.00  0.00     0.053 C 
BRANCH   8   9
ATOM      9  C   UNL     1      -8.872  32.263  45.080  1.00  0.00     0.041 C 
ATOM     10  O   UNL     1      -8.631  31.631  44.017  1.00  0.00    -0.550 OA
ATOM     11  O   UNL     1      -9.875  31.819  45.932  1.00  0.00    -0.550 OA
ENDBRANCH   8   9
ENDBRANCH   7   8
ENDBRANCH   6   7
ENDBRANCH   5   6
ENDBRANCH   4   5
ENDBRANCH   3   4
ENDBRANCH   2   3
ENDBRANCH   1   2
BRANCH   1  12
ATOM     12  C   UNL     1      -5.254  37.645  43.097  1.00  0.00     0.000 C 
BRANCH  12  13
ATOM     13  C   UNL     1      -5.538  39.112  43.450  1.00  0.00    -0.000 C 
BRANCH  13  14
ATOM     14  C   UNL     1      -6.960  39.282  43.996  1.00  0.00    -0.000 C 
BRANCH  14  15
ATOM     15  C   UNL     1      -7.702  37.938  44.031  1.00  0.00    -0.000 C 
BRANCH  15  16
ATOM     16  C   UNL     1      -8.504  37.737  45.325  1.00  0.00    -0.000 C 
BRANCH  16  17
ATOM     17  C   UNL     1      -7.660  37.982  46.588  1.00  0.00    -0.000 C 
BRANCH  17  18
ATOM     18  C   UNL     1      -6.975  36.705  47.099  1.00  0.00    -0.000 C 
BRANCH  18  19
ATOM     19  C   UNL     1      -5.492  36.634  46.710  1.00  0.00    -0.003 C 
ATOM     20  C   UNL     1      -4.793  37.967  46.963  1.00  0.00     0.004 C 
ENDBRANCH  18  19
ENDBRANCH  17  18
ENDBRANCH  16  17
ENDBRANCH  15  16
ENDBRANCH  14  15
ENDBRANCH  13  14
ENDBRANCH  12  13
ENDBRANCH   1  12
TORSDOF 16
ENDMDL
MODEL 9
REMARK VINA RESULT:    -3.195      2.229      5.410
REMARK INTER + INTRA:          -8.700
REMARK INTER:                  -6.603
REMARK INTRA:                  -2.097
REMARK UNBOUND:                -2.516
REMARK SMILES CCCCCCCCCCCCCCCCCC(=O)[O-]
REMARK SMILES IDX 10 1 11 2 12 3 13 4 14 5 15 6 16 7 17 8 18 9 19 10 20 11
REMARK SMILES IDX 9 12 8 13 7 14 6 15 5 16 4 17 3 18 2 19 1 20
REMARK H PARENT
REMARK Flexibility Score: inf
ROOT
ATOM      1  C   UNL     1      -4.959  39.050  44.067  1.00  0.00     0.000 C 
ENDROOT
BRANCH   1   2
ATOM      2  C   UNL     1      -6.250  39.561  44.732  1.00  0.00     0.000 C 
BRANCH   2   3
ATOM      3  C   UNL     1      -6.836  38.564  45.747  1.00  0.00     0.000 C 
BRANCH   3   4
ATOM      4  C   UNL     1      -8.096  37.850  45.224  1.00  0.00     0.000 C 
BRANCH   4   5
ATOM      5  C   UNL     1      -7.970  36.321  45.076  1.00  0.00     0.000 C 
BRANCH   5   6
ATOM      6  C   UNL     1      -6.965  35.845  44.009  1.00  0.00     0.000 C 
BRANCH   6   7
ATOM      7  C   UNL     1      -6.351  34.454  44.267  1.00  0.00     0.006 C 
BRANCH   7   8
ATOM      8  C   UNL     1      -6.647  33.416  43.173  1.00  0.00     0.053 C 
BRANCH   8   9
ATOM      9  C   UNL     1      -8.104  33.079  43.098  1.00  0.00     0.041 C 
ATOM     10  O   UNL     1      -8.724  33.194  42.008  1.00  0.00    -0.550 OA
ATOM     11  O   UNL     1      -8.785  32.673  44.238  1.00  0.00    -0.550 OA
ENDBRANCH   8   9
ENDBRANCH   7   8
ENDBRANCH   6   7
ENDBRANCH   5   6
ENDBRANCH   4   5
ENDBRANCH   3   4
ENDBRANCH   2   3
ENDBRANCH   1   2
BRANCH   1  12
ATOM     12  C   UNL     1      -5.106  38.617  42.596  1.00  0.00     0.000 C 
BRANCH  12  13
ATOM     13  C   UNL     1      -4.014  37.636  42.146  1.00  0.00    -0.000 C 
BRANCH  13  14
ATOM     14  C   UNL     1      -3.920  37.579  40.617  1.00  0.00    -0.000 C 
BRANCH  14  15
ATOM     15  C   UNL     1      -4.019  36.131  40.113  1.00  0.00    -0.000 C 
BRANCH  15  16
ATOM     16  C   UNL     1      -4.083  35.109  41.257  1.00  0.00    -0.000 C 
BRANCH  16  17
ATOM     17  C   UNL     1      -2.985  34.036  41.155  1.00  0.00    -0.000 C 
BRANCH  17  18
ATOM     18  C   UNL     1      -1.797  34.485  40.291  1.00  0.00    -0.000 C 
BRANCH  18  19
ATOM     19  C   UNL     1      -0.668  35.113  41.121  1.00  0.00    -0.003 C 
ATOM     20  C   UNL     1      -0.244  36.460  40.542  1.00  0.00     0.004 C 
ENDBRANCH  18  19
ENDBRANCH  17  18
ENDBRANCH  16  17
ENDBRANCH  15  16
ENDBRANCH  14  15
ENDBRANCH  13  14
ENDBRANCH  12  13
ENDBRANCH   1  12
TORSDOF 16
ENDMDL
