MODEL 1
REMARK VINA RESULT:    -3.186      0.000      0.000
REMARK INTER + INTRA:          -5.458
REMARK INTER:                  -4.863
REMARK INTRA:                  -0.595
REMARK UNBOUND:                -0.595
REMARK SMILES CCCCCCCCCCC(=O)[O-]
REMARK SMILES IDX 7 1 8 2 9 3 10 4 11 5 12 6 13 7 6 8 5 9 4 10 3 11 2 12 1 13
REMARK H PARENT
REMARK Flexibility Score: inf
ROOT
ATOM      1  C   UNL     1      -3.333   6.163   2.362  1.00  0.00     0.000 C 
ENDROOT
BRANCH   1   2
ATOM      2  C   UNL     1      -3.489   4.770   1.742  1.00  0.00     0.000 C 
BRANCH   2   3
ATOM      3  C   UNL     1      -4.132   3.792   2.736  1.00  0.00     0.006 C 
BRANCH   3   4
ATOM      4  C   UNL     1      -3.333   2.490   2.872  1.00  0.00     0.053 C 
BRANCH   4   5
ATOM      5  C   UNL     1      -3.272   2.021   4.294  1.00  0.00     0.041 C 
ATOM      6  O   UNL     1      -2.515   1.067   4.614  1.00  0.00    -0.550 OA
ATOM      7  O   UNL     1      -4.026   2.659   5.271  1.00  0.00    -0.550 OA
ENDBRANCH   4   5
ENDBRANCH   3   4
ENDBRANCH   2   3
ENDBRANCH   1   2
BRANCH   1   8
ATOM      8  C   UNL     1      -3.565   7.261   1.313  1.00  0.00     0.000 C 
BRANCH   8   9
ATOM      9  C   UNL     1      -5.039   7.687   1.215  1.00  0.00    -0.000 C 
BRANCH   9  10
ATOM     10  C   UNL     1      -5.564   7.670  -0.230  1.00  0.00    -0.000 C 
BRANCH  10  11
ATOM     11  C   UNL     1      -5.750   6.244  -0.773  1.00  0.00    -0.000 C 
BRANCH  11  12
ATOM     12  C   UNL     1      -4.691   5.865  -1.819  1.00  0.00    -0.003 C 
ATOM     13  C   UNL     1      -5.306   5.045  -2.950  1.00  0.00     0.004 C 
ENDBRANCH  11  12
ENDBRANCH  10  11
ENDBRANCH   9  10
ENDBRANCH   8   9
ENDBRANCH   1   8
TORSDOF 9
ENDMDL
MODEL 2
REMARK VINA RESULT:    -3.108      1.365      1.972
REMARK INTER + INTRA:          -5.338
REMARK INTER:                  -4.703
REMARK INTRA:                  -0.635
REMARK UNBOUND:                -0.595
REMARK SMILES CCCCCCCCCCC(=O)[O-]
REMARK SMILES IDX 7 1 8 2 9 3 10 4 11 5 12 6 13 7 6 8 5 9 4 10 3 11 2 12 1 13
REMARK H PARENT
REMARK Flexibility Score: inf
ROOT
ATOM      1  C   UNL     1      -3.178   5.991   2.527  1.00  0.00     0.000 C 
ENDROOT
BRANCH   1   2
ATOM      2  C   UNL     1      -3.260   4.601   1.883  1.00  0.00     0.000 C 
BRANCH   2   3
ATOM      3  C   UNL     1      -4.148   3.661   2.710  1.00  0.00     0.006 C 
BRANCH   3   4
ATOM      4  C   UNL     1      -3.492   2.295   2.943  1.00  0.00     0.053 C 
BRANCH   4   5
ATOM      5  C   UNL     1      -3.347   1.989   4.404  1.00  0.00     0.041 C 
ATOM      6  O   UNL     1      -4.027   2.622   5.253  1.00  0.00    -0.550 OA
ATOM      7  O   UNL     1      -2.486   0.983   4.823  1.00  0.00    -0.550 OA
ENDBRANCH   4   5
ENDBRANCH   3   4
ENDBRANCH   2   3
ENDBRANCH   1   2
BRANCH   1   8
ATOM      8  C   UNL     1      -3.454   7.093   1.493  1.00  0.00     0.000 C 
BRANCH   8   9
ATOM      9  C   UNL     1      -4.954   7.380   1.318  1.00  0.00    -0.000 C 
BRANCH   9  10
ATOM     10  C   UNL     1      -5.572   6.600   0.145  1.00  0.00    -0.000 C 
BRANCH  10  11
ATOM     11  C   UNL     1      -7.035   6.206   0.405  1.00  0.00    -0.000 C 
BRANCH  11  12
ATOM     12  C   UNL     1      -7.185   4.747   0.858  1.00  0.00    -0.003 C 
ATOM     13  C   UNL     1      -8.412   4.098   0.224  1.00  0.00     0.004 C 
ENDBRANCH  11  12
ENDBRANCH  10  11
ENDBRANCH   9  10
ENDBRANCH   8   9
ENDBRANCH   1   8
TORSDOF 9
ENDMDL
MODEL 3
REMARK VINA RESULT:    -3.062      2.920      5.788
REMARK INTER + INTRA:          -5.268
REMARK INTER:                  -4.714
REMARK INTRA:                  -0.554
REMARK UNBOUND:                -0.595
REMARK SMILES CCCCCCCCCCC(=O)[O-]
REMARK SMILES IDX 7 1 8 2 9 3 10 4 11 5 12 6 13 7 6 8 5 9 4 10 3 11 2 12 1 13
REMARK H PARENT
REMARK Flexibility Score: inf
ROOT
ATOM      1  C   UNL     1      -3.706   6.996   0.672  1.00  0.00     0.000 C 
ENDROOT
BRANCH   1   2
ATOM      2  C   UNL     1      -4.814   8.033   0.891  1.00  0.00     0.000 C 
BRANCH   2   3
ATOM      3  C   UNL     1      -5.871   7.956  -0.220  1.00  0.00     0.006 C 
BRANCH   3   4
ATOM      4  C   UNL     1      -7.225   7.455   0.298  1.00  0.00     0.053 C 
BRANCH   4   5
ATOM      5  C   UNL     1      -7.145   6.040   0.787  1.00  0.00     0.041 C 
ATOM      6  O   UNL     1      -6.925   5.103  -0.023  1.00  0.00    -0.550 OA
ATOM      7  O   UNL     1      -7.280   5.763   2.141  1.00  0.00    -0.550 OA
ENDBRANCH   4   5
ENDBRANCH   3   4
ENDBRANCH   2   3
ENDBRANCH   1   2
BRANCH   1   8
ATOM      8  C   UNL     1      -3.430   6.204   1.959  1.00  0.00     0.000 C 
BRANCH   8   9
ATOM      9  C   UNL     1      -3.594   4.687   1.769  1.00  0.00    -0.000 C 
BRANCH   9  10
ATOM     10  C   UNL     1      -3.369   3.902   3.072  1.00  0.00    -0.000 C 
BRANCH  10  11
ATOM     11  C   UNL     1      -3.635   2.397   2.906  1.00  0.00    -0.000 C 
BRANCH  11  12
ATOM     12  C   UNL     1      -3.194   1.578   4.128  1.00  0.00    -0.003 C 
ATOM     13  C   UNL     1      -3.362   2.380   5.416  1.00  0.00     0.004 C 
ENDBRANCH  11  12
ENDBRANCH  10  11
ENDBRANCH   9  10
ENDBRANCH   8   9
ENDBRANCH   1   8
TORSDOF 9
ENDMDL
MODEL 4
REMARK VINA RESULT:    -2.991      4.040      6.012
REMARK INTER + INTRA:          -5.159
REMARK INTER:                  -4.797
REMARK INTRA:                  -0.362
REMARK UNBOUND:                -0.595
REMARK SMILES CCCCCCCCCCC(=O)[O-]
REMARK SMILES IDX 7 1 8 2 9 3 10 4 11 5 12 6 13 7 6 8 5 9 4 10 3 11 2 12 1 13
REMARK H PARENT
REMARK Flexibility Score: inf
ROOT
ATOM      1  C   UNL     1      -6.374   4.886   1.214  1.00  0.00     0.000 C 
ENDROOT
BRANCH   1   2
ATOM      2  C   UNL     1      -7.682   5.537   0.751  1.00  0.00     0.000 C 
BRANCH   2   3
ATOM      3  C   UNL     1      -8.811   4.500   0.653  1.00  0.00     0.006 C 
BRANCH   3   4
ATOM      4  C   UNL     1      -8.335   3.178   0.036  1.00  0.00     0.053 C 
BRANCH   4   5
ATOM      5  C   UNL     1      -9.451   2.184  -0.076  1.00  0.00     0.041 C 
ATOM      6  O   UNL     1     -10.030   2.005  -1.179  1.00  0.00    -0.550 OA
ATOM      7  O   UNL     1      -9.826   1.431   1.029  1.00  0.00    -0.550 OA
ENDBRANCH   4   5
ENDBRANCH   3   4
ENDBRANCH   2   3
ENDBRANCH   1   2
BRANCH   1   8
ATOM      8  C   UNL     1      -5.221   5.901   1.205  1.00  0.00     0.000 C 
BRANCH   8   9
ATOM      9  C   UNL     1      -3.838   5.229   1.190  1.00  0.00    -0.000 C 
BRANCH   9  10
ATOM     10  C   UNL     1      -3.427   4.693   2.571  1.00  0.00    -0.000 C 
BRANCH  10  11
ATOM     11  C   UNL     1      -3.530   3.162   2.664  1.00  0.00    -0.000 C 
BRANCH  11  12
ATOM     12  C   UNL     1      -3.646   2.663   4.111  1.00  0.00    -0.003 C 
ATOM     13  C   UNL     1      -3.164   1.220   4.234  1.00  0.00     0.004 C 
ENDBRANCH  11  12
ENDBRANCH  10  11
ENDBRANCH   9  10
ENDBRANCH   8   9
ENDBRANCH   1   8
TORSDOF 9
ENDMDL
MODEL 5
REMARK VINA RESULT:    -2.898      2.245      2.711
REMARK INTER + INTRA:          -5.017
REMARK INTER:                  -4.423
REMARK INTRA:                  -0.594
REMARK UNBOUND:                -0.595
REMARK SMILES CCCCCCCCCCC(=O)[O-]
REMARK SMILES IDX 7 1 8 2 9 3 10 4 11 5 12 6 13 7 6 8 5 9 4 10 3 11 2 12 1 13
REMARK H PARENT
REMARK Flexibility Score: inf
ROOT
ATOM      1  C   UNL     1      -4.424   6.065  -0.156  1.00  0.00     0.000 C 
ENDROOT
BRANCH   1   2
ATOM      2  C   UNL     1      -4.077   5.891   1.327  1.00  0.00     0.000 C 
BRANCH   2   3
ATOM      3  C   UNL     1      -4.205   4.422   1.756  1.00  0.00     0.006 C 
BRANCH   3   4
ATOM      4  C   UNL     1      -3.311   4.085   2.956  1.00  0.00     0.053 C 
BRANCH   4   5
ATOM      5  C   UNL     1      -3.643   2.744   3.538  1.00  0.00     0.041 C 
ATOM      6  O   UNL     1      -3.509   1.703   2.844  1.00  0.00    -0.550 OA
ATOM      7  O   UNL     1      -4.068   2.643   4.856  1.00  0.00    -0.550 OA
ENDBRANCH   4   5
ENDBRANCH   3   4
ENDBRANCH   2   3
ENDBRANCH   1   2
BRANCH   1   8
ATOM      8  C   UNL     1      -5.486   7.158  -0.348  1.00  0.00     0.000 C 
BRANCH   8   9
ATOM      9  C   UNL     1      -6.847   6.777   0.255  1.00  0.00    -0.000 C 
BRANCH   9  10
ATOM     10  C   UNL     1      -7.630   5.793  -0.630  1.00  0.00    -0.000 C 
BRANCH  10  11
ATOM     11  C   UNL     1      -8.573   4.891   0.183  1.00  0.00    -0.000 C 
BRANCH  11  12
ATOM     12  C   UNL     1      -8.021   3.469   0.367  1.00  0.00    -0.003 C 
ATOM     13  C   UNL     1      -8.775   2.470  -0.506  1.00  0.00     0.004 C 
ENDBRANCH  11  12
ENDBRANCH  10  11
ENDBRANCH   9  10
ENDBRANCH   8   9
ENDBRANCH   1   8
TORSDOF 9
ENDMDL
MODEL 6
REMARK VINA RESULT:    -2.897      1.551      2.272
REMARK INTER + INTRA:          -5.017
REMARK INTER:                  -4.631
REMARK INTRA:                  -0.386
REMARK UNBOUND:                -0.595
REMARK SMILES CCCCCCCCCCC(=O)[O-]
REMARK SMILES IDX 7 1 8 2 9 3 10 4 11 5 12 6 13 7 6 8 5 9 4 10 3 11 2 12 1 13
REMARK H PARENT
REMARK Flexibility Score: inf
ROOT
ATOM      1  C   UNL     1      -3.287   6.191   2.443  1.00  0.00     0.000 C 
ENDROOT
BRANCH   1   2
ATOM      2  C   UNL     1      -3.500   4.825   1.780  1.00  0.00     0.000 C 
BRANCH   2   3
ATOM      3  C   UNL     1      -4.168   3.839   2.749  1.00  0.00     0.006 C 
BRANCH   3   4
ATOM      4  C   UNL     1      -3.379   2.531   2.885  1.00  0.00     0.053 C 
BRANCH   4   5
ATOM      5  C   UNL     1      -3.309   2.069   4.309  1.00  0.00     0.041 C 
ATOM      6  O   UNL     1      -4.008   2.631   5.192  1.00  0.00    -0.550 OA
ATOM      7  O   UNL     1      -2.496   0.996   4.654  1.00  0.00    -0.550 OA
ENDBRANCH   4   5
ENDBRANCH   3   4
ENDBRANCH   2   3
ENDBRANCH   1   2
BRANCH   1   8
ATOM      8  C   UNL     1      -3.499   7.331   1.435  1.00  0.00     0.000 C 
BRANCH   8   9
ATOM      9  C   UNL     1      -4.933   7.885   1.458  1.00  0.00    -0.000 C 
BRANCH   9  10
ATOM     10  C   UNL     1      -5.400   8.374   0.077  1.00  0.00    -0.000 C 
BRANCH  10  11
ATOM     11  C   UNL     1      -4.241   8.501  -0.926  1.00  0.00    -0.000 C 
BRANCH  11  12
ATOM     12  C   UNL     1      -3.790   9.955  -1.130  1.00  0.00    -0.003 C 
ATOM     13  C   UNL     1      -3.425  10.217  -2.588  1.00  0.00     0.004 C 
ENDBRANCH  11  12
ENDBRANCH  10  11
ENDBRANCH   9  10
ENDBRANCH   8   9
ENDBRANCH   1   8
TORSDOF 9
ENDMDL
MODEL 7
REMARK VINA RESULT:    -2.781      6.662     10.051
REMARK INTER + INTRA:          -4.839
REMARK INTER:                  -4.199
REMARK INTRA:                  -0.639
REMARK UNBOUND:                -0.595
REMARK SMILES CCCCCCCCCCC(=O)[O-]
REMARK SMILES IDX 7 1 8 2 9 3 10 4 11 5 12 6 13 7 6 8 5 9 4 10 3 11 2 12 1 13
REMARK H PARENT
REMARK Flexibility Score: inf
ROOT
ATOM      1  C   UNL     1      -1.763   5.311   9.080  1.00  0.00     0.000 C 
ENDROOT
BRANCH   1   2
ATOM      2  C   UNL     1      -0.814   6.472   8.760  1.00  0.00     0.000 C 
BRANCH   2   3
ATOM      3  C   UNL     1      -1.548   7.596   8.015  1.00  0.00     0.006 C 
BRANCH   3   4
ATOM      4  C   UNL     1      -3.003   7.230   7.696  1.00  0.00     0.053 C 
BRANCH   4   5
ATOM      5  C   UNL     1      -3.491   7.917   6.456  1.00  0.00     0.041 C 
ATOM      6  O   UNL     1      -4.624   7.640   5.983  1.00  0.00    -0.550 OA
ATOM      7  O   UNL     1      -2.708   8.888   5.845  1.00  0.00    -0.550 OA
ENDBRANCH   4   5
ENDBRANCH   3   4
ENDBRANCH   2   3
ENDBRANCH   1   2
BRANCH   1   8
ATOM      8  C   UNL     1      -0.989   4.108   9.641  1.00  0.00     0.000 C 
BRANCH   8   9
ATOM      9  C   UNL     1      -0.317   4.411  10.990  1.00  0.00    -0.000 C 
BRANCH   9  10
ATOM     10  C   UNL     1       1.154   3.963  11.030  1.00  0.00    -0.000 C 
BRANCH  10  11
ATOM     11  C   UNL     1       1.734   3.718   9.628  1.00  0.00    -0.000 C 
BRANCH  11  12
ATOM     12  C   UNL     1       2.308   2.303   9.463  1.00  0.00    -0.003 C 
ATOM     13  C   UNL     1       1.273   1.244   9.832  1.00  0.00     0.004 C 
ENDBRANCH  11  12
ENDBRANCH  10  11
ENDBRANCH   9  10
ENDBRANCH   8   9
ENDBRANCH   1   8
TORSDOF 9
ENDMDL
MODEL 8
REMARK VINA RESULT:    -2.735      6.270      9.268
REMARK INTER + INTRA:          -4.769
REMARK INTER:                  -4.051
REMARK INTRA:                  -0.718
REMARK UNBOUND:                -0.595
REMARK SMILES CCCCCCCCCCC(=O)[O-]
REMARK SMILES IDX 7 1 8 2 9 3 10 4 11 5 12 6 13 7 6 8 5 9 4 10 3 11 2 12 1 13
REMARK H PARENT
REMARK Flexibility Score: inf
ROOT
ATOM      1  C   UNL     1       0.561   7.629   8.882  1.00  0.00     0.000 C 
ENDROOT
BRANCH   1   2
ATOM      2  C   UNL     1      -0.278   8.602   8.046  1.00  0.00     0.000 C 
BRANCH   2   3
ATOM      3  C   UNL     1      -1.688   8.045   7.800  1.00  0.00     0.006 C 
BRANCH   3   4
ATOM      4  C   UNL     1      -2.539   8.977   6.928  1.00  0.00     0.053 C 
BRANCH   4   5
ATOM      5  C   UNL     1      -3.297   8.219   5.880  1.00  0.00     0.041 C 
ATOM      6  O   UNL     1      -3.918   7.168   6.186  1.00  0.00    -0.550 OA
ATOM      7  O   UNL     1      -3.345   8.693   4.576  1.00  0.00    -0.550 OA
ENDBRANCH   4   5
ENDBRANCH   3   4
ENDBRANCH   2   3
ENDBRANCH   1   2
BRANCH   1   8
ATOM      8  C   UNL     1      -0.335   6.622   9.619  1.00  0.00     0.000 C 
BRANCH   8   9
ATOM      9  C   UNL     1       0.201   5.183   9.542  1.00  0.00    -0.000 C 
BRANCH   9  10
ATOM     10  C   UNL     1      -0.916   4.131   9.641  1.00  0.00    -0.000 C 
BRANCH  10  11
ATOM     11  C   UNL     1      -2.173   4.530   8.852  1.00  0.00    -0.000 C 
BRANCH  11  12
ATOM     12  C   UNL     1      -3.390   4.772   9.757  1.00  0.00    -0.003 C 
ATOM     13  C   UNL     1      -3.192   4.129  11.127  1.00  0.00     0.004 C 
ENDBRANCH  11  12
ENDBRANCH  10  11
ENDBRANCH   9  10
ENDBRANCH   8   9
ENDBRANCH   1   8
TORSDOF 9
ENDMDL
MODEL 9
REMARK VINA RESULT:    -2.703      8.015      9.627
REMARK INTER + INTRA:          -4.720
REMARK INTER:                  -3.802
REMARK INTRA:                  -0.918
REMARK UNBOUND:                -0.595
REMARK SMILES CCCCCCCCCCC(=O)[O-]
REMARK SMILES IDX 7 1 8 2 9 3 10 4 11 5 12 6 13 7 6 8 5 9 4 10 3 11 2 12 1 13
REMARK H PARENT
REMARK Flexibility Score: inf
ROOT
ATOM      1  C   UNL     1      -0.888   3.904  11.023  1.00  0.00     0.000 C 
ENDROOT
BRANCH   1   2
ATOM      2  C   UNL     1      -0.091   3.125   9.970  1.00  0.00     0.000 C 
BRANCH   2   3
ATOM      3  C   UNL     1       1.394   3.516   9.999  1.00  0.00     0.006 C 
BRANCH   3   4
ATOM      4  C   UNL     1       2.296   2.422   9.416  1.00  0.00     0.053 C 
BRANCH   4   5
ATOM      5  C   UNL     1       3.388   2.996   8.564  1.00  0.00     0.041 C 
ATOM      6  O   UNL     1       3.971   4.056   8.913  1.00  0.00    -0.550 OA
ATOM      7  O   UNL     1       3.783   2.343   7.404  1.00  0.00    -0.550 OA
ENDBRANCH   4   5
ENDBRANCH   3   4
ENDBRANCH   2   3
ENDBRANCH   1   2
BRANCH   1   8
ATOM      8  C   UNL     1      -2.163   4.507  10.413  1.00  0.00     0.000 C 
BRANCH   8   9
ATOM      9  C   UNL     1      -2.142   4.510   8.876  1.00  0.00    -0.000 C 
BRANCH   9  10
ATOM     10  C   UNL     1      -2.475   5.890   8.284  1.00  0.00    -0.000 C 
BRANCH  10  11
ATOM     11  C   UNL     1      -1.843   7.042   9.081  1.00  0.00    -0.000 C 
BRANCH  11  12
ATOM     12  C   UNL     1      -0.548   7.565   8.442  1.00  0.00    -0.003 C 
ATOM     13  C   UNL     1       0.679   7.046   9.186  1.00  0.00     0.004 C 
ENDBRANCH  11  12
ENDBRANCH  10  11
ENDBRANCH   9  10
ENDBRANCH   8   9
ENDBRANCH   1   8
TORSDOF 9
ENDMDL
