MODEL 1
REMARK VINA RESULT:    -4.190      0.000      0.000
REMARK INTER + INTRA:          -9.156
REMARK INTER:                  -7.374
REMARK INTRA:                  -1.782
REMARK UNBOUND:                -1.782
REMARK SMILES CCCCCCC=CCCCCCCCC(=O)[O-]
REMARK SMILES IDX 10 1 11 2 12 3 13 4 14 5 15 6 16 7 17 8 18 9 9 10 8 11 7 12
REMARK SMILES IDX 6 13 5 14 4 15 3 16 2 17 1 18
REMARK H PARENT
REMARK Flexibility Score: inf
ROOT
ATOM      1  C   UNL     1       2.727   3.426   6.403  1.00  0.00     0.004 C 
ENDROOT
BRANCH   1   2
ATOM      2  C   UNL     1       1.720   3.664   7.538  1.00  0.00     0.000 C 
BRANCH   2   3
ATOM      3  C   UNL     1       0.296   3.815   6.987  1.00  0.00     0.000 C 
BRANCH   3   4
ATOM      4  C   UNL     1      -0.078   2.621   6.096  1.00  0.00     0.000 C 
BRANCH   4   5
ATOM      5  C   UNL     1      -1.232   2.940   5.132  1.00  0.00     0.006 C 
BRANCH   5   6
ATOM      6  C   UNL     1      -2.339   3.772   5.791  1.00  0.00     0.053 C 
BRANCH   6   7
ATOM      7  C   UNL     1      -3.581   2.955   5.950  1.00  0.00     0.041 C 
ATOM      8  O   UNL     1      -4.605   3.456   6.487  1.00  0.00    -0.550 OA
ATOM      9  O   UNL     1      -3.627   1.655   5.463  1.00  0.00    -0.550 OA
ENDBRANCH   6   7
ENDBRANCH   5   6
ENDBRANCH   4   5
ENDBRANCH   3   4
ENDBRANCH   2   3
ENDBRANCH   1   2
BRANCH   1  10
ATOM     10  C   UNL     1       4.180   3.479   6.899  1.00  0.00     0.027 C 
BRANCH  10  11
ATOM     11  C   UNL     1       4.864   2.141   6.807  1.00  0.00    -0.031 C 
ATOM     12  C   UNL     1       5.393   1.546   7.886  1.00  0.00    -0.031 C 
BRANCH  12  13
ATOM     13  C   UNL     1       6.081   0.209   7.793  1.00  0.00     0.027 C 
BRANCH  13  14
ATOM     14  C   UNL     1       5.364  -0.876   8.610  1.00  0.00     0.004 C 
BRANCH  14  15
ATOM     15  C   UNL     1       4.117  -1.415   7.886  1.00  0.00     0.000 C 
BRANCH  15  16
ATOM     16  C   UNL     1       2.809  -1.011   8.584  1.00  0.00    -0.000 C 
BRANCH  16  17
ATOM     17  C   UNL     1       1.920  -0.118   7.704  1.00  0.00    -0.003 C 
ATOM     18  C   UNL     1       2.140  -0.415   6.223  1.00  0.00     0.004 C 
ENDBRANCH  16  17
ENDBRANCH  15  16
ENDBRANCH  14  15
ENDBRANCH  13  14
ENDBRANCH  12  13
ENDBRANCH  10  11
ENDBRANCH   1  10
TORSDOF 13
ENDMDL
MODEL 2
REMARK VINA RESULT:    -4.125      1.480      3.225
REMARK INTER + INTRA:          -9.042
REMARK INTER:                  -6.977
REMARK INTRA:                  -2.065
REMARK UNBOUND:                -1.782
REMARK SMILES CCCCCCC=CCCCCCCCC(=O)[O-]
REMARK SMILES IDX 10 1 11 2 12 3 13 4 14 5 15 6 16 7 17 8 18 9 9 10 8 11 7 12
REMARK SMILES IDX 6 13 5 14 4 15 3 16 2 17 1 18
REMARK H PARENT
REMARK Flexibility Score: inf
ROOT
ATOM      1  C   UNL     1       1.193   3.976   8.428  1.00  0.00     0.004 C 
ENDROOT
BRANCH   1   2
ATOM      2  C   UNL     1       0.540   5.064   7.564  1.00  0.00     0.000 C 
BRANCH   2   3
ATOM      3  C   UNL     1       1.035   4.986   6.114  1.00  0.00     0.000 C 
BRANCH   3   4
ATOM      4  C   UNL     1      -0.140   4.800   5.142  1.00  0.00     0.000 C 
BRANCH   4   5
ATOM      5  C   UNL     1      -1.413   4.297   5.841  1.00  0.00     0.006 C 
BRANCH   5   6
ATOM      6  C   UNL     1      -1.738   2.839   5.497  1.00  0.00     0.053 C 
BRANCH   6   7
ATOM      7  C   UNL     1      -3.022   2.424   6.143  1.00  0.00     0.041 C 
ATOM      8  O   UNL     1      -3.961   1.958   5.445  1.00  0.00    -0.550 OA
ATOM      9  O   UNL     1      -3.166   2.507   7.522  1.00  0.00    -0.550 OA
ENDBRANCH   6   7
ENDBRANCH   5   6
ENDBRANCH   4   5
ENDBRANCH   3   4
ENDBRANCH   2   3
ENDBRANCH   1   2
BRANCH   1  10
ATOM     10  C   UNL     1       0.208   2.853   8.786  1.00  0.00     0.027 C 
BRANCH  10  11
ATOM     11  C   UNL     1       0.631   1.521   8.227  1.00  0.00    -0.031 C 
ATOM     12  C   UNL     1       1.280   1.423   7.057  1.00  0.00    -0.031 C 
BRANCH  12  13
ATOM     13  C   UNL     1       1.701   0.090   6.497  1.00  0.00     0.027 C 
BRANCH  13  14
ATOM     14  C   UNL     1       3.225  -0.098   6.514  1.00  0.00     0.004 C 
BRANCH  14  15
ATOM     15  C   UNL     1       3.908   0.814   7.548  1.00  0.00     0.000 C 
BRANCH  15  16
ATOM     16  C   UNL     1       5.012   1.686   6.930  1.00  0.00    -0.000 C 
BRANCH  16  17
ATOM     17  C   UNL     1       4.480   3.025   6.398  1.00  0.00    -0.003 C 
ATOM     18  C   UNL     1       4.795   4.163   7.365  1.00  0.00     0.004 C 
ENDBRANCH  16  17
ENDBRANCH  15  16
ENDBRANCH  14  15
ENDBRANCH  13  14
ENDBRANCH  12  13
ENDBRANCH  10  11
ENDBRANCH   1  10
TORSDOF 13
ENDMDL
MODEL 3
REMARK VINA RESULT:    -4.084     13.183     14.826
REMARK INTER + INTRA:          -8.971
REMARK INTER:                  -6.767
REMARK INTRA:                  -2.204
REMARK UNBOUND:                -1.782
REMARK SMILES CCCCCCC=CCCCCCCCC(=O)[O-]
REMARK SMILES IDX 10 1 11 2 12 3 13 4 14 5 15 6 16 7 17 8 18 9 9 10 8 11 7 12
REMARK SMILES IDX 6 13 5 14 4 15 3 16 2 17 1 18
REMARK H PARENT
REMARK Flexibility Score: inf
ROOT
ATOM      1  C   UNL     1      -4.325  -0.456  -7.413  1.00  0.00     0.004 C 
ENDROOT
BRANCH   1   2
ATOM      2  C   UNL     1      -5.788  -0.874  -7.202  1.00  0.00     0.000 C 
BRANCH   2   3
ATOM      3  C   UNL     1      -5.876  -2.222  -6.476  1.00  0.00     0.000 C 
BRANCH   3   4
ATOM      4  C   UNL     1      -5.220  -3.336  -7.305  1.00  0.00     0.000 C 
BRANCH   4   5
ATOM      5  C   UNL     1      -4.329  -4.258  -6.458  1.00  0.00     0.006 C 
BRANCH   5   6
ATOM      6  C   UNL     1      -4.521  -4.045  -4.952  1.00  0.00     0.053 C 
BRANCH   6   7
ATOM      7  C   UNL     1      -4.763  -5.352  -4.266  1.00  0.00     0.041 C 
ATOM      8  O   UNL     1      -4.947  -6.399  -4.943  1.00  0.00    -0.550 OA
ATOM      9  O   UNL     1      -4.738  -5.425  -2.879  1.00  0.00    -0.550 OA
ENDBRANCH   6   7
ENDBRANCH   5   6
ENDBRANCH   4   5
ENDBRANCH   3   4
ENDBRANCH   2   3
ENDBRANCH   1   2
BRANCH   1  10
ATOM     10  C   UNL     1      -3.670   0.031  -6.112  1.00  0.00     0.027 C 
BRANCH  10  11
ATOM     11  C   UNL     1      -2.654  -0.945  -5.582  1.00  0.00    -0.031 C 
ATOM     12  C   UNL     1      -1.827  -1.613  -6.400  1.00  0.00    -0.031 C 
BRANCH  12  13
ATOM     13  C   UNL     1      -0.813  -2.592  -5.871  1.00  0.00     0.027 C 
BRANCH  13  14
ATOM     14  C   UNL     1      -1.193  -3.140  -4.487  1.00  0.00     0.004 C 
BRANCH  14  15
ATOM     15  C   UNL     1      -0.584  -4.529  -4.227  1.00  0.00     0.000 C 
BRANCH  15  16
ATOM     16  C   UNL     1       0.439  -4.935  -5.300  1.00  0.00    -0.000 C 
BRANCH  16  17
ATOM     17  C   UNL     1       0.095  -6.274  -5.968  1.00  0.00    -0.003 C 
ATOM     18  C   UNL     1      -1.411  -6.522  -5.957  1.00  0.00     0.004 C 
ENDBRANCH  16  17
ENDBRANCH  15  16
ENDBRANCH  14  15
ENDBRANCH  13  14
ENDBRANCH  12  13
ENDBRANCH  10  11
ENDBRANCH   1  10
TORSDOF 13
ENDMDL
MODEL 4
REMARK VINA RESULT:    -4.050      1.630      3.249
REMARK INTER + INTRA:          -8.910
REMARK INTER:                  -7.101
REMARK INTRA:                  -1.809
REMARK UNBOUND:                -1.782
REMARK SMILES CCCCCCC=CCCCCCCCC(=O)[O-]
REMARK SMILES IDX 10 1 11 2 12 3 13 4 14 5 15 6 16 7 17 8 18 9 9 10 8 11 7 12
REMARK SMILES IDX 6 13 5 14 4 15 3 16 2 17 1 18
REMARK H PARENT
REMARK Flexibility Score: inf
ROOT
ATOM      1  C   UNL     1       0.751   5.173   5.629  1.00  0.00     0.004 C 
ENDROOT
BRANCH   1   2
ATOM      2  C   UNL     1      -0.768   4.959   5.559  1.00  0.00     0.000 C 
BRANCH   2   3
ATOM      3  C   UNL     1      -1.121   3.842   4.568  1.00  0.00     0.000 C 
BRANCH   3   4
ATOM      4  C   UNL     1      -1.671   2.610   5.302  1.00  0.00     0.000 C 
BRANCH   4   5
ATOM      5  C   UNL     1      -2.643   2.980   6.433  1.00  0.00     0.006 C 
BRANCH   5   6
ATOM      6  C   UNL     1      -4.111   2.914   5.996  1.00  0.00     0.053 C 
BRANCH   6   7
ATOM      7  C   UNL     1      -4.818   4.184   6.348  1.00  0.00     0.041 C 
ATOM      8  O   UNL     1      -5.150   4.417   7.540  1.00  0.00    -0.550 OA
ATOM      9  O   UNL     1      -5.069   5.135   5.367  1.00  0.00    -0.550 OA
ENDBRANCH   6   7
ENDBRANCH   5   6
ENDBRANCH   4   5
ENDBRANCH   3   4
ENDBRANCH   2   3
ENDBRANCH   1   2
BRANCH   1  10
ATOM     10  C   UNL     1       1.357   4.600   6.919  1.00  0.00     0.027 C 
BRANCH  10  11
ATOM     11  C   UNL     1       1.691   3.137   6.794  1.00  0.00    -0.031 C 
ATOM     12  C   UNL     1       1.151   2.220   7.610  1.00  0.00    -0.031 C 
BRANCH  12  13
ATOM     13  C   UNL     1       1.487   0.757   7.486  1.00  0.00     0.027 C 
BRANCH  13  14
ATOM     14  C   UNL     1       2.620   0.499   6.482  1.00  0.00     0.004 C 
BRANCH  14  15
ATOM     15  C   UNL     1       3.945   0.152   7.182  1.00  0.00     0.000 C 
BRANCH  15  16
ATOM     16  C   UNL     1       4.932   1.330   7.197  1.00  0.00    -0.000 C 
BRANCH  16  17
ATOM     17  C   UNL     1       5.084   1.956   8.592  1.00  0.00    -0.003 C 
ATOM     18  C   UNL     1       4.903   3.471   8.535  1.00  0.00     0.004 C 
ENDBRANCH  16  17
ENDBRANCH  15  16
ENDBRANCH  14  15
ENDBRANCH  13  14
ENDBRANCH  12  13
ENDBRANCH  10  11
ENDBRANCH   1  10
TORSDOF 13
ENDMDL
MODEL 5
REMARK VINA RESULT:    -4.039     13.602     15.094
REMARK INTER + INTRA:          -8.891
REMARK INTER:                  -6.830
REMARK INTRA:                  -2.061
REMARK UNBOUND:                -1.782
REMARK SMILES CCCCCCC=CCCCCCCCC(=O)[O-]
REMARK SMILES IDX 10 1 11 2 12 3 13 4 14 5 15 6 16 7 17 8 18 9 9 10 8 11 7 12
REMARK SMILES IDX 6 13 5 14 4 15 3 16 2 17 1 18
REMARK H PARENT
REMARK Flexibility Score: inf
ROOT
ATOM      1  C   UNL     1      -5.062  -0.388  -7.121  1.00  0.00     0.004 C 
ENDROOT
BRANCH   1   2
ATOM      2  C   UNL     1      -5.019  -1.359  -8.310  1.00  0.00     0.000 C 
BRANCH   2   3
ATOM      3  C   UNL     1      -5.841  -2.621  -8.020  1.00  0.00     0.000 C 
BRANCH   3   4
ATOM      4  C   UNL     1      -6.031  -2.817  -6.509  1.00  0.00     0.000 C 
BRANCH   4   5
ATOM      5  C   UNL     1      -5.155  -3.945  -5.943  1.00  0.00     0.006 C 
BRANCH   5   6
ATOM      6  C   UNL     1      -4.913  -3.806  -4.435  1.00  0.00     0.053 C 
BRANCH   6   7
ATOM      7  C   UNL     1      -4.417  -5.097  -3.865  1.00  0.00     0.041 C 
ATOM      8  O   UNL     1      -5.234  -5.972  -3.470  1.00  0.00    -0.550 OA
ATOM      9  O   UNL     1      -3.054  -5.356  -3.811  1.00  0.00    -0.550 OA
ENDBRANCH   6   7
ENDBRANCH   5   6
ENDBRANCH   4   5
ENDBRANCH   3   4
ENDBRANCH   2   3
ENDBRANCH   1   2
BRANCH   1  10
ATOM     10  C   UNL     1      -3.664   0.122  -6.739  1.00  0.00     0.027 C 
BRANCH  10  11
ATOM     11  C   UNL     1      -2.636  -0.977  -6.731  1.00  0.00    -0.031 C 
ATOM     12  C   UNL     1      -2.295  -1.613  -5.601  1.00  0.00    -0.031 C 
BRANCH  12  13
ATOM     13  C   UNL     1      -1.264  -2.711  -5.592  1.00  0.00     0.027 C 
BRANCH  13  14
ATOM     14  C   UNL     1       0.172  -2.167  -5.607  1.00  0.00     0.004 C 
BRANCH  14  15
ATOM     15  C   UNL     1       0.880  -2.439  -6.946  1.00  0.00     0.000 C 
BRANCH  15  16
ATOM     16  C   UNL     1       0.907  -1.205  -7.861  1.00  0.00    -0.000 C 
BRANCH  16  17
ATOM     17  C   UNL     1       1.158   0.099  -7.089  1.00  0.00    -0.003 C 
ATOM     18  C   UNL     1       0.222   1.207  -7.563  1.00  0.00     0.004 C 
ENDBRANCH  16  17
ENDBRANCH  15  16
ENDBRANCH  14  15
ENDBRANCH  13  14
ENDBRANCH  12  13
ENDBRANCH  10  11
ENDBRANCH   1  10
TORSDOF 13
ENDMDL
MODEL 6
REMARK VINA RESULT:    -4.018     13.366     14.840
REMARK INTER + INTRA:          -8.855
REMARK INTER:                  -6.950
REMARK INTRA:                  -1.904
REMARK UNBOUND:                -1.782
REMARK SMILES CCCCCCC=CCCCCCCCC(=O)[O-]
REMARK SMILES IDX 10 1 11 2 12 3 13 4 14 5 15 6 16 7 17 8 18 9 9 10 8 11 7 12
REMARK SMILES IDX 6 13 5 14 4 15 3 16 2 17 1 18
REMARK H PARENT
REMARK Flexibility Score: inf
ROOT
ATOM      1  C   UNL     1      -3.507  -1.068  -5.787  1.00  0.00     0.004 C 
ENDROOT
BRANCH   1   2
ATOM      2  C   UNL     1      -3.352   0.359  -6.334  1.00  0.00     0.000 C 
BRANCH   2   3
ATOM      3  C   UNL     1      -1.963   0.564  -6.951  1.00  0.00     0.000 C 
BRANCH   3   4
ATOM      4  C   UNL     1      -1.355  -0.775  -7.392  1.00  0.00     0.000 C 
BRANCH   4   5
ATOM      5  C   UNL     1       0.090  -0.632  -7.896  1.00  0.00     0.006 C 
BRANCH   5   6
ATOM      6  C   UNL     1       1.105  -0.516  -6.753  1.00  0.00     0.053 C 
BRANCH   6   7
ATOM      7  C   UNL     1       1.760   0.829  -6.772  1.00  0.00     0.041 C 
ATOM      8  O   UNL     1       2.676   1.100  -5.950  1.00  0.00    -0.550 OA
ATOM      9  O   UNL     1       1.393   1.769  -7.727  1.00  0.00    -0.550 OA
ENDBRANCH   6   7
ENDBRANCH   5   6
ENDBRANCH   4   5
ENDBRANCH   3   4
ENDBRANCH   2   3
ENDBRANCH   1   2
BRANCH   1  10
ATOM     10  C   UNL     1      -4.742  -1.777  -6.362  1.00  0.00     0.027 C 
BRANCH  10  11
ATOM     11  C   UNL     1      -4.798  -3.232  -5.976  1.00  0.00    -0.031 C 
ATOM     12  C   UNL     1      -4.894  -3.616  -4.695  1.00  0.00    -0.031 C 
BRANCH  12  13
ATOM     13  C   UNL     1      -4.947  -5.072  -4.310  1.00  0.00     0.027 C 
BRANCH  13  14
ATOM     14  C   UNL     1      -3.773  -5.482  -3.409  1.00  0.00     0.004 C 
BRANCH  14  15
ATOM     15  C   UNL     1      -2.444  -5.539  -4.182  1.00  0.00     0.000 C 
BRANCH  15  16
ATOM     16  C   UNL     1      -1.414  -4.524  -3.661  1.00  0.00    -0.000 C 
BRANCH  16  17
ATOM     17  C   UNL     1      -0.952  -3.541  -4.747  1.00  0.00    -0.003 C 
ATOM     18  C   UNL     1      -1.195  -4.110  -6.142  1.00  0.00     0.004 C 
ENDBRANCH  16  17
ENDBRANCH  15  16
ENDBRANCH  14  15
ENDBRANCH  13  14
ENDBRANCH  12  13
ENDBRANCH  10  11
ENDBRANCH   1  10
TORSDOF 13
ENDMDL
MODEL 7
REMARK VINA RESULT:    -4.014      2.907      7.123
REMARK INTER + INTRA:          -8.846
REMARK INTER:                  -7.439
REMARK INTRA:                  -1.407
REMARK UNBOUND:                -1.782
REMARK SMILES CCCCCCC=CCCCCCCCC(=O)[O-]
REMARK SMILES IDX 10 1 11 2 12 3 13 4 14 5 15 6 16 7 17 8 18 9 9 10 8 11 7 12
REMARK SMILES IDX 6 13 5 14 4 15 3 16 2 17 1 18
REMARK H PARENT
REMARK Flexibility Score: inf
ROOT
ATOM      1  C   UNL     1       1.713   0.400   6.435  1.00  0.00     0.004 C 
ENDROOT
BRANCH   1   2
ATOM      2  C   UNL     1       2.153  -0.804   7.280  1.00  0.00     0.000 C 
BRANCH   2   3
ATOM      3  C   UNL     1       3.669  -1.020   7.182  1.00  0.00     0.000 C 
BRANCH   3   4
ATOM      4  C   UNL     1       4.426   0.005   8.038  1.00  0.00     0.000 C 
BRANCH   4   5
ATOM      5  C   UNL     1       5.156   1.060   7.192  1.00  0.00     0.006 C 
BRANCH   5   6
ATOM      6  C   UNL     1       5.040   2.472   7.779  1.00  0.00     0.053 C 
BRANCH   6   7
ATOM      7  C   UNL     1       4.313   3.373   6.833  1.00  0.00     0.041 C 
ATOM      8  O   UNL     1       4.384   3.179   5.590  1.00  0.00    -0.550 OA
ATOM      9  O   UNL     1       3.517   4.401   7.323  1.00  0.00    -0.550 OA
ENDBRANCH   6   7
ENDBRANCH   5   6
ENDBRANCH   4   5
ENDBRANCH   3   4
ENDBRANCH   2   3
ENDBRANCH   1   2
BRANCH   1  10
ATOM     10  C   UNL     1       1.072   1.504   7.290  1.00  0.00     0.027 C 
BRANCH  10  11
ATOM     11  C   UNL     1       0.621   2.678   6.464  1.00  0.00    -0.031 C 
ATOM     12  C   UNL     1      -0.459   2.608   5.671  1.00  0.00    -0.031 C 
BRANCH  12  13
ATOM     13  C   UNL     1      -0.908   3.783   4.843  1.00  0.00     0.027 C 
BRANCH  13  14
ATOM     14  C   UNL     1      -0.926   5.092   5.644  1.00  0.00     0.004 C 
BRANCH  14  15
ATOM     15  C   UNL     1      -2.132   5.170   6.598  1.00  0.00     0.000 C 
BRANCH  15  16
ATOM     16  C   UNL     1      -3.475   5.045   5.863  1.00  0.00    -0.000 C 
BRANCH  16  17
ATOM     17  C   UNL     1      -4.424   4.039   6.532  1.00  0.00    -0.003 C 
ATOM     18  C   UNL     1      -4.107   2.611   6.094  1.00  0.00     0.004 C 
ENDBRANCH  16  17
ENDBRANCH  15  16
ENDBRANCH  14  15
ENDBRANCH  13  14
ENDBRANCH  12  13
ENDBRANCH  10  11
ENDBRANCH   1  10
TORSDOF 13
ENDMDL
MODEL 8
REMARK VINA RESULT:    -3.912      1.127      2.940
REMARK INTER + INTRA:          -8.666
REMARK INTER:                  -6.787
REMARK INTRA:                  -1.879
REMARK UNBOUND:                -1.782
REMARK SMILES CCCCCCC=CCCCCCCCC(=O)[O-]
REMARK SMILES IDX 10 1 11 2 12 3 13 4 14 5 15 6 16 7 17 8 18 9 9 10 8 11 7 12
REMARK SMILES IDX 6 13 5 14 4 15 3 16 2 17 1 18
REMARK H PARENT
REMARK Flexibility Score: inf
ROOT
ATOM      1  C   UNL     1       1.516   0.604   6.370  1.00  0.00     0.004 C 
ENDROOT
BRANCH   1   2
ATOM      2  C   UNL     1       1.555   1.441   7.657  1.00  0.00     0.000 C 
BRANCH   2   3
ATOM      3  C   UNL     1       0.514   2.567   7.612  1.00  0.00     0.000 C 
BRANCH   3   4
ATOM      4  C   UNL     1       0.693   3.432   6.356  1.00  0.00     0.000 C 
BRANCH   4   5
ATOM      5  C   UNL     1      -0.644   3.808   5.700  1.00  0.00     0.006 C 
BRANCH   5   6
ATOM      6  C   UNL     1      -1.510   2.583   5.380  1.00  0.00     0.053 C 
BRANCH   6   7
ATOM      7  C   UNL     1      -2.938   2.845   5.739  1.00  0.00     0.041 C 
ATOM      8  O   UNL     1      -3.800   1.934   5.619  1.00  0.00    -0.550 OA
ATOM      9  O   UNL     1      -3.312   4.081   6.251  1.00  0.00    -0.550 OA
ENDBRANCH   6   7
ENDBRANCH   5   6
ENDBRANCH   4   5
ENDBRANCH   3   4
ENDBRANCH   2   3
ENDBRANCH   1   2
BRANCH   1  10
ATOM     10  C   UNL     1       2.553  -0.529   6.385  1.00  0.00     0.027 C 
BRANCH  10  11
ATOM     11  C   UNL     1       3.407  -0.507   7.625  1.00  0.00    -0.031 C 
ATOM     12  C   UNL     1       4.701  -0.159   7.582  1.00  0.00    -0.031 C 
BRANCH  12  13
ATOM     13  C   UNL     1       5.555  -0.140   8.822  1.00  0.00     0.027 C 
BRANCH  13  14
ATOM     14  C   UNL     1       6.200   1.232   9.069  1.00  0.00     0.004 C 
BRANCH  14  15
ATOM     15  C   UNL     1       5.942   2.208   7.908  1.00  0.00     0.000 C 
BRANCH  15  16
ATOM     16  C   UNL     1       5.210   3.482   8.359  1.00  0.00    -0.000 C 
BRANCH  16  17
ATOM     17  C   UNL     1       4.240   4.015   7.294  1.00  0.00    -0.003 C 
ATOM     18  C   UNL     1       4.447   3.305   5.959  1.00  0.00     0.004 C 
ENDBRANCH  16  17
ENDBRANCH  15  16
ENDBRANCH  14  15
ENDBRANCH  13  14
ENDBRANCH  12  13
ENDBRANCH  10  11
ENDBRANCH   1  10
TORSDOF 13
ENDMDL
MODEL 9
REMARK VINA RESULT:    -3.907     13.344     15.308
REMARK INTER + INTRA:          -8.659
REMARK INTER:                  -6.738
REMARK INTRA:                  -1.921
REMARK UNBOUND:                -1.782
REMARK SMILES CCCCCCC=CCCCCCCCC(=O)[O-]
REMARK SMILES IDX 10 1 11 2 12 3 13 4 14 5 15 6 16 7 17 8 18 9 9 10 8 11 7 12
REMARK SMILES IDX 6 13 5 14 4 15 3 16 2 17 1 18
REMARK H PARENT
REMARK Flexibility Score: inf
ROOT
ATOM      1  C   UNL     1      -5.803  -1.018  -7.091  1.00  0.00     0.004 C 
ENDROOT
BRANCH   1   2
ATOM      2  C   UNL     1      -4.309  -0.980  -7.445  1.00  0.00     0.000 C 
BRANCH   2   3
ATOM      3  C   UNL     1      -3.543  -0.049  -6.497  1.00  0.00     0.000 C 
BRANCH   3   4
ATOM      4  C   UNL     1      -2.658  -0.852  -5.533  1.00  0.00     0.000 C 
BRANCH   4   5
ATOM      5  C   UNL     1      -1.854  -1.952  -6.244  1.00  0.00     0.006 C 
BRANCH   5   6
ATOM      6  C   UNL     1      -0.433  -2.099  -5.686  1.00  0.00     0.053 C 
BRANCH   6   7
ATOM      7  C   UNL     1      -0.298  -3.386  -4.936  1.00  0.00     0.041 C 
ATOM      8  O   UNL     1       0.152  -4.412  -5.512  1.00  0.00    -0.550 OA
ATOM      9  O   UNL     1      -0.625  -3.444  -3.587  1.00  0.00    -0.550 OA
ENDBRANCH   6   7
ENDBRANCH   5   6
ENDBRANCH   4   5
ENDBRANCH   3   4
ENDBRANCH   2   3
ENDBRANCH   1   2
BRANCH   1  10
ATOM     10  C   UNL     1      -6.316  -2.453  -6.898  1.00  0.00     0.027 C 
BRANCH  10  11
ATOM     11  C   UNL     1      -5.266  -3.363  -6.318  1.00  0.00    -0.031 C 
ATOM     12  C   UNL     1      -5.090  -3.479  -4.993  1.00  0.00    -0.031 C 
BRANCH  12  13
ATOM     13  C   UNL     1      -4.037  -4.387  -4.413  1.00  0.00     0.027 C 
BRANCH  13  14
ATOM     14  C   UNL     1      -3.292  -5.185  -5.493  1.00  0.00     0.004 C 
BRANCH  14  15
ATOM     15  C   UNL     1      -2.719  -6.504  -4.945  1.00  0.00     0.000 C 
BRANCH  15  16
ATOM     16  C   UNL     1      -3.639  -7.161  -3.904  1.00  0.00    -0.000 C 
BRANCH  16  17
ATOM     17  C   UNL     1      -4.780  -7.963  -4.546  1.00  0.00    -0.003 C 
ATOM     18  C   UNL     1      -6.040  -7.909  -3.686  1.00  0.00     0.004 C 
ENDBRANCH  16  17
ENDBRANCH  15  16
ENDBRANCH  14  15
ENDBRANCH  13  14
ENDBRANCH  12  13
ENDBRANCH  10  11
ENDBRANCH   1  10
TORSDOF 13
ENDMDL
