MODEL 1
REMARK VINA RESULT:    -4.363      0.000      0.000
REMARK INTER + INTRA:         -10.843
REMARK INTER:                  -8.445
REMARK INTRA:                  -2.398
REMARK UNBOUND:                -2.398
REMARK SMILES CCCCCCCCCCCCCCCCCC(=O)[O-]
REMARK SMILES IDX 10 1 11 2 12 3 13 4 14 5 15 6 16 7 17 8 18 9 19 10 20 11
REMARK SMILES IDX 9 12 8 13 7 14 6 15 5 16 4 17 3 18 2 19 1 20
REMARK H PARENT
REMARK Flexibility Score: inf
ROOT
ATOM      1  C   UNL     1     -47.849  10.866 -29.593  1.00  0.00     0.000 C 
ENDROOT
BRANCH   1   2
ATOM      2  C   UNL     1     -48.923  11.349 -28.605  1.00  0.00     0.000 C 
BRANCH   2   3
ATOM      3  C   UNL     1     -49.546  12.689 -29.021  1.00  0.00     0.000 C 
BRANCH   3   4
ATOM      4  C   UNL     1     -49.569  12.834 -30.547  1.00  0.00     0.000 C 
BRANCH   4   5
ATOM      5  C   UNL     1     -50.836  13.561 -31.013  1.00  0.00     0.000 C 
BRANCH   5   6
ATOM      6  C   UNL     1     -51.528  14.270 -29.838  1.00  0.00     0.000 C 
BRANCH   6   7
ATOM      7  C   UNL     1     -52.385  15.464 -30.289  1.00  0.00     0.006 C 
BRANCH   7   8
ATOM      8  C   UNL     1     -51.564  16.537 -31.017  1.00  0.00     0.053 C 
BRANCH   8   9
ATOM      9  C   UNL     1     -51.680  17.851 -30.310  1.00  0.00     0.041 C 
ATOM     10  O   UNL     1     -51.847  17.886 -29.062  1.00  0.00    -0.550 OA
ATOM     11  O   UNL     1     -51.553  19.037 -31.022  1.00  0.00    -0.550 OA
ENDBRANCH   8   9
ENDBRANCH   7   8
ENDBRANCH   6   7
ENDBRANCH   5   6
ENDBRANCH   4   5
ENDBRANCH   3   4
ENDBRANCH   2   3
ENDBRANCH   1   2
BRANCH   1  12
ATOM     12  C   UNL     1     -47.752   9.332 -29.658  1.00  0.00     0.000 C 
BRANCH  12  13
ATOM     13  C   UNL     1     -46.858   8.847 -30.810  1.00  0.00    -0.000 C 
BRANCH  13  14
ATOM     14  C   UNL     1     -47.433   7.610 -31.520  1.00  0.00    -0.000 C 
BRANCH  14  15
ATOM     15  C   UNL     1     -47.941   7.920 -32.939  1.00  0.00    -0.000 C 
BRANCH  15  16
ATOM     16  C   UNL     1     -49.457   8.203 -33.002  1.00  0.00    -0.000 C 
BRANCH  16  17
ATOM     17  C   UNL     1     -49.779   9.692 -32.790  1.00  0.00    -0.000 C 
BRANCH  17  18
ATOM     18  C   UNL     1     -51.174   9.922 -32.181  1.00  0.00    -0.000 C 
BRANCH  18  19
ATOM     19  C   UNL     1     -51.306   9.522 -30.701  1.00  0.00    -0.003 C 
ATOM     20  C   UNL     1     -52.471  10.217 -29.997  1.00  0.00     0.004 C 
ENDBRANCH  18  19
ENDBRANCH  17  18
ENDBRANCH  16  17
ENDBRANCH  15  16
ENDBRANCH  14  15
ENDBRANCH  13  14
ENDBRANCH  12  13
ENDBRANCH   1  12
TORSDOF 16
ENDMDL
MODEL 2
REMARK VINA RESULT:    -4.310      0.982      1.292
REMARK INTER + INTRA:         -10.739
REMARK INTER:                  -8.737
REMARK INTRA:                  -2.002
REMARK UNBOUND:                -2.398
REMARK SMILES CCCCCCCCCCCCCCCCCC(=O)[O-]
REMARK SMILES IDX 10 1 11 2 12 3 13 4 14 5 15 6 16 7 17 8 18 9 19 10 20 11
REMARK SMILES IDX 9 12 8 13 7 14 6 15 5 16 4 17 3 18 2 19 1 20
REMARK H PARENT
REMARK Flexibility Score: inf
ROOT
ATOM      1  C   UNL     1     -48.447  10.018 -29.428  1.00  0.00     0.000 C 
ENDROOT
BRANCH   1   2
ATOM      2  C   UNL     1     -48.464  11.435 -28.834  1.00  0.00     0.000 C 
BRANCH   2   3
ATOM      3  C   UNL     1     -49.682  12.251 -29.291  1.00  0.00     0.000 C 
BRANCH   3   4
ATOM      4  C   UNL     1     -49.261  13.384 -30.235  1.00  0.00     0.000 C 
BRANCH   4   5
ATOM      5  C   UNL     1     -50.448  13.870 -31.077  1.00  0.00     0.000 C 
BRANCH   5   6
ATOM      6  C   UNL     1     -50.287  15.351 -31.451  1.00  0.00     0.000 C 
BRANCH   6   7
ATOM      7  C   UNL     1     -51.548  16.177 -31.150  1.00  0.00     0.006 C 
BRANCH   7   8
ATOM      8  C   UNL     1     -52.409  15.557 -30.042  1.00  0.00     0.053 C 
BRANCH   8   9
ATOM      9  C   UNL     1     -52.484  16.475 -28.863  1.00  0.00     0.041 C 
ATOM     10  O   UNL     1     -52.954  16.064 -27.770  1.00  0.00    -0.550 OA
ATOM     11  O   UNL     1     -51.990  17.770 -28.957  1.00  0.00    -0.550 OA
ENDBRANCH   8   9
ENDBRANCH   7   8
ENDBRANCH   6   7
ENDBRANCH   5   6
ENDBRANCH   4   5
ENDBRANCH   3   4
ENDBRANCH   2   3
ENDBRANCH   1   2
BRANCH   1  12
ATOM     12  C   UNL     1     -47.021   9.510 -29.703  1.00  0.00     0.000 C 
BRANCH  12  13
ATOM     13  C   UNL     1     -47.009   8.138 -30.395  1.00  0.00    -0.000 C 
BRANCH  13  14
ATOM     14  C   UNL     1     -47.324   8.235 -31.898  1.00  0.00    -0.000 C 
BRANCH  14  15
ATOM     15  C   UNL     1     -48.335   7.174 -32.364  1.00  0.00    -0.000 C 
BRANCH  15  16
ATOM     16  C   UNL     1     -49.700   7.764 -32.778  1.00  0.00    -0.000 C 
BRANCH  16  17
ATOM     17  C   UNL     1     -49.635   9.286 -32.989  1.00  0.00    -0.000 C 
BRANCH  17  18
ATOM     18  C   UNL     1     -50.707  10.048 -32.190  1.00  0.00    -0.000 C 
BRANCH  18  19
ATOM     19  C   UNL     1     -51.524   9.181 -31.217  1.00  0.00    -0.003 C 
ATOM     20  C   UNL     1     -52.459  10.000 -30.329  1.00  0.00     0.004 C 
ENDBRANCH  18  19
ENDBRANCH  17  18
ENDBRANCH  16  17
ENDBRANCH  15  16
ENDBRANCH  14  15
ENDBRANCH  13  14
ENDBRANCH  12  13
ENDBRANCH   1  12
TORSDOF 16
ENDMDL
MODEL 3
REMARK VINA RESULT:    -4.273      1.798      3.883
REMARK INTER + INTRA:         -10.667
REMARK INTER:                  -8.201
REMARK INTRA:                  -2.466
REMARK UNBOUND:                -2.398
REMARK SMILES CCCCCCCCCCCCCCCCCC(=O)[O-]
REMARK SMILES IDX 10 1 11 2 12 3 13 4 14 5 15 6 16 7 17 8 18 9 19 10 20 11
REMARK SMILES IDX 9 12 8 13 7 14 6 15 5 16 4 17 3 18 2 19 1 20
REMARK H PARENT
REMARK Flexibility Score: inf
ROOT
ATOM      1  C   UNL     1     -50.093  10.065 -31.900  1.00  0.00     0.000 C 
ENDROOT
BRANCH   1   2
ATOM      2  C   UNL     1     -49.786   9.648 -30.453  1.00  0.00     0.000 C 
BRANCH   2   3
ATOM      3  C   UNL     1     -48.418  10.154 -29.972  1.00  0.00     0.000 C 
BRANCH   3   4
ATOM      4  C   UNL     1     -48.565  11.027 -28.720  1.00  0.00     0.000 C 
BRANCH   4   5
ATOM      5  C   UNL     1     -49.568  12.163 -28.955  1.00  0.00     0.000 C 
BRANCH   5   6
ATOM      6  C   UNL     1     -49.047  13.147 -30.014  1.00  0.00     0.000 C 
BRANCH   6   7
ATOM      7  C   UNL     1     -50.173  13.732 -30.881  1.00  0.00     0.006 C 
BRANCH   7   8
ATOM      8  C   UNL     1     -51.542  13.670 -30.191  1.00  0.00     0.053 C 
BRANCH   8   9
ATOM      9  C   UNL     1     -51.964  15.033 -29.743  1.00  0.00     0.041 C 
ATOM     10  O   UNL     1     -52.356  15.218 -28.561  1.00  0.00    -0.550 OA
ATOM     11  O   UNL     1     -51.878  16.111 -30.616  1.00  0.00    -0.550 OA
ENDBRANCH   8   9
ENDBRANCH   7   8
ENDBRANCH   6   7
ENDBRANCH   5   6
ENDBRANCH   4   5
ENDBRANCH   3   4
ENDBRANCH   2   3
ENDBRANCH   1   2
BRANCH   1  12
ATOM     12  C   UNL     1     -51.596  10.283 -32.147  1.00  0.00     0.000 C 
BRANCH  12  13
ATOM     13  C   UNL     1     -52.474   9.418 -31.228  1.00  0.00    -0.000 C 
BRANCH  13  14
ATOM     14  C   UNL     1     -53.015   8.167 -31.939  1.00  0.00    -0.000 C 
BRANCH  14  15
ATOM     15  C   UNL     1     -53.022   8.309 -33.471  1.00  0.00    -0.000 C 
BRANCH  15  16
ATOM     16  C   UNL     1     -52.532   7.045 -34.209  1.00  0.00    -0.000 C 
BRANCH  16  17
ATOM     17  C   UNL     1     -51.520   6.240 -33.374  1.00  0.00    -0.000 C 
BRANCH  17  18
ATOM     18  C   UNL     1     -50.079   6.763 -33.514  1.00  0.00    -0.000 C 
BRANCH  18  19
ATOM     19  C   UNL     1     -49.194   6.554 -32.273  1.00  0.00    -0.003 C 
ATOM     20  C   UNL     1     -47.702   6.670 -32.579  1.00  0.00     0.004 C 
ENDBRANCH  18  19
ENDBRANCH  17  18
ENDBRANCH  16  17
ENDBRANCH  15  16
ENDBRANCH  14  15
ENDBRANCH  13  14
ENDBRANCH  12  13
ENDBRANCH   1  12
TORSDOF 16
ENDMDL
MODEL 4
REMARK VINA RESULT:    -4.270      3.756      7.595
REMARK INTER + INTRA:         -10.662
REMARK INTER:                  -8.540
REMARK INTRA:                  -2.122
REMARK UNBOUND:                -2.398
REMARK SMILES CCCCCCCCCCCCCCCCCC(=O)[O-]
REMARK SMILES IDX 10 1 11 2 12 3 13 4 14 5 15 6 16 7 17 8 18 9 19 10 20 11
REMARK SMILES IDX 9 12 8 13 7 14 6 15 5 16 4 17 3 18 2 19 1 20
REMARK H PARENT
REMARK Flexibility Score: inf
ROOT
ATOM      1  C   UNL     1     -51.280  17.286 -30.715  1.00  0.00     0.000 C 
ENDROOT
BRANCH   1   2
ATOM      2  C   UNL     1     -51.392  16.045 -31.614  1.00  0.00     0.000 C 
BRANCH   2   3
ATOM      3  C   UNL     1     -50.182  15.109 -31.479  1.00  0.00     0.000 C 
BRANCH   3   4
ATOM      4  C   UNL     1     -50.374  14.125 -30.319  1.00  0.00     0.000 C 
BRANCH   4   5
ATOM      5  C   UNL     1     -49.302  13.029 -30.342  1.00  0.00     0.000 C 
BRANCH   5   6
ATOM      6  C   UNL     1     -49.285  12.248 -29.019  1.00  0.00     0.000 C 
BRANCH   6   7
ATOM      7  C   UNL     1     -48.239  11.122 -29.011  1.00  0.00     0.006 C 
BRANCH   7   8
ATOM      8  C   UNL     1     -48.740   9.847 -29.703  1.00  0.00     0.053 C 
BRANCH   8   9
ATOM      9  C   UNL     1     -47.631   8.851 -29.828  1.00  0.00     0.041 C 
ATOM     10  O   UNL     1     -47.890   7.620 -29.899  1.00  0.00    -0.550 OA
ATOM     11  O   UNL     1     -46.313   9.283 -29.916  1.00  0.00    -0.550 OA
ENDBRANCH   8   9
ENDBRANCH   7   8
ENDBRANCH   6   7
ENDBRANCH   5   6
ENDBRANCH   4   5
ENDBRANCH   3   4
ENDBRANCH   2   3
ENDBRANCH   1   2
BRANCH   1  12
ATOM     12  C   UNL     1     -52.628  17.686 -30.089  1.00  0.00     0.000 C 
BRANCH  12  13
ATOM     13  C   UNL     1     -52.533  17.892 -28.570  1.00  0.00    -0.000 C 
BRANCH  13  14
ATOM     14  C   UNL     1     -53.393  16.888 -27.785  1.00  0.00    -0.000 C 
BRANCH  14  15
ATOM     15  C   UNL     1     -52.881  15.442 -27.907  1.00  0.00    -0.000 C 
BRANCH  15  16
ATOM     16  C   UNL     1     -53.885  14.489 -28.591  1.00  0.00    -0.000 C 
BRANCH  16  17
ATOM     17  C   UNL     1     -53.454  13.017 -28.486  1.00  0.00    -0.000 C 
BRANCH  17  18
ATOM     18  C   UNL     1     -53.480  12.287 -29.841  1.00  0.00    -0.000 C 
BRANCH  18  19
ATOM     19  C   UNL     1     -52.694  10.966 -29.878  1.00  0.00    -0.003 C 
ATOM     20  C   UNL     1     -52.038  10.700 -31.232  1.00  0.00     0.004 C 
ENDBRANCH  18  19
ENDBRANCH  17  18
ENDBRANCH  16  17
ENDBRANCH  15  16
ENDBRANCH  14  15
ENDBRANCH  13  14
ENDBRANCH  12  13
ENDBRANCH   1  12
TORSDOF 16
ENDMDL
MODEL 5
REMARK VINA RESULT:    -4.210      3.491      7.251
REMARK INTER + INTRA:         -10.546
REMARK INTER:                  -8.020
REMARK INTRA:                  -2.527
REMARK UNBOUND:                -2.398
REMARK SMILES CCCCCCCCCCCCCCCCCC(=O)[O-]
REMARK SMILES IDX 10 1 11 2 12 3 13 4 14 5 15 6 16 7 17 8 18 9 19 10 20 11
REMARK SMILES IDX 9 12 8 13 7 14 6 15 5 16 4 17 3 18 2 19 1 20
REMARK H PARENT
REMARK Flexibility Score: inf
ROOT
ATOM      1  C   UNL     1     -53.838  14.193 -28.830  1.00  0.00     0.000 C 
ENDROOT
BRANCH   1   2
ATOM      2  C   UNL     1     -53.358  12.758 -28.562  1.00  0.00     0.000 C 
BRANCH   2   3
ATOM      3  C   UNL     1     -53.328  11.900 -29.835  1.00  0.00     0.000 C 
BRANCH   3   4
ATOM      4  C   UNL     1     -52.474  10.644 -29.629  1.00  0.00     0.000 C 
BRANCH   4   5
ATOM      5  C   UNL     1     -52.371   9.829 -30.924  1.00  0.00     0.000 C 
BRANCH   5   6
ATOM      6  C   UNL     1     -51.326  10.434 -31.874  1.00  0.00     0.000 C 
BRANCH   6   7
ATOM      7  C   UNL     1     -50.576   9.366 -32.686  1.00  0.00     0.006 C 
BRANCH   7   8
ATOM      8  C   UNL     1     -50.208   8.136 -31.845  1.00  0.00     0.053 C 
BRANCH   8   9
ATOM      9  C   UNL     1     -49.033   8.436 -30.968  1.00  0.00     0.041 C 
ATOM     10  O   UNL     1     -49.048   8.103 -29.753  1.00  0.00    -0.550 OA
ATOM     11  O   UNL     1     -47.902   9.040 -31.502  1.00  0.00    -0.550 OA
ENDBRANCH   8   9
ENDBRANCH   7   8
ENDBRANCH   6   7
ENDBRANCH   5   6
ENDBRANCH   4   5
ENDBRANCH   3   4
ENDBRANCH   2   3
ENDBRANCH   1   2
BRANCH   1  12
ATOM     12  C   UNL     1     -53.016  15.245 -28.063  1.00  0.00     0.000 C 
BRANCH  12  13
ATOM     13  C   UNL     1     -52.679  16.471 -28.927  1.00  0.00    -0.000 C 
BRANCH  13  14
ATOM     14  C   UNL     1     -52.622  16.136 -30.426  1.00  0.00    -0.000 C 
BRANCH  14  15
ATOM     15  C   UNL     1     -51.372  16.708 -31.117  1.00  0.00    -0.000 C 
BRANCH  15  16
ATOM     16  C   UNL     1     -50.376  15.625 -31.584  1.00  0.00    -0.000 C 
BRANCH  16  17
ATOM     17  C   UNL     1     -50.803  14.214 -31.143  1.00  0.00    -0.000 C 
BRANCH  17  18
ATOM     18  C   UNL     1     -49.614  13.333 -30.721  1.00  0.00    -0.000 C 
BRANCH  18  19
ATOM     19  C   UNL     1     -49.618  12.909 -29.242  1.00  0.00    -0.003 C 
ATOM     20  C   UNL     1     -48.854  11.609 -28.993  1.00  0.00     0.004 C 
ENDBRANCH  18  19
ENDBRANCH  17  18
ENDBRANCH  16  17
ENDBRANCH  15  16
ENDBRANCH  14  15
ENDBRANCH  13  14
ENDBRANCH  12  13
ENDBRANCH   1  12
TORSDOF 16
ENDMDL
MODEL 6
REMARK VINA RESULT:    -4.199      4.344      7.075
REMARK INTER + INTRA:         -10.526
REMARK INTER:                  -8.392
REMARK INTRA:                  -2.134
REMARK UNBOUND:                -2.398
REMARK SMILES CCCCCCCCCCCCCCCCCC(=O)[O-]
REMARK SMILES IDX 10 1 11 2 12 3 13 4 14 5 15 6 16 7 17 8 18 9 19 10 20 11
REMARK SMILES IDX 9 12 8 13 7 14 6 15 5 16 4 17 3 18 2 19 1 20
REMARK H PARENT
REMARK Flexibility Score: inf
ROOT
ATOM      1  C   UNL     1     -50.605  12.792 -29.641  1.00  0.00     0.000 C 
ENDROOT
BRANCH   1   2
ATOM      2  C   UNL     1     -49.199  12.280 -29.991  1.00  0.00     0.000 C 
BRANCH   2   3
ATOM      3  C   UNL     1     -48.549  11.505 -28.835  1.00  0.00     0.000 C 
BRANCH   3   4
ATOM      4  C   UNL     1     -48.338  10.034 -29.210  1.00  0.00     0.000 C 
BRANCH   4   5
ATOM      5  C   UNL     1     -48.073   9.880 -30.712  1.00  0.00     0.000 C 
BRANCH   5   6
ATOM      6  C   UNL     1     -46.965   8.847 -30.973  1.00  0.00     0.000 C 
BRANCH   6   7
ATOM      7  C   UNL     1     -47.313   7.885 -32.120  1.00  0.00     0.006 C 
BRANCH   7   8
ATOM      8  C   UNL     1     -47.211   6.411 -31.704  1.00  0.00     0.053 C 
BRANCH   8   9
ATOM      9  C   UNL     1     -47.685   6.232 -30.296  1.00  0.00     0.041 C 
ATOM     10  O   UNL     1     -46.860   5.977 -29.379  1.00  0.00    -0.550 OA
ATOM     11  O   UNL     1     -49.029   6.394 -29.988  1.00  0.00    -0.550 OA
ENDBRANCH   8   9
ENDBRANCH   7   8
ENDBRANCH   6   7
ENDBRANCH   5   6
ENDBRANCH   4   5
ENDBRANCH   3   4
ENDBRANCH   2   3
ENDBRANCH   1   2
BRANCH   1  12
ATOM     12  C   UNL     1     -51.584  12.688 -30.823  1.00  0.00     0.000 C 
BRANCH  12  13
ATOM     13  C   UNL     1     -52.863  11.917 -30.461  1.00  0.00    -0.000 C 
BRANCH  13  14
ATOM     14  C   UNL     1     -52.566  10.564 -29.794  1.00  0.00    -0.000 C 
BRANCH  14  15
ATOM     15  C   UNL     1     -52.682   9.380 -30.769  1.00  0.00    -0.000 C 
BRANCH  15  16
ATOM     16  C   UNL     1     -51.318   8.806 -31.207  1.00  0.00    -0.000 C 
BRANCH  16  17
ATOM     17  C   UNL     1     -51.197   8.696 -32.736  1.00  0.00    -0.000 C 
BRANCH  17  18
ATOM     18  C   UNL     1     -50.845   7.273 -33.208  1.00  0.00    -0.000 C 
BRANCH  18  19
ATOM     19  C   UNL     1     -52.054   6.407 -33.602  1.00  0.00    -0.003 C 
ATOM     20  C   UNL     1     -53.053   7.147 -34.490  1.00  0.00     0.004 C 
ENDBRANCH  18  19
ENDBRANCH  17  18
ENDBRANCH  16  17
ENDBRANCH  15  16
ENDBRANCH  14  15
ENDBRANCH  13  14
ENDBRANCH  12  13
ENDBRANCH   1  12
TORSDOF 16
ENDMDL
MODEL 7
REMARK VINA RESULT:    -4.198      1.774      3.235
REMARK INTER + INTRA:         -10.524
REMARK INTER:                  -8.625
REMARK INTRA:                  -1.899
REMARK UNBOUND:                -2.398
REMARK SMILES CCCCCCCCCCCCCCCCCC(=O)[O-]
REMARK SMILES IDX 10 1 11 2 12 3 13 4 14 5 15 6 16 7 17 8 18 9 19 10 20 11
REMARK SMILES IDX 9 12 8 13 7 14 6 15 5 16 4 17 3 18 2 19 1 20
REMARK H PARENT
REMARK Flexibility Score: inf
ROOT
ATOM      1  C   UNL     1     -49.261  13.198 -30.277  1.00  0.00     0.000 C 
ENDROOT
BRANCH   1   2
ATOM      2  C   UNL     1     -50.427  14.143 -30.607  1.00  0.00     0.000 C 
BRANCH   2   3
ATOM      3  C   UNL     1     -51.511  14.143 -29.519  1.00  0.00     0.000 C 
BRANCH   3   4
ATOM      4  C   UNL     1     -52.912  14.100 -30.140  1.00  0.00     0.000 C 
BRANCH   4   5
ATOM      5  C   UNL     1     -53.951  14.721 -29.198  1.00  0.00     0.000 C 
BRANCH   5   6
ATOM      6  C   UNL     1     -53.271  15.541 -28.091  1.00  0.00     0.000 C 
BRANCH   6   7
ATOM      7  C   UNL     1     -53.534  17.049 -28.227  1.00  0.00     0.006 C 
BRANCH   7   8
ATOM      8  C   UNL     1     -52.267  17.839 -28.583  1.00  0.00     0.053 C 
BRANCH   8   9
ATOM      9  C   UNL     1     -52.059  17.852 -30.064  1.00  0.00     0.041 C 
ATOM     10  O   UNL     1     -50.894  17.924 -30.539  1.00  0.00    -0.550 OA
ATOM     11  O   UNL     1     -53.146  17.735 -30.922  1.00  0.00    -0.550 OA
ENDBRANCH   8   9
ENDBRANCH   7   8
ENDBRANCH   6   7
ENDBRANCH   5   6
ENDBRANCH   4   5
ENDBRANCH   3   4
ENDBRANCH   2   3
ENDBRANCH   1   2
BRANCH   1  12
ATOM     12  C   UNL     1     -49.638  12.137 -29.228  1.00  0.00     0.000 C 
BRANCH  12  13
ATOM     13  C   UNL     1     -49.782  10.733 -29.838  1.00  0.00    -0.000 C 
BRANCH  13  14
ATOM     14  C   UNL     1     -51.204  10.460 -30.355  1.00  0.00    -0.000 C 
BRANCH  14  15
ATOM     15  C   UNL     1     -51.236  10.110 -31.854  1.00  0.00    -0.000 C 
BRANCH  15  16
ATOM     16  C   UNL     1     -49.872   9.645 -32.406  1.00  0.00    -0.000 C 
BRANCH  16  17
ATOM     17  C   UNL     1     -49.942   8.232 -33.011  1.00  0.00    -0.000 C 
BRANCH  17  18
ATOM     18  C   UNL     1     -51.197   7.455 -32.575  1.00  0.00    -0.000 C 
BRANCH  18  19
ATOM     19  C   UNL     1     -51.825   6.577 -33.670  1.00  0.00    -0.003 C 
ATOM     20  C   UNL     1     -52.981   7.264 -34.396  1.00  0.00     0.004 C 
ENDBRANCH  18  19
ENDBRANCH  17  18
ENDBRANCH  16  17
ENDBRANCH  15  16
ENDBRANCH  14  15
ENDBRANCH  13  14
ENDBRANCH  12  13
ENDBRANCH   1  12
TORSDOF 16
ENDMDL
MODEL 8
REMARK VINA RESULT:    -4.149      3.916      7.195
REMARK INTER + INTRA:         -10.428
REMARK INTER:                  -7.608
REMARK INTRA:                  -2.820
REMARK UNBOUND:                -2.398
REMARK SMILES CCCCCCCCCCCCCCCCCC(=O)[O-]
REMARK SMILES IDX 10 1 11 2 12 3 13 4 14 5 15 6 16 7 17 8 18 9 19 10 20 11
REMARK SMILES IDX 9 12 8 13 7 14 6 15 5 16 4 17 3 18 2 19 1 20
REMARK H PARENT
REMARK Flexibility Score: inf
ROOT
ATOM      1  C   UNL     1     -49.789  13.397 -30.777  1.00  0.00     0.000 C 
ENDROOT
BRANCH   1   2
ATOM      2  C   UNL     1     -49.756  12.982 -29.298  1.00  0.00     0.000 C 
BRANCH   2   3
ATOM      3  C   UNL     1     -49.117  11.602 -29.087  1.00  0.00     0.000 C 
BRANCH   3   4
ATOM      4  C   UNL     1     -49.806  10.540 -29.952  1.00  0.00     0.000 C 
BRANCH   4   5
ATOM      5  C   UNL     1     -48.809   9.878 -30.911  1.00  0.00     0.000 C 
BRANCH   5   6
ATOM      6  C   UNL     1     -49.439   9.662 -32.296  1.00  0.00     0.000 C 
BRANCH   6   7
ATOM      7  C   UNL     1     -50.955   9.913 -32.302  1.00  0.00     0.006 C 
BRANCH   7   8
ATOM      8  C   UNL     1     -51.750   8.706 -32.819  1.00  0.00     0.053 C 
BRANCH   8   9
ATOM      9  C   UNL     1     -51.488   7.505 -31.966  1.00  0.00     0.041 C 
ATOM     10  O   UNL     1     -50.980   6.469 -32.472  1.00  0.00    -0.550 OA
ATOM     11  O   UNL     1     -51.760   7.544 -30.604  1.00  0.00    -0.550 OA
ENDBRANCH   8   9
ENDBRANCH   7   8
ENDBRANCH   6   7
ENDBRANCH   5   6
ENDBRANCH   4   5
ENDBRANCH   3   4
ENDBRANCH   2   3
ENDBRANCH   1   2
BRANCH   1  12
ATOM     12  C   UNL     1     -51.112  14.077 -31.171  1.00  0.00     0.000 C 
BRANCH  12  13
ATOM     13  C   UNL     1     -52.152  13.077 -31.701  1.00  0.00    -0.000 C 
BRANCH  13  14
ATOM     14  C   UNL     1     -53.439  13.068 -30.861  1.00  0.00    -0.000 C 
BRANCH  14  15
ATOM     15  C   UNL     1     -53.310  12.221 -29.583  1.00  0.00    -0.000 C 
BRANCH  15  16
ATOM     16  C   UNL     1     -53.555  13.022 -28.286  1.00  0.00    -0.000 C 
BRANCH  16  17
ATOM     17  C   UNL     1     -53.899  14.495 -28.570  1.00  0.00    -0.000 C 
BRANCH  17  18
ATOM     18  C   UNL     1     -52.804  15.467 -28.095  1.00  0.00    -0.000 C 
BRANCH  18  19
ATOM     19  C   UNL     1     -52.595  16.694 -29.000  1.00  0.00    -0.003 C 
ATOM     20  C   UNL     1     -53.532  16.711 -30.208  1.00  0.00     0.004 C 
ENDBRANCH  18  19
ENDBRANCH  17  18
ENDBRANCH  16  17
ENDBRANCH  15  16
ENDBRANCH  14  15
ENDBRANCH  13  14
ENDBRANCH  12  13
ENDBRANCH   1  12
TORSDOF 16
ENDMDL
MODEL 9
REMARK VINA RESULT:    -4.140      1.351      3.477
REMARK INTER + INTRA:         -10.411
REMARK INTER:                  -8.106
REMARK INTRA:                  -2.305
REMARK UNBOUND:                -2.398
REMARK SMILES CCCCCCCCCCCCCCCCCC(=O)[O-]
REMARK SMILES IDX 10 1 11 2 12 3 13 4 14 5 15 6 16 7 17 8 18 9 19 10 20 11
REMARK SMILES IDX 9 12 8 13 7 14 6 15 5 16 4 17 3 18 2 19 1 20
REMARK H PARENT
REMARK Flexibility Score: inf
ROOT
ATOM      1  C   UNL     1     -51.004   9.061 -32.067  1.00  0.00     0.000 C 
ENDROOT
BRANCH   1   2
ATOM      2  C   UNL     1     -51.809  10.337 -31.774  1.00  0.00     0.000 C 
BRANCH   2   3
ATOM      3  C   UNL     1     -52.454  10.319 -30.380  1.00  0.00     0.000 C 
BRANCH   3   4
ATOM      4  C   UNL     1     -53.190  11.634 -30.098  1.00  0.00     0.000 C 
BRANCH   4   5
ATOM      5  C   UNL     1     -52.973  12.087 -28.650  1.00  0.00     0.000 C 
BRANCH   5   6
ATOM      6  C   UNL     1     -53.605  13.466 -28.404  1.00  0.00     0.000 C 
BRANCH   6   7
ATOM      7  C   UNL     1     -52.700  14.621 -28.861  1.00  0.00     0.006 C 
BRANCH   7   8
ATOM      8  C   UNL     1     -52.897  15.892 -28.024  1.00  0.00     0.053 C 
BRANCH   8   9
ATOM      9  C   UNL     1     -52.593  17.108 -28.841  1.00  0.00     0.041 C 
ATOM     10  O   UNL     1     -52.974  18.244 -28.451  1.00  0.00    -0.550 OA
ATOM     11  O   UNL     1     -51.848  16.995 -30.008  1.00  0.00    -0.550 OA
ENDBRANCH   8   9
ENDBRANCH   7   8
ENDBRANCH   6   7
ENDBRANCH   5   6
ENDBRANCH   4   5
ENDBRANCH   3   4
ENDBRANCH   2   3
ENDBRANCH   1   2
BRANCH   1  12
ATOM     12  C   UNL     1     -49.534   9.357 -32.411  1.00  0.00     0.000 C 
BRANCH  12  13
ATOM     13  C   UNL     1     -48.574   8.297 -31.847  1.00  0.00    -0.000 C 
BRANCH  13  14
ATOM     14  C   UNL     1     -47.355   8.921 -31.147  1.00  0.00    -0.000 C 
BRANCH  14  15
ATOM     15  C   UNL     1     -47.622   9.252 -29.668  1.00  0.00    -0.000 C 
BRANCH  15  16
ATOM     16  C   UNL     1     -47.736  10.765 -29.386  1.00  0.00    -0.000 C 
BRANCH  16  17
ATOM     17  C   UNL     1     -49.139  11.161 -28.893  1.00  0.00    -0.000 C 
BRANCH  17  18
ATOM     18  C   UNL     1     -49.517  12.606 -29.262  1.00  0.00    -0.000 C 
BRANCH  18  19
ATOM     19  C   UNL     1     -49.612  12.883 -30.772  1.00  0.00    -0.003 C 
ATOM     20  C   UNL     1     -49.741  14.370 -31.099  1.00  0.00     0.004 C 
ENDBRANCH  18  19
ENDBRANCH  17  18
ENDBRANCH  16  17
ENDBRANCH  15  16
ENDBRANCH  14  15
ENDBRANCH  13  14
ENDBRANCH  12  13
ENDBRANCH   1  12
TORSDOF 16
ENDMDL
