MODEL 1
REMARK VINA RESULT:    -4.436      0.000      0.000
REMARK INTER + INTRA:          -9.571
REMARK INTER:                  -7.807
REMARK INTRA:                  -1.764
REMARK UNBOUND:                -1.764
REMARK SMILES CCCCCCC=CCCCCCCCC(=O)[O-]
REMARK SMILES IDX 10 1 11 2 12 3 13 4 14 5 15 6 16 7 17 8 18 9 9 10 8 11 7 12
REMARK SMILES IDX 6 13 5 14 4 15 3 16 2 17 1 18
REMARK H PARENT
REMARK Flexibility Score: inf
ROOT
ATOM      1  C   UNL     1      58.829  33.815  79.217  1.00  0.00     0.004 C 
ENDROOT
BRANCH   1   2
ATOM      2  C   UNL     1      57.916  32.813  78.490  1.00  0.00     0.000 C 
BRANCH   2   3
ATOM      3  C   UNL     1      58.203  32.645  76.983  1.00  0.00     0.000 C 
BRANCH   3   4
ATOM      4  C   UNL     1      59.255  31.577  76.630  1.00  0.00     0.000 C 
BRANCH   4   5
ATOM      5  C   UNL     1      58.898  30.673  75.434  1.00  0.00     0.006 C 
BRANCH   5   6
ATOM      6  C   UNL     1      57.548  31.012  74.775  1.00  0.00     0.053 C 
BRANCH   6   7
ATOM      7  C   UNL     1      56.535  29.920  74.952  1.00  0.00     0.041 C 
ATOM      8  O   UNL     1      55.585  29.798  74.135  1.00  0.00    -0.550 OA
ATOM      9  O   UNL     1      56.620  29.060  76.040  1.00  0.00    -0.550 OA
ENDBRANCH   6   7
ENDBRANCH   5   6
ENDBRANCH   4   5
ENDBRANCH   3   4
ENDBRANCH   2   3
ENDBRANCH   1   2
BRANCH   1  10
ATOM     10  C   UNL     1      58.236  34.304  80.546  1.00  0.00     0.027 C 
BRANCH  10  11
ATOM     11  C   UNL     1      58.873  35.602  80.967  1.00  0.00    -0.031 C 
ATOM     12  C   UNL     1      58.328  36.819  80.780  1.00  0.00    -0.031 C 
BRANCH  12  13
ATOM     13  C   UNL     1      56.954  37.063  80.205  1.00  0.00     0.027 C 
BRANCH  13  14
ATOM     14  C   UNL     1      57.013  37.595  78.763  1.00  0.00     0.004 C 
BRANCH  14  15
ATOM     15  C   UNL     1      56.521  36.599  77.692  1.00  0.00     0.000 C 
BRANCH  15  16
ATOM     16  C   UNL     1      57.567  36.210  76.632  1.00  0.00    -0.000 C 
BRANCH  16  17
ATOM     17  C   UNL     1      58.977  36.712  76.973  1.00  0.00    -0.003 C 
ATOM     18  C   UNL     1      59.422  37.803  76.001  1.00  0.00     0.004 C 
ENDBRANCH  16  17
ENDBRANCH  15  16
ENDBRANCH  14  15
ENDBRANCH  13  14
ENDBRANCH  12  13
ENDBRANCH  10  11
ENDBRANCH   1  10
TORSDOF 13
ENDMDL
MODEL 2
REMARK VINA RESULT:    -4.355      1.180      1.464
REMARK INTER + INTRA:          -9.429
REMARK INTER:                  -8.064
REMARK INTRA:                  -1.365
REMARK UNBOUND:                -1.764
REMARK SMILES CCCCCCC=CCCCCCCCC(=O)[O-]
REMARK SMILES IDX 10 1 11 2 12 3 13 4 14 5 15 6 16 7 17 8 18 9 9 10 8 11 7 12
REMARK SMILES IDX 6 13 5 14 4 15 3 16 2 17 1 18
REMARK H PARENT
REMARK Flexibility Score: inf
ROOT
ATOM      1  C   UNL     1      58.770  33.491  79.076  1.00  0.00     0.004 C 
ENDROOT
BRANCH   1   2
ATOM      2  C   UNL     1      57.798  33.612  77.890  1.00  0.00     0.000 C 
BRANCH   2   3
ATOM      3  C   UNL     1      58.130  32.712  76.682  1.00  0.00     0.000 C 
BRANCH   3   4
ATOM      4  C   UNL     1      58.263  31.210  76.998  1.00  0.00     0.000 C 
BRANCH   4   5
ATOM      5  C   UNL     1      57.704  30.259  75.922  1.00  0.00     0.006 C 
BRANCH   5   6
ATOM      6  C   UNL     1      57.521  30.917  74.542  1.00  0.00     0.053 C 
BRANCH   6   7
ATOM      7  C   UNL     1      56.209  30.562  73.909  1.00  0.00     0.041 C 
ATOM      8  O   UNL     1      55.825  31.156  72.868  1.00  0.00    -0.550 OA
ATOM      9  O   UNL     1      55.392  29.600  74.490  1.00  0.00    -0.550 OA
ENDBRANCH   6   7
ENDBRANCH   5   6
ENDBRANCH   4   5
ENDBRANCH   3   4
ENDBRANCH   2   3
ENDBRANCH   1   2
BRANCH   1  10
ATOM     10  C   UNL     1      58.140  33.925  80.407  1.00  0.00     0.027 C 
BRANCH  10  11
ATOM     11  C   UNL     1      58.826  35.153  80.946  1.00  0.00    -0.031 C 
ATOM     12  C   UNL     1      58.473  36.418  80.652  1.00  0.00    -0.031 C 
BRANCH  12  13
ATOM     13  C   UNL     1      57.278  36.803  79.814  1.00  0.00     0.027 C 
BRANCH  13  14
ATOM     14  C   UNL     1      57.608  37.921  78.810  1.00  0.00     0.004 C 
BRANCH  14  15
ATOM     15  C   UNL     1      57.266  37.585  77.343  1.00  0.00     0.000 C 
BRANCH  15  16
ATOM     16  C   UNL     1      56.075  36.629  77.152  1.00  0.00    -0.000 C 
BRANCH  16  17
ATOM     17  C   UNL     1      56.018  36.020  75.744  1.00  0.00    -0.003 C 
ATOM     18  C   UNL     1      57.004  36.712  74.806  1.00  0.00     0.004 C 
ENDBRANCH  16  17
ENDBRANCH  15  16
ENDBRANCH  14  15
ENDBRANCH  13  14
ENDBRANCH  12  13
ENDBRANCH  10  11
ENDBRANCH   1  10
TORSDOF 13
ENDMDL
MODEL 3
REMARK VINA RESULT:    -4.258      1.727      3.623
REMARK INTER + INTRA:          -9.258
REMARK INTER:                  -7.533
REMARK INTRA:                  -1.726
REMARK UNBOUND:                -1.764
REMARK SMILES CCCCCCC=CCCCCCCCC(=O)[O-]
REMARK SMILES IDX 10 1 11 2 12 3 13 4 14 5 15 6 16 7 17 8 18 9 9 10 8 11 7 12
REMARK SMILES IDX 6 13 5 14 4 15 3 16 2 17 1 18
REMARK H PARENT
REMARK Flexibility Score: inf
ROOT
ATOM      1  C   UNL     1      58.423  34.915  75.330  1.00  0.00     0.004 C 
ENDROOT
BRANCH   1   2
ATOM      2  C   UNL     1      58.476  34.251  73.943  1.00  0.00     0.000 C 
BRANCH   2   3
ATOM      3  C   UNL     1      57.100  33.958  73.309  1.00  0.00     0.000 C 
BRANCH   3   4
ATOM      4  C   UNL     1      57.015  32.650  72.500  1.00  0.00     0.000 C 
BRANCH   4   5
ATOM      5  C   UNL     1      56.240  31.505  73.181  1.00  0.00     0.006 C 
BRANCH   5   6
ATOM      6  C   UNL     1      57.056  30.744  74.243  1.00  0.00     0.053 C 
BRANCH   6   7
ATOM      7  C   UNL     1      56.344  29.524  74.745  1.00  0.00     0.041 C 
ATOM      8  O   UNL     1      55.684  28.803  73.951  1.00  0.00    -0.550 OA
ATOM      9  O   UNL     1      56.379  29.203  76.096  1.00  0.00    -0.550 OA
ENDBRANCH   6   7
ENDBRANCH   5   6
ENDBRANCH   4   5
ENDBRANCH   3   4
ENDBRANCH   2   3
ENDBRANCH   1   2
BRANCH   1  10
ATOM     10  C   UNL     1      57.472  34.197  76.297  1.00  0.00     0.027 C 
BRANCH  10  11
ATOM     11  C   UNL     1      58.103  32.934  76.824  1.00  0.00    -0.031 C 
ATOM     12  C   UNL     1      58.291  32.659  78.128  1.00  0.00    -0.031 C 
BRANCH  12  13
ATOM     13  C   UNL     1      57.813  33.528  79.266  1.00  0.00     0.027 C 
BRANCH  13  14
ATOM     14  C   UNL     1      58.980  34.129  80.069  1.00  0.00     0.004 C 
BRANCH  14  15
ATOM     15  C   UNL     1      58.934  35.664  80.215  1.00  0.00     0.000 C 
BRANCH  15  16
ATOM     16  C   UNL     1      59.217  36.451  78.923  1.00  0.00    -0.000 C 
BRANCH  16  17
ATOM     17  C   UNL     1      57.971  37.154  78.366  1.00  0.00    -0.003 C 
ATOM     18  C   UNL     1      56.880  37.260  79.429  1.00  0.00     0.004 C 
ENDBRANCH  16  17
ENDBRANCH  15  16
ENDBRANCH  14  15
ENDBRANCH  13  14
ENDBRANCH  12  13
ENDBRANCH  10  11
ENDBRANCH   1  10
TORSDOF 13
ENDMDL
MODEL 4
REMARK VINA RESULT:    -4.249      1.294      3.331
REMARK INTER + INTRA:          -9.242
REMARK INTER:                  -7.450
REMARK INTRA:                  -1.792
REMARK UNBOUND:                -1.764
REMARK SMILES CCCCCCC=CCCCCCCCC(=O)[O-]
REMARK SMILES IDX 10 1 11 2 12 3 13 4 14 5 15 6 16 7 17 8 18 9 9 10 8 11 7 12
REMARK SMILES IDX 6 13 5 14 4 15 3 16 2 17 1 18
REMARK H PARENT
REMARK Flexibility Score: inf
ROOT
ATOM      1  C   UNL     1      56.961  35.241  75.548  1.00  0.00     0.004 C 
ENDROOT
BRANCH   1   2
ATOM      2  C   UNL     1      58.490  35.325  75.405  1.00  0.00     0.000 C 
BRANCH   2   3
ATOM      3  C   UNL     1      59.133  34.180  74.595  1.00  0.00     0.000 C 
BRANCH   3   4
ATOM      4  C   UNL     1      58.179  33.037  74.202  1.00  0.00     0.000 C 
BRANCH   4   5
ATOM      5  C   UNL     1      58.589  31.637  74.698  1.00  0.00     0.006 C 
BRANCH   5   6
ATOM      6  C   UNL     1      57.502  30.922  75.521  1.00  0.00     0.053 C 
BRANCH   6   7
ATOM      7  C   UNL     1      56.831  29.825  74.750  1.00  0.00     0.041 C 
ATOM      8  O   UNL     1      57.244  28.639  74.845  1.00  0.00    -0.550 OA
ATOM      9  O   UNL     1      55.774  30.116  73.898  1.00  0.00    -0.550 OA
ENDBRANCH   6   7
ENDBRANCH   5   6
ENDBRANCH   4   5
ENDBRANCH   3   4
ENDBRANCH   2   3
ENDBRANCH   1   2
BRANCH   1  10
ATOM     10  C   UNL     1      56.446  35.908  76.831  1.00  0.00     0.027 C 
BRANCH  10  11
ATOM     11  C   UNL     1      57.149  37.219  77.069  1.00  0.00    -0.031 C 
ATOM     12  C   UNL     1      57.279  37.811  78.271  1.00  0.00    -0.031 C 
BRANCH  12  13
ATOM     13  C   UNL     1      56.826  37.207  79.578  1.00  0.00     0.027 C 
BRANCH  13  14
ATOM     14  C   UNL     1      58.003  36.925  80.527  1.00  0.00     0.004 C 
BRANCH  14  15
ATOM     15  C   UNL     1      59.037  35.917  79.984  1.00  0.00     0.000 C 
BRANCH  15  16
ATOM     16  C   UNL     1      58.902  34.485  80.531  1.00  0.00    -0.000 C 
BRANCH  16  17
ATOM     17  C   UNL     1      57.840  33.660  79.791  1.00  0.00    -0.003 C 
ATOM     18  C   UNL     1      58.379  33.135  78.462  1.00  0.00     0.004 C 
ENDBRANCH  16  17
ENDBRANCH  15  16
ENDBRANCH  14  15
ENDBRANCH  13  14
ENDBRANCH  12  13
ENDBRANCH  10  11
ENDBRANCH   1  10
TORSDOF 13
ENDMDL
MODEL 5
REMARK VINA RESULT:    -4.247      3.476      6.922
REMARK INTER + INTRA:          -9.239
REMARK INTER:                  -7.725
REMARK INTRA:                  -1.514
REMARK UNBOUND:                -1.764
REMARK SMILES CCCCCCC=CCCCCCCCC(=O)[O-]
REMARK SMILES IDX 10 1 11 2 12 3 13 4 14 5 15 6 16 7 17 8 18 9 9 10 8 11 7 12
REMARK SMILES IDX 6 13 5 14 4 15 3 16 2 17 1 18
REMARK H PARENT
REMARK Flexibility Score: inf
ROOT
ATOM      1  C   UNL     1      59.009  33.610  79.410  1.00  0.00     0.004 C 
ENDROOT
BRANCH   1   2
ATOM      2  C   UNL     1      58.341  34.185  80.671  1.00  0.00     0.000 C 
BRANCH   2   3
ATOM      3  C   UNL     1      59.031  35.433  81.261  1.00  0.00     0.000 C 
BRANCH   3   4
ATOM      4  C   UNL     1      58.292  36.764  81.029  1.00  0.00     0.000 C 
BRANCH   4   5
ATOM      5  C   UNL     1      57.161  36.715  79.983  1.00  0.00     0.006 C 
BRANCH   5   6
ATOM      6  C   UNL     1      57.421  37.588  78.741  1.00  0.00     0.053 C 
BRANCH   6   7
ATOM      7  C   UNL     1      58.873  37.917  78.567  1.00  0.00     0.041 C 
ATOM      8  O   UNL     1      59.299  39.071  78.838  1.00  0.00    -0.550 OA
ATOM      9  O   UNL     1      59.750  36.961  78.072  1.00  0.00    -0.550 OA
ENDBRANCH   6   7
ENDBRANCH   5   6
ENDBRANCH   4   5
ENDBRANCH   3   4
ENDBRANCH   2   3
ENDBRANCH   1   2
BRANCH   1  10
ATOM     10  C   UNL     1      57.998  33.007  78.424  1.00  0.00     0.027 C 
BRANCH  10  11
ATOM     11  C   UNL     1      57.696  33.977  77.311  1.00  0.00    -0.031 C 
ATOM     12  C   UNL     1      57.608  33.645  76.010  1.00  0.00    -0.031 C 
BRANCH  12  13
ATOM     13  C   UNL     1      57.704  32.236  75.475  1.00  0.00     0.027 C 
BRANCH  13  14
ATOM     14  C   UNL     1      58.780  32.101  74.385  1.00  0.00     0.004 C 
BRANCH  14  15
ATOM     15  C   UNL     1      60.078  31.407  74.849  1.00  0.00     0.000 C 
BRANCH  15  16
ATOM     16  C   UNL     1      60.021  30.790  76.258  1.00  0.00    -0.000 C 
BRANCH  16  17
ATOM     17  C   UNL     1      60.173  29.263  76.248  1.00  0.00    -0.003 C 
ATOM     18  C   UNL     1      58.969  28.595  75.589  1.00  0.00     0.004 C 
ENDBRANCH  16  17
ENDBRANCH  15  16
ENDBRANCH  14  15
ENDBRANCH  13  14
ENDBRANCH  12  13
ENDBRANCH  10  11
ENDBRANCH   1  10
TORSDOF 13
ENDMDL
MODEL 6
REMARK VINA RESULT:    -4.229      1.954      2.226
REMARK INTER + INTRA:          -9.207
REMARK INTER:                  -7.209
REMARK INTRA:                  -1.998
REMARK UNBOUND:                -1.764
REMARK SMILES CCCCCCC=CCCCCCCCC(=O)[O-]
REMARK SMILES IDX 10 1 11 2 12 3 13 4 14 5 15 6 16 7 17 8 18 9 9 10 8 11 7 12
REMARK SMILES IDX 6 13 5 14 4 15 3 16 2 17 1 18
REMARK H PARENT
REMARK Flexibility Score: inf
ROOT
ATOM      1  C   UNL     1      58.868  33.695  79.202  1.00  0.00     0.004 C 
ENDROOT
BRANCH   1   2
ATOM      2  C   UNL     1      57.993  32.765  78.345  1.00  0.00     0.000 C 
BRANCH   2   3
ATOM      3  C   UNL     1      58.767  31.875  77.351  1.00  0.00     0.000 C 
BRANCH   3   4
ATOM      4  C   UNL     1      57.956  31.386  76.136  1.00  0.00     0.000 C 
BRANCH   4   5
ATOM      5  C   UNL     1      57.548  32.483  75.134  1.00  0.00     0.006 C 
BRANCH   5   6
ATOM      6  C   UNL     1      57.972  32.192  73.682  1.00  0.00     0.053 C 
BRANCH   6   7
ATOM      7  C   UNL     1      57.249  33.054  72.692  1.00  0.00     0.041 C 
ATOM      8  O   UNL     1      56.420  33.916  73.086  1.00  0.00    -0.550 OA
ATOM      9  O   UNL     1      57.462  32.881  71.330  1.00  0.00    -0.550 OA
ENDBRANCH   6   7
ENDBRANCH   5   6
ENDBRANCH   4   5
ENDBRANCH   3   4
ENDBRANCH   2   3
ENDBRANCH   1   2
BRANCH   1  10
ATOM     10  C   UNL     1      58.071  34.422  80.294  1.00  0.00     0.027 C 
BRANCH  10  11
ATOM     11  C   UNL     1      58.778  35.683  80.720  1.00  0.00    -0.031 C 
ATOM     12  C   UNL     1      58.311  36.929  80.514  1.00  0.00    -0.031 C 
BRANCH  12  13
ATOM     13  C   UNL     1      56.966  37.253  79.912  1.00  0.00     0.027 C 
BRANCH  13  14
ATOM     14  C   UNL     1      57.059  37.551  78.406  1.00  0.00     0.004 C 
BRANCH  14  15
ATOM     15  C   UNL     1      56.209  36.622  77.515  1.00  0.00     0.000 C 
BRANCH  15  16
ATOM     16  C   UNL     1      57.009  35.756  76.525  1.00  0.00    -0.000 C 
BRANCH  16  17
ATOM     17  C   UNL     1      58.509  36.080  76.525  1.00  0.00    -0.003 C 
ATOM     18  C   UNL     1      59.111  35.895  75.134  1.00  0.00     0.004 C 
ENDBRANCH  16  17
ENDBRANCH  15  16
ENDBRANCH  14  15
ENDBRANCH  13  14
ENDBRANCH  12  13
ENDBRANCH  10  11
ENDBRANCH   1  10
TORSDOF 13
ENDMDL
MODEL 7
REMARK VINA RESULT:    -4.228      2.461      6.523
REMARK INTER + INTRA:          -9.206
REMARK INTER:                  -7.824
REMARK INTRA:                  -1.382
REMARK UNBOUND:                -1.764
REMARK SMILES CCCCCCC=CCCCCCCCC(=O)[O-]
REMARK SMILES IDX 10 1 11 2 12 3 13 4 14 5 15 6 16 7 17 8 18 9 9 10 8 11 7 12
REMARK SMILES IDX 6 13 5 14 4 15 3 16 2 17 1 18
REMARK H PARENT
REMARK Flexibility Score: inf
ROOT
ATOM      1  C   UNL     1      58.174  34.253  80.296  1.00  0.00     0.004 C 
ENDROOT
BRANCH   1   2
ATOM      2  C   UNL     1      58.962  35.439  80.878  1.00  0.00     0.000 C 
BRANCH   2   3
ATOM      3  C   UNL     1      58.555  36.823  80.331  1.00  0.00     0.000 C 
BRANCH   3   4
ATOM      4  C   UNL     1      57.038  37.076  80.245  1.00  0.00     0.000 C 
BRANCH   4   5
ATOM      5  C   UNL     1      56.482  37.261  78.820  1.00  0.00     0.006 C 
BRANCH   5   6
ATOM      6  C   UNL     1      57.553  37.617  77.773  1.00  0.00     0.053 C 
BRANCH   6   7
ATOM      7  C   UNL     1      57.677  36.573  76.705  1.00  0.00     0.041 C 
ATOM      8  O   UNL     1      58.799  36.066  76.441  1.00  0.00    -0.550 OA
ATOM      9  O   UNL     1      56.561  36.186  75.974  1.00  0.00    -0.550 OA
ENDBRANCH   6   7
ENDBRANCH   5   6
ENDBRANCH   4   5
ENDBRANCH   3   4
ENDBRANCH   2   3
ENDBRANCH   1   2
BRANCH   1  10
ATOM     10  C   UNL     1      58.845  33.644  79.057  1.00  0.00     0.027 C 
BRANCH  10  11
ATOM     11  C   UNL     1      57.811  33.127  78.091  1.00  0.00    -0.031 C 
ATOM     12  C   UNL     1      58.060  32.249  77.101  1.00  0.00    -0.031 C 
BRANCH  12  13
ATOM     13  C   UNL     1      59.389  31.575  76.866  1.00  0.00     0.027 C 
BRANCH  13  14
ATOM     14  C   UNL     1      59.228  30.153  76.300  1.00  0.00     0.004 C 
BRANCH  14  15
ATOM     15  C   UNL     1      58.379  30.068  75.015  1.00  0.00     0.000 C 
BRANCH  15  16
ATOM     16  C   UNL     1      57.239  29.035  75.053  1.00  0.00    -0.000 C 
BRANCH  16  17
ATOM     17  C   UNL     1      55.888  29.620  74.616  1.00  0.00    -0.003 C 
ATOM     18  C   UNL     1      56.080  30.759  73.618  1.00  0.00     0.004 C 
ENDBRANCH  16  17
ENDBRANCH  15  16
ENDBRANCH  14  15
ENDBRANCH  13  14
ENDBRANCH  12  13
ENDBRANCH  10  11
ENDBRANCH   1  10
TORSDOF 13
ENDMDL
MODEL 8
REMARK VINA RESULT:    -4.205      1.585      2.534
REMARK INTER + INTRA:          -9.164
REMARK INTER:                  -7.772
REMARK INTRA:                  -1.393
REMARK UNBOUND:                -1.764
REMARK SMILES CCCCCCC=CCCCCCCCC(=O)[O-]
REMARK SMILES IDX 10 1 11 2 12 3 13 4 14 5 15 6 16 7 17 8 18 9 9 10 8 11 7 12
REMARK SMILES IDX 6 13 5 14 4 15 3 16 2 17 1 18
REMARK H PARENT
REMARK Flexibility Score: inf
ROOT
ATOM      1  C   UNL     1      58.729  34.989  80.723  1.00  0.00     0.004 C 
ENDROOT
BRANCH   1   2
ATOM      2  C   UNL     1      59.106  33.970  79.633  1.00  0.00     0.000 C 
BRANCH   2   3
ATOM      3  C   UNL     1      57.914  33.224  78.999  1.00  0.00     0.000 C 
BRANCH   3   4
ATOM      4  C   UNL     1      58.004  33.015  77.476  1.00  0.00     0.000 C 
BRANCH   4   5
ATOM      5  C   UNL     1      58.100  31.546  77.018  1.00  0.00     0.006 C 
BRANCH   5   6
ATOM      6  C   UNL     1      57.773  31.333  75.529  1.00  0.00     0.053 C 
BRANCH   6   7
ATOM      7  C   UNL     1      56.996  30.074  75.288  1.00  0.00     0.041 C 
ATOM      8  O   UNL     1      57.231  29.044  75.972  1.00  0.00    -0.550 OA
ATOM      9  O   UNL     1      56.038  30.027  74.284  1.00  0.00    -0.550 OA
ENDBRANCH   6   7
ENDBRANCH   5   6
ENDBRANCH   4   5
ENDBRANCH   3   4
ENDBRANCH   2   3
ENDBRANCH   1   2
BRANCH   1  10
ATOM     10  C   UNL     1      58.740  36.437  80.213  1.00  0.00     0.027 C 
BRANCH  10  11
ATOM     11  C   UNL     1      57.381  37.068  80.374  1.00  0.00    -0.031 C 
ATOM     12  C   UNL     1      56.637  37.551  79.362  1.00  0.00    -0.031 C 
BRANCH  12  13
ATOM     13  C   UNL     1      57.004  37.449  77.902  1.00  0.00     0.027 C 
BRANCH  13  14
ATOM     14  C   UNL     1      56.361  36.227  77.224  1.00  0.00     0.004 C 
BRANCH  14  15
ATOM     15  C   UNL     1      56.183  36.361  75.697  1.00  0.00     0.000 C 
BRANCH  15  16
ATOM     16  C   UNL     1      57.140  35.503  74.850  1.00  0.00    -0.000 C 
BRANCH  16  17
ATOM     17  C   UNL     1      56.406  34.485  73.967  1.00  0.00    -0.003 C 
ATOM     18  C   UNL     1      56.617  34.790  72.486  1.00  0.00     0.004 C 
ENDBRANCH  16  17
ENDBRANCH  15  16
ENDBRANCH  14  15
ENDBRANCH  13  14
ENDBRANCH  12  13
ENDBRANCH  10  11
ENDBRANCH   1  10
TORSDOF 13
ENDMDL
MODEL 9
REMARK VINA RESULT:    -4.060      1.628      2.435
REMARK INTER + INTRA:          -8.910
REMARK INTER:                  -7.373
REMARK INTRA:                  -1.537
REMARK UNBOUND:                -1.764
REMARK SMILES CCCCCCC=CCCCCCCCC(=O)[O-]
REMARK SMILES IDX 10 1 11 2 12 3 13 4 14 5 15 6 16 7 17 8 18 9 9 10 8 11 7 12
REMARK SMILES IDX 6 13 5 14 4 15 3 16 2 17 1 18
REMARK H PARENT
REMARK Flexibility Score: inf
ROOT
ATOM      1  C   UNL     1      58.015  33.261  77.725  1.00  0.00     0.004 C 
ENDROOT
BRANCH   1   2
ATOM      2  C   UNL     1      58.842  32.000  77.420  1.00  0.00     0.000 C 
BRANCH   2   3
ATOM      3  C   UNL     1      58.116  30.934  76.574  1.00  0.00     0.000 C 
BRANCH   3   4
ATOM      4  C   UNL     1      58.672  30.732  75.152  1.00  0.00     0.000 C 
BRANCH   4   5
ATOM      5  C   UNL     1      58.805  32.015  74.309  1.00  0.00     0.006 C 
BRANCH   5   6
ATOM      6  C   UNL     1      57.461  32.695  73.991  1.00  0.00     0.053 C 
BRANCH   6   7
ATOM      7  C   UNL     1      56.820  32.145  72.753  1.00  0.00     0.041 C 
ATOM      8  O   UNL     1      55.886  31.306  72.841  1.00  0.00    -0.550 OA
ATOM      9  O   UNL     1      57.279  32.532  71.500  1.00  0.00    -0.550 OA
ENDBRANCH   6   7
ENDBRANCH   5   6
ENDBRANCH   4   5
ENDBRANCH   3   4
ENDBRANCH   2   3
ENDBRANCH   1   2
BRANCH   1  10
ATOM     10  C   UNL     1      57.621  33.369  79.205  1.00  0.00     0.027 C 
BRANCH  10  11
ATOM     11  C   UNL     1      58.750  33.952  80.015  1.00  0.00    -0.031 C 
ATOM     12  C   UNL     1      58.815  35.231  80.427  1.00  0.00    -0.031 C 
BRANCH  12  13
ATOM     13  C   UNL     1      57.726  36.256  80.223  1.00  0.00     0.027 C 
BRANCH  13  14
ATOM     14  C   UNL     1      58.275  37.593  79.698  1.00  0.00     0.004 C 
BRANCH  14  15
ATOM     15  C   UNL     1      57.736  38.008  78.313  1.00  0.00     0.000 C 
BRANCH  15  16
ATOM     16  C   UNL     1      57.639  36.869  77.282  1.00  0.00    -0.000 C 
BRANCH  16  17
ATOM     17  C   UNL     1      56.189  36.497  76.939  1.00  0.00    -0.003 C 
ATOM     18  C   UNL     1      56.109  35.787  75.590  1.00  0.00     0.004 C 
ENDBRANCH  16  17
ENDBRANCH  15  16
ENDBRANCH  14  15
ENDBRANCH  13  14
ENDBRANCH  12  13
ENDBRANCH  10  11
ENDBRANCH   1  10
TORSDOF 13
ENDMDL
