MODEL 1
REMARK VINA RESULT:    -4.182      0.000      0.000
REMARK INTER + INTRA:          -5.047
REMARK INTER:                  -4.915
REMARK INTRA:                  -0.132
REMARK UNBOUND:                -0.132
REMARK SMILES O=C([O-])C=Cc1ccc(O)c(O)c1
REMARK SMILES IDX 6 1 13 2 7 3 11 4 8 5 9 6 5 7 4 8 2 9 1 10 3 11 12 12 10 14
REMARK H PARENT 12 13 10 15
REMARK Flexibility Score: inf
ROOT
ATOM      1  C   UNL     1      73.874  40.096  21.384  1.00  0.00    -0.022 A 
ATOM      2  C   UNL     1      74.986  40.508  20.630  1.00  0.00     0.058 A 
ATOM      3  C   UNL     1      73.681  40.647  22.667  1.00  0.00     0.012 A 
ATOM      4  C   UNL     1      75.903  41.432  21.152  1.00  0.00     0.157 A 
ATOM      5  C   UNL     1      74.595  41.569  23.185  1.00  0.00     0.051 A 
ATOM      6  C   UNL     1      75.707  41.962  22.433  1.00  0.00     0.157 A 
ENDROOT
BRANCH   1   7
ATOM      7  C   UNL     1      72.929  39.124  20.783  1.00  0.00     0.010 C 
ATOM      8  C   UNL     1      73.225  38.348  19.730  1.00  0.00     0.025 C 
BRANCH   8   9
ATOM      9  C   UNL     1      72.255  37.402  19.154  1.00  0.00     0.064 C 
ATOM     10  O   UNL     1      72.584  36.218  18.875  1.00  0.00    -0.545 OA
ATOM     11  O   UNL     1      70.953  37.822  18.911  1.00  0.00    -0.545 OA
ENDBRANCH   8   9
ENDBRANCH   1   7
BRANCH   4  12
ATOM     12  O   UNL     1      77.008  41.830  20.402  1.00  0.00    -0.504 OA
ATOM     13  H   UNL     1      77.457  42.726  20.552  1.00  0.00     0.293 HD
ENDBRANCH   4  12
BRANCH   6  14
ATOM     14  O   UNL     1      76.620  42.879  22.948  1.00  0.00    -0.504 OA
ATOM     15  H   UNL     1      77.526  42.587  23.299  1.00  0.00     0.293 HD
ENDBRANCH   6  14
TORSDOF 4
ENDMDL
MODEL 2
REMARK VINA RESULT:    -3.916      1.060      1.968
REMARK INTER + INTRA:          -4.735
REMARK INTER:                  -4.605
REMARK INTRA:                  -0.130
REMARK UNBOUND:                -0.132
REMARK SMILES O=C([O-])C=Cc1ccc(O)c(O)c1
REMARK SMILES IDX 6 1 13 2 7 3 11 4 8 5 9 6 5 7 4 8 2 9 1 10 3 11 12 12 10 14
REMARK H PARENT 12 13 10 15
REMARK Flexibility Score: inf
ROOT
ATOM      1  C   UNL     1      73.881  40.619  20.789  1.00  0.00    -0.022 A 
ATOM      2  C   UNL     1      74.256  40.254  22.093  1.00  0.00     0.058 A 
ATOM      3  C   UNL     1      74.435  41.785  20.224  1.00  0.00     0.012 A 
ATOM      4  C   UNL     1      75.145  41.047  22.832  1.00  0.00     0.157 A 
ATOM      5  C   UNL     1      75.323  42.575  20.961  1.00  0.00     0.051 A 
ATOM      6  C   UNL     1      75.678  42.211  22.265  1.00  0.00     0.157 A 
ENDROOT
BRANCH   1   7
ATOM      7  C   UNL     1      72.944  39.741  20.047  1.00  0.00     0.010 C 
ATOM      8  C   UNL     1      73.068  38.408  19.975  1.00  0.00     0.025 C 
BRANCH   8   9
ATOM      9  C   UNL     1      72.123  37.571  19.217  1.00  0.00     0.064 C 
ATOM     10  O   UNL     1      70.992  38.008  18.875  1.00  0.00    -0.545 OA
ATOM     11  O   UNL     1      72.484  36.273  18.875  1.00  0.00    -0.545 OA
ENDBRANCH   8   9
ENDBRANCH   1   7
BRANCH   4  12
ATOM     12  O   UNL     1      75.505  40.684  24.128  1.00  0.00    -0.504 OA
ATOM     13  H   UNL     1      74.821  40.340  24.792  1.00  0.00     0.293 HD
ENDBRANCH   4  12
BRANCH   6  14
ATOM     14  O   UNL     1      76.562  42.997  23.002  1.00  0.00    -0.504 OA
ATOM     15  H   UNL     1      76.320  43.345  23.923  1.00  0.00     0.293 HD
ENDBRANCH   6  14
TORSDOF 4
ENDMDL
MODEL 3
REMARK VINA RESULT:    -3.911      3.239      4.643
REMARK INTER + INTRA:          -4.730
REMARK INTER:                  -4.605
REMARK INTRA:                  -0.125
REMARK UNBOUND:                -0.132
REMARK SMILES O=C([O-])C=Cc1ccc(O)c(O)c1
REMARK SMILES IDX 6 1 13 2 7 3 11 4 8 5 9 6 5 7 4 8 2 9 1 10 3 11 12 12 10 14
REMARK H PARENT 12 13 10 15
REMARK Flexibility Score: inf
ROOT
ATOM      1  C   UNL     1      72.844  40.654  21.393  1.00  0.00    -0.022 A 
ATOM      2  C   UNL     1      74.141  41.193  21.429  1.00  0.00     0.058 A 
ATOM      3  C   UNL     1      72.579  39.579  20.521  1.00  0.00     0.012 A 
ATOM      4  C   UNL     1      75.150  40.690  20.595  1.00  0.00     0.157 A 
ATOM      5  C   UNL     1      73.586  39.077  19.691  1.00  0.00     0.051 A 
ATOM      6  C   UNL     1      74.871  39.631  19.723  1.00  0.00     0.157 A 
ENDROOT
BRANCH   1   7
ATOM      7  C   UNL     1      71.815  41.217  22.301  1.00  0.00     0.010 C 
ATOM      8  C   UNL     1      71.001  42.229  21.970  1.00  0.00     0.025 C 
BRANCH   8   9
ATOM      9  C   UNL     1      69.998  42.768  22.904  1.00  0.00     0.064 C 
ATOM     10  O   UNL     1      70.256  42.910  24.129  1.00  0.00    -0.545 OA
ATOM     11  O   UNL     1      68.743  43.125  22.427  1.00  0.00    -0.545 OA
ENDBRANCH   8   9
ENDBRANCH   1   7
BRANCH   4  12
ATOM     12  O   UNL     1      76.432  41.235  20.630  1.00  0.00    -0.504 OA
ATOM     13  H   UNL     1      77.249  40.660  20.800  1.00  0.00     0.293 HD
ENDBRANCH   4  12
BRANCH   6  14
ATOM     14  O   UNL     1      75.876  39.133  18.897  1.00  0.00    -0.504 OA
ATOM     15  H   UNL     1      76.410  39.741  18.286  1.00  0.00     0.293 HD
ENDBRANCH   6  14
TORSDOF 4
ENDMDL
MODEL 4
REMARK VINA RESULT:    -3.542      1.429      5.557
REMARK INTER + INTRA:          -4.295
REMARK INTER:                  -4.169
REMARK INTRA:                  -0.126
REMARK UNBOUND:                -0.132
REMARK SMILES O=C([O-])C=Cc1ccc(O)c(O)c1
REMARK SMILES IDX 6 1 13 2 7 3 11 4 8 5 9 6 5 7 4 8 2 9 1 10 3 11 12 12 10 14
REMARK H PARENT 12 13 10 15
REMARK Flexibility Score: inf
ROOT
ATOM      1  C   UNL     1      74.094  40.156  20.841  1.00  0.00    -0.022 A 
ATOM      2  C   UNL     1      74.021  39.025  20.010  1.00  0.00     0.058 A 
ATOM      3  C   UNL     1      72.976  40.492  21.631  1.00  0.00     0.012 A 
ATOM      4  C   UNL     1      72.849  38.257  19.946  1.00  0.00     0.157 A 
ATOM      5  C   UNL     1      71.808  39.725  21.567  1.00  0.00     0.051 A 
ATOM      6  C   UNL     1      71.740  38.610  20.725  1.00  0.00     0.157 A 
ENDROOT
BRANCH   1   7
ATOM      7  C   UNL     1      75.359  40.929  20.880  1.00  0.00     0.010 C 
ATOM      8  C   UNL     1      75.705  41.839  19.959  1.00  0.00     0.025 C 
BRANCH   8   9
ATOM      9  C   UNL     1      76.977  42.580  20.025  1.00  0.00     0.064 C 
ATOM     10  O   UNL     1      77.365  43.116  21.096  1.00  0.00    -0.545 OA
ATOM     11  O   UNL     1      77.762  42.691  18.884  1.00  0.00    -0.545 OA
ENDBRANCH   8   9
ENDBRANCH   1   7
BRANCH   4  12
ATOM     12  O   UNL     1      72.781  37.142  19.113  1.00  0.00    -0.504 OA
ATOM     13  H   UNL     1      72.956  37.213  18.117  1.00  0.00     0.293 HD
ENDBRANCH   4  12
BRANCH   6  14
ATOM     14  O   UNL     1      70.578  37.845  20.659  1.00  0.00    -0.504 OA
ATOM     15  H   UNL     1      69.660  38.266  20.744  1.00  0.00     0.293 HD
ENDBRANCH   6  14
TORSDOF 4
ENDMDL
MODEL 5
REMARK VINA RESULT:    -3.514      3.248      4.856
REMARK INTER + INTRA:          -4.262
REMARK INTER:                  -4.133
REMARK INTRA:                  -0.129
REMARK UNBOUND:                -0.132
REMARK SMILES O=C([O-])C=Cc1ccc(O)c(O)c1
REMARK SMILES IDX 6 1 13 2 7 3 11 4 8 5 9 6 5 7 4 8 2 9 1 10 3 11 12 12 10 14
REMARK H PARENT 12 13 10 15
REMARK Flexibility Score: inf
ROOT
ATOM      1  C   UNL     1      73.202  41.037  21.514  1.00  0.00    -0.022 A 
ATOM      2  C   UNL     1      72.816  39.894  20.794  1.00  0.00     0.058 A 
ATOM      3  C   UNL     1      74.498  41.557  21.322  1.00  0.00     0.012 A 
ATOM      4  C   UNL     1      73.712  39.263  19.918  1.00  0.00     0.157 A 
ATOM      5  C   UNL     1      75.389  40.928  20.447  1.00  0.00     0.051 A 
ATOM      6  C   UNL     1      75.001  39.781  19.747  1.00  0.00     0.157 A 
ENDROOT
BRANCH   1   7
ATOM      7  C   UNL     1      72.215  41.672  22.422  1.00  0.00     0.010 C 
ATOM      8  C   UNL     1      71.002  42.088  22.031  1.00  0.00     0.025 C 
BRANCH   8   9
ATOM      9  C   UNL     1      70.053  42.725  22.960  1.00  0.00     0.064 C 
ATOM     10  O   UNL     1      70.389  43.018  24.137  1.00  0.00    -0.545 OA
ATOM     11  O   UNL     1      68.762  43.005  22.529  1.00  0.00    -0.545 OA
ENDBRANCH   8   9
ENDBRANCH   1   7
BRANCH   4  12
ATOM     12  O   UNL     1      73.326  38.124  19.214  1.00  0.00    -0.504 OA
ATOM     13  H   UNL     1      73.757  37.223  19.385  1.00  0.00     0.293 HD
ENDBRANCH   4  12
BRANCH   6  14
ATOM     14  O   UNL     1      75.888  39.152  18.875  1.00  0.00    -0.504 OA
ATOM     15  H   UNL     1      76.029  38.148  18.896  1.00  0.00     0.293 HD
ENDBRANCH   6  14
TORSDOF 4
ENDMDL
MODEL 6
REMARK VINA RESULT:    -3.381      1.510      5.862
REMARK INTER + INTRA:          -4.105
REMARK INTER:                  -3.976
REMARK INTRA:                  -0.129
REMARK UNBOUND:                -0.132
REMARK SMILES O=C([O-])C=Cc1ccc(O)c(O)c1
REMARK SMILES IDX 6 1 13 2 7 3 11 4 8 5 9 6 5 7 4 8 2 9 1 10 3 11 12 12 10 14
REMARK H PARENT 12 13 10 15
REMARK Flexibility Score: inf
ROOT
ATOM      1  C   UNL     1      73.481  40.235  20.992  1.00  0.00    -0.022 A 
ATOM      2  C   UNL     1      73.371  38.836  21.067  1.00  0.00     0.058 A 
ATOM      3  C   UNL     1      72.521  40.954  20.252  1.00  0.00     0.012 A 
ATOM      4  C   UNL     1      72.340  38.162  20.397  1.00  0.00     0.157 A 
ATOM      5  C   UNL     1      71.492  40.281  19.586  1.00  0.00     0.051 A 
ATOM      6  C   UNL     1      71.400  38.887  19.653  1.00  0.00     0.157 A 
ENDROOT
BRANCH   1   7
ATOM      7  C   UNL     1      74.585  40.902  21.726  1.00  0.00     0.010 C 
ATOM      8  C   UNL     1      74.845  40.701  23.025  1.00  0.00     0.025 C 
BRANCH   8   9
ATOM      9  C   UNL     1      75.944  41.391  23.723  1.00  0.00     0.064 C 
ATOM     10  O   UNL     1      76.363  42.512  23.331  1.00  0.00    -0.545 OA
ATOM     11  O   UNL     1      76.530  40.793  24.831  1.00  0.00    -0.545 OA
ENDBRANCH   8   9
ENDBRANCH   1   7
BRANCH   4  12
ATOM     12  O   UNL     1      72.242  36.774  20.468  1.00  0.00    -0.504 OA
ATOM     13  H   UNL     1      73.032  36.199  20.737  1.00  0.00     0.293 HD
ENDBRANCH   4  12
BRANCH   6  14
ATOM     14  O   UNL     1      70.377  38.213  18.990  1.00  0.00    -0.504 OA
ATOM     15  H   UNL     1      70.275  38.265  17.982  1.00  0.00     0.293 HD
ENDBRANCH   6  14
TORSDOF 4
ENDMDL
MODEL 7
REMARK VINA RESULT:    -3.229      1.697      5.834
REMARK INTER + INTRA:          -3.928
REMARK INTER:                  -3.798
REMARK INTRA:                  -0.130
REMARK UNBOUND:                -0.132
REMARK SMILES O=C([O-])C=Cc1ccc(O)c(O)c1
REMARK SMILES IDX 6 1 13 2 7 3 11 4 8 5 9 6 5 7 4 8 2 9 1 10 3 11 12 12 10 14
REMARK H PARENT 12 13 10 15
REMARK Flexibility Score: inf
ROOT
ATOM      1  C   UNL     1      73.421  40.041  21.062  1.00  0.00    -0.022 A 
ATOM      2  C   UNL     1      72.526  40.818  20.309  1.00  0.00     0.058 A 
ATOM      3  C   UNL     1      73.252  38.642  21.088  1.00  0.00     0.012 A 
ATOM      4  C   UNL     1      71.466  40.218  19.613  1.00  0.00     0.157 A 
ATOM      5  C   UNL     1      72.195  38.045  20.393  1.00  0.00     0.051 A 
ATOM      6  C   UNL     1      71.300  38.829  19.658  1.00  0.00     0.157 A 
ENDROOT
BRANCH   1   7
ATOM      7  C   UNL     1      74.531  40.723  21.772  1.00  0.00     0.010 C 
ATOM      8  C   UNL     1      74.784  40.572  23.080  1.00  0.00     0.025 C 
BRANCH   8   9
ATOM      9  C   UNL     1      75.889  41.276  23.753  1.00  0.00     0.064 C 
ATOM     10  O   UNL     1      76.297  42.395  23.342  1.00  0.00    -0.545 OA
ATOM     11  O   UNL     1      76.496  40.694  24.859  1.00  0.00    -0.545 OA
ENDBRANCH   8   9
ENDBRANCH   1   7
BRANCH   4  12
ATOM     12  O   UNL     1      70.576  40.997  18.875  1.00  0.00    -0.504 OA
ATOM     13  H   UNL     1      70.466  40.872  17.875  1.00  0.00     0.293 HD
ENDBRANCH   4  12
BRANCH   6  14
ATOM     14  O   UNL     1      70.245  38.237  18.966  1.00  0.00    -0.504 OA
ATOM     15  H   UNL     1      69.539  38.794  18.499  1.00  0.00     0.293 HD
ENDBRANCH   6  14
TORSDOF 4
ENDMDL
MODEL 8
REMARK VINA RESULT:    -3.161      1.770      5.759
REMARK INTER + INTRA:          -3.848
REMARK INTER:                  -3.715
REMARK INTRA:                  -0.133
REMARK UNBOUND:                -0.132
REMARK SMILES O=C([O-])C=Cc1ccc(O)c(O)c1
REMARK SMILES IDX 6 1 13 2 7 3 11 4 8 5 9 6 5 7 4 8 2 9 1 10 3 11 12 12 10 14
REMARK H PARENT 12 13 10 15
REMARK Flexibility Score: inf
ROOT
ATOM      1  C   UNL     1      74.143  39.902  19.958  1.00  0.00    -0.022 A 
ATOM      2  C   UNL     1      73.210  40.324  20.920  1.00  0.00     0.058 A 
ATOM      3  C   UNL     1      73.886  38.722  19.233  1.00  0.00     0.012 A 
ATOM      4  C   UNL     1      72.054  39.572  21.175  1.00  0.00     0.157 A 
ATOM      5  C   UNL     1      72.732  37.974  19.486  1.00  0.00     0.051 A 
ATOM      6  C   UNL     1      71.816  38.393  20.457  1.00  0.00     0.157 A 
ENDROOT
BRANCH   1   7
ATOM      7  C   UNL     1      75.346  40.738  19.721  1.00  0.00     0.010 C 
ATOM      8  C   UNL     1      75.566  41.916  20.320  1.00  0.00     0.025 C 
BRANCH   8   9
ATOM      9  C   UNL     1      76.768  42.724  20.049  1.00  0.00     0.064 C 
ATOM     10  O   UNL     1      77.077  43.059  18.876  1.00  0.00    -0.545 OA
ATOM     11  O   UNL     1      77.576  43.120  21.108  1.00  0.00    -0.545 OA
ENDBRANCH   8   9
ENDBRANCH   1   7
BRANCH   4  12
ATOM     12  O   UNL     1      71.137  39.991  22.137  1.00  0.00    -0.504 OA
ATOM     13  H   UNL     1      71.313  39.867  23.127  1.00  0.00     0.293 HD
ENDBRANCH   4  12
BRANCH   6  14
ATOM     14  O   UNL     1      70.666  37.649  20.713  1.00  0.00    -0.504 OA
ATOM     15  H   UNL     1      69.791  37.848  20.242  1.00  0.00     0.293 HD
ENDBRANCH   6  14
TORSDOF 4
ENDMDL
