MODEL 1
REMARK VINA RESULT:    -3.631      0.000      0.000
REMARK INTER + INTRA:          -4.370
REMARK INTER:                  -4.267
REMARK INTRA:                  -0.103
REMARK UNBOUND:                -0.103
REMARK SMILES CCCCC(=O)[O-]
REMARK SMILES IDX 4 1 5 2 6 3 7 4 3 5 2 6 1 7
REMARK H PARENT
REMARK Flexibility Score: inf
ROOT
ATOM      1  C   UNL     1     -56.412 120.904  -9.510  1.00  0.00     0.053 C 
ENDROOT
BRANCH   1   2
ATOM      2  C   UNL     1     -56.999 120.062 -10.598  1.00  0.00     0.041 C 
ATOM      3  O   UNL     1     -56.577 118.891 -10.791  1.00  0.00    -0.550 OA
ATOM      4  O   UNL     1     -58.045 120.553 -11.369  1.00  0.00    -0.550 OA
ENDBRANCH   1   2
BRANCH   1   5
ATOM      5  C   UNL     1     -55.122 121.575  -9.988  1.00  0.00     0.006 C 
BRANCH   5   6
ATOM      6  C   UNL     1     -53.939 121.201  -9.086  1.00  0.00    -0.003 C 
ATOM      7  C   UNL     1     -53.321 119.872  -9.510  1.00  0.00     0.004 C 
ENDBRANCH   5   6
ENDBRANCH   1   5
TORSDOF 3
ENDMDL
MODEL 2
REMARK VINA RESULT:    -3.618      0.081      1.226
REMARK INTER + INTRA:          -4.356
REMARK INTER:                  -4.254
REMARK INTRA:                  -0.102
REMARK UNBOUND:                -0.103
REMARK SMILES CCCCC(=O)[O-]
REMARK SMILES IDX 4 1 5 2 6 3 7 4 3 5 2 6 1 7
REMARK H PARENT
REMARK Flexibility Score: inf
ROOT
ATOM      1  C   UNL     1     -56.408 120.937  -9.476  1.00  0.00     0.053 C 
ENDROOT
BRANCH   1   2
ATOM      2  C   UNL     1     -57.037 120.087 -10.534  1.00  0.00     0.041 C 
ATOM      3  O   UNL     1     -57.961 120.551 -11.252  1.00  0.00    -0.550 OA
ATOM      4  O   UNL     1     -56.571 118.798 -10.758  1.00  0.00    -0.550 OA
ENDBRANCH   1   2
BRANCH   1   5
ATOM      5  C   UNL     1     -55.109 121.563  -9.992  1.00  0.00     0.006 C 
BRANCH   5   6
ATOM      6  C   UNL     1     -53.919 121.167  -9.111  1.00  0.00    -0.003 C 
ATOM      7  C   UNL     1     -53.313 119.842  -9.564  1.00  0.00     0.004 C 
ENDBRANCH   5   6
ENDBRANCH   1   5
TORSDOF 3
ENDMDL
MODEL 3
REMARK VINA RESULT:    -3.555      1.962      2.214
REMARK INTER + INTRA:          -4.282
REMARK INTER:                  -4.162
REMARK INTRA:                  -0.120
REMARK UNBOUND:                -0.103
REMARK SMILES CCCCC(=O)[O-]
REMARK SMILES IDX 4 1 5 2 6 3 7 4 3 5 2 6 1 7
REMARK H PARENT
REMARK Flexibility Score: inf
ROOT
ATOM      1  C   UNL     1     -55.712 120.294 -10.184  1.00  0.00     0.053 C 
ENDROOT
BRANCH   1   2
ATOM      2  C   UNL     1     -56.257 121.684 -10.091  1.00  0.00     0.041 C 
ATOM      3  O   UNL     1     -56.856 122.060  -9.049  1.00  0.00    -0.550 OA
ATOM      4  O   UNL     1     -56.061 122.579 -11.135  1.00  0.00    -0.550 OA
ENDBRANCH   1   2
BRANCH   1   5
ATOM      5  C   UNL     1     -54.187 120.323 -10.315  1.00  0.00     0.006 C 
BRANCH   5   6
ATOM      6  C   UNL     1     -53.535 120.865  -9.037  1.00  0.00    -0.003 C 
ATOM      7  C   UNL     1     -52.724 122.125  -9.323  1.00  0.00     0.004 C 
ENDBRANCH   5   6
ENDBRANCH   1   5
TORSDOF 3
ENDMDL
MODEL 4
REMARK VINA RESULT:    -3.547      0.764      1.184
REMARK INTER + INTRA:          -4.272
REMARK INTER:                  -4.244
REMARK INTRA:                  -0.029
REMARK UNBOUND:                -0.103
REMARK SMILES CCCCC(=O)[O-]
REMARK SMILES IDX 4 1 5 2 6 3 7 4 3 5 2 6 1 7
REMARK H PARENT
REMARK Flexibility Score: inf
ROOT
ATOM      1  C   UNL     1     -55.812 120.795  -9.834  1.00  0.00     0.053 C 
ENDROOT
BRANCH   1   2
ATOM      2  C   UNL     1     -56.779 119.970 -10.623  1.00  0.00     0.041 C 
ATOM      3  O   UNL     1     -56.581 118.735 -10.775  1.00  0.00    -0.550 OA
ATOM      4  O   UNL     1     -57.923 120.554 -11.150  1.00  0.00    -0.550 OA
ENDBRANCH   1   2
BRANCH   1   5
ATOM      5  C   UNL     1     -54.388 120.259 -10.002  1.00  0.00     0.006 C 
BRANCH   5   6
ATOM      6  C   UNL     1     -53.460 120.810  -8.912  1.00  0.00    -0.003 C 
ATOM      7  C   UNL     1     -53.505 122.334  -8.867  1.00  0.00     0.004 C 
ENDBRANCH   5   6
ENDBRANCH   1   5
TORSDOF 3
ENDMDL
MODEL 5
REMARK VINA RESULT:    -3.399      2.500      3.568
REMARK INTER + INTRA:          -4.098
REMARK INTER:                  -4.018
REMARK INTRA:                  -0.081
REMARK UNBOUND:                -0.103
REMARK SMILES CCCCC(=O)[O-]
REMARK SMILES IDX 4 1 5 2 6 3 7 4 3 5 2 6 1 7
REMARK H PARENT
REMARK Flexibility Score: inf
ROOT
ATOM      1  C   UNL     1     -54.625 120.475  -9.643  1.00  0.00     0.053 C 
ENDROOT
BRANCH   1   2
ATOM      2  C   UNL     1     -55.020 121.791  -9.051  1.00  0.00     0.041 C 
ATOM      3  O   UNL     1     -54.207 122.753  -9.048  1.00  0.00    -0.550 OA
ATOM      4  O   UNL     1     -56.302 121.971  -8.546  1.00  0.00    -0.550 OA
ENDBRANCH   1   2
BRANCH   1   5
ATOM      5  C   UNL     1     -55.271 120.290 -11.018  1.00  0.00     0.006 C 
BRANCH   5   6
ATOM      6  C   UNL     1     -56.562 119.469 -10.915  1.00  0.00    -0.003 C 
ATOM      7  C   UNL     1     -57.722 120.175 -11.609  1.00  0.00     0.004 C 
ENDBRANCH   5   6
ENDBRANCH   1   5
TORSDOF 3
ENDMDL
MODEL 6
REMARK VINA RESULT:    -3.115      1.706      2.370
REMARK INTER + INTRA:          -3.764
REMARK INTER:                  -3.687
REMARK INTRA:                  -0.078
REMARK UNBOUND:                -0.103
REMARK SMILES CCCCC(=O)[O-]
REMARK SMILES IDX 4 1 5 2 6 3 7 4 3 5 2 6 1 7
REMARK H PARENT
REMARK Flexibility Score: inf
ROOT
ATOM      1  C   UNL     1     -53.731 120.016  -9.798  1.00  0.00     0.053 C 
ENDROOT
BRANCH   1   2
ATOM      2  C   UNL     1     -55.099 120.134 -10.391  1.00  0.00     0.041 C 
ATOM      3  O   UNL     1     -55.980 120.829  -9.818  1.00  0.00    -0.550 OA
ATOM      4  O   UNL     1     -55.389 119.516 -11.601  1.00  0.00    -0.550 OA
ENDBRANCH   1   2
BRANCH   1   5
ATOM      5  C   UNL     1     -53.489 121.134  -8.780  1.00  0.00     0.006 C 
BRANCH   5   6
ATOM      6  C   UNL     1     -52.626 122.250  -9.382  1.00  0.00    -0.003 C 
ATOM      7  C   UNL     1     -51.481 121.676 -10.212  1.00  0.00     0.004 C 
ENDBRANCH   5   6
ENDBRANCH   1   5
TORSDOF 3
ENDMDL
MODEL 7
REMARK VINA RESULT:    -3.098      2.440      3.686
REMARK INTER + INTRA:          -3.744
REMARK INTER:                  -3.632
REMARK INTRA:                  -0.113
REMARK UNBOUND:                -0.103
REMARK SMILES CCCCC(=O)[O-]
REMARK SMILES IDX 4 1 5 2 6 3 7 4 3 5 2 6 1 7
REMARK H PARENT
REMARK Flexibility Score: inf
ROOT
ATOM      1  C   UNL     1     -54.837 121.549  -9.336  1.00  0.00     0.053 C 
ENDROOT
BRANCH   1   2
ATOM      2  C   UNL     1     -54.352 122.275 -10.551  1.00  0.00     0.041 C 
ATOM      3  O   UNL     1     -55.119 123.063 -11.166  1.00  0.00    -0.550 OA
ATOM      4  O   UNL     1     -53.039 122.118 -10.977  1.00  0.00    -0.550 OA
ENDBRANCH   1   2
BRANCH   1   5
ATOM      5  C   UNL     1     -56.326 121.218  -9.467  1.00  0.00     0.006 C 
BRANCH   5   6
ATOM      6  C   UNL     1     -56.535 119.928 -10.269  1.00  0.00    -0.003 C 
ATOM      7  C   UNL     1     -57.524 120.142 -11.411  1.00  0.00     0.004 C 
ENDBRANCH   5   6
ENDBRANCH   1   5
TORSDOF 3
ENDMDL
MODEL 8
REMARK VINA RESULT:    -2.949      3.030      3.915
REMARK INTER + INTRA:          -3.570
REMARK INTER:                  -3.512
REMARK INTRA:                  -0.058
REMARK UNBOUND:                -0.103
REMARK SMILES CCCCC(=O)[O-]
REMARK SMILES IDX 4 1 5 2 6 3 7 4 3 5 2 6 1 7
REMARK H PARENT
REMARK Flexibility Score: inf
ROOT
ATOM      1  C   UNL     1     -54.186 120.928  -9.253  1.00  0.00     0.053 C 
ENDROOT
BRANCH   1   2
ATOM      2  C   UNL     1     -53.488 122.233  -9.470  1.00  0.00     0.041 C 
ATOM      3  O   UNL     1     -52.581 122.329 -10.339  1.00  0.00    -0.550 OA
ATOM      4  O   UNL     1     -53.870 123.355  -8.747  1.00  0.00    -0.550 OA
ENDBRANCH   1   2
BRANCH   1   5
ATOM      5  C   UNL     1     -55.704 121.126  -9.249  1.00  0.00     0.006 C 
BRANCH   5   6
ATOM      6  C   UNL     1     -56.288 120.941 -10.654  1.00  0.00    -0.003 C 
ATOM      7  C   UNL     1     -56.907 119.557 -10.817  1.00  0.00     0.004 C 
ENDBRANCH   5   6
ENDBRANCH   1   5
TORSDOF 3
ENDMDL
MODEL 9
REMARK VINA RESULT:    -2.945      1.491      1.841
REMARK INTER + INTRA:          -3.564
REMARK INTER:                  -3.556
REMARK INTRA:                  -0.008
REMARK UNBOUND:                -0.103
REMARK SMILES CCCCC(=O)[O-]
REMARK SMILES IDX 4 1 5 2 6 3 7 4 3 5 2 6 1 7
REMARK H PARENT
REMARK Flexibility Score: inf
ROOT
ATOM      1  C   UNL     1     -55.913 121.410 -10.843  1.00  0.00     0.053 C 
ENDROOT
BRANCH   1   2
ATOM      2  C   UNL     1     -55.842 119.968 -11.236  1.00  0.00     0.041 C 
ATOM      3  O   UNL     1     -55.028 119.593 -12.121  1.00  0.00    -0.550 OA
ATOM      4  O   UNL     1     -56.641 119.032 -10.593  1.00  0.00    -0.550 OA
ENDBRANCH   1   2
BRANCH   1   5
ATOM      5  C   UNL     1     -54.589 122.115 -11.148  1.00  0.00     0.006 C 
BRANCH   5   6
ATOM      6  C   UNL     1     -53.519 121.752 -10.110  1.00  0.00    -0.003 C 
ATOM      7  C   UNL     1     -53.898 122.265  -8.724  1.00  0.00     0.004 C 
ENDBRANCH   5   6
ENDBRANCH   1   5
TORSDOF 3
ENDMDL
