MODEL 1
REMARK VINA RESULT:    -4.028      0.000      0.000
REMARK INTER + INTRA:          -5.648
REMARK INTER:                  -5.441
REMARK INTRA:                  -0.207
REMARK UNBOUND:                -0.207
REMARK SMILES CCCCCCCC(=O)[O-]
REMARK SMILES IDX 5 1 6 2 7 3 8 4 9 5 10 6 4 7 3 8 2 9 1 10
REMARK H PARENT
REMARK Flexibility Score: inf
ROOT
ATOM      1  C   UNL     1       5.662  -1.291  -6.338  1.00  0.00     0.000 C 
ENDROOT
BRANCH   1   2
ATOM      2  C   UNL     1       6.538  -2.346  -5.645  1.00  0.00     0.006 C 
BRANCH   2   3
ATOM      3  C   UNL     1       5.812  -3.692  -5.564  1.00  0.00     0.053 C 
BRANCH   3   4
ATOM      4  C   UNL     1       6.780  -4.791  -5.256  1.00  0.00     0.041 C 
ATOM      5  O   UNL     1       7.301  -4.874  -4.112  1.00  0.00    -0.550 OA
ATOM      6  O   UNL     1       7.145  -5.694  -6.246  1.00  0.00    -0.550 OA
ENDBRANCH   3   4
ENDBRANCH   2   3
ENDBRANCH   1   2
BRANCH   1   7
ATOM      7  C   UNL     1       4.757  -0.533  -5.354  1.00  0.00     0.000 C 
BRANCH   7   8
ATOM      8  C   UNL     1       5.300   0.861  -5.002  1.00  0.00    -0.000 C 
BRANCH   8   9
ATOM      9  C   UNL     1       5.335   1.762  -6.241  1.00  0.00    -0.003 C 
ATOM     10  C   UNL     1       3.930   2.008  -6.784  1.00  0.00     0.004 C 
ENDBRANCH   8   9
ENDBRANCH   7   8
ENDBRANCH   1   7
TORSDOF 6
ENDMDL
MODEL 2
REMARK VINA RESULT:    -3.941      1.171      1.772
REMARK INTER + INTRA:          -5.529
REMARK INTER:                  -5.163
REMARK INTRA:                  -0.367
REMARK UNBOUND:                -0.207
REMARK SMILES CCCCCCCC(=O)[O-]
REMARK SMILES IDX 5 1 6 2 7 3 8 4 9 5 10 6 4 7 3 8 2 9 1 10
REMARK H PARENT
REMARK Flexibility Score: inf
ROOT
ATOM      1  C   UNL     1       6.379  -2.089  -6.947  1.00  0.00     0.000 C 
ENDROOT
BRANCH   1   2
ATOM      2  C   UNL     1       5.993  -3.576  -6.904  1.00  0.00     0.006 C 
BRANCH   2   3
ATOM      3  C   UNL     1       5.805  -4.050  -5.459  1.00  0.00     0.053 C 
BRANCH   3   4
ATOM      4  C   UNL     1       7.023  -4.775  -4.983  1.00  0.00     0.041 C 
ATOM      5  O   UNL     1       7.145  -5.079  -3.767  1.00  0.00    -0.550 OA
ATOM      6  O   UNL     1       8.048  -5.073  -5.872  1.00  0.00    -0.550 OA
ENDBRANCH   3   4
ENDBRANCH   2   3
ENDBRANCH   1   2
BRANCH   1   7
ATOM      7  C   UNL     1       5.394  -1.245  -7.772  1.00  0.00     0.000 C 
BRANCH   7   8
ATOM      8  C   UNL     1       4.943   0.026  -7.037  1.00  0.00    -0.000 C 
BRANCH   8   9
ATOM      9  C   UNL     1       4.728  -0.252  -5.545  1.00  0.00    -0.003 C 
ATOM     10  C   UNL     1       5.413   0.805  -4.683  1.00  0.00     0.004 C 
ENDBRANCH   8   9
ENDBRANCH   7   8
ENDBRANCH   1   7
TORSDOF 6
ENDMDL
MODEL 3
REMARK VINA RESULT:    -3.711      3.739      5.828
REMARK INTER + INTRA:          -5.219
REMARK INTER:                  -4.957
REMARK INTRA:                  -0.262
REMARK UNBOUND:                -0.207
REMARK SMILES CCCCCCCC(=O)[O-]
REMARK SMILES IDX 5 1 6 2 7 3 8 4 9 5 10 6 4 7 3 8 2 9 1 10
REMARK H PARENT
REMARK Flexibility Score: inf
ROOT
ATOM      1  C   UNL     1       6.007  -1.247  -5.648  1.00  0.00     0.000 C 
ENDROOT
BRANCH   1   2
ATOM      2  C   UNL     1       4.778  -0.363  -5.389  1.00  0.00     0.006 C 
BRANCH   2   3
ATOM      3  C   UNL     1       5.192   1.091  -5.139  1.00  0.00     0.053 C 
BRANCH   3   4
ATOM      4  C   UNL     1       4.889   1.935  -6.336  1.00  0.00     0.041 C 
ATOM      5  O   UNL     1       3.704   2.045  -6.749  1.00  0.00    -0.550 OA
ATOM      6  O   UNL     1       5.919   2.560  -7.026  1.00  0.00    -0.550 OA
ENDBRANCH   3   4
ENDBRANCH   2   3
ENDBRANCH   1   2
BRANCH   1   7
ATOM      7  C   UNL     1       5.957  -1.946  -7.016  1.00  0.00     0.000 C 
BRANCH   7   8
ATOM      8  C   UNL     1       6.209  -3.459  -6.918  1.00  0.00    -0.000 C 
BRANCH   8   9
ATOM      9  C   UNL     1       5.727  -4.007  -5.570  1.00  0.00    -0.003 C 
ATOM     10  C   UNL     1       6.864  -4.689  -4.814  1.00  0.00     0.004 C 
ENDBRANCH   8   9
ENDBRANCH   7   8
ENDBRANCH   1   7
TORSDOF 6
ENDMDL
MODEL 4
REMARK VINA RESULT:    -3.561      3.197      5.822
REMARK INTER + INTRA:          -5.017
REMARK INTER:                  -4.835
REMARK INTRA:                  -0.182
REMARK UNBOUND:                -0.207
REMARK SMILES CCCCCCCC(=O)[O-]
REMARK SMILES IDX 5 1 6 2 7 3 8 4 9 5 10 6 4 7 3 8 2 9 1 10
REMARK H PARENT
REMARK Flexibility Score: inf
ROOT
ATOM      1  C   UNL     1       6.458  -2.216  -5.593  1.00  0.00     0.000 C 
ENDROOT
BRANCH   1   2
ATOM      2  C   UNL     1       5.650  -1.224  -6.443  1.00  0.00     0.006 C 
BRANCH   2   3
ATOM      3  C   UNL     1       4.649  -0.452  -5.578  1.00  0.00     0.053 C 
BRANCH   3   4
ATOM      4  C   UNL     1       5.181   0.907  -5.248  1.00  0.00     0.041 C 
ATOM      5  O   UNL     1       5.492   1.193  -4.061  1.00  0.00    -0.550 OA
ATOM      6  O   UNL     1       5.286   1.873  -6.239  1.00  0.00    -0.550 OA
ENDBRANCH   3   4
ENDBRANCH   2   3
ENDBRANCH   1   2
BRANCH   1   7
ATOM      7  C   UNL     1       5.740  -3.562  -5.410  1.00  0.00     0.000 C 
BRANCH   7   8
ATOM      8  C   UNL     1       6.701  -4.701  -5.036  1.00  0.00    -0.000 C 
BRANCH   8   9
ATOM      9  C   UNL     1       7.525  -5.142  -6.251  1.00  0.00    -0.003 C 
ATOM     10  C   UNL     1       8.187  -6.495  -6.006  1.00  0.00     0.004 C 
ENDBRANCH   8   9
ENDBRANCH   7   8
ENDBRANCH   1   7
TORSDOF 6
ENDMDL
MODEL 5
REMARK VINA RESULT:    -3.444      1.158      1.393
REMARK INTER + INTRA:          -4.858
REMARK INTER:                  -4.608
REMARK INTRA:                  -0.250
REMARK UNBOUND:                -0.207
REMARK SMILES CCCCCCCC(=O)[O-]
REMARK SMILES IDX 5 1 6 2 7 3 8 4 9 5 10 6 4 7 3 8 2 9 1 10
REMARK H PARENT
REMARK Flexibility Score: inf
ROOT
ATOM      1  C   UNL     1       6.649  -1.113  -6.061  1.00  0.00     0.000 C 
ENDROOT
BRANCH   1   2
ATOM      2  C   UNL     1       6.965  -2.513  -5.511  1.00  0.00     0.006 C 
BRANCH   2   3
ATOM      3  C   UNL     1       5.730  -3.417  -5.575  1.00  0.00     0.053 C 
BRANCH   3   4
ATOM      4  C   UNL     1       5.964  -4.557  -6.514  1.00  0.00     0.041 C 
ATOM      5  O   UNL     1       6.865  -5.403  -6.271  1.00  0.00    -0.550 OA
ATOM      6  O   UNL     1       5.222  -4.658  -7.684  1.00  0.00    -0.550 OA
ENDBRANCH   3   4
ENDBRANCH   2   3
ENDBRANCH   1   2
BRANCH   1   7
ATOM      7  C   UNL     1       5.156  -0.761  -5.964  1.00  0.00     0.000 C 
BRANCH   7   8
ATOM      8  C   UNL     1       4.910   0.596  -5.287  1.00  0.00    -0.000 C 
BRANCH   8   9
ATOM      9  C   UNL     1       4.354   1.614  -6.288  1.00  0.00    -0.003 C 
ATOM     10  C   UNL     1       4.134   0.978  -7.658  1.00  0.00     0.004 C 
ENDBRANCH   8   9
ENDBRANCH   7   8
ENDBRANCH   1   7
TORSDOF 6
ENDMDL
MODEL 6
REMARK VINA RESULT:    -3.365      1.603      2.143
REMARK INTER + INTRA:          -4.752
REMARK INTER:                  -4.388
REMARK INTRA:                  -0.364
REMARK UNBOUND:                -0.207
REMARK SMILES CCCCCCCC(=O)[O-]
REMARK SMILES IDX 5 1 6 2 7 3 8 4 9 5 10 6 4 7 3 8 2 9 1 10
REMARK H PARENT
REMARK Flexibility Score: inf
ROOT
ATOM      1  C   UNL     1       5.956  -0.039  -5.283  1.00  0.00     0.000 C 
ENDROOT
BRANCH   1   2
ATOM      2  C   UNL     1       6.681  -1.049  -6.186  1.00  0.00     0.006 C 
BRANCH   2   3
ATOM      3  C   UNL     1       6.461  -2.482  -5.691  1.00  0.00     0.053 C 
BRANCH   3   4
ATOM      4  C   UNL     1       5.938  -3.343  -6.796  1.00  0.00     0.041 C 
ATOM      5  O   UNL     1       5.719  -2.850  -7.934  1.00  0.00    -0.550 OA
ATOM      6  O   UNL     1       5.643  -4.679  -6.557  1.00  0.00    -0.550 OA
ENDBRANCH   3   4
ENDBRANCH   2   3
ENDBRANCH   1   2
BRANCH   1   7
ATOM      7  C   UNL     1       4.442   0.007  -5.541  1.00  0.00     0.000 C 
BRANCH   7   8
ATOM      8  C   UNL     1       4.068   0.940  -6.704  1.00  0.00    -0.000 C 
BRANCH   8   9
ATOM      9  C   UNL     1       4.522   2.377  -6.420  1.00  0.00    -0.003 C 
ATOM     10  C   UNL     1       5.404   2.909  -7.547  1.00  0.00     0.004 C 
ENDBRANCH   8   9
ENDBRANCH   7   8
ENDBRANCH   1   7
TORSDOF 6
ENDMDL
MODEL 7
REMARK VINA RESULT:    -3.355      1.715      2.535
REMARK INTER + INTRA:          -4.738
REMARK INTER:                  -4.396
REMARK INTRA:                  -0.342
REMARK UNBOUND:                -0.207
REMARK SMILES CCCCCCCC(=O)[O-]
REMARK SMILES IDX 5 1 6 2 7 3 8 4 9 5 10 6 4 7 3 8 2 9 1 10
REMARK H PARENT
REMARK Flexibility Score: inf
ROOT
ATOM      1  C   UNL     1       5.238   1.173  -5.457  1.00  0.00     0.000 C 
ENDROOT
BRANCH   1   2
ATOM      2  C   UNL     1       6.037  -0.115  -5.207  1.00  0.00     0.006 C 
BRANCH   2   3
ATOM      3  C   UNL     1       5.467  -1.279  -6.023  1.00  0.00     0.053 C 
BRANCH   3   4
ATOM      4  C   UNL     1       6.185  -2.550  -5.697  1.00  0.00     0.041 C 
ATOM      5  O   UNL     1       7.440  -2.555  -5.578  1.00  0.00    -0.550 OA
ATOM      6  O   UNL     1       5.478  -3.738  -5.573  1.00  0.00    -0.550 OA
ENDBRANCH   3   4
ENDBRANCH   2   3
ENDBRANCH   1   2
BRANCH   1   7
ATOM      7  C   UNL     1       4.127   0.988  -6.503  1.00  0.00     0.000 C 
BRANCH   7   8
ATOM      8  C   UNL     1       4.077   2.136  -7.524  1.00  0.00    -0.000 C 
BRANCH   8   9
ATOM      9  C   UNL     1       5.487   2.509  -7.997  1.00  0.00    -0.003 C 
ATOM     10  C   UNL     1       5.765   3.994  -7.786  1.00  0.00     0.004 C 
ENDBRANCH   8   9
ENDBRANCH   7   8
ENDBRANCH   1   7
TORSDOF 6
ENDMDL
MODEL 8
REMARK VINA RESULT:    -3.275      3.309      5.261
REMARK INTER + INTRA:          -4.630
REMARK INTER:                  -4.272
REMARK INTRA:                  -0.358
REMARK UNBOUND:                -0.207
REMARK SMILES CCCCCCCC(=O)[O-]
REMARK SMILES IDX 5 1 6 2 7 3 8 4 9 5 10 6 4 7 3 8 2 9 1 10
REMARK H PARENT
REMARK Flexibility Score: inf
ROOT
ATOM      1  C   UNL     1       7.267  -2.217  -6.269  1.00  0.00     0.000 C 
ENDROOT
BRANCH   1   2
ATOM      2  C   UNL     1       6.396  -0.993  -6.594  1.00  0.00     0.006 C 
BRANCH   2   3
ATOM      3  C   UNL     1       5.187  -0.917  -5.657  1.00  0.00     0.053 C 
BRANCH   3   4
ATOM      4  C   UNL     1       4.856   0.507  -5.344  1.00  0.00     0.041 C 
ATOM      5  O   UNL     1       4.137   1.178  -6.132  1.00  0.00    -0.550 OA
ATOM      6  O   UNL     1       5.379   1.111  -4.208  1.00  0.00    -0.550 OA
ENDBRANCH   3   4
ENDBRANCH   2   3
ENDBRANCH   1   2
BRANCH   1   7
ATOM      7  C   UNL     1       6.540  -3.243  -5.384  1.00  0.00     0.000 C 
BRANCH   7   8
ATOM      8  C   UNL     1       6.029  -4.454  -6.179  1.00  0.00    -0.000 C 
BRANCH   8   9
ATOM      9  C   UNL     1       6.489  -4.383  -7.640  1.00  0.00    -0.003 C 
ATOM     10  C   UNL     1       5.297  -4.280  -8.588  1.00  0.00     0.004 C 
ENDBRANCH   8   9
ENDBRANCH   7   8
ENDBRANCH   1   7
TORSDOF 6
ENDMDL
MODEL 9
REMARK VINA RESULT:    -3.148      3.905      5.761
REMARK INTER + INTRA:          -4.459
REMARK INTER:                  -3.899
REMARK INTRA:                  -0.560
REMARK UNBOUND:                -0.207
REMARK SMILES CCCCCCCC(=O)[O-]
REMARK SMILES IDX 5 1 6 2 7 3 8 4 9 5 10 6 4 7 3 8 2 9 1 10
REMARK H PARENT
REMARK Flexibility Score: inf
ROOT
ATOM      1  C   UNL     1       4.194   2.276  -6.391  1.00  0.00     0.000 C 
ENDROOT
BRANCH   1   2
ATOM      2  C   UNL     1       4.817   2.566  -7.764  1.00  0.00     0.006 C 
BRANCH   2   3
ATOM      3  C   UNL     1       6.010   3.519  -7.633  1.00  0.00     0.053 C 
BRANCH   3   4
ATOM      4  C   UNL     1       7.297   2.769  -7.770  1.00  0.00     0.041 C 
ATOM      5  O   UNL     1       7.852   2.665  -8.896  1.00  0.00    -0.550 OA
ATOM      6  O   UNL     1       7.858   2.143  -6.665  1.00  0.00    -0.550 OA
ENDBRANCH   3   4
ENDBRANCH   2   3
ENDBRANCH   1   2
BRANCH   1   7
ATOM      7  C   UNL     1       4.177   0.777  -6.052  1.00  0.00     0.000 C 
BRANCH   7   8
ATOM      8  C   UNL     1       5.263   0.387  -5.036  1.00  0.00    -0.000 C 
BRANCH   8   9
ATOM      9  C   UNL     1       6.108  -0.779  -5.560  1.00  0.00    -0.003 C 
ATOM     10  C   UNL     1       5.851  -1.024  -7.045  1.00  0.00     0.004 C 
ENDBRANCH   8   9
ENDBRANCH   7   8
ENDBRANCH   1   7
TORSDOF 6
ENDMDL
