MODEL 1
REMARK VINA RESULT:    -5.736      0.000      0.000
REMARK INTER + INTRA:          -6.895
REMARK INTER:                  -6.575
REMARK INTRA:                  -0.320
REMARK UNBOUND:                -0.320
REMARK SMILES COc1ccc(C(C)=O)c(O)c1
REMARK SMILES IDX 6 1 10 2 12 3 3 4 4 5 5 6 7 7 8 8 9 9 11 10 2 12 1 13
REMARK H PARENT 11 11
REMARK Flexibility Score: inf
ROOT
ATOM      1  C   UNL     1      28.412   6.728  32.400  1.00  0.00     0.059 A 
ATOM      2  C   UNL     1      29.798   6.574  32.159  1.00  0.00     0.130 A 
ATOM      3  C   UNL     1      30.303   5.346  31.708  1.00  0.00     0.093 A 
ATOM      4  C   UNL     1      29.443   4.255  31.484  1.00  0.00     0.122 A 
ATOM      5  C   UNL     1      28.076   4.409  31.720  1.00  0.00     0.047 A 
ATOM      6  C   UNL     1      27.563   5.627  32.172  1.00  0.00     0.019 A 
ENDROOT
BRANCH   1   7
ATOM      7  C   UNL     1      27.850   8.020  32.891  1.00  0.00     0.163 C 
ATOM      8  C   UNL     1      26.473   8.475  32.512  1.00  0.00     0.093 C 
ATOM      9  O   UNL     1      28.524   8.748  33.667  1.00  0.00    -0.294 OA
ENDBRANCH   1   7
BRANCH   2  10
ATOM     10  O   UNL     1      30.676   7.641  32.356  1.00  0.00    -0.507 OA
ATOM     11  H   UNL     1      30.354   8.542  32.690  1.00  0.00     0.293 HD
ENDBRANCH   2  10
BRANCH   4  12
ATOM     12  O   UNL     1      29.906   3.010  31.033  1.00  0.00    -0.497 OA
ATOM     13  C   UNL     1      29.063   1.909  30.708  1.00  0.00     0.278 C 
ENDBRANCH   4  12
TORSDOF 3
ENDMDL
MODEL 2
REMARK VINA RESULT:    -5.566      1.452      4.961
REMARK INTER + INTRA:          -6.699
REMARK INTER:                  -6.364
REMARK INTRA:                  -0.336
REMARK UNBOUND:                -0.320
REMARK SMILES COc1ccc(C(C)=O)c(O)c1
REMARK SMILES IDX 6 1 10 2 12 3 3 4 4 5 5 6 7 7 8 8 9 9 11 10 2 12 1 13
REMARK H PARENT 11 11
REMARK Flexibility Score: inf
ROOT
ATOM      1  C   UNL     1      29.816   5.032  31.725  1.00  0.00     0.059 A 
ATOM      2  C   UNL     1      28.429   4.842  31.937  1.00  0.00     0.130 A 
ATOM      3  C   UNL     1      27.639   5.897  32.416  1.00  0.00     0.093 A 
ATOM      4  C   UNL     1      28.208   7.154  32.686  1.00  0.00     0.122 A 
ATOM      5  C   UNL     1      29.575   7.341  32.473  1.00  0.00     0.047 A 
ATOM      6  C   UNL     1      30.371   6.297  31.999  1.00  0.00     0.019 A 
ENDROOT
BRANCH   1   7
ATOM      7  C   UNL     1      30.681   3.924  31.226  1.00  0.00     0.163 C 
ATOM      8  C   UNL     1      31.576   4.097  30.035  1.00  0.00     0.093 C 
ATOM      9  O   UNL     1      30.696   2.814  31.824  1.00  0.00    -0.294 OA
ENDBRANCH   1   7
BRANCH   2  10
ATOM     10  O   UNL     1      27.830   3.612  31.664  1.00  0.00    -0.507 OA
ATOM     11  H   UNL     1      26.920   3.367  32.036  1.00  0.00     0.293 HD
ENDBRANCH   2  10
BRANCH   4  12
ATOM     12  O   UNL     1      27.455   8.236  33.165  1.00  0.00    -0.497 OA
ATOM     13  C   UNL     1      26.860   9.231  32.339  1.00  0.00     0.278 C 
ENDBRANCH   4  12
TORSDOF 3
ENDMDL
MODEL 3
REMARK VINA RESULT:    -5.496      1.138      4.555
REMARK INTER + INTRA:          -6.619
REMARK INTER:                  -6.301
REMARK INTRA:                  -0.318
REMARK UNBOUND:                -0.320
REMARK SMILES COc1ccc(C(C)=O)c(O)c1
REMARK SMILES IDX 6 1 10 2 12 3 3 4 4 5 5 6 7 7 8 8 9 9 11 10 2 12 1 13
REMARK H PARENT 11 11
REMARK Flexibility Score: inf
ROOT
ATOM      1  C   UNL     1      29.375   5.211  31.833  1.00  0.00     0.059 A 
ATOM      2  C   UNL     1      30.127   6.381  32.096  1.00  0.00     0.130 A 
ATOM      3  C   UNL     1      29.494   7.530  32.592  1.00  0.00     0.093 A 
ATOM      4  C   UNL     1      28.110   7.535  32.841  1.00  0.00     0.122 A 
ATOM      5  C   UNL     1      27.370   6.380  32.585  1.00  0.00     0.047 A 
ATOM      6  C   UNL     1      27.990   5.232  32.088  1.00  0.00     0.019 A 
ENDROOT
BRANCH   1   7
ATOM      7  C   UNL     1      30.022   3.980  31.295  1.00  0.00     0.163 C 
ATOM      8  C   UNL     1      29.713   3.463  29.922  1.00  0.00     0.093 C 
ATOM      9  O   UNL     1      30.874   3.359  31.986  1.00  0.00    -0.294 OA
ENDBRANCH   1   7
BRANCH   2  10
ATOM     10  O   UNL     1      31.505   6.404  31.874  1.00  0.00    -0.507 OA
ATOM     11  H   UNL     1      32.169   6.304  32.633  1.00  0.00     0.293 HD
ENDBRANCH   2  10
BRANCH   4  12
ATOM     12  O   UNL     1      27.437   8.661  33.338  1.00  0.00    -0.497 OA
ATOM     13  C   UNL     1      27.217   9.858  32.598  1.00  0.00     0.278 C 
ENDBRANCH   4  12
TORSDOF 3
ENDMDL
MODEL 4
REMARK VINA RESULT:    -5.205      0.996      1.107
REMARK INTER + INTRA:          -6.286
REMARK INTER:                  -5.955
REMARK INTRA:                  -0.332
REMARK UNBOUND:                -0.320
REMARK SMILES COc1ccc(C(C)=O)c(O)c1
REMARK SMILES IDX 6 1 10 2 12 3 3 4 4 5 5 6 7 7 8 8 9 9 11 10 2 12 1 13
REMARK H PARENT 11 11
REMARK Flexibility Score: inf
ROOT
ATOM      1  C   UNL     1      28.045   7.595  32.528  1.00  0.00     0.059 A 
ATOM      2  C   UNL     1      29.403   7.204  32.439  1.00  0.00     0.130 A 
ATOM      3  C   UNL     1      29.736   5.900  32.044  1.00  0.00     0.093 A 
ATOM      4  C   UNL     1      28.732   4.968  31.727  1.00  0.00     0.122 A 
ATOM      5  C   UNL     1      27.394   5.356  31.811  1.00  0.00     0.047 A 
ATOM      6  C   UNL     1      27.051   6.650  32.207  1.00  0.00     0.019 A 
ENDROOT
BRANCH   1   7
ATOM      7  C   UNL     1      27.663   8.972  32.956  1.00  0.00     0.163 C 
ATOM      8  C   UNL     1      26.812   9.857  32.096  1.00  0.00     0.093 C 
ATOM      9  O   UNL     1      28.032   9.411  34.078  1.00  0.00    -0.294 OA
ENDBRANCH   1   7
BRANCH   2  10
ATOM     10  O   UNL     1      30.424   8.110  32.732  1.00  0.00    -0.507 OA
ATOM     11  H   UNL     1      30.805   8.199  33.666  1.00  0.00     0.293 HD
ENDBRANCH   2  10
BRANCH   4  12
ATOM     12  O   UNL     1      29.021   3.655  31.327  1.00  0.00    -0.497 OA
ATOM     13  C   UNL     1      30.024   3.305  30.379  1.00  0.00     0.278 C 
ENDBRANCH   4  12
TORSDOF 3
ENDMDL
MODEL 5
REMARK VINA RESULT:    -4.624      3.124      5.271
REMARK INTER + INTRA:          -5.620
REMARK INTER:                  -5.283
REMARK INTRA:                  -0.338
REMARK UNBOUND:                -0.320
REMARK SMILES COc1ccc(C(C)=O)c(O)c1
REMARK SMILES IDX 6 1 10 2 12 3 3 4 4 5 5 6 7 7 8 8 9 9 11 10 2 12 1 13
REMARK H PARENT 11 11
REMARK Flexibility Score: inf
ROOT
ATOM      1  C   UNL     1      29.513   3.083  29.760  1.00  0.00     0.059 A 
ATOM      2  C   UNL     1      29.240   3.773  30.965  1.00  0.00     0.130 A 
ATOM      3  C   UNL     1      30.203   4.628  31.522  1.00  0.00     0.093 A 
ATOM      4  C   UNL     1      31.446   4.815  30.892  1.00  0.00     0.122 A 
ATOM      5  C   UNL     1      31.713   4.137  29.702  1.00  0.00     0.047 A 
ATOM      6  C   UNL     1      30.763   3.282  29.140  1.00  0.00     0.019 A 
ENDROOT
BRANCH   1   7
ATOM      7  C   UNL     1      28.511   2.161  29.152  1.00  0.00     0.163 C 
ATOM      8  C   UNL     1      28.062   2.311  27.729  1.00  0.00     0.093 C 
ATOM      9  O   UNL     1      28.039   1.207  29.827  1.00  0.00    -0.294 OA
ENDBRANCH   1   7
BRANCH   2  10
ATOM     10  O   UNL     1      28.010   3.622  31.607  1.00  0.00    -0.507 OA
ATOM     11  H   UNL     1      27.888   2.979  32.381  1.00  0.00     0.293 HD
ENDBRANCH   2  10
BRANCH   4  12
ATOM     12  O   UNL     1      32.437   5.660  31.414  1.00  0.00    -0.497 OA
ATOM     13  C   UNL     1      32.533   6.037  32.783  1.00  0.00     0.278 C 
ENDBRANCH   4  12
TORSDOF 3
ENDMDL
MODEL 6
REMARK VINA RESULT:    -4.570      2.967      3.980
REMARK INTER + INTRA:          -5.558
REMARK INTER:                  -5.231
REMARK INTRA:                  -0.326
REMARK UNBOUND:                -0.320
REMARK SMILES COc1ccc(C(C)=O)c(O)c1
REMARK SMILES IDX 6 1 10 2 12 3 3 4 4 5 5 6 7 7 8 8 9 9 11 10 2 12 1 13
REMARK H PARENT 11 11
REMARK Flexibility Score: inf
ROOT
ATOM      1  C   UNL     1      30.947   4.778  31.089  1.00  0.00     0.059 A 
ATOM      2  C   UNL     1      31.067   3.801  30.072  1.00  0.00     0.130 A 
ATOM      3  C   UNL     1      29.968   2.998  29.733  1.00  0.00     0.093 A 
ATOM      4  C   UNL     1      28.735   3.154  30.390  1.00  0.00     0.122 A 
ATOM      5  C   UNL     1      28.617   4.120  31.391  1.00  0.00     0.047 A 
ATOM      6  C   UNL     1      29.705   4.923  31.739  1.00  0.00     0.019 A 
ENDROOT
BRANCH   1   7
ATOM      7  C   UNL     1      32.102   5.637  31.478  1.00  0.00     0.163 C 
ATOM      8  C   UNL     1      32.418   5.932  32.913  1.00  0.00     0.093 C 
ATOM      9  O   UNL     1      32.862   6.114  30.592  1.00  0.00    -0.294 OA
ENDBRANCH   1   7
BRANCH   2  10
ATOM     10  O   UNL     1      32.272   3.631  29.389  1.00  0.00    -0.507 OA
ATOM     11  H   UNL     1      32.299   3.406  28.402  1.00  0.00     0.293 HD
ENDBRANCH   2  10
BRANCH   4  12
ATOM     12  O   UNL     1      27.612   2.374  30.081  1.00  0.00    -0.497 OA
ATOM     13  C   UNL     1      26.489   2.838  29.338  1.00  0.00     0.278 C 
ENDBRANCH   4  12
TORSDOF 3
ENDMDL
MODEL 7
REMARK VINA RESULT:    -4.484      3.374      4.665
REMARK INTER + INTRA:          -5.460
REMARK INTER:                  -5.139
REMARK INTRA:                  -0.321
REMARK UNBOUND:                -0.320
REMARK SMILES COc1ccc(C(C)=O)c(O)c1
REMARK SMILES IDX 6 1 10 2 12 3 3 4 4 5 5 6 7 7 8 8 9 9 11 10 2 12 1 13
REMARK H PARENT 11 11
REMARK Flexibility Score: inf
ROOT
ATOM      1  C   UNL     1      29.924   3.596  30.466  1.00  0.00     0.059 A 
ATOM      2  C   UNL     1      28.549   3.341  30.680  1.00  0.00     0.130 A 
ATOM      3  C   UNL     1      27.758   2.827  29.641  1.00  0.00     0.093 A 
ATOM      4  C   UNL     1      28.318   2.554  28.381  1.00  0.00     0.122 A 
ATOM      5  C   UNL     1      29.676   2.802  28.173  1.00  0.00     0.047 A 
ATOM      6  C   UNL     1      30.471   3.316  29.198  1.00  0.00     0.019 A 
ENDROOT
BRANCH   1   7
ATOM      7  C   UNL     1      30.785   4.152  31.550  1.00  0.00     0.163 C 
ATOM      8  C   UNL     1      31.358   5.535  31.470  1.00  0.00     0.093 C 
ATOM      9  O   UNL     1      31.026   3.468  32.581  1.00  0.00    -0.294 OA
ENDBRANCH   1   7
BRANCH   2  10
ATOM     10  O   UNL     1      27.965   3.587  31.923  1.00  0.00    -0.507 OA
ATOM     11  H   UNL     1      27.188   4.228  32.030  1.00  0.00     0.293 HD
ENDBRANCH   2  10
BRANCH   4  12
ATOM     12  O   UNL     1      27.564   2.039  27.315  1.00  0.00    -0.497 OA
ATOM     13  C   UNL     1      28.110   1.303  26.226  1.00  0.00     0.278 C 
ENDBRANCH   4  12
TORSDOF 3
ENDMDL
MODEL 8
REMARK VINA RESULT:    -4.448      2.826      5.128
REMARK INTER + INTRA:          -5.418
REMARK INTER:                  -5.101
REMARK INTRA:                  -0.317
REMARK UNBOUND:                -0.320
REMARK SMILES COc1ccc(C(C)=O)c(O)c1
REMARK SMILES IDX 6 1 10 2 12 3 3 4 4 5 5 6 7 7 8 8 9 9 11 10 2 12 1 13
REMARK H PARENT 11 11
REMARK Flexibility Score: inf
ROOT
ATOM      1  C   UNL     1      28.460   2.963  29.875  1.00  0.00     0.059 A 
ATOM      2  C   UNL     1      29.795   2.982  29.406  1.00  0.00     0.130 A 
ATOM      3  C   UNL     1      30.763   3.753  30.066  1.00  0.00     0.093 A 
ATOM      4  C   UNL     1      30.425   4.511  31.201  1.00  0.00     0.122 A 
ATOM      5  C   UNL     1      29.108   4.489  31.665  1.00  0.00     0.047 A 
ATOM      6  C   UNL     1      28.136   3.727  31.013  1.00  0.00     0.019 A 
ENDROOT
BRANCH   1   7
ATOM      7  C   UNL     1      27.409   2.160  29.185  1.00  0.00     0.163 C 
ATOM      8  C   UNL     1      26.005   2.664  29.034  1.00  0.00     0.093 C 
ATOM      9  O   UNL     1      27.696   1.039  28.685  1.00  0.00    -0.294 OA
ENDBRANCH   1   7
BRANCH   2  10
ATOM     10  O   UNL     1      30.168   2.229  28.292  1.00  0.00    -0.507 OA
ATOM     11  H   UNL     1      30.561   2.660  27.463  1.00  0.00     0.293 HD
ENDBRANCH   2  10
BRANCH   4  12
ATOM     12  O   UNL     1      31.361   5.295  31.891  1.00  0.00    -0.497 OA
ATOM     13  C   UNL     1      32.488   5.921  31.287  1.00  0.00     0.278 C 
ENDBRANCH   4  12
TORSDOF 3
ENDMDL
MODEL 9
REMARK VINA RESULT:    -4.290     12.343     13.456
REMARK INTER + INTRA:          -5.237
REMARK INTER:                  -4.893
REMARK INTRA:                  -0.343
REMARK UNBOUND:                -0.320
REMARK SMILES COc1ccc(C(C)=O)c(O)c1
REMARK SMILES IDX 6 1 10 2 12 3 3 4 4 5 5 6 7 7 8 8 9 9 11 10 2 12 1 13
REMARK H PARENT 11 11
REMARK Flexibility Score: inf
ROOT
ATOM      1  C   UNL     1      21.150   3.412  20.716  1.00  0.00     0.059 A 
ATOM      2  C   UNL     1      21.412   3.853  22.035  1.00  0.00     0.130 A 
ATOM      3  C   UNL     1      22.651   3.582  22.635  1.00  0.00     0.093 A 
ATOM      4  C   UNL     1      23.648   2.878  21.937  1.00  0.00     0.122 A 
ATOM      5  C   UNL     1      23.389   2.447  20.635  1.00  0.00     0.047 A 
ATOM      6  C   UNL     1      22.158   2.708  20.029  1.00  0.00     0.019 A 
ENDROOT
BRANCH   1   7
ATOM      7  C   UNL     1      19.837   3.676  20.059  1.00  0.00     0.163 C 
ATOM      8  C   UNL     1      19.076   2.593  19.354  1.00  0.00     0.093 C 
ATOM      9  O   UNL     1      19.324   4.826  20.110  1.00  0.00    -0.294 OA
ENDBRANCH   1   7
BRANCH   2  10
ATOM     10  O   UNL     1      20.450   4.568  22.750  1.00  0.00    -0.507 OA
ATOM     11  H   UNL     1      20.057   5.432  22.397  1.00  0.00     0.293 HD
ENDBRANCH   2  10
BRANCH   4  12
ATOM     12  O   UNL     1      24.900   2.587  22.498  1.00  0.00    -0.497 OA
ATOM     13  C   UNL     1      26.084   2.350  21.744  1.00  0.00     0.278 C 
ENDBRANCH   4  12
TORSDOF 3
ENDMDL
