MODEL 1
REMARK VINA RESULT:    -5.007      0.000      0.000
REMARK INTER + INTRA:          -6.368
REMARK INTER:                  -6.031
REMARK INTRA:                  -0.337
REMARK UNBOUND:                -0.337
REMARK SMILES COc1ccc([C@H]2CC(=O)c3c(O)cc(O)cc3O2)cc1O
REMARK SMILES IDX 7 1 8 2 9 3 10 4 11 5 12 6 14 7 15 8 17 9 18 10 19 11 6 12
REMARK SMILES IDX 3 13 21 14 4 15 20 16 5 17 2 18 1 19 22 20 13 22 16 24
REMARK H PARENT 22 21 13 23 16 25
REMARK Flexibility Score: inf
ROOT
ATOM      1  C   UNL     1      19.292 -34.603 150.079  1.00  0.00     0.211 C 
ATOM      2  C   UNL     1      18.790 -35.026 148.690  1.00  0.00     0.131 C 
ATOM      3  C   UNL     1      17.325 -35.334 148.771  1.00  0.00     0.174 C 
ATOM      4  O   UNL     1      16.548 -34.870 147.897  1.00  0.00    -0.294 OA
ATOM      5  C   UNL     1      16.825 -36.129 149.920  1.00  0.00     0.102 A 
ATOM      6  C   UNL     1      15.579 -36.810 149.935  1.00  0.00     0.133 A 
ATOM      7  C   UNL     1      15.171 -37.476 151.098  1.00  0.00     0.093 A 
ATOM      8  C   UNL     1      15.999 -37.527 152.221  1.00  0.00     0.123 A 
ATOM      9  C   UNL     1      17.247 -36.898 152.194  1.00  0.00     0.093 A 
ATOM     10  C   UNL     1      17.657 -36.194 151.059  1.00  0.00     0.138 A 
ATOM     11  O   UNL     1      18.907 -35.561 151.067  1.00  0.00    -0.484 OA
ENDROOT
BRANCH   1  12
ATOM     12  C   UNL     1      20.793 -34.437 150.075  1.00  0.00    -0.003 A 
ATOM     13  C   UNL     1      23.588 -34.058 150.072  1.00  0.00     0.160 A 
ATOM     14  C   UNL     1      22.890 -34.171 148.862  1.00  0.00     0.158 A 
ATOM     15  C   UNL     1      22.877 -34.126 151.285  1.00  0.00     0.051 A 
ATOM     16  C   UNL     1      21.500 -34.356 148.864  1.00  0.00     0.057 A 
ATOM     17  C   UNL     1      21.493 -34.308 151.285  1.00  0.00     0.011 A 
BRANCH  13  18
ATOM     18  O   UNL     1      24.979 -33.877 150.029  1.00  0.00    -0.493 OA
ATOM     19  C   UNL     1      25.838 -33.958 151.162  1.00  0.00     0.278 C 
ENDBRANCH  13  18
BRANCH  14  20
ATOM     20  O   UNL     1      23.586 -34.099 147.657  1.00  0.00    -0.504 OA
ATOM     21  H   UNL     1      23.171 -34.406 146.784  1.00  0.00     0.293 HD
ENDBRANCH  14  20
ENDBRANCH   1  12
BRANCH   6  22
ATOM     22  O   UNL     1      14.736 -36.884 148.824  1.00  0.00    -0.507 OA
ATOM     23  H   UNL     1      13.732 -36.968 148.882  1.00  0.00     0.293 HD
ENDBRANCH   6  22
BRANCH   8  24
ATOM     24  O   UNL     1      15.574 -38.212 153.357  1.00  0.00    -0.508 OA
ATOM     25  H   UNL     1      15.932 -39.133 153.585  1.00  0.00     0.293 HD
ENDBRANCH   8  24
TORSDOF 5
ENDMDL
MODEL 2
REMARK VINA RESULT:    -4.940      8.262     12.273
REMARK INTER + INTRA:          -6.287
REMARK INTER:                  -5.903
REMARK INTRA:                  -0.384
REMARK UNBOUND:                -0.337
REMARK SMILES COc1ccc([C@H]2CC(=O)c3c(O)cc(O)cc3O2)cc1O
REMARK SMILES IDX 7 1 8 2 9 3 10 4 11 5 12 6 14 7 15 8 17 9 18 10 19 11 6 12
REMARK SMILES IDX 3 13 21 14 4 15 20 16 5 17 2 18 1 19 22 20 13 22 16 24
REMARK H PARENT 22 21 13 23 16 25
REMARK Flexibility Score: inf
ROOT
ATOM      1  C   UNL     1      18.709 -37.336 160.652  1.00  0.00     0.211 C 
ATOM      2  C   UNL     1      19.327 -38.698 160.302  1.00  0.00     0.131 C 
ATOM      3  C   UNL     1      20.654 -38.478 159.639  1.00  0.00     0.174 C 
ATOM      4  O   UNL     1      21.648 -39.156 160.009  1.00  0.00    -0.294 OA
ATOM      5  C   UNL     1      20.770 -37.419 158.606  1.00  0.00     0.102 A 
ATOM      6  C   UNL     1      21.815 -37.354 157.647  1.00  0.00     0.133 A 
ATOM      7  C   UNL     1      21.868 -36.273 156.757  1.00  0.00     0.093 A 
ATOM      8  C   UNL     1      20.875 -35.290 156.766  1.00  0.00     0.123 A 
ATOM      9  C   UNL     1      19.819 -35.376 157.677  1.00  0.00     0.093 A 
ATOM     10  C   UNL     1      19.768 -36.424 158.598  1.00  0.00     0.138 A 
ATOM     11  O   UNL     1      18.704 -36.476 159.510  1.00  0.00    -0.484 OA
ENDROOT
BRANCH   1  12
ATOM     12  C   UNL     1      17.303 -37.508 161.176  1.00  0.00    -0.003 A 
ATOM     13  C   UNL     1      14.671 -37.887 162.116  1.00  0.00     0.160 A 
ATOM     14  C   UNL     1      14.912 -37.069 161.004  1.00  0.00     0.158 A 
ATOM     15  C   UNL     1      15.755 -38.524 162.750  1.00  0.00     0.051 A 
ATOM     16  C   UNL     1      16.220 -36.884 160.535  1.00  0.00     0.057 A 
ATOM     17  C   UNL     1      17.057 -38.339 162.280  1.00  0.00     0.011 A 
BRANCH  13  18
ATOM     18  O   UNL     1      13.348 -38.045 162.558  1.00  0.00    -0.493 OA
ATOM     19  C   UNL     1      12.510 -39.144 162.213  1.00  0.00     0.278 C 
ENDBRANCH  13  18
BRANCH  14  20
ATOM     20  O   UNL     1      13.843 -36.441 160.367  1.00  0.00    -0.504 OA
ATOM     21  H   UNL     1      13.540 -35.510 160.631  1.00  0.00     0.293 HD
ENDBRANCH  14  20
ENDBRANCH   1  12
BRANCH   6  22
ATOM     22  O   UNL     1      22.792 -38.342 157.513  1.00  0.00    -0.507 OA
ATOM     23  H   UNL     1      23.659 -38.353 158.030  1.00  0.00     0.293 HD
ENDBRANCH   6  22
BRANCH   8  24
ATOM     24  O   UNL     1      20.945 -34.236 155.857  1.00  0.00    -0.508 OA
ATOM     25  H   UNL     1      20.123 -33.904 155.367  1.00  0.00     0.293 HD
ENDBRANCH   8  24
TORSDOF 5
ENDMDL
MODEL 3
REMARK VINA RESULT:    -4.859     17.590     19.321
REMARK INTER + INTRA:          -6.190
REMARK INTER:                  -5.818
REMARK INTRA:                  -0.373
REMARK UNBOUND:                -0.337
REMARK SMILES COc1ccc([C@H]2CC(=O)c3c(O)cc(O)cc3O2)cc1O
REMARK SMILES IDX 7 1 8 2 9 3 10 4 11 5 12 6 14 7 15 8 17 9 18 10 19 11 6 12
REMARK SMILES IDX 3 13 21 14 4 15 20 16 5 17 2 18 1 19 22 20 13 22 16 24
REMARK H PARENT 22 21 13 23 16 25
REMARK Flexibility Score: inf
ROOT
ATOM      1  C   UNL     1      23.648 -53.385 149.845  1.00  0.00     0.211 C 
ATOM      2  C   UNL     1      23.838 -52.288 148.787  1.00  0.00     0.131 C 
ATOM      3  C   UNL     1      25.300 -51.987 148.649  1.00  0.00     0.174 C 
ATOM      4  O   UNL     1      25.806 -51.899 147.500  1.00  0.00    -0.294 OA
ATOM      5  C   UNL     1      26.123 -51.863 149.877  1.00  0.00     0.102 A 
ATOM      6  C   UNL     1      27.388 -51.221 149.926  1.00  0.00     0.133 A 
ATOM      7  C   UNL     1      28.115 -51.219 151.124  1.00  0.00     0.093 A 
ATOM      8  C   UNL     1      27.586 -51.792 152.283  1.00  0.00     0.123 A 
ATOM      9  C   UNL     1      26.321 -52.384 152.250  1.00  0.00     0.093 A 
ATOM     10  C   UNL     1      25.596 -52.432 151.058  1.00  0.00     0.138 A 
ATOM     11  O   UNL     1      24.336 -53.045 151.052  1.00  0.00    -0.484 OA
ENDROOT
BRANCH   1  12
ATOM     12  C   UNL     1      22.182 -53.605 150.129  1.00  0.00    -0.003 A 
ATOM     13  C   UNL     1      19.433 -53.946 150.661  1.00  0.00     0.160 A 
ATOM     14  C   UNL     1      20.361 -53.949 151.712  1.00  0.00     0.158 A 
ATOM     15  C   UNL     1      19.888 -53.761 149.342  1.00  0.00     0.051 A 
ATOM     16  C   UNL     1      21.727 -53.776 151.447  1.00  0.00     0.057 A 
ATOM     17  C   UNL     1      21.249 -53.587 149.081  1.00  0.00     0.011 A 
BRANCH  13  18
ATOM     18  O   UNL     1      18.075 -54.125 150.966  1.00  0.00    -0.493 OA
ATOM     19  C   UNL     1      17.024 -54.104 150.005  1.00  0.00     0.278 C 
ENDBRANCH  13  18
BRANCH  14  20
ATOM     20  O   UNL     1      19.917 -54.125 153.021  1.00  0.00    -0.504 OA
ATOM     21  H   UNL     1      20.565 -54.184 153.798  1.00  0.00     0.293 HD
ENDBRANCH  14  20
ENDBRANCH   1  12
BRANCH   6  22
ATOM     22  O   UNL     1      27.945 -50.546 148.837  1.00  0.00    -0.507 OA
ATOM     23  H   UNL     1      27.731 -49.590 148.596  1.00  0.00     0.293 HD
ENDBRANCH   6  22
BRANCH   8  24
ATOM     24  O   UNL     1      28.325 -51.759 153.464  1.00  0.00    -0.508 OA
ATOM     25  H   UNL     1      29.330 -51.886 153.463  1.00  0.00     0.293 HD
ENDBRANCH   8  24
TORSDOF 5
ENDMDL
MODEL 4
REMARK VINA RESULT:    -4.759      3.416      4.973
REMARK INTER + INTRA:          -6.070
REMARK INTER:                  -5.686
REMARK INTRA:                  -0.384
REMARK UNBOUND:                -0.337
REMARK SMILES COc1ccc([C@H]2CC(=O)c3c(O)cc(O)cc3O2)cc1O
REMARK SMILES IDX 7 1 8 2 9 3 10 4 11 5 12 6 14 7 15 8 17 9 18 10 19 11 6 12
REMARK SMILES IDX 3 13 21 14 4 15 20 16 5 17 2 18 1 19 22 20 13 22 16 24
REMARK H PARENT 22 21 13 23 16 25
REMARK Flexibility Score: inf
ROOT
ATOM      1  C   UNL     1      19.984 -34.261 152.007  1.00  0.00     0.211 C 
ATOM      2  C   UNL     1      21.059 -35.006 151.203  1.00  0.00     0.131 C 
ATOM      3  C   UNL     1      20.550 -35.255 149.815  1.00  0.00     0.174 C 
ATOM      4  O   UNL     1      21.296 -35.007 148.831  1.00  0.00    -0.294 OA
ATOM      5  C   UNL     1      19.155 -35.728 149.639  1.00  0.00     0.102 A 
ATOM      6  C   UNL     1      18.670 -36.357 148.462  1.00  0.00     0.133 A 
ATOM      7  C   UNL     1      17.316 -36.704 148.374  1.00  0.00     0.093 A 
ATOM      8  C   UNL     1      16.451 -36.490 149.450  1.00  0.00     0.123 A 
ATOM      9  C   UNL     1      16.935 -35.914 150.627  1.00  0.00     0.093 A 
ATOM     10  C   UNL     1      18.273 -35.524 150.722  1.00  0.00     0.138 A 
ATOM     11  O   UNL     1      18.726 -34.935 151.911  1.00  0.00    -0.484 OA
ENDROOT
BRANCH   1  12
ATOM     12  C   UNL     1      20.393 -34.133 153.454  1.00  0.00    -0.003 A 
ATOM     13  C   UNL     1      21.170 -33.963 156.161  1.00  0.00     0.160 A 
ATOM     14  C   UNL     1      19.819 -34.128 155.823  1.00  0.00     0.158 A 
ATOM     15  C   UNL     1      22.132 -33.893 155.135  1.00  0.00     0.051 A 
ATOM     16  C   UNL     1      19.434 -34.217 154.478  1.00  0.00     0.057 A 
ATOM     17  C   UNL     1      21.746 -33.983 153.796  1.00  0.00     0.011 A 
BRANCH  13  18
ATOM     18  O   UNL     1      21.516 -33.875 157.518  1.00  0.00    -0.493 OA
ATOM     19  C   UNL     1      22.468 -34.716 158.162  1.00  0.00     0.278 C 
ENDBRANCH  13  18
BRANCH  14  20
ATOM     20  O   UNL     1      18.863 -34.205 156.833  1.00  0.00    -0.504 OA
ATOM     21  H   UNL     1      18.286 -35.028 156.957  1.00  0.00     0.293 HD
ENDBRANCH  14  20
ENDBRANCH   1  12
BRANCH   6  22
ATOM     22  O   UNL     1      19.489 -36.688 147.380  1.00  0.00    -0.507 OA
ATOM     23  H   UNL     1      19.536 -37.609 146.969  1.00  0.00     0.293 HD
ENDBRANCH   6  22
BRANCH   8  24
ATOM     24  O   UNL     1      15.113 -36.862 149.339  1.00  0.00    -0.508 OA
ATOM     25  H   UNL     1      14.844 -37.817 149.129  1.00  0.00     0.293 HD
ENDBRANCH   8  24
TORSDOF 5
ENDMDL
MODEL 5
REMARK VINA RESULT:    -4.658     17.094     19.273
REMARK INTER + INTRA:          -5.947
REMARK INTER:                  -5.606
REMARK INTRA:                  -0.342
REMARK UNBOUND:                -0.337
REMARK SMILES COc1ccc([C@H]2CC(=O)c3c(O)cc(O)cc3O2)cc1O
REMARK SMILES IDX 7 1 8 2 9 3 10 4 11 5 12 6 14 7 15 8 17 9 18 10 19 11 6 12
REMARK SMILES IDX 3 13 21 14 4 15 20 16 5 17 2 18 1 19 22 20 13 22 16 24
REMARK H PARENT 22 21 13 23 16 25
REMARK Flexibility Score: inf
ROOT
ATOM      1  C   UNL     1      21.740 -52.921 157.766  1.00  0.00     0.211 C 
ATOM      2  C   UNL     1      22.492 -53.436 159.002  1.00  0.00     0.131 C 
ATOM      3  C   UNL     1      21.772 -52.987 160.237  1.00  0.00     0.174 C 
ATOM      4  O   UNL     1      21.559 -53.814 161.162  1.00  0.00    -0.294 OA
ATOM      5  C   UNL     1      21.275 -51.591 160.307  1.00  0.00     0.102 A 
ATOM      6  C   UNL     1      20.934 -50.926 161.514  1.00  0.00     0.133 A 
ATOM      7  C   UNL     1      20.409 -49.628 161.462  1.00  0.00     0.093 A 
ATOM      8  C   UNL     1      20.270 -48.960 160.243  1.00  0.00     0.123 A 
ATOM      9  C   UNL     1      20.649 -49.594 159.057  1.00  0.00     0.093 A 
ATOM     10  C   UNL     1      21.138 -50.902 159.081  1.00  0.00     0.138 A 
ATOM     11  O   UNL     1      21.496 -51.517 157.874  1.00  0.00    -0.484 OA
ENDROOT
BRANCH   1  12
ATOM     12  C   UNL     1      22.518 -53.216 156.506  1.00  0.00    -0.003 A 
ATOM     13  C   UNL     1      23.984 -53.833 154.176  1.00  0.00     0.160 A 
ATOM     14  C   UNL     1      24.622 -53.242 155.276  1.00  0.00     0.158 A 
ATOM     15  C   UNL     1      22.609 -54.124 154.254  1.00  0.00     0.051 A 
ATOM     16  C   UNL     1      23.894 -52.939 156.435  1.00  0.00     0.057 A 
ATOM     17  C   UNL     1      21.886 -53.823 155.410  1.00  0.00     0.011 A 
BRANCH  13  18
ATOM     18  O   UNL     1      24.746 -54.119 153.033  1.00  0.00    -0.493 OA
ATOM     19  C   UNL     1      24.758 -53.322 151.853  1.00  0.00     0.278 C 
ENDBRANCH  13  18
BRANCH  14  20
ATOM     20  O   UNL     1      25.984 -52.957 155.209  1.00  0.00    -0.504 OA
ATOM     21  H   UNL     1      26.536 -52.798 156.045  1.00  0.00     0.293 HD
ENDBRANCH  14  20
ENDBRANCH   1  12
BRANCH   6  22
ATOM     22  O   UNL     1      21.128 -51.489 162.777  1.00  0.00    -0.507 OA
ATOM     23  H   UNL     1      20.694 -52.347 163.085  1.00  0.00     0.293 HD
ENDBRANCH   6  22
BRANCH   8  24
ATOM     24  O   UNL     1      19.761 -47.664 160.225  1.00  0.00    -0.508 OA
ATOM     25  H   UNL     1      19.800 -47.091 159.389  1.00  0.00     0.293 HD
ENDBRANCH   8  24
TORSDOF 5
ENDMDL
MODEL 6
REMARK VINA RESULT:    -4.525     17.555     18.314
REMARK INTER + INTRA:          -5.788
REMARK INTER:                  -5.446
REMARK INTRA:                  -0.342
REMARK UNBOUND:                -0.337
REMARK SMILES COc1ccc([C@H]2CC(=O)c3c(O)cc(O)cc3O2)cc1O
REMARK SMILES IDX 7 1 8 2 9 3 10 4 11 5 12 6 14 7 15 8 17 9 18 10 19 11 6 12
REMARK SMILES IDX 3 13 21 14 4 15 20 16 5 17 2 18 1 19 22 20 13 22 16 24
REMARK H PARENT 22 21 13 23 16 25
REMARK Flexibility Score: inf
ROOT
ATOM      1  C   UNL     1      24.502 -53.224 148.597  1.00  0.00     0.211 C 
ATOM      2  C   UNL     1      25.164 -52.827 149.925  1.00  0.00     0.131 C 
ATOM      3  C   UNL     1      24.490 -53.561 151.046  1.00  0.00     0.174 C 
ATOM      4  O   UNL     1      25.194 -54.125 151.924  1.00  0.00    -0.294 OA
ATOM      5  C   UNL     1      23.010 -53.653 151.053  1.00  0.00     0.102 A 
ATOM      6  C   UNL     1      22.236 -53.962 152.202  1.00  0.00     0.133 A 
ATOM      7  C   UNL     1      20.846 -54.091 152.084  1.00  0.00     0.093 A 
ATOM      8  C   UNL     1      20.208 -53.864 150.862  1.00  0.00     0.123 A 
ATOM      9  C   UNL     1      20.962 -53.513 149.739  1.00  0.00     0.093 A 
ATOM     10  C   UNL     1      22.352 -53.417 149.825  1.00  0.00     0.138 A 
ATOM     11  O   UNL     1      23.083 -53.078 148.678  1.00  0.00    -0.484 OA
ENDROOT
BRANCH   1  12
ATOM     12  C   UNL     1      25.044 -52.389 147.461  1.00  0.00    -0.003 A 
ATOM     13  C   UNL     1      25.991 -50.822 145.315  1.00  0.00     0.160 A 
ATOM     14  C   UNL     1      25.974 -52.220 145.215  1.00  0.00     0.158 A 
ATOM     15  C   UNL     1      25.522 -50.211 146.494  1.00  0.00     0.051 A 
ATOM     16  C   UNL     1      25.499 -52.998 146.280  1.00  0.00     0.057 A 
ATOM     17  C   UNL     1      25.048 -50.989 147.553  1.00  0.00     0.011 A 
BRANCH  13  18
ATOM     18  O   UNL     1      26.476 -50.078 144.229  1.00  0.00    -0.493 OA
ATOM     19  C   UNL     1      27.306 -48.927 144.347  1.00  0.00     0.278 C 
ENDBRANCH  13  18
BRANCH  14  20
ATOM     20  O   UNL     1      26.431 -52.832 144.049  1.00  0.00    -0.504 OA
ATOM     21  H   UNL     1      27.100 -52.378 143.438  1.00  0.00     0.293 HD
ENDBRANCH  14  20
ENDBRANCH   1  12
BRANCH   6  22
ATOM     22  O   UNL     1      22.788 -54.113 153.476  1.00  0.00    -0.507 OA
ATOM     23  H   UNL     1      22.651 -53.459 154.232  1.00  0.00     0.293 HD
ENDBRANCH   6  22
BRANCH   8  24
ATOM     24  O   UNL     1      18.822 -53.982 150.780  1.00  0.00    -0.508 OA
ATOM     25  H   UNL     1      18.315 -53.699 149.949  1.00  0.00     0.293 HD
ENDBRANCH   8  24
TORSDOF 5
ENDMDL
MODEL 7
REMARK VINA RESULT:    -4.440     17.903     19.612
REMARK INTER + INTRA:          -5.685
REMARK INTER:                  -5.294
REMARK INTRA:                  -0.391
REMARK UNBOUND:                -0.337
REMARK SMILES COc1ccc([C@H]2CC(=O)c3c(O)cc(O)cc3O2)cc1O
REMARK SMILES IDX 7 1 8 2 9 3 10 4 11 5 12 6 14 7 15 8 17 9 18 10 19 11 6 12
REMARK SMILES IDX 3 13 21 14 4 15 20 16 5 17 2 18 1 19 22 20 13 22 16 24
REMARK H PARENT 22 21 13 23 16 25
REMARK Flexibility Score: inf
ROOT
ATOM      1  C   UNL     1      25.126 -53.363 153.800  1.00  0.00     0.211 C 
ATOM      2  C   UNL     1      24.364 -53.417 152.468  1.00  0.00     0.131 C 
ATOM      3  C   UNL     1      25.345 -53.326 151.337  1.00  0.00     0.174 C 
ATOM      4  O   UNL     1      25.246 -54.124 150.369  1.00  0.00    -0.294 OA
ATOM      5  C   UNL     1      26.444 -52.334 151.423  1.00  0.00     0.102 A 
ATOM      6  C   UNL     1      27.191 -51.874 150.307  1.00  0.00     0.133 A 
ATOM      7  C   UNL     1      28.256 -50.985 150.508  1.00  0.00     0.093 A 
ATOM      8  C   UNL     1      28.555 -50.504 151.785  1.00  0.00     0.123 A 
ATOM      9  C   UNL     1      27.791 -50.918 152.880  1.00  0.00     0.093 A 
ATOM     10  C   UNL     1      26.751 -51.833 152.708  1.00  0.00     0.138 A 
ATOM     11  O   UNL     1      26.013 -52.241 153.827  1.00  0.00    -0.484 OA
ENDROOT
BRANCH   1  12
ATOM     12  C   UNL     1      24.165 -53.291 154.962  1.00  0.00    -0.003 A 
ATOM     13  C   UNL     1      22.328 -53.113 157.096  1.00  0.00     0.160 A 
ATOM     14  C   UNL     1      23.450 -52.272 157.057  1.00  0.00     0.158 A 
ATOM     15  C   UNL     1      22.126 -54.038 156.053  1.00  0.00     0.051 A 
ATOM     16  C   UNL     1      24.359 -52.358 155.994  1.00  0.00     0.057 A 
ATOM     17  C   UNL     1      23.033 -54.121 154.995  1.00  0.00     0.011 A 
BRANCH  13  18
ATOM     18  O   UNL     1      21.441 -52.999 158.177  1.00  0.00    -0.493 OA
ATOM     19  C   UNL     1      21.430 -53.868 159.305  1.00  0.00     0.278 C 
ENDBRANCH  13  18
BRANCH  14  20
ATOM     20  O   UNL     1      23.653 -51.350 158.081  1.00  0.00    -0.504 OA
ATOM     21  H   UNL     1      23.248 -51.480 159.001  1.00  0.00     0.293 HD
ENDBRANCH  14  20
ENDBRANCH   1  12
BRANCH   6  22
ATOM     22  O   UNL     1      26.898 -52.236 148.991  1.00  0.00    -0.507 OA
ATOM     23  H   UNL     1      26.062 -51.955 148.501  1.00  0.00     0.293 HD
ENDBRANCH   6  22
BRANCH   8  24
ATOM     24  O   UNL     1      29.608 -49.608 151.951  1.00  0.00    -0.508 OA
ATOM     25  H   UNL     1      29.568 -48.865 152.640  1.00  0.00     0.293 HD
ENDBRANCH   8  24
TORSDOF 5
ENDMDL
MODEL 8
REMARK VINA RESULT:    -4.310      3.999      6.240
REMARK INTER + INTRA:          -5.529
REMARK INTER:                  -5.150
REMARK INTRA:                  -0.379
REMARK UNBOUND:                -0.337
REMARK SMILES COc1ccc([C@H]2CC(=O)c3c(O)cc(O)cc3O2)cc1O
REMARK SMILES IDX 7 1 8 2 9 3 10 4 11 5 12 6 14 7 15 8 17 9 18 10 19 11 6 12
REMARK SMILES IDX 3 13 21 14 4 15 20 16 5 17 2 18 1 19 22 20 13 22 16 24
REMARK H PARENT 22 21 13 23 16 25
REMARK Flexibility Score: inf
ROOT
ATOM      1  C   UNL     1      20.879 -33.880 153.154  1.00  0.00     0.211 C 
ATOM      2  C   UNL     1      22.169 -34.442 152.538  1.00  0.00     0.131 C 
ATOM      3  C   UNL     1      22.052 -34.412 151.044  1.00  0.00     0.174 C 
ATOM      4  O   UNL     1      23.011 -33.967 150.359  1.00  0.00    -0.294 OA
ATOM      5  C   UNL     1      20.781 -34.851 150.417  1.00  0.00     0.102 A 
ATOM      6  C   UNL     1      20.656 -35.236 149.056  1.00  0.00     0.133 A 
ATOM      7  C   UNL     1      19.394 -35.569 148.547  1.00  0.00     0.093 A 
ATOM      8  C   UNL     1      18.269 -35.580 149.374  1.00  0.00     0.123 A 
ATOM      9  C   UNL     1      18.397 -35.247 150.725  1.00  0.00     0.093 A 
ATOM     10  C   UNL     1      19.638 -34.874 151.245  1.00  0.00     0.138 A 
ATOM     11  O   UNL     1      19.732 -34.530 152.601  1.00  0.00    -0.484 OA
ENDROOT
BRANCH   1  12
ATOM     12  C   UNL     1      20.891 -34.040 154.655  1.00  0.00    -0.003 A 
ATOM     13  C   UNL     1      20.926 -34.408 157.452  1.00  0.00     0.160 A 
ATOM     14  C   UNL     1      19.715 -34.460 156.748  1.00  0.00     0.158 A 
ATOM     15  C   UNL     1      22.123 -34.180 156.745  1.00  0.00     0.051 A 
ATOM     16  C   UNL     1      19.698 -34.281 155.358  1.00  0.00     0.057 A 
ATOM     17  C   UNL     1      22.103 -34.004 155.360  1.00  0.00     0.011 A 
BRANCH  13  18
ATOM     18  O   UNL     1      20.901 -34.589 158.843  1.00  0.00    -0.493 OA
ATOM     19  C   UNL     1      21.827 -35.393 159.567  1.00  0.00     0.278 C 
ENDBRANCH  13  18
BRANCH  14  20
ATOM     20  O   UNL     1      18.527 -34.692 157.439  1.00  0.00    -0.504 OA
ATOM     21  H   UNL     1      17.627 -34.660 156.975  1.00  0.00     0.293 HD
ENDBRANCH  14  20
ENDBRANCH   1  12
BRANCH   6  22
ATOM     22  O   UNL     1      21.745 -35.339 148.188  1.00  0.00    -0.507 OA
ATOM     23  H   UNL     1      21.842 -34.803 147.338  1.00  0.00     0.293 HD
ENDBRANCH   6  22
BRANCH   8  24
ATOM     24  O   UNL     1      17.030 -35.933 148.843  1.00  0.00    -0.508 OA
ATOM     25  H   UNL     1      16.912 -36.121 147.854  1.00  0.00     0.293 HD
ENDBRANCH   8  24
TORSDOF 5
ENDMDL
MODEL 9
REMARK VINA RESULT:    -4.008     18.049     19.758
REMARK INTER + INTRA:          -5.164
REMARK INTER:                  -4.782
REMARK INTRA:                  -0.382
REMARK UNBOUND:                -0.337
REMARK SMILES COc1ccc([C@H]2CC(=O)c3c(O)cc(O)cc3O2)cc1O
REMARK SMILES IDX 7 1 8 2 9 3 10 4 11 5 12 6 14 7 15 8 17 9 18 10 19 11 6 12
REMARK SMILES IDX 3 13 21 14 4 15 20 16 5 17 2 18 1 19 22 20 13 22 16 24
REMARK H PARENT 22 21 13 23 16 25
REMARK Flexibility Score: inf
ROOT
ATOM      1  C   UNL     1      24.041 -54.105 153.236  1.00  0.00     0.211 C 
ATOM      2  C   UNL     1      22.793 -53.711 152.432  1.00  0.00     0.131 C 
ATOM      3  C   UNL     1      23.160 -53.591 150.983  1.00  0.00     0.174 C 
ATOM      4  O   UNL     1      22.423 -54.125 150.114  1.00  0.00    -0.294 OA
ATOM      5  C   UNL     1      24.420 -52.896 150.621  1.00  0.00     0.102 A 
ATOM      6  C   UNL     1      24.699 -52.377 149.329  1.00  0.00     0.133 A 
ATOM      7  C   UNL     1      25.950 -51.798 149.075  1.00  0.00     0.093 A 
ATOM      8  C   UNL     1      26.901 -51.674 150.090  1.00  0.00     0.123 A 
ATOM      9  C   UNL     1      26.611 -52.141 151.374  1.00  0.00     0.093 A 
ATOM     10  C   UNL     1      25.387 -52.757 151.641  1.00  0.00     0.138 A 
ATOM     11  O   UNL     1      25.130 -53.229 152.936  1.00  0.00    -0.484 OA
ENDROOT
BRANCH   1  12
ATOM     12  C   UNL     1      23.751 -54.081 154.717  1.00  0.00    -0.003 A 
ATOM     13  C   UNL     1      23.209 -53.967 157.483  1.00  0.00     0.160 A 
ATOM     14  C   UNL     1      24.530 -54.072 157.026  1.00  0.00     0.158 A 
ATOM     15  C   UNL     1      22.160 -53.909 156.546  1.00  0.00     0.051 A 
ATOM     16  C   UNL     1      24.799 -54.125 155.652  1.00  0.00     0.057 A 
ATOM     17  C   UNL     1      22.431 -53.960 155.177  1.00  0.00     0.011 A 
BRANCH  13  18
ATOM     18  O   UNL     1      22.980 -53.919 158.867  1.00  0.00    -0.493 OA
ATOM     19  C   UNL     1      22.567 -52.755 159.575  1.00  0.00     0.278 C 
ENDBRANCH  13  18
BRANCH  14  20
ATOM     20  O   UNL     1      25.574 -54.123 157.948  1.00  0.00    -0.504 OA
ATOM     21  H   UNL     1      26.424 -54.643 157.760  1.00  0.00     0.293 HD
ENDBRANCH  14  20
ENDBRANCH   1  12
BRANCH   6  22
ATOM     22  O   UNL     1      23.770 -52.379 148.287  1.00  0.00    -0.507 OA
ATOM     23  H   UNL     1      23.808 -51.754 147.496  1.00  0.00     0.293 HD
ENDBRANCH   6  22
BRANCH   8  24
ATOM     24  O   UNL     1      28.129 -51.078 149.811  1.00  0.00    -0.508 OA
ATOM     25  H   UNL     1      28.206 -50.304 149.160  1.00  0.00     0.293 HD
ENDBRANCH   8  24
TORSDOF 5
ENDMDL
