MODEL 1
REMARK VINA RESULT:    -4.476      0.000      0.000
REMARK INTER + INTRA:          -6.668
REMARK INTER:                  -6.308
REMARK INTRA:                  -0.360
REMARK UNBOUND:                -0.360
REMARK SMILES CCCCCCCCC(=O)[O-]
REMARK SMILES IDX 6 1 7 2 8 3 9 4 10 5 11 6 5 7 4 8 3 9 2 10 1 11
REMARK H PARENT
REMARK Flexibility Score: inf
ROOT
ATOM      1  C   UNL     1      34.859   7.622  11.603  1.00  0.00     0.000 C 
ENDROOT
BRANCH   1   2
ATOM      2  C   UNL     1      35.130   6.149  11.949  1.00  0.00     0.006 C 
BRANCH   2   3
ATOM      3  C   UNL     1      35.224   5.917  13.463  1.00  0.00     0.053 C 
BRANCH   3   4
ATOM      4  C   UNL     1      34.215   4.915  13.935  1.00  0.00     0.041 C 
ATOM      5  O   UNL     1      33.087   4.841  13.381  1.00  0.00    -0.550 OA
ATOM      6  O   UNL     1      34.510   4.086  15.010  1.00  0.00    -0.550 OA
ENDBRANCH   3   4
ENDBRANCH   2   3
ENDBRANCH   1   2
BRANCH   1   7
ATOM      7  C   UNL     1      33.370   7.850  11.305  1.00  0.00     0.000 C 
BRANCH   7   8
ATOM      8  C   UNL     1      32.576   8.266  12.554  1.00  0.00    -0.000 C 
BRANCH   8   9
ATOM      9  C   UNL     1      31.281   9.023  12.207  1.00  0.00    -0.000 C 
BRANCH   9  10
ATOM     10  C   UNL     1      31.470  10.547  12.219  1.00  0.00    -0.003 C 
ATOM     11  C   UNL     1      30.142  11.305  12.199  1.00  0.00     0.004 C 
ENDBRANCH   9  10
ENDBRANCH   8   9
ENDBRANCH   7   8
ENDBRANCH   1   7
TORSDOF 7
ENDMDL
MODEL 2
REMARK VINA RESULT:    -4.350      2.472      4.152
REMARK INTER + INTRA:          -6.490
REMARK INTER:                  -5.878
REMARK INTRA:                  -0.612
REMARK UNBOUND:                -0.360
REMARK SMILES CCCCCCCCC(=O)[O-]
REMARK SMILES IDX 6 1 7 2 8 3 9 4 10 5 11 6 5 7 4 8 3 9 2 10 1 11
REMARK H PARENT
REMARK Flexibility Score: inf
ROOT
ATOM      1  C   UNL     1      35.122   7.700  11.546  1.00  0.00     0.000 C 
ENDROOT
BRANCH   1   2
ATOM      2  C   UNL     1      35.453   6.434  12.352  1.00  0.00     0.006 C 
BRANCH   2   3
ATOM      3  C   UNL     1      34.224   5.869  13.078  1.00  0.00     0.053 C 
BRANCH   3   4
ATOM      4  C   UNL     1      34.612   4.938  14.186  1.00  0.00     0.041 C 
ATOM      5  O   UNL     1      34.015   3.839  14.330  1.00  0.00    -0.550 OA
ATOM      6  O   UNL     1      35.612   5.301  15.079  1.00  0.00    -0.550 OA
ENDBRANCH   3   4
ENDBRANCH   2   3
ENDBRANCH   1   2
BRANCH   1   7
ATOM      7  C   UNL     1      33.788   7.541  10.801  1.00  0.00     0.000 C 
BRANCH   7   8
ATOM      8  C   UNL     1      33.971   7.443   9.278  1.00  0.00    -0.000 C 
BRANCH   8   9
ATOM      9  C   UNL     1      33.722   6.023   8.741  1.00  0.00    -0.000 C 
BRANCH   9  10
ATOM     10  C   UNL     1      35.004   5.360   8.217  1.00  0.00    -0.003 C 
ATOM     11  C   UNL     1      35.668   4.455   9.256  1.00  0.00     0.004 C 
ENDBRANCH   9  10
ENDBRANCH   8   9
ENDBRANCH   7   8
ENDBRANCH   1   7
TORSDOF 7
ENDMDL
MODEL 3
REMARK VINA RESULT:    -4.325      2.678      3.143
REMARK INTER + INTRA:          -6.454
REMARK INTER:                  -6.222
REMARK INTRA:                  -0.232
REMARK UNBOUND:                -0.360
REMARK SMILES CCCCCCCCC(=O)[O-]
REMARK SMILES IDX 6 1 7 2 8 3 9 4 10 5 11 6 5 7 4 8 3 9 2 10 1 11
REMARK H PARENT
REMARK Flexibility Score: inf
ROOT
ATOM      1  C   UNL     1      34.310   6.494  12.576  1.00  0.00     0.000 C 
ENDROOT
BRANCH   1   2
ATOM      2  C   UNL     1      34.896   6.696  11.170  1.00  0.00     0.006 C 
BRANCH   2   3
ATOM      3  C   UNL     1      36.276   7.367  11.207  1.00  0.00     0.053 C 
BRANCH   3   4
ATOM      4  C   UNL     1      37.360   6.431  10.765  1.00  0.00     0.041 C 
ATOM      5  O   UNL     1      38.567   6.705  10.995  1.00  0.00    -0.550 OA
ATOM      6  O   UNL     1      37.037   5.273  10.069  1.00  0.00    -0.550 OA
ENDBRANCH   3   4
ENDBRANCH   2   3
ENDBRANCH   1   2
BRANCH   1   7
ATOM      7  C   UNL     1      32.877   7.041  12.658  1.00  0.00     0.000 C 
BRANCH   7   8
ATOM      8  C   UNL     1      32.717   8.386  11.931  1.00  0.00    -0.000 C 
BRANCH   8   9
ATOM      9  C   UNL     1      31.400   9.098  12.286  1.00  0.00    -0.000 C 
BRANCH   9  10
ATOM     10  C   UNL     1      31.459  10.610  12.023  1.00  0.00    -0.003 C 
ATOM     11  C   UNL     1      30.093  11.285  12.151  1.00  0.00     0.004 C 
ENDBRANCH   9  10
ENDBRANCH   8   9
ENDBRANCH   7   8
ENDBRANCH   1   7
TORSDOF 7
ENDMDL
MODEL 4
REMARK VINA RESULT:    -4.315      3.296      3.856
REMARK INTER + INTRA:          -6.440
REMARK INTER:                  -6.089
REMARK INTRA:                  -0.352
REMARK UNBOUND:                -0.360
REMARK SMILES CCCCCCCCC(=O)[O-]
REMARK SMILES IDX 6 1 7 2 8 3 9 4 10 5 11 6 5 7 4 8 3 9 2 10 1 11
REMARK H PARENT
REMARK Flexibility Score: inf
ROOT
ATOM      1  C   UNL     1      35.004   7.307  11.882  1.00  0.00     0.000 C 
ENDROOT
BRANCH   1   2
ATOM      2  C   UNL     1      35.168   7.185  10.359  1.00  0.00     0.006 C 
BRANCH   2   3
ATOM      3  C   UNL     1      33.997   6.438   9.706  1.00  0.00     0.053 C 
BRANCH   3   4
ATOM      4  C   UNL     1      33.809   6.840   8.275  1.00  0.00     0.041 C 
ATOM      5  O   UNL     1      33.681   5.963   7.381  1.00  0.00    -0.550 OA
ATOM      6  O   UNL     1      33.809   8.185   7.927  1.00  0.00    -0.550 OA
ENDBRANCH   3   4
ENDBRANCH   2   3
ENDBRANCH   1   2
BRANCH   1   7
ATOM      7  C   UNL     1      33.936   8.351  12.237  1.00  0.00     0.000 C 
BRANCH   7   8
ATOM      8  C   UNL     1      32.632   7.714  12.743  1.00  0.00    -0.000 C 
BRANCH   8   9
ATOM      9  C   UNL     1      31.386   8.532  12.361  1.00  0.00    -0.000 C 
BRANCH   9  10
ATOM     10  C   UNL     1      31.730   9.969  11.943  1.00  0.00    -0.003 C 
ATOM     11  C   UNL     1      30.598  10.955  12.232  1.00  0.00     0.004 C 
ENDBRANCH   9  10
ENDBRANCH   8   9
ENDBRANCH   7   8
ENDBRANCH   1   7
TORSDOF 7
ENDMDL
MODEL 5
REMARK VINA RESULT:    -4.299      3.206      4.423
REMARK INTER + INTRA:          -6.418
REMARK INTER:                  -5.879
REMARK INTRA:                  -0.539
REMARK UNBOUND:                -0.360
REMARK SMILES CCCCCCCCC(=O)[O-]
REMARK SMILES IDX 6 1 7 2 8 3 9 4 10 5 11 6 5 7 4 8 3 9 2 10 1 11
REMARK H PARENT
REMARK Flexibility Score: inf
ROOT
ATOM      1  C   UNL     1      36.729   6.002  10.243  1.00  0.00     0.000 C 
ENDROOT
BRANCH   1   2
ATOM      2  C   UNL     1      35.451   5.221   9.897  1.00  0.00     0.006 C 
BRANCH   2   3
ATOM      3  C   UNL     1      35.168   5.209   8.389  1.00  0.00     0.053 C 
BRANCH   3   4
ATOM      4  C   UNL     1      34.018   6.100   8.032  1.00  0.00     0.041 C 
ATOM      5  O   UNL     1      33.131   5.702   7.231  1.00  0.00    -0.550 OA
ATOM      6  O   UNL     1      33.944   7.383   8.560  1.00  0.00    -0.550 OA
ENDBRANCH   3   4
ENDBRANCH   2   3
ENDBRANCH   1   2
BRANCH   1   7
ATOM      7  C   UNL     1      36.413   7.189  11.165  1.00  0.00     0.000 C 
BRANCH   7   8
ATOM      8  C   UNL     1      35.177   6.941  12.044  1.00  0.00    -0.000 C 
BRANCH   8   9
ATOM      9  C   UNL     1      34.175   8.108  11.999  1.00  0.00    -0.000 C 
BRANCH   9  10
ATOM     10  C   UNL     1      32.721   7.630  11.864  1.00  0.00    -0.003 C 
ATOM     11  C   UNL     1      31.728   8.558  12.565  1.00  0.00     0.004 C 
ENDBRANCH   9  10
ENDBRANCH   8   9
ENDBRANCH   7   8
ENDBRANCH   1   7
TORSDOF 7
ENDMDL
MODEL 6
REMARK VINA RESULT:    -4.266      2.741      4.565
REMARK INTER + INTRA:          -6.371
REMARK INTER:                  -5.547
REMARK INTRA:                  -0.825
REMARK UNBOUND:                -0.360
REMARK SMILES CCCCCCCCC(=O)[O-]
REMARK SMILES IDX 6 1 7 2 8 3 9 4 10 5 11 6 5 7 4 8 3 9 2 10 1 11
REMARK H PARENT
REMARK Flexibility Score: inf
ROOT
ATOM      1  C   UNL     1      36.567   6.967  10.842  1.00  0.00     0.000 C 
ENDROOT
BRANCH   1   2
ATOM      2  C   UNL     1      35.487   6.730  11.909  1.00  0.00     0.006 C 
BRANCH   2   3
ATOM      3  C   UNL     1      34.458   7.867  11.957  1.00  0.00     0.053 C 
BRANCH   3   4
ATOM      4  C   UNL     1      33.074   7.354  12.214  1.00  0.00     0.041 C 
ATOM      5  O   UNL     1      32.300   7.976  12.989  1.00  0.00    -0.550 OA
ATOM      6  O   UNL     1      32.652   6.170  11.623  1.00  0.00    -0.550 OA
ENDBRANCH   3   4
ENDBRANCH   2   3
ENDBRANCH   1   2
BRANCH   1   7
ATOM      7  C   UNL     1      36.864   5.676  10.065  1.00  0.00     0.000 C 
BRANCH   7   8
ATOM      8  C   UNL     1      35.589   4.894   9.710  1.00  0.00    -0.000 C 
BRANCH   8   9
ATOM      9  C   UNL     1      35.096   5.183   8.281  1.00  0.00    -0.000 C 
BRANCH   9  10
ATOM     10  C   UNL     1      33.741   5.906   8.262  1.00  0.00    -0.003 C 
ATOM     11  C   UNL     1      33.882   7.427   8.324  1.00  0.00     0.004 C 
ENDBRANCH   9  10
ENDBRANCH   8   9
ENDBRANCH   7   8
ENDBRANCH   1   7
TORSDOF 7
ENDMDL
MODEL 7
REMARK VINA RESULT:    -4.226      4.051      5.588
REMARK INTER + INTRA:          -6.315
REMARK INTER:                  -5.443
REMARK INTRA:                  -0.873
REMARK UNBOUND:                -0.360
REMARK SMILES CCCCCCCCC(=O)[O-]
REMARK SMILES IDX 6 1 7 2 8 3 9 4 10 5 11 6 5 7 4 8 3 9 2 10 1 11
REMARK H PARENT
REMARK Flexibility Score: inf
ROOT
ATOM      1  C   UNL     1      33.431   4.882  10.580  1.00  0.00     0.000 C 
ENDROOT
BRANCH   1   2
ATOM      2  C   UNL     1      34.294   4.182   9.518  1.00  0.00     0.006 C 
BRANCH   2   3
ATOM      3  C   UNL     1      34.920   5.177   8.532  1.00  0.00     0.053 C 
BRANCH   3   4
ATOM      4  C   UNL     1      33.890   6.077   7.920  1.00  0.00     0.041 C 
ATOM      5  O   UNL     1      33.054   5.618   7.098  1.00  0.00    -0.550 OA
ATOM      6  O   UNL     1      33.876   7.429   8.235  1.00  0.00    -0.550 OA
ENDBRANCH   3   4
ENDBRANCH   2   3
ENDBRANCH   1   2
BRANCH   1   7
ATOM      7  C   UNL     1      34.302   5.430  11.720  1.00  0.00     0.000 C 
BRANCH   7   8
ATOM      8  C   UNL     1      34.300   6.966  11.779  1.00  0.00    -0.000 C 
BRANCH   8   9
ATOM      9  C   UNL     1      35.633   7.578  11.316  1.00  0.00    -0.000 C 
BRANCH   9  10
ATOM     10  C   UNL     1      36.821   6.628  11.526  1.00  0.00    -0.003 C 
ATOM     11  C   UNL     1      37.827   6.677  10.376  1.00  0.00     0.004 C 
ENDBRANCH   9  10
ENDBRANCH   8   9
ENDBRANCH   7   8
ENDBRANCH   1   7
TORSDOF 7
ENDMDL
MODEL 8
REMARK VINA RESULT:    -4.213      2.775      4.819
REMARK INTER + INTRA:          -6.297
REMARK INTER:                  -5.438
REMARK INTRA:                  -0.860
REMARK UNBOUND:                -0.360
REMARK SMILES CCCCCCCCC(=O)[O-]
REMARK SMILES IDX 6 1 7 2 8 3 9 4 10 5 11 6 5 7 4 8 3 9 2 10 1 11
REMARK H PARENT
REMARK Flexibility Score: inf
ROOT
ATOM      1  C   UNL     1      33.941   7.799   9.296  1.00  0.00     0.000 C 
ENDROOT
BRANCH   1   2
ATOM      2  C   UNL     1      33.524   7.494  10.743  1.00  0.00     0.006 C 
BRANCH   2   3
ATOM      3  C   UNL     1      34.627   7.844  11.751  1.00  0.00     0.053 C 
BRANCH   3   4
ATOM      4  C   UNL     1      35.306   6.618  12.281  1.00  0.00     0.041 C 
ATOM      5  O   UNL     1      34.762   5.933  13.187  1.00  0.00    -0.550 OA
ATOM      6  O   UNL     1      36.555   6.251  11.796  1.00  0.00    -0.550 OA
ENDBRANCH   3   4
ENDBRANCH   2   3
ENDBRANCH   1   2
BRANCH   1   7
ATOM      7  C   UNL     1      33.889   6.530   8.432  1.00  0.00     0.000 C 
BRANCH   7   8
ATOM      8  C   UNL     1      35.169   5.686   8.545  1.00  0.00    -0.000 C 
BRANCH   8   9
ATOM      9  C   UNL     1      34.904   4.281   9.112  1.00  0.00    -0.000 C 
BRANCH   9  10
ATOM     10  C   UNL     1      33.411   4.018   9.359  1.00  0.00    -0.003 C 
ATOM     11  C   UNL     1      33.087   3.800  10.837  1.00  0.00     0.004 C 
ENDBRANCH   9  10
ENDBRANCH   8   9
ENDBRANCH   7   8
ENDBRANCH   1   7
TORSDOF 7
ENDMDL
MODEL 9
REMARK VINA RESULT:    -4.167      2.241      4.713
REMARK INTER + INTRA:          -6.232
REMARK INTER:                  -5.817
REMARK INTRA:                  -0.415
REMARK UNBOUND:                -0.360
REMARK SMILES CCCCCCCCC(=O)[O-]
REMARK SMILES IDX 6 1 7 2 8 3 9 4 10 5 11 6 5 7 4 8 3 9 2 10 1 11
REMARK H PARENT
REMARK Flexibility Score: inf
ROOT
ATOM      1  C   UNL     1      33.192   7.831  11.584  1.00  0.00     0.000 C 
ENDROOT
BRANCH   1   2
ATOM      2  C   UNL     1      32.467   6.956  12.618  1.00  0.00     0.006 C 
BRANCH   2   3
ATOM      3  C   UNL     1      32.307   5.506  12.142  1.00  0.00     0.053 C 
BRANCH   3   4
ATOM      4  C   UNL     1      33.119   4.556  12.969  1.00  0.00     0.041 C 
ATOM      5  O   UNL     1      32.797   3.341  13.039  1.00  0.00    -0.550 OA
ATOM      6  O   UNL     1      34.211   5.022  13.689  1.00  0.00    -0.550 OA
ENDBRANCH   3   4
ENDBRANCH   2   3
ENDBRANCH   1   2
BRANCH   1   7
ATOM      7  C   UNL     1      34.690   7.935  11.907  1.00  0.00     0.000 C 
BRANCH   7   8
ATOM      8  C   UNL     1      35.571   7.249  10.851  1.00  0.00    -0.000 C 
BRANCH   8   9
ATOM      9  C   UNL     1      36.724   6.444  11.474  1.00  0.00    -0.000 C 
BRANCH   9  10
ATOM     10  C   UNL     1      38.045   6.620  10.710  1.00  0.00    -0.003 C 
ATOM     11  C   UNL     1      39.235   6.862  11.638  1.00  0.00     0.004 C 
ENDBRANCH   9  10
ENDBRANCH   8   9
ENDBRANCH   7   8
ENDBRANCH   1   7
TORSDOF 7
ENDMDL
