MODEL 1
REMARK VINA RESULT:    -3.822      0.000      0.000
REMARK INTER + INTRA:          -4.875
REMARK INTER:                  -4.716
REMARK INTRA:                  -0.160
REMARK UNBOUND:                -0.160
REMARK SMILES CCCCCC(=O)[O-]
REMARK SMILES IDX 4 1 5 2 6 3 7 4 8 5 3 6 2 7 1 8
REMARK H PARENT
REMARK Flexibility Score: inf
ROOT
ATOM      1  C   UNL     1     -31.212 -20.730 -22.727  1.00  0.00     0.006 C 
ENDROOT
BRANCH   1   2
ATOM      2  C   UNL     1     -30.316 -21.963 -22.571  1.00  0.00     0.053 C 
BRANCH   2   3
ATOM      3  C   UNL     1     -28.933 -21.558 -22.168  1.00  0.00     0.041 C 
ATOM      4  O   UNL     1     -28.654 -21.381 -20.953  1.00  0.00    -0.550 OA
ATOM      5  O   UNL     1     -27.940 -21.423 -23.129  1.00  0.00    -0.550 OA
ENDBRANCH   2   3
ENDBRANCH   1   2
BRANCH   1   6
ATOM      6  C   UNL     1     -31.137 -20.175 -24.157  1.00  0.00     0.000 C 
BRANCH   6   7
ATOM      7  C   UNL     1     -30.861 -21.267 -25.201  1.00  0.00    -0.003 C 
ATOM      8  C   UNL     1     -30.308 -20.707 -26.512  1.00  0.00     0.004 C 
ENDBRANCH   6   7
ENDBRANCH   1   6
TORSDOF 4
ENDMDL
MODEL 2
REMARK VINA RESULT:    -3.631      2.278      3.628
REMARK INTER + INTRA:          -4.639
REMARK INTER:                  -4.453
REMARK INTRA:                  -0.186
REMARK UNBOUND:                -0.160
REMARK SMILES CCCCCC(=O)[O-]
REMARK SMILES IDX 4 1 5 2 6 3 7 4 8 5 3 6 2 7 1 8
REMARK H PARENT
REMARK Flexibility Score: inf
ROOT
ATOM      1  C   UNL     1     -31.016 -21.021 -23.134  1.00  0.00     0.006 C 
ENDROOT
BRANCH   1   2
ATOM      2  C   UNL     1     -31.077 -21.439 -24.607  1.00  0.00     0.053 C 
BRANCH   2   3
ATOM      3  C   UNL     1     -30.465 -20.387 -25.476  1.00  0.00     0.041 C 
ATOM      4  O   UNL     1     -30.264 -19.229 -25.024  1.00  0.00    -0.550 OA
ATOM      5  O   UNL     1     -30.071 -20.698 -26.772  1.00  0.00    -0.550 OA
ENDBRANCH   2   3
ENDBRANCH   1   2
BRANCH   1   6
ATOM      6  C   UNL     1     -30.219 -22.041 -22.307  1.00  0.00     0.000 C 
BRANCH   6   7
ATOM      7  C   UNL     1     -28.877 -21.481 -21.812  1.00  0.00    -0.003 C 
ATOM      8  C   UNL     1     -27.796 -21.494 -22.893  1.00  0.00     0.004 C 
ENDBRANCH   6   7
ENDBRANCH   1   6
TORSDOF 4
ENDMDL
MODEL 3
REMARK VINA RESULT:    -3.384      1.192      2.427
REMARK INTER + INTRA:          -4.335
REMARK INTER:                  -4.207
REMARK INTRA:                  -0.128
REMARK UNBOUND:                -0.160
REMARK SMILES CCCCCC(=O)[O-]
REMARK SMILES IDX 4 1 5 2 6 3 7 4 8 5 3 6 2 7 1 8
REMARK H PARENT
REMARK Flexibility Score: inf
ROOT
ATOM      1  C   UNL     1     -29.606 -20.947 -24.058  1.00  0.00     0.006 C 
ENDROOT
BRANCH   1   2
ATOM      2  C   UNL     1     -29.555 -21.751 -22.754  1.00  0.00     0.053 C 
BRANCH   2   3
ATOM      3  C   UNL     1     -28.163 -21.779 -22.210  1.00  0.00     0.041 C 
ATOM      4  O   UNL     1     -27.191 -21.446 -22.938  1.00  0.00    -0.550 OA
ATOM      5  O   UNL     1     -27.942 -22.125 -20.883  1.00  0.00    -0.550 OA
ENDBRANCH   2   3
ENDBRANCH   1   2
BRANCH   1   6
ATOM      6  C   UNL     1     -30.976 -20.275 -24.235  1.00  0.00     0.000 C 
BRANCH   6   7
ATOM      7  C   UNL     1     -31.890 -20.468 -23.016  1.00  0.00    -0.003 C 
ATOM      8  C   UNL     1     -32.435 -19.149 -22.469  1.00  0.00     0.004 C 
ENDBRANCH   6   7
ENDBRANCH   1   6
TORSDOF 4
ENDMDL
MODEL 4
REMARK VINA RESULT:    -3.261      2.567      3.859
REMARK INTER + INTRA:          -4.183
REMARK INTER:                  -3.976
REMARK INTRA:                  -0.208
REMARK UNBOUND:                -0.160
REMARK SMILES CCCCCC(=O)[O-]
REMARK SMILES IDX 4 1 5 2 6 3 7 4 8 5 3 6 2 7 1 8
REMARK H PARENT
REMARK Flexibility Score: inf
ROOT
ATOM      1  C   UNL     1     -29.876 -21.223 -23.523  1.00  0.00     0.006 C 
ENDROOT
BRANCH   1   2
ATOM      2  C   UNL     1     -30.746 -21.456 -24.763  1.00  0.00     0.053 C 
BRANCH   2   3
ATOM      3  C   UNL     1     -30.496 -20.394 -25.786  1.00  0.00     0.041 C 
ATOM      4  O   UNL     1     -30.397 -20.698 -27.003  1.00  0.00    -0.550 OA
ATOM      5  O   UNL     1     -30.422 -19.061 -25.400  1.00  0.00    -0.550 OA
ENDBRANCH   2   3
ENDBRANCH   1   2
BRANCH   1   6
ATOM      6  C   UNL     1     -30.743 -21.084 -22.263  1.00  0.00     0.000 C 
BRANCH   6   7
ATOM      7  C   UNL     1     -32.180 -20.645 -22.580  1.00  0.00    -0.003 C 
ATOM      8  C   UNL     1     -32.396 -19.143 -22.395  1.00  0.00     0.004 C 
ENDBRANCH   6   7
ENDBRANCH   1   6
TORSDOF 4
ENDMDL
MODEL 5
REMARK VINA RESULT:    -3.023      2.415      4.423
REMARK INTER + INTRA:          -3.889
REMARK INTER:                  -3.818
REMARK INTRA:                  -0.071
REMARK UNBOUND:                -0.160
REMARK SMILES CCCCCC(=O)[O-]
REMARK SMILES IDX 4 1 5 2 6 3 7 4 8 5 3 6 2 7 1 8
REMARK H PARENT
REMARK Flexibility Score: inf
ROOT
ATOM      1  C   UNL     1     -30.422 -21.829 -21.977  1.00  0.00     0.006 C 
ENDROOT
BRANCH   1   2
ATOM      2  C   UNL     1     -30.684 -21.717 -23.483  1.00  0.00     0.053 C 
BRANCH   2   3
ATOM      3  C   UNL     1     -31.124 -20.332 -23.837  1.00  0.00     0.041 C 
ATOM      4  O   UNL     1     -30.816 -19.835 -24.951  1.00  0.00    -0.550 OA
ATOM      5  O   UNL     1     -31.917 -19.608 -22.955  1.00  0.00    -0.550 OA
ENDBRANCH   2   3
ENDBRANCH   1   2
BRANCH   1   6
ATOM      6  C   UNL     1     -28.919 -21.964 -21.691  1.00  0.00     0.000 C 
BRANCH   6   7
ATOM      7  C   UNL     1     -28.493 -21.225 -20.414  1.00  0.00    -0.003 C 
ATOM      8  C   UNL     1     -28.498 -22.125 -19.178  1.00  0.00     0.004 C 
ENDBRANCH   6   7
ENDBRANCH   1   6
TORSDOF 4
ENDMDL
MODEL 6
REMARK VINA RESULT:    -2.952      2.660      4.933
REMARK INTER + INTRA:          -3.802
REMARK INTER:                  -3.752
REMARK INTRA:                  -0.051
REMARK UNBOUND:                -0.160
REMARK SMILES CCCCCC(=O)[O-]
REMARK SMILES IDX 4 1 5 2 6 3 7 4 8 5 3 6 2 7 1 8
REMARK H PARENT
REMARK Flexibility Score: inf
ROOT
ATOM      1  C   UNL     1     -28.729 -21.211 -21.397  1.00  0.00     0.006 C 
ENDROOT
BRANCH   1   2
ATOM      2  C   UNL     1     -29.781 -22.000 -22.184  1.00  0.00     0.053 C 
BRANCH   2   3
ATOM      3  C   UNL     1     -30.362 -21.156 -23.275  1.00  0.00     0.041 C 
ATOM      4  O   UNL     1     -29.651 -20.811 -24.255  1.00  0.00    -0.550 OA
ATOM      5  O   UNL     1     -31.702 -20.792 -23.233  1.00  0.00    -0.550 OA
ENDBRANCH   2   3
ENDBRANCH   1   2
BRANCH   1   6
ATOM      6  C   UNL     1     -27.973 -22.125 -20.422  1.00  0.00     0.000 C 
BRANCH   6   7
ATOM      7  C   UNL     1     -28.558 -22.086 -19.003  1.00  0.00    -0.003 C 
ATOM      8  C   UNL     1     -27.481 -22.072 -17.918  1.00  0.00     0.004 C 
ENDBRANCH   6   7
ENDBRANCH   1   6
TORSDOF 4
ENDMDL
MODEL 7
REMARK VINA RESULT:    -2.627      2.702      3.782
REMARK INTER + INTRA:          -3.401
REMARK INTER:                  -3.619
REMARK INTRA:                   0.218
REMARK UNBOUND:                -0.160
REMARK SMILES CCCCCC(=O)[O-]
REMARK SMILES IDX 4 1 5 2 6 3 7 4 8 5 3 6 2 7 1 8
REMARK H PARENT
REMARK Flexibility Score: inf
ROOT
ATOM      1  C   UNL     1     -30.214 -21.724 -23.564  1.00  0.00     0.006 C 
ENDROOT
BRANCH   1   2
ATOM      2  C   UNL     1     -31.161 -21.069 -22.553  1.00  0.00     0.053 C 
BRANCH   2   3
ATOM      3  C   UNL     1     -31.821 -19.869 -23.155  1.00  0.00     0.041 C 
ATOM      4  O   UNL     1     -32.509 -19.098 -22.437  1.00  0.00    -0.550 OA
ATOM      5  O   UNL     1     -31.637 -19.576 -24.501  1.00  0.00    -0.550 OA
ENDBRANCH   2   3
ENDBRANCH   1   2
BRANCH   1   6
ATOM      6  C   UNL     1     -28.828 -21.063 -23.525  1.00  0.00     0.000 C 
BRANCH   6   7
ATOM      7  C   UNL     1     -27.863 -21.772 -22.564  1.00  0.00    -0.003 C 
ATOM      8  C   UNL     1     -28.335 -21.729 -21.111  1.00  0.00     0.004 C 
ENDBRANCH   6   7
ENDBRANCH   1   6
TORSDOF 4
ENDMDL
MODEL 8
REMARK VINA RESULT:    -2.621      2.539      3.706
REMARK INTER + INTRA:          -3.393
REMARK INTER:                  -3.310
REMARK INTRA:                  -0.083
REMARK UNBOUND:                -0.160
REMARK SMILES CCCCCC(=O)[O-]
REMARK SMILES IDX 4 1 5 2 6 3 7 4 8 5 3 6 2 7 1 8
REMARK H PARENT
REMARK Flexibility Score: inf
ROOT
ATOM      1  C   UNL     1     -29.389 -21.183 -21.470  1.00  0.00     0.006 C 
ENDROOT
BRANCH   1   2
ATOM      2  C   UNL     1     -30.599 -21.942 -22.025  1.00  0.00     0.053 C 
BRANCH   2   3
ATOM      3  C   UNL     1     -31.402 -21.059 -22.927  1.00  0.00     0.041 C 
ATOM      4  O   UNL     1     -31.147 -21.013 -24.158  1.00  0.00    -0.550 OA
ATOM      5  O   UNL     1     -32.465 -20.324 -22.416  1.00  0.00    -0.550 OA
ENDBRANCH   2   3
ENDBRANCH   1   2
BRANCH   1   6
ATOM      6  C   UNL     1     -28.190 -22.125 -21.282  1.00  0.00     0.000 C 
BRANCH   6   7
ATOM      7  C   UNL     1     -27.234 -22.110 -22.484  1.00  0.00    -0.003 C 
ATOM      8  C   UNL     1     -27.575 -21.019 -23.499  1.00  0.00     0.004 C 
ENDBRANCH   6   7
ENDBRANCH   1   6
TORSDOF 4
ENDMDL
MODEL 9
REMARK VINA RESULT:    -2.433      2.657      2.941
REMARK INTER + INTRA:          -3.162
REMARK INTER:                  -3.373
REMARK INTRA:                   0.211
REMARK UNBOUND:                -0.160
REMARK SMILES CCCCCC(=O)[O-]
REMARK SMILES IDX 4 1 5 2 6 3 7 4 8 5 3 6 2 7 1 8
REMARK H PARENT
REMARK Flexibility Score: inf
ROOT
ATOM      1  C   UNL     1     -30.737 -21.717 -23.731  1.00  0.00     0.006 C 
ENDROOT
BRANCH   1   2
ATOM      2  C   UNL     1     -31.083 -20.870 -22.502  1.00  0.00     0.053 C 
BRANCH   2   3
ATOM      3  C   UNL     1     -32.008 -19.756 -22.877  1.00  0.00     0.041 C 
ATOM      4  O   UNL     1     -32.517 -19.028 -21.986  1.00  0.00    -0.550 OA
ATOM      5  O   UNL     1     -32.270 -19.491 -24.215  1.00  0.00    -0.550 OA
ENDBRANCH   2   3
ENDBRANCH   1   2
BRANCH   1   6
ATOM      6  C   UNL     1     -29.646 -21.041 -24.574  1.00  0.00     0.000 C 
BRANCH   6   7
ATOM      7  C   UNL     1     -30.055 -20.876 -26.045  1.00  0.00    -0.003 C 
ATOM      8  C   UNL     1     -30.849 -22.069 -26.577  1.00  0.00     0.004 C 
ENDBRANCH   6   7
ENDBRANCH   1   6
TORSDOF 4
ENDMDL
