MODEL 1
REMARK VINA RESULT:    -2.308      0.000      0.000
REMARK INTER + INTRA:          -2.905
REMARK INTER:                  -2.713
REMARK INTRA:                  -0.192
REMARK UNBOUND:                -0.192
REMARK SMILES O=c1c(O)c(-c2ccc(O)c(O)c2)oc2cc(O)ccc12
REMARK SMILES IDX 5 1 3 2 2 3 1 4 21 5 15 6 14 7 16 8 17 9 19 10 20 11 6 12
REMARK SMILES IDX 7 13 8 14 9 15 13 16 11 17 10 18 12 20 4 22 18 24
REMARK H PARENT 10 19 12 21 4 23 18 25
REMARK Flexibility Score: inf
ROOT
ATOM      1  C   UNL     1      -3.054  12.108   8.591  1.00  0.00     0.180 A 
ATOM      2  C   UNL     1      -3.603  13.146   9.372  1.00  0.00     0.208 A 
ATOM      3  C   UNL     1      -3.647  14.444   8.838  1.00  0.00     0.235 A 
ATOM      4  O   UNL     1      -4.125  15.390   9.521  1.00  0.00    -0.285 OA
ATOM      5  C   UNL     1      -3.164  14.672   7.540  1.00  0.00     0.069 A 
ATOM      6  C   UNL     1      -2.652  13.576   6.814  1.00  0.00     0.142 A 
ATOM      7  O   UNL     1      -2.620  12.365   7.359  1.00  0.00    -0.452 OA
ATOM      8  C   UNL     1      -2.171  13.762   5.513  1.00  0.00     0.094 A 
ATOM      9  C   UNL     1      -2.192  15.032   4.928  1.00  0.00     0.119 A 
ATOM     10  C   UNL     1      -2.700  16.123   5.646  1.00  0.00     0.047 A 
ATOM     11  C   UNL     1      -3.184  15.948   6.946  1.00  0.00     0.020 A 
ENDROOT
BRANCH   1  12
ATOM     12  C   UNL     1      -2.955  10.717   9.089  1.00  0.00     0.025 A 
ATOM     13  C   UNL     1      -4.125   9.958   9.255  1.00  0.00     0.016 A 
ATOM     14  C   UNL     1      -4.054   8.637   9.704  1.00  0.00     0.051 A 
ATOM     15  C   UNL     1      -2.811   8.051   9.980  1.00  0.00     0.157 A 
ATOM     16  C   UNL     1      -1.709  10.118   9.347  1.00  0.00     0.062 A 
ATOM     17  C   UNL     1      -1.637   8.792   9.798  1.00  0.00     0.158 A 
BRANCH  15  18
ATOM     18  O   UNL     1      -2.736   6.735  10.430  1.00  0.00    -0.504 OA
ATOM     19  H   UNL     1      -2.975   5.954   9.830  1.00  0.00     0.293 HD
ENDBRANCH  15  18
BRANCH  17  20
ATOM     20  O   UNL     1      -0.401   8.202  10.059  1.00  0.00    -0.504 OA
ATOM     21  H   UNL     1       0.030   7.561   9.403  1.00  0.00     0.293 HD
ENDBRANCH  17  20
ENDBRANCH   1  12
BRANCH   2  22
ATOM     22  O   UNL     1      -4.122  12.878  10.641  1.00  0.00    -0.502 OA
ATOM     23  H   UNL     1      -3.589  13.036  11.489  1.00  0.00     0.293 HD
ENDBRANCH   2  22
BRANCH   9  24
ATOM     24  O   UNL     1      -1.708  15.199   3.633  1.00  0.00    -0.508 OA
ATOM     25  H   UNL     1      -0.798  14.847   3.358  1.00  0.00     0.293 HD
ENDBRANCH   9  24
TORSDOF 5
ENDMDL
