MODEL 1
REMARK VINA RESULT:    -5.610      0.000      0.000
REMARK INTER + INTRA:          -7.031
REMARK INTER:                  -6.757
REMARK INTRA:                  -0.274
REMARK UNBOUND:                -0.274
REMARK SMILES O=c1c(O)c(-c2ccc(O)c(O)c2)oc2cc(O)cc(O)c12
REMARK SMILES IDX 5 1 3 2 2 3 1 4 22 5 20 6 19 7 17 8 16 9 15 10 14 11 6 12
REMARK SMILES IDX 7 13 8 14 9 15 13 16 11 17 10 18 12 20 4 22 21 24 18 26
REMARK H PARENT 10 19 12 21 4 23 21 25 18 27
REMARK Flexibility Score: inf
ROOT
ATOM      1  C   UNL     1      19.020  51.980  41.760  1.00  0.00     0.180 A 
ATOM      2  C   UNL     1      19.542  50.681  41.644  1.00  0.00     0.208 A 
ATOM      3  C   UNL     1      20.590  50.289  42.493  1.00  0.00     0.238 A 
ATOM      4  O   UNL     1      21.017  49.107  42.421  1.00  0.00    -0.285 OA
ATOM      5  C   UNL     1      21.113  51.207  43.436  1.00  0.00     0.111 A 
ATOM      6  C   UNL     1      22.201  50.931  44.318  1.00  0.00     0.134 A 
ATOM      7  C   UNL     1      22.548  51.868  45.298  1.00  0.00     0.093 A 
ATOM      8  C   UNL     1      21.893  53.096  45.387  1.00  0.00     0.123 A 
ATOM      9  C   UNL     1      20.868  53.400  44.491  1.00  0.00     0.094 A 
ATOM     10  C   UNL     1      20.474  52.471  43.526  1.00  0.00     0.146 A 
ATOM     11  O   UNL     1      19.487  52.795  42.698  1.00  0.00    -0.452 OA
ENDROOT
BRANCH   1  12
ATOM     12  C   UNL     1      17.932  52.474  40.885  1.00  0.00     0.025 A 
ATOM     13  C   UNL     1      16.602  52.539  41.337  1.00  0.00     0.016 A 
ATOM     14  C   UNL     1      15.587  52.984  40.486  1.00  0.00     0.051 A 
ATOM     15  C   UNL     1      15.884  53.358  39.169  1.00  0.00     0.157 A 
ATOM     16  C   UNL     1      18.220  52.830  39.557  1.00  0.00     0.062 A 
ATOM     17  C   UNL     1      17.202  53.279  38.703  1.00  0.00     0.158 A 
BRANCH  15  18
ATOM     18  O   UNL     1      14.875  53.805  38.317  1.00  0.00    -0.504 OA
ATOM     19  H   UNL     1      14.115  54.384  38.656  1.00  0.00     0.293 HD
ENDBRANCH  15  18
BRANCH  17  20
ATOM     20  O   UNL     1      17.493  53.643  37.390  1.00  0.00    -0.504 OA
ATOM     21  H   UNL     1      18.425  53.926  37.112  1.00  0.00     0.293 HD
ENDBRANCH  17  20
ENDBRANCH   1  12
BRANCH   2  22
ATOM     22  O   UNL     1      18.997  49.783  40.721  1.00  0.00    -0.502 OA
ATOM     23  H   UNL     1      19.320  49.725  39.763  1.00  0.00     0.293 HD
ENDBRANCH   2  22
BRANCH   6  24
ATOM     24  O   UNL     1      22.982  49.774  44.255  1.00  0.00    -0.507 OA
ATOM     25  H   UNL     1      22.748  48.898  44.696  1.00  0.00     0.293 HD
ENDBRANCH   6  24
BRANCH   8  26
ATOM     26  O   UNL     1      22.276  54.010  46.366  1.00  0.00    -0.508 OA
ATOM     27  H   UNL     1      23.169  54.487  46.324  1.00  0.00     0.293 HD
ENDBRANCH   8  26
TORSDOF 6
ENDMDL
MODEL 2
REMARK VINA RESULT:    -5.192      1.619      6.923
REMARK INTER + INTRA:          -6.528
REMARK INTER:                  -6.214
REMARK INTRA:                  -0.314
REMARK UNBOUND:                -0.274
REMARK SMILES O=c1c(O)c(-c2ccc(O)c(O)c2)oc2cc(O)cc(O)c12
REMARK SMILES IDX 5 1 3 2 2 3 1 4 22 5 20 6 19 7 17 8 16 9 15 10 14 11 6 12
REMARK SMILES IDX 7 13 8 14 9 15 13 16 11 17 10 18 12 20 4 22 21 24 18 26
REMARK H PARENT 10 19 12 21 4 23 21 25 18 27
REMARK Flexibility Score: inf
ROOT
ATOM      1  C   UNL     1      19.541  51.682  42.686  1.00  0.00     0.180 A 
ATOM      2  C   UNL     1      18.442  50.898  43.075  1.00  0.00     0.208 A 
ATOM      3  C   UNL     1      17.294  50.886  42.266  1.00  0.00     0.238 A 
ATOM      4  O   UNL     1      16.334  50.139  42.590  1.00  0.00    -0.285 OA
ATOM      5  C   UNL     1      17.254  51.671  41.088  1.00  0.00     0.111 A 
ATOM      6  C   UNL     1      16.128  51.767  40.216  1.00  0.00     0.134 A 
ATOM      7  C   UNL     1      16.246  52.470  39.012  1.00  0.00     0.093 A 
ATOM      8  C   UNL     1      17.426  53.136  38.678  1.00  0.00     0.123 A 
ATOM      9  C   UNL     1      18.512  53.099  39.552  1.00  0.00     0.094 A 
ATOM     10  C   UNL     1      18.437  52.374  40.744  1.00  0.00     0.146 A 
ATOM     11  O   UNL     1      19.497  52.356  41.543  1.00  0.00    -0.452 OA
ENDROOT
BRANCH   1  12
ATOM     12  C   UNL     1      20.777  51.765  43.499  1.00  0.00     0.025 A 
ATOM     13  C   UNL     1      21.796  50.803  43.381  1.00  0.00     0.016 A 
ATOM     14  C   UNL     1      22.942  50.887  44.175  1.00  0.00     0.051 A 
ATOM     15  C   UNL     1      23.081  51.924  45.107  1.00  0.00     0.157 A 
ATOM     16  C   UNL     1      20.913  52.791  44.449  1.00  0.00     0.062 A 
ATOM     17  C   UNL     1      22.064  52.876  45.246  1.00  0.00     0.158 A 
BRANCH  15  18
ATOM     18  O   UNL     1      24.224  52.013  45.900  1.00  0.00    -0.504 OA
ATOM     19  H   UNL     1      24.912  51.268  45.923  1.00  0.00     0.293 HD
ENDBRANCH  15  18
BRANCH  17  20
ATOM     20  O   UNL     1      22.201  53.902  46.179  1.00  0.00    -0.504 OA
ATOM     21  H   UNL     1      22.762  54.723  45.987  1.00  0.00     0.293 HD
ENDBRANCH  17  20
ENDBRANCH   1  12
BRANCH   2  22
ATOM     22  O   UNL     1      18.511  50.113  44.229  1.00  0.00    -0.502 OA
ATOM     23  H   UNL     1      19.237  50.231  44.925  1.00  0.00     0.293 HD
ENDBRANCH   2  22
BRANCH   6  24
ATOM     24  O   UNL     1      14.875  51.216  40.497  1.00  0.00    -0.507 OA
ATOM     25  H   UNL     1      14.259  50.808  39.810  1.00  0.00     0.293 HD
ENDBRANCH   6  24
BRANCH   8  26
ATOM     26  O   UNL     1      17.502  53.840  37.478  1.00  0.00    -0.508 OA
ATOM     27  H   UNL     1      16.770  54.480  37.192  1.00  0.00     0.293 HD
ENDBRANCH   8  26
TORSDOF 6
ENDMDL
MODEL 3
REMARK VINA RESULT:    -5.117      1.602      6.838
REMARK INTER + INTRA:          -6.437
REMARK INTER:                  -6.170
REMARK INTRA:                  -0.267
REMARK UNBOUND:                -0.274
REMARK SMILES O=c1c(O)c(-c2ccc(O)c(O)c2)oc2cc(O)cc(O)c12
REMARK SMILES IDX 5 1 3 2 2 3 1 4 22 5 20 6 19 7 17 8 16 9 15 10 14 11 6 12
REMARK SMILES IDX 7 13 8 14 9 15 13 16 11 17 10 18 12 20 4 22 21 24 18 26
REMARK H PARENT 10 19 12 21 4 23 21 25 18 27
REMARK Flexibility Score: inf
ROOT
ATOM      1  C   UNL     1      19.097  51.698  42.288  1.00  0.00     0.180 A 
ATOM      2  C   UNL     1      18.135  50.697  42.509  1.00  0.00     0.208 A 
ATOM      3  C   UNL     1      17.106  50.523  41.569  1.00  0.00     0.238 A 
ATOM      4  O   UNL     1      16.279  49.590  41.745  1.00  0.00    -0.285 OA
ATOM      5  C   UNL     1      17.042  51.361  40.430  1.00  0.00     0.111 A 
ATOM      6  C   UNL     1      16.021  51.301  39.435  1.00  0.00     0.134 A 
ATOM      7  C   UNL     1      16.130  52.091  38.285  1.00  0.00     0.093 A 
ATOM      8  C   UNL     1      17.187  52.986  38.123  1.00  0.00     0.123 A 
ATOM      9  C   UNL     1      18.159  53.097  39.118  1.00  0.00     0.094 A 
ATOM     10  C   UNL     1      18.097  52.295  40.260  1.00  0.00     0.146 A 
ATOM     11  O   UNL     1      19.048  52.424  41.178  1.00  0.00    -0.452 OA
ENDROOT
BRANCH   1  12
ATOM     12  C   UNL     1      20.197  51.958  43.245  1.00  0.00     0.025 A 
ATOM     13  C   UNL     1      20.180  53.080  44.093  1.00  0.00     0.016 A 
ATOM     14  C   UNL     1      21.241  53.319  44.970  1.00  0.00     0.051 A 
ATOM     15  C   UNL     1      22.339  52.450  45.004  1.00  0.00     0.157 A 
ATOM     16  C   UNL     1      21.310  51.101  43.269  1.00  0.00     0.062 A 
ATOM     17  C   UNL     1      22.375  51.341  44.150  1.00  0.00     0.158 A 
BRANCH  15  18
ATOM     18  O   UNL     1      23.398  52.683  45.879  1.00  0.00    -0.504 OA
ATOM     19  H   UNL     1      24.275  53.075  45.557  1.00  0.00     0.293 HD
ENDBRANCH  15  18
BRANCH  17  20
ATOM     20  O   UNL     1      23.472  50.482  44.180  1.00  0.00    -0.504 OA
ATOM     21  H   UNL     1      23.832  50.052  43.336  1.00  0.00     0.293 HD
ENDBRANCH  17  20
ENDBRANCH   1  12
BRANCH   2  22
ATOM     22  O   UNL     1      18.229  49.866  43.629  1.00  0.00    -0.502 OA
ATOM     23  H   UNL     1      17.951  48.892  43.608  1.00  0.00     0.293 HD
ENDBRANCH   2  22
BRANCH   6  24
ATOM     24  O   UNL     1      14.875  50.508  39.541  1.00  0.00    -0.507 OA
ATOM     25  H   UNL     1      14.775  49.722  40.166  1.00  0.00     0.293 HD
ENDBRANCH   6  24
BRANCH   8  26
ATOM     26  O   UNL     1      17.255  53.768  36.972  1.00  0.00    -0.508 OA
ATOM     27  H   UNL     1      18.134  53.934  36.496  1.00  0.00     0.293 HD
ENDBRANCH   8  26
TORSDOF 6
ENDMDL
MODEL 4
REMARK VINA RESULT:    -5.079      2.004      2.397
REMARK INTER + INTRA:          -6.392
REMARK INTER:                  -6.105
REMARK INTRA:                  -0.287
REMARK UNBOUND:                -0.274
REMARK SMILES O=c1c(O)c(-c2ccc(O)c(O)c2)oc2cc(O)cc(O)c12
REMARK SMILES IDX 5 1 3 2 2 3 1 4 22 5 20 6 19 7 17 8 16 9 15 10 14 11 6 12
REMARK SMILES IDX 7 13 8 14 9 15 13 16 11 17 10 18 12 20 4 22 21 24 18 26
REMARK H PARENT 10 19 12 21 4 23 21 25 18 27
REMARK Flexibility Score: inf
ROOT
ATOM      1  C   UNL     1      18.554  51.515  41.757  1.00  0.00     0.180 A 
ATOM      2  C   UNL     1      17.676  50.792  42.582  1.00  0.00     0.208 A 
ATOM      3  C   UNL     1      18.169  50.225  43.769  1.00  0.00     0.238 A 
ATOM      4  O   UNL     1      17.367  49.625  44.531  1.00  0.00    -0.285 OA
ATOM      5  C   UNL     1      19.536  50.375  44.107  1.00  0.00     0.111 A 
ATOM      6  C   UNL     1      20.152  49.809  45.263  1.00  0.00     0.134 A 
ATOM      7  C   UNL     1      21.480  50.131  45.565  1.00  0.00     0.093 A 
ATOM      8  C   UNL     1      22.235  50.945  44.719  1.00  0.00     0.123 A 
ATOM      9  C   UNL     1      21.660  51.454  43.555  1.00  0.00     0.094 A 
ATOM     10  C   UNL     1      20.326  51.181  43.246  1.00  0.00     0.146 A 
ATOM     11  O   UNL     1      19.814  51.693  42.133  1.00  0.00    -0.452 OA
ENDROOT
BRANCH   1  12
ATOM     12  C   UNL     1      18.114  52.121  40.479  1.00  0.00     0.025 A 
ATOM     13  C   UNL     1      17.805  53.489  40.386  1.00  0.00     0.016 A 
ATOM     14  C   UNL     1      17.368  54.035  39.176  1.00  0.00     0.051 A 
ATOM     15  C   UNL     1      17.221  53.220  38.046  1.00  0.00     0.157 A 
ATOM     16  C   UNL     1      17.945  51.305  39.348  1.00  0.00     0.062 A 
ATOM     17  C   UNL     1      17.508  51.852  38.133  1.00  0.00     0.158 A 
BRANCH  15  18
ATOM     18  O   UNL     1      16.788  53.760  36.837  1.00  0.00    -0.504 OA
ATOM     19  H   UNL     1      15.888  53.517  36.440  1.00  0.00     0.293 HD
ENDBRANCH  15  18
BRANCH  17  20
ATOM     20  O   UNL     1      17.353  51.042  37.010  1.00  0.00    -0.504 OA
ATOM     21  H   UNL     1      18.143  50.580  36.576  1.00  0.00     0.293 HD
ENDBRANCH  17  20
ENDBRANCH   1  12
BRANCH   2  22
ATOM     22  O   UNL     1      16.326  50.674  42.242  1.00  0.00    -0.502 OA
ATOM     23  H   UNL     1      15.801  51.434  41.826  1.00  0.00     0.293 HD
ENDBRANCH   2  22
BRANCH   6  24
ATOM     24  O   UNL     1      19.516  48.912  46.125  1.00  0.00    -0.507 OA
ATOM     25  H   UNL     1      18.737  48.323  45.871  1.00  0.00     0.293 HD
ENDBRANCH   6  24
BRANCH   8  26
ATOM     26  O   UNL     1      23.559  51.232  45.043  1.00  0.00    -0.508 OA
ATOM     27  H   UNL     1      24.099  50.626  45.650  1.00  0.00     0.293 HD
ENDBRANCH   8  26
TORSDOF 6
ENDMDL
MODEL 5
REMARK VINA RESULT:    -4.865      2.365      3.114
REMARK INTER + INTRA:          -6.134
REMARK INTER:                  -5.828
REMARK INTRA:                  -0.306
REMARK UNBOUND:                -0.274
REMARK SMILES O=c1c(O)c(-c2ccc(O)c(O)c2)oc2cc(O)cc(O)c12
REMARK SMILES IDX 5 1 3 2 2 3 1 4 22 5 20 6 19 7 17 8 16 9 15 10 14 11 6 12
REMARK SMILES IDX 7 13 8 14 9 15 13 16 11 17 10 18 12 20 4 22 21 24 18 26
REMARK H PARENT 10 19 12 21 4 23 21 25 18 27
REMARK Flexibility Score: inf
ROOT
ATOM      1  C   UNL     1      18.184  51.900  41.763  1.00  0.00     0.180 A 
ATOM      2  C   UNL     1      19.490  52.322  42.063  1.00  0.00     0.208 A 
ATOM      3  C   UNL     1      20.117  51.829  43.219  1.00  0.00     0.238 A 
ATOM      4  O   UNL     1      21.306  52.168  43.454  1.00  0.00    -0.285 OA
ATOM      5  C   UNL     1      19.424  50.932  44.067  1.00  0.00     0.111 A 
ATOM      6  C   UNL     1      19.947  50.400  45.285  1.00  0.00     0.134 A 
ATOM      7  C   UNL     1      19.225  49.421  45.976  1.00  0.00     0.093 A 
ATOM      8  C   UNL     1      17.971  49.001  45.532  1.00  0.00     0.123 A 
ATOM      9  C   UNL     1      17.425  49.558  44.376  1.00  0.00     0.094 A 
ATOM     10  C   UNL     1      18.137  50.510  43.644  1.00  0.00     0.146 A 
ATOM     11  O   UNL     1      17.586  51.008  42.543  1.00  0.00    -0.452 OA
ENDROOT
BRANCH   1  12
ATOM     12  C   UNL     1      17.449  52.395  40.576  1.00  0.00     0.025 A 
ATOM     13  C   UNL     1      16.509  53.436  40.680  1.00  0.00     0.016 A 
ATOM     14  C   UNL     1      15.809  53.870  39.551  1.00  0.00     0.051 A 
ATOM     15  C   UNL     1      16.027  53.263  38.308  1.00  0.00     0.157 A 
ATOM     16  C   UNL     1      17.649  51.776  39.331  1.00  0.00     0.062 A 
ATOM     17  C   UNL     1      16.947  52.213  38.198  1.00  0.00     0.158 A 
BRANCH  15  18
ATOM     18  O   UNL     1      15.333  53.695  37.179  1.00  0.00    -0.504 OA
ATOM     19  H   UNL     1      15.647  54.492  36.637  1.00  0.00     0.293 HD
ENDBRANCH  15  18
BRANCH  17  20
ATOM     20  O   UNL     1      17.156  51.605  36.961  1.00  0.00    -0.504 OA
ATOM     21  H   UNL     1      17.201  50.597  36.866  1.00  0.00     0.293 HD
ENDBRANCH  17  20
ENDBRANCH   1  12
BRANCH   2  22
ATOM     22  O   UNL     1      20.165  53.191  41.200  1.00  0.00    -0.502 OA
ATOM     23  H   UNL     1      19.692  53.705  40.467  1.00  0.00     0.293 HD
ENDBRANCH   2  22
BRANCH   6  24
ATOM     24  O   UNL     1      21.147  50.818  45.866  1.00  0.00    -0.507 OA
ATOM     25  H   UNL     1      21.960  51.123  45.352  1.00  0.00     0.293 HD
ENDBRANCH   6  24
BRANCH   8  26
ATOM     26  O   UNL     1      17.274  48.035  46.254  1.00  0.00    -0.508 OA
ATOM     27  H   UNL     1      17.743  47.228  46.649  1.00  0.00     0.293 HD
ENDBRANCH   8  26
TORSDOF 6
ENDMDL
MODEL 6
REMARK VINA RESULT:    -4.851      2.031      6.697
REMARK INTER + INTRA:          -6.117
REMARK INTER:                  -5.821
REMARK INTRA:                  -0.296
REMARK UNBOUND:                -0.274
REMARK SMILES O=c1c(O)c(-c2ccc(O)c(O)c2)oc2cc(O)cc(O)c12
REMARK SMILES IDX 5 1 3 2 2 3 1 4 22 5 20 6 19 7 17 8 16 9 15 10 14 11 6 12
REMARK SMILES IDX 7 13 8 14 9 15 13 16 11 17 10 18 12 20 4 22 21 24 18 26
REMARK H PARENT 10 19 12 21 4 23 21 25 18 27
REMARK Flexibility Score: inf
ROOT
ATOM      1  C   UNL     1      18.844  50.946  41.819  1.00  0.00     0.180 A 
ATOM      2  C   UNL     1      18.486  49.627  41.493  1.00  0.00     0.208 A 
ATOM      3  C   UNL     1      17.823  49.381  40.280  1.00  0.00     0.238 A 
ATOM      4  O   UNL     1      17.553  48.192  39.968  1.00  0.00    -0.285 OA
ATOM      5  C   UNL     1      17.513  50.459  39.416  1.00  0.00     0.111 A 
ATOM      6  C   UNL     1      16.807  50.332  38.182  1.00  0.00     0.134 A 
ATOM      7  C   UNL     1      16.671  51.447  37.346  1.00  0.00     0.093 A 
ATOM      8  C   UNL     1      17.155  52.698  37.729  1.00  0.00     0.123 A 
ATOM      9  C   UNL     1      17.792  52.846  38.961  1.00  0.00     0.094 A 
ATOM     10  C   UNL     1      17.977  51.745  39.799  1.00  0.00     0.146 A 
ATOM     11  O   UNL     1      18.598  51.927  40.959  1.00  0.00    -0.452 OA
ENDROOT
BRANCH   1  12
ATOM     12  C   UNL     1      19.523  51.287  43.091  1.00  0.00     0.025 A 
ATOM     13  C   UNL     1      18.813  51.363  44.302  1.00  0.00     0.016 A 
ATOM     14  C   UNL     1      19.469  51.711  45.486  1.00  0.00     0.051 A 
ATOM     15  C   UNL     1      20.840  52.000  45.474  1.00  0.00     0.157 A 
ATOM     16  C   UNL     1      20.893  51.598  43.082  1.00  0.00     0.062 A 
ATOM     17  C   UNL     1      21.552  51.946  44.270  1.00  0.00     0.158 A 
BRANCH  15  18
ATOM     18  O   UNL     1      21.499  52.344  46.653  1.00  0.00    -0.504 OA
ATOM     19  H   UNL     1      21.237  51.938  47.544  1.00  0.00     0.293 HD
ENDBRANCH  15  18
BRANCH  17  20
ATOM     20  O   UNL     1      22.914  52.242  44.260  1.00  0.00    -0.504 OA
ATOM     21  H   UNL     1      23.251  53.193  44.344  1.00  0.00     0.293 HD
ENDBRANCH  17  20
ENDBRANCH   1  12
BRANCH   2  22
ATOM     22  O   UNL     1      18.822  48.575  42.350  1.00  0.00    -0.502 OA
ATOM     23  H   UNL     1      19.686  48.557  42.877  1.00  0.00     0.293 HD
ENDBRANCH   2  22
BRANCH   6  24
ATOM     24  O   UNL     1      16.205  49.149  37.747  1.00  0.00    -0.507 OA
ATOM     25  H   UNL     1      16.694  48.283  37.573  1.00  0.00     0.293 HD
ENDBRANCH   6  24
BRANCH   8  26
ATOM     26  O   UNL     1      16.987  53.789  36.879  1.00  0.00    -0.508 OA
ATOM     27  H   UNL     1      17.319  54.712  37.131  1.00  0.00     0.293 HD
ENDBRANCH   8  26
TORSDOF 6
ENDMDL
MODEL 7
REMARK VINA RESULT:    -4.846      2.083      7.045
REMARK INTER + INTRA:          -6.112
REMARK INTER:                  -5.827
REMARK INTRA:                  -0.285
REMARK UNBOUND:                -0.274
REMARK SMILES O=c1c(O)c(-c2ccc(O)c(O)c2)oc2cc(O)cc(O)c12
REMARK SMILES IDX 5 1 3 2 2 3 1 4 22 5 20 6 19 7 17 8 16 9 15 10 14 11 6 12
REMARK SMILES IDX 7 13 8 14 9 15 13 16 11 17 10 18 12 20 4 22 21 24 18 26
REMARK H PARENT 10 19 12 21 4 23 21 25 18 27
REMARK Flexibility Score: inf
ROOT
ATOM      1  C   UNL     1      19.877  51.957  43.164  1.00  0.00     0.180 A 
ATOM      2  C   UNL     1      19.600  52.819  42.090  1.00  0.00     0.208 A 
ATOM      3  C   UNL     1      18.406  52.650  41.371  1.00  0.00     0.238 A 
ATOM      4  O   UNL     1      18.138  53.459  40.444  1.00  0.00    -0.285 OA
ATOM      5  C   UNL     1      17.512  51.610  41.725  1.00  0.00     0.111 A 
ATOM      6  C   UNL     1      16.294  51.321  41.040  1.00  0.00     0.134 A 
ATOM      7  C   UNL     1      15.424  50.353  41.557  1.00  0.00     0.093 A 
ATOM      8  C   UNL     1      15.758  49.619  42.695  1.00  0.00     0.123 A 
ATOM      9  C   UNL     1      16.974  49.852  43.337  1.00  0.00     0.094 A 
ATOM     10  C   UNL     1      17.846  50.836  42.867  1.00  0.00     0.146 A 
ATOM     11  O   UNL     1      18.989  51.034  43.513  1.00  0.00    -0.452 OA
ENDROOT
BRANCH   1  12
ATOM     12  C   UNL     1      21.126  52.058  43.954  1.00  0.00     0.025 A 
ATOM     13  C   UNL     1      22.188  51.157  43.762  1.00  0.00     0.016 A 
ATOM     14  C   UNL     1      23.348  51.255  44.535  1.00  0.00     0.051 A 
ATOM     15  C   UNL     1      23.457  52.246  45.520  1.00  0.00     0.157 A 
ATOM     16  C   UNL     1      21.233  53.036  44.957  1.00  0.00     0.062 A 
ATOM     17  C   UNL     1      22.397  53.135  45.733  1.00  0.00     0.158 A 
BRANCH  15  18
ATOM     18  O   UNL     1      24.613  52.349  46.293  1.00  0.00    -0.504 OA
ATOM     19  H   UNL     1      25.529  52.160  45.902  1.00  0.00     0.293 HD
ENDBRANCH  15  18
BRANCH  17  20
ATOM     20  O   UNL     1      22.505  54.115  46.719  1.00  0.00    -0.504 OA
ATOM     21  H   UNL     1      22.278  55.084  46.532  1.00  0.00     0.293 HD
ENDBRANCH  17  20
ENDBRANCH   1  12
BRANCH   2  22
ATOM     22  O   UNL     1      20.486  53.853  41.771  1.00  0.00    -0.502 OA
ATOM     23  H   UNL     1      20.930  54.425  42.478  1.00  0.00     0.293 HD
ENDBRANCH   2  22
BRANCH   6  24
ATOM     24  O   UNL     1      15.907  51.931  39.844  1.00  0.00    -0.507 OA
ATOM     25  H   UNL     1      15.337  51.497  39.134  1.00  0.00     0.293 HD
ENDBRANCH   6  24
BRANCH   8  26
ATOM     26  O   UNL     1      14.875  48.652  43.172  1.00  0.00    -0.508 OA
ATOM     27  H   UNL     1      14.453  47.970  42.554  1.00  0.00     0.293 HD
ENDBRANCH   8  26
TORSDOF 6
ENDMDL
MODEL 8
REMARK VINA RESULT:    -4.772      2.132      7.230
REMARK INTER + INTRA:          -6.022
REMARK INTER:                  -5.701
REMARK INTRA:                  -0.322
REMARK UNBOUND:                -0.274
REMARK SMILES O=c1c(O)c(-c2ccc(O)c(O)c2)oc2cc(O)cc(O)c12
REMARK SMILES IDX 5 1 3 2 2 3 1 4 22 5 20 6 19 7 17 8 16 9 15 10 14 11 6 12
REMARK SMILES IDX 7 13 8 14 9 15 13 16 11 17 10 18 12 20 4 22 21 24 18 26
REMARK H PARENT 10 19 12 21 4 23 21 25 18 27
REMARK Flexibility Score: inf
ROOT
ATOM      1  C   UNL     1      18.941  51.395  41.801  1.00  0.00     0.180 A 
ATOM      2  C   UNL     1      18.741  52.712  41.354  1.00  0.00     0.208 A 
ATOM      3  C   UNL     1      18.097  52.924  40.124  1.00  0.00     0.238 A 
ATOM      4  O   UNL     1      17.873  54.106  39.755  1.00  0.00    -0.285 OA
ATOM      5  C   UNL     1      17.677  51.815  39.350  1.00  0.00     0.111 A 
ATOM      6  C   UNL     1      17.052  51.911  38.070  1.00  0.00     0.134 A 
ATOM      7  C   UNL     1      16.561  50.755  37.453  1.00  0.00     0.093 A 
ATOM      8  C   UNL     1      16.729  49.499  38.037  1.00  0.00     0.123 A 
ATOM      9  C   UNL     1      17.392  49.388  39.259  1.00  0.00     0.094 A 
ATOM     10  C   UNL     1      17.861  50.527  39.917  1.00  0.00     0.146 A 
ATOM     11  O   UNL     1      18.477  50.379  41.083  1.00  0.00    -0.452 OA
ENDROOT
BRANCH   1  12
ATOM     12  C   UNL     1      19.633  51.092  43.075  1.00  0.00     0.025 A 
ATOM     13  C   UNL     1      18.931  51.032  44.292  1.00  0.00     0.016 A 
ATOM     14  C   UNL     1      19.608  50.768  45.486  1.00  0.00     0.051 A 
ATOM     15  C   UNL     1      20.996  50.574  45.483  1.00  0.00     0.157 A 
ATOM     16  C   UNL     1      21.027  50.916  43.081  1.00  0.00     0.062 A 
ATOM     17  C   UNL     1      21.706  50.651  44.279  1.00  0.00     0.158 A 
BRANCH  15  18
ATOM     18  O   UNL     1      21.674  50.309  46.671  1.00  0.00    -0.504 OA
ATOM     19  H   UNL     1      22.473  49.685  46.697  1.00  0.00     0.293 HD
ENDBRANCH  15  18
BRANCH  17  20
ATOM     20  O   UNL     1      23.088  50.465  44.280  1.00  0.00    -0.504 OA
ATOM     21  H   UNL     1      23.729  51.249  44.283  1.00  0.00     0.293 HD
ENDBRANCH  17  20
ENDBRANCH   1  12
BRANCH   2  22
ATOM     22  O   UNL     1      19.144  53.792  42.145  1.00  0.00    -0.502 OA
ATOM     23  H   UNL     1      19.247  53.722  43.150  1.00  0.00     0.293 HD
ENDBRANCH   2  22
BRANCH   6  24
ATOM     24  O   UNL     1      16.915  53.105  37.357  1.00  0.00    -0.507 OA
ATOM     25  H   UNL     1      17.592  53.465  36.701  1.00  0.00     0.293 HD
ENDBRANCH   6  24
BRANCH   8  26
ATOM     26  O   UNL     1      16.241  48.368  37.387  1.00  0.00    -0.508 OA
ATOM     27  H   UNL     1      16.848  47.765  36.845  1.00  0.00     0.293 HD
ENDBRANCH   8  26
TORSDOF 6
ENDMDL
MODEL 9
REMARK VINA RESULT:    -4.754      1.920      3.108
REMARK INTER + INTRA:          -6.000
REMARK INTER:                  -5.900
REMARK INTRA:                  -0.100
REMARK UNBOUND:                -0.274
REMARK SMILES O=c1c(O)c(-c2ccc(O)c(O)c2)oc2cc(O)cc(O)c12
REMARK SMILES IDX 5 1 3 2 2 3 1 4 22 5 20 6 19 7 17 8 16 9 15 10 14 11 6 12
REMARK SMILES IDX 7 13 8 14 9 15 13 16 11 17 10 18 12 20 4 22 21 24 18 26
REMARK H PARENT 10 19 12 21 4 23 21 25 18 27
REMARK Flexibility Score: inf
ROOT
ATOM      1  C   UNL     1      18.599  51.345  41.150  1.00  0.00     0.180 A 
ATOM      2  C   UNL     1      18.695  52.637  41.692  1.00  0.00     0.208 A 
ATOM      3  C   UNL     1      19.643  52.885  42.698  1.00  0.00     0.238 A 
ATOM      4  O   UNL     1      19.762  54.057  43.141  1.00  0.00    -0.285 OA
ATOM      5  C   UNL     1      20.471  51.834  43.159  1.00  0.00     0.111 A 
ATOM      6  C   UNL     1      21.438  51.961  44.202  1.00  0.00     0.134 A 
ATOM      7  C   UNL     1      22.292  50.890  44.486  1.00  0.00     0.093 A 
ATOM      8  C   UNL     1      22.172  49.674  43.813  1.00  0.00     0.123 A 
ATOM      9  C   UNL     1      21.190  49.519  42.834  1.00  0.00     0.094 A 
ATOM     10  C   UNL     1      20.348  50.582  42.502  1.00  0.00     0.146 A 
ATOM     11  O   UNL     1      19.434  50.396  41.557  1.00  0.00    -0.452 OA
ENDROOT
BRANCH   1  12
ATOM     12  C   UNL     1      17.607  51.000  40.104  1.00  0.00     0.025 A 
ATOM     13  C   UNL     1      16.646  49.995  40.310  1.00  0.00     0.016 A 
ATOM     14  C   UNL     1      15.737  49.669  39.300  1.00  0.00     0.051 A 
ATOM     15  C   UNL     1      15.783  50.334  38.068  1.00  0.00     0.157 A 
ATOM     16  C   UNL     1      17.661  51.649  38.859  1.00  0.00     0.062 A 
ATOM     17  C   UNL     1      16.748  51.323  37.846  1.00  0.00     0.158 A 
BRANCH  15  18
ATOM     18  O   UNL     1      14.875  50.014  37.059  1.00  0.00    -0.504 OA
ATOM     19  H   UNL     1      14.307  50.725  36.613  1.00  0.00     0.293 HD
ENDBRANCH  15  18
BRANCH  17  20
ATOM     20  O   UNL     1      16.796  51.977  36.616  1.00  0.00    -0.504 OA
ATOM     21  H   UNL     1      17.395  52.781  36.466  1.00  0.00     0.293 HD
ENDBRANCH  17  20
ENDBRANCH   1  12
BRANCH   2  22
ATOM     22  O   UNL     1      17.883  53.666  41.206  1.00  0.00    -0.502 OA
ATOM     23  H   UNL     1      18.222  54.612  41.078  1.00  0.00     0.293 HD
ENDBRANCH   2  22
BRANCH   6  24
ATOM     24  O   UNL     1      21.580  53.101  44.998  1.00  0.00    -0.507 OA
ATOM     25  H   UNL     1      22.381  53.715  44.986  1.00  0.00     0.293 HD
ENDBRANCH   6  24
BRANCH   8  26
ATOM     26  O   UNL     1      23.029  48.623  44.134  1.00  0.00    -0.508 OA
ATOM     27  H   UNL     1      24.035  48.741  44.133  1.00  0.00     0.293 HD
ENDBRANCH   8  26
TORSDOF 6
ENDMDL
