MODEL 1
REMARK VINA RESULT:    -5.861      0.000      0.000
REMARK INTER + INTRA:          -6.554
REMARK INTER:                  -6.375
REMARK INTRA:                  -0.179
REMARK UNBOUND:                -0.179
REMARK SMILES CC1(C)CC[C@@]2(C(=O)[O-])CC[C@]3(C)C(=CC[C@@H]4[C@]5(C)CC[C@@H](O)C(C)(C)[C@H]5CC[C@]43C)[C@H]2C1
REMARK SMILES IDX 6 1 5 2 10 3 32 4 4 5 11 6 14 7 33 8 2 9 12 10 15 11 1 12
REMARK SMILES IDX 3 13 13 14 30 15 16 16 17 17 29 18 31 19 18 20 28 21 27 22
REMARK SMILES IDX 20 23 19 24 24 25 21 26 22 27 25 28 26 29 7 30 8 31 9 32
REMARK SMILES IDX 23 33
REMARK H PARENT 23 34
REMARK Flexibility Score: inf
ROOT
ATOM      1  C   UNL     1      44.407  31.938  19.850  1.00  0.00     0.017 C 
ATOM      2  C   UNL     1      43.422  33.125  19.793  1.00  0.00     0.014 C 
ATOM      3  C   UNL     1      45.829  32.334  20.489  1.00  0.00     0.014 C 
ATOM      4  C   UNL     1      43.753  30.776  20.658  1.00  0.00     0.028 C 
ATOM      5  C   UNL     1      42.069  32.743  19.197  1.00  0.00     0.007 C 
ATOM      6  C   UNL     1      46.111  32.104  22.038  1.00  0.00     0.013 C 
ATOM      7  C   UNL     1      44.094  30.886  22.164  1.00  0.00    -0.064 C 
ATOM      8  C   UNL     1      42.271  30.434  20.348  1.00  0.00     0.015 C 
ATOM      9  C   UNL     1      41.276  31.569  19.881  1.00  0.00    -0.035 C 
ATOM     10  C   UNL     1      45.594  30.751  22.587  1.00  0.00    -0.006 C 
ATOM     11  C   UNL     1      43.183  31.284  23.068  1.00  0.00    -0.027 C 
ATOM     12  C   UNL     1      40.482  32.127  21.102  1.00  0.00     0.011 C 
ATOM     13  C   UNL     1      40.267  30.977  18.843  1.00  0.00     0.011 C 
ATOM     14  C   UNL     1      46.260  29.574  21.815  1.00  0.00     0.017 C 
ATOM     15  C   UNL     1      45.833  30.472  24.254  1.00  0.00    -0.020 C 
ATOM     16  C   UNL     1      43.412  31.020  24.496  1.00  0.00     0.032 C 
ATOM     17  C   UNL     1      44.454  29.961  24.769  1.00  0.00     0.006 C 
ATOM     18  C   UNL     1      46.838  29.348  24.661  1.00  0.00     0.008 C 
ATOM     19  C   UNL     1      46.429  31.745  24.892  1.00  0.00     0.012 C 
ATOM     20  C   UNL     1      44.257  29.192  26.219  1.00  0.00    -0.025 C 
ATOM     21  C   UNL     1      46.843  28.840  26.139  1.00  0.00     0.005 C 
ATOM     22  C   UNL     1      45.586  29.214  27.043  1.00  0.00     0.003 C 
ATOM     23  C   UNL     1      43.094  29.839  27.110  1.00  0.00     0.010 C 
ATOM     24  C   UNL     1      43.765  27.698  25.994  1.00  0.00     0.012 C 
ATOM     25  C   UNL     1      45.551  28.577  28.511  1.00  0.00    -0.006 C 
ATOM     26  C   UNL     1      43.447  30.040  28.585  1.00  0.00     0.033 C 
ATOM     27  C   UNL     1      44.147  28.842  29.209  1.00  0.00     0.120 C 
ATOM     28  C   UNL     1      45.892  27.043  28.575  1.00  0.00     0.014 C 
ATOM     29  C   UNL     1      46.650  29.206  29.414  1.00  0.00     0.014 C 
ENDROOT
BRANCH   1  30
ATOM     30  C   UNL     1      44.720  31.486  18.418  1.00  0.00     0.048 C 
ATOM     31  O   UNL     1      44.914  30.255  18.193  1.00  0.00    -0.550 OA
ATOM     32  O   UNL     1      45.001  32.402  17.417  1.00  0.00    -0.550 OA
ENDBRANCH   1  30
BRANCH  27  33
ATOM     33  O   UNL     1      43.316  27.707  29.198  1.00  0.00    -0.393 OA
ATOM     34  H   UNL     1      43.006  27.541  28.259  1.00  0.00     0.210 HD
ENDBRANCH  27  33
TORSDOF 2
ENDMDL
MODEL 2
REMARK VINA RESULT:    -5.445      7.912     11.090
REMARK INTER + INTRA:          -6.101
REMARK INTER:                  -5.926
REMARK INTRA:                  -0.175
REMARK UNBOUND:                -0.179
REMARK SMILES CC1(C)CC[C@@]2(C(=O)[O-])CC[C@]3(C)C(=CC[C@@H]4[C@]5(C)CC[C@@H](O)C(C)(C)[C@H]5CC[C@]43C)[C@H]2C1
REMARK SMILES IDX 6 1 5 2 10 3 32 4 4 5 11 6 14 7 33 8 2 9 12 10 15 11 1 12
REMARK SMILES IDX 3 13 13 14 30 15 16 16 17 17 29 18 31 19 18 20 28 21 27 22
REMARK SMILES IDX 20 23 19 24 24 25 21 26 22 27 25 28 26 29 7 30 8 31 9 32
REMARK SMILES IDX 23 33
REMARK H PARENT 23 34
REMARK Flexibility Score: inf
ROOT
ATOM      1  C   UNL     1      32.072  30.915  26.591  1.00  0.00     0.017 C 
ATOM      2  C   UNL     1      32.090  30.053  27.871  1.00  0.00     0.014 C 
ATOM      3  C   UNL     1      32.709  32.376  26.811  1.00  0.00     0.014 C 
ATOM      4  C   UNL     1      32.830  30.156  25.459  1.00  0.00     0.028 C 
ATOM      5  C   UNL     1      31.496  28.662  27.657  1.00  0.00     0.007 C 
ATOM      6  C   UNL     1      34.240  32.648  26.474  1.00  0.00     0.013 C 
ATOM      7  C   UNL     1      34.333  30.521  25.456  1.00  0.00    -0.064 C 
ATOM      8  C   UNL     1      32.525  28.644  25.283  1.00  0.00     0.015 C 
ATOM      9  C   UNL     1      32.131  27.763  26.533  1.00  0.00    -0.035 C 
ATOM     10  C   UNL     1      34.727  32.005  25.151  1.00  0.00    -0.006 C 
ATOM     11  C   UNL     1      35.271  29.664  25.895  1.00  0.00    -0.027 C 
ATOM     12  C   UNL     1      33.391  27.040  27.103  1.00  0.00     0.011 C 
ATOM     13  C   UNL     1      31.080  26.689  26.099  1.00  0.00     0.011 C 
ATOM     14  C   UNL     1      33.885  32.542  23.956  1.00  0.00     0.017 C 
ATOM     15  C   UNL     1      36.373  32.232  24.763  1.00  0.00    -0.020 C 
ATOM     16  C   UNL     1      36.679  29.879  25.534  1.00  0.00     0.032 C 
ATOM     17  C   UNL     1      36.882  30.814  24.365  1.00  0.00     0.006 C 
ATOM     18  C   UNL     1      36.707  33.123  23.526  1.00  0.00     0.008 C 
ATOM     19  C   UNL     1      37.066  32.957  25.936  1.00  0.00     0.012 C 
ATOM     20  C   UNL     1      38.294  30.555  23.545  1.00  0.00    -0.025 C 
ATOM     21  C   UNL     1      38.157  33.092  22.942  1.00  0.00     0.005 C 
ATOM     22  C   UNL     1      39.098  31.887  23.392  1.00  0.00     0.003 C 
ATOM     23  C   UNL     1      39.235  29.471  24.256  1.00  0.00     0.010 C 
ATOM     24  C   UNL     1      38.000  29.914  22.120  1.00  0.00     0.012 C 
ATOM     25  C   UNL     1      40.532  31.804  22.686  1.00  0.00    -0.006 C 
ATOM     26  C   UNL     1      40.712  29.857  24.344  1.00  0.00     0.033 C 
ATOM     27  C   UNL     1      41.264  30.441  23.051  1.00  0.00     0.120 C 
ATOM     28  C   UNL     1      40.513  31.991  21.124  1.00  0.00     0.014 C 
ATOM     29  C   UNL     1      41.449  32.970  23.155  1.00  0.00     0.014 C 
ENDROOT
BRANCH   1  30
ATOM     30  C   UNL     1      30.614  31.167  26.186  1.00  0.00     0.048 C 
ATOM     31  O   UNL     1      30.330  31.277  24.957  1.00  0.00    -0.550 OA
ATOM     32  O   UNL     1      29.648  31.483  27.128  1.00  0.00    -0.550 OA
ENDBRANCH   1  30
BRANCH  27  33
ATOM     33  O   UNL     1      41.207  29.500  22.006  1.00  0.00    -0.393 OA
ATOM     34  H   UNL     1      40.446  29.736  21.398  1.00  0.00     0.210 HD
ENDBRANCH  27  33
TORSDOF 2
ENDMDL
MODEL 3
REMARK VINA RESULT:    -5.393     11.181     15.073
REMARK INTER + INTRA:          -6.045
REMARK INTER:                  -5.868
REMARK INTRA:                  -0.177
REMARK UNBOUND:                -0.179
REMARK SMILES CC1(C)CC[C@@]2(C(=O)[O-])CC[C@]3(C)C(=CC[C@@H]4[C@]5(C)CC[C@@H](O)C(C)(C)[C@H]5CC[C@]43C)[C@H]2C1
REMARK SMILES IDX 6 1 5 2 10 3 32 4 4 5 11 6 14 7 33 8 2 9 12 10 15 11 1 12
REMARK SMILES IDX 3 13 13 14 30 15 16 16 17 17 29 18 31 19 18 20 28 21 27 22
REMARK SMILES IDX 20 23 19 24 24 25 21 26 22 27 25 28 26 29 7 30 8 31 9 32
REMARK SMILES IDX 23 33
REMARK H PARENT 23 34
REMARK Flexibility Score: inf
ROOT
ATOM      1  C   UNL     1      33.299  23.179  28.750  1.00  0.00     0.017 C 
ATOM      2  C   UNL     1      33.986  23.327  30.125  1.00  0.00     0.014 C 
ATOM      3  C   UNL     1      31.700  23.340  28.829  1.00  0.00     0.014 C 
ATOM      4  C   UNL     1      33.903  24.228  27.767  1.00  0.00     0.028 C 
ATOM      5  C   UNL     1      35.504  23.187  30.046  1.00  0.00     0.007 C 
ATOM      6  C   UNL     1      31.015  24.749  28.554  1.00  0.00     0.013 C 
ATOM      7  C   UNL     1      33.106  25.554  27.810  1.00  0.00    -0.064 C 
ATOM      8  C   UNL     1      35.446  24.395  27.758  1.00  0.00     0.015 C 
ATOM      9  C   UNL     1      36.278  24.158  29.080  1.00  0.00    -0.035 C 
ATOM     10  C   UNL     1      31.610  25.525  27.352  1.00  0.00    -0.006 C 
ATOM     11  C   UNL     1      33.595  26.654  28.407  1.00  0.00    -0.027 C 
ATOM     12  C   UNL     1      36.530  25.515  29.808  1.00  0.00     0.011 C 
ATOM     13  C   UNL     1      37.654  23.511  28.717  1.00  0.00     0.011 C 
ATOM     14  C   UNL     1      31.470  24.679  26.051  1.00  0.00     0.017 C 
ATOM     15  C   UNL     1      30.939  27.062  27.040  1.00  0.00    -0.020 C 
ATOM     16  C   UNL     1      33.004  27.966  28.109  1.00  0.00     0.032 C 
ATOM     17  C   UNL     1      32.171  27.998  26.849  1.00  0.00     0.006 C 
ATOM     18  C   UNL     1      30.114  27.237  25.725  1.00  0.00     0.008 C 
ATOM     19  C   UNL     1      29.927  27.401  28.155  1.00  0.00     0.012 C 
ATOM     20  C   UNL     1      32.074  29.493  26.153  1.00  0.00    -0.025 C 
ATOM     21  C   UNL     1      29.767  28.682  25.239  1.00  0.00     0.005 C 
ATOM     22  C   UNL     1      30.584  29.886  25.888  1.00  0.00     0.003 C 
ATOM     23  C   UNL     1      32.751  30.638  27.046  1.00  0.00     0.010 C 
ATOM     24  C   UNL     1      32.910  29.534  24.802  1.00  0.00     0.012 C 
ATOM     25  C   UNL     1      30.302  31.342  25.285  1.00  0.00    -0.006 C 
ATOM     26  C   UNL     1      31.933  31.924  27.176  1.00  0.00     0.033 C 
ATOM     27  C   UNL     1      31.340  32.401  25.858  1.00  0.00     0.120 C 
ATOM     28  C   UNL     1      30.284  31.416  23.715  1.00  0.00     0.014 C 
ATOM     29  C   UNL     1      28.875  31.831  25.664  1.00  0.00     0.014 C 
ENDROOT
BRANCH   1  30
ATOM     30  C   UNL     1      33.537  21.756  28.230  1.00  0.00     0.048 C 
ATOM     31  O   UNL     1      33.647  21.570  26.983  1.00  0.00    -0.550 OA
ATOM     32  O   UNL     1      33.424  20.655  29.064  1.00  0.00    -0.550 OA
ENDBRANCH   1  30
BRANCH  27  33
ATOM     33  O   UNL     1      32.352  32.719  24.933  1.00  0.00    -0.393 OA
ATOM     34  H   UNL     1      31.988  33.370  24.264  1.00  0.00     0.210 HD
ENDBRANCH  27  33
TORSDOF 2
ENDMDL
MODEL 4
REMARK VINA RESULT:    -5.309      4.822      8.517
REMARK INTER + INTRA:          -5.953
REMARK INTER:                  -5.775
REMARK INTRA:                  -0.178
REMARK UNBOUND:                -0.179
REMARK SMILES CC1(C)CC[C@@]2(C(=O)[O-])CC[C@]3(C)C(=CC[C@@H]4[C@]5(C)CC[C@@H](O)C(C)(C)[C@H]5CC[C@]43C)[C@H]2C1
REMARK SMILES IDX 6 1 5 2 10 3 32 4 4 5 11 6 14 7 33 8 2 9 12 10 15 11 1 12
REMARK SMILES IDX 3 13 13 14 30 15 16 16 17 17 29 18 31 19 18 20 28 21 27 22
REMARK SMILES IDX 20 23 19 24 24 25 21 26 22 27 25 28 26 29 7 30 8 31 9 32
REMARK SMILES IDX 23 33
REMARK H PARENT 23 34
REMARK Flexibility Score: inf
ROOT
ATOM      1  C   UNL     1      38.116  25.276  28.081  1.00  0.00     0.017 C 
ATOM      2  C   UNL     1      37.574  24.912  26.682  1.00  0.00     0.014 C 
ATOM      3  C   UNL     1      39.225  24.240  28.613  1.00  0.00     0.014 C 
ATOM      4  C   UNL     1      38.698  26.722  28.038  1.00  0.00     0.028 C 
ATOM      5  C   UNL     1      36.530  25.904  26.174  1.00  0.00     0.007 C 
ATOM      6  C   UNL     1      40.774  24.532  28.394  1.00  0.00     0.013 C 
ATOM      7  C   UNL     1      40.201  26.704  27.670  1.00  0.00    -0.064 C 
ATOM      8  C   UNL     1      37.861  27.809  27.312  1.00  0.00     0.015 C 
ATOM      9  C   UNL     1      36.945  27.419  26.085  1.00  0.00    -0.035 C 
ATOM     10  C   UNL     1      41.189  26.001  28.659  1.00  0.00    -0.006 C 
ATOM     11  C   UNL     1      40.638  27.090  26.458  1.00  0.00    -0.027 C 
ATOM     12  C   UNL     1      37.704  27.667  24.745  1.00  0.00     0.011 C 
ATOM     13  C   UNL     1      35.650  28.294  26.108  1.00  0.00     0.011 C 
ATOM     14  C   UNL     1      40.844  26.397  30.125  1.00  0.00     0.017 C 
ATOM     15  C   UNL     1      42.833  26.378  28.398  1.00  0.00    -0.020 C 
ATOM     16  C   UNL     1      42.057  27.419  26.268  1.00  0.00     0.032 C 
ATOM     17  C   UNL     1      42.807  27.686  27.552  1.00  0.00     0.006 C 
ATOM     18  C   UNL     1      43.697  26.743  29.647  1.00  0.00     0.008 C 
ATOM     19  C   UNL     1      43.542  25.139  27.812  1.00  0.00     0.012 C 
ATOM     20  C   UNL     1      44.123  28.668  27.361  1.00  0.00    -0.025 C 
ATOM     21  C   UNL     1      45.096  27.406  29.429  1.00  0.00     0.005 C 
ATOM     22  C   UNL     1      45.398  28.015  27.988  1.00  0.00     0.003 C 
ATOM     23  C   UNL     1      44.427  29.005  25.825  1.00  0.00     0.010 C 
ATOM     24  C   UNL     1      43.852  30.095  28.007  1.00  0.00     0.012 C 
ATOM     25  C   UNL     1      46.783  28.800  27.825  1.00  0.00    -0.006 C 
ATOM     26  C   UNL     1      45.899  28.903  25.420  1.00  0.00     0.033 C 
ATOM     27  C   UNL     1      46.848  29.545  26.422  1.00  0.00     0.120 C 
ATOM     28  C   UNL     1      47.107  29.818  28.979  1.00  0.00     0.014 C 
ATOM     29  C   UNL     1      47.987  27.818  27.892  1.00  0.00     0.014 C 
ENDROOT
BRANCH   1  30
ATOM     30  C   UNL     1      36.965  25.190  29.092  1.00  0.00     0.048 C 
ATOM     31  O   UNL     1      36.930  26.017  30.051  1.00  0.00    -0.550 OA
ATOM     32  O   UNL     1      36.093  24.114  29.104  1.00  0.00    -0.550 OA
ENDBRANCH   1  30
BRANCH  27  33
ATOM     33  O   UNL     1      46.609  30.927  26.532  1.00  0.00    -0.393 OA
ATOM     34  H   UNL     1      46.815  31.218  27.469  1.00  0.00     0.210 HD
ENDBRANCH  27  33
TORSDOF 2
ENDMDL
MODEL 5
REMARK VINA RESULT:    -5.204      1.807      8.030
REMARK INTER + INTRA:          -5.839
REMARK INTER:                  -5.792
REMARK INTRA:                  -0.047
REMARK UNBOUND:                -0.179
REMARK SMILES CC1(C)CC[C@@]2(C(=O)[O-])CC[C@]3(C)C(=CC[C@@H]4[C@]5(C)CC[C@@H](O)C(C)(C)[C@H]5CC[C@]43C)[C@H]2C1
REMARK SMILES IDX 6 1 5 2 10 3 32 4 4 5 11 6 14 7 33 8 2 9 12 10 15 11 1 12
REMARK SMILES IDX 3 13 13 14 30 15 16 16 17 17 29 18 31 19 18 20 28 21 27 22
REMARK SMILES IDX 20 23 19 24 24 25 21 26 22 27 25 28 26 29 7 30 8 31 9 32
REMARK SMILES IDX 23 33
REMARK H PARENT 23 34
REMARK Flexibility Score: inf
ROOT
ATOM      1  C   UNL     1      46.242  28.481  26.902  1.00  0.00     0.017 C 
ATOM      2  C   UNL     1      45.163  27.630  27.604  1.00  0.00     0.014 C 
ATOM      3  C   UNL     1      46.956  27.708  25.685  1.00  0.00     0.014 C 
ATOM      4  C   UNL     1      45.594  29.807  26.398  1.00  0.00     0.028 C 
ATOM      5  C   UNL     1      44.479  28.371  28.751  1.00  0.00     0.007 C 
ATOM      6  C   UNL     1      46.433  27.892  24.194  1.00  0.00     0.013 C 
ATOM      7  C   UNL     1      45.052  29.648  24.957  1.00  0.00    -0.064 C 
ATOM      8  C   UNL     1      44.645  30.555  27.373  1.00  0.00     0.015 C 
ATOM      9  C   UNL     1      43.786  29.745  28.422  1.00  0.00    -0.035 C 
ATOM     10  C   UNL     1      46.082  29.353  23.816  1.00  0.00    -0.006 C 
ATOM     11  C   UNL     1      43.736  29.558  24.702  1.00  0.00    -0.027 C 
ATOM     12  C   UNL     1      42.356  29.479  27.858  1.00  0.00     0.011 C 
ATOM     13  C   UNL     1      43.668  30.574  29.743  1.00  0.00     0.011 C 
ATOM     14  C   UNL     1      47.335  30.262  23.984  1.00  0.00     0.017 C 
ATOM     15  C   UNL     1      45.476  29.600  22.240  1.00  0.00    -0.020 C 
ATOM     16  C   UNL     1      43.243  29.788  23.337  1.00  0.00     0.032 C 
ATOM     17  C   UNL     1      44.223  30.505  22.438  1.00  0.00     0.006 C 
ATOM     18  C   UNL     1      46.372  30.395  21.238  1.00  0.00     0.008 C 
ATOM     19  C   UNL     1      45.289  28.229  21.557  1.00  0.00     0.012 C 
ATOM     20  C   UNL     1      43.505  31.341  21.206  1.00  0.00    -0.025 C 
ATOM     21  C   UNL     1      45.735  30.924  19.912  1.00  0.00     0.005 C 
ATOM     22  C   UNL     1      44.144  30.959  19.831  1.00  0.00     0.003 C 
ATOM     23  C   UNL     1      41.926  31.088  21.122  1.00  0.00     0.010 C 
ATOM     24  C   UNL     1      43.617  32.907  21.456  1.00  0.00     0.012 C 
ATOM     25  C   UNL     1      43.514  31.622  18.517  1.00  0.00    -0.006 C 
ATOM     26  C   UNL     1      41.386  30.837  19.713  1.00  0.00     0.033 C 
ATOM     27  C   UNL     1      41.941  31.797  18.671  1.00  0.00     0.120 C 
ATOM     28  C   UNL     1      44.159  32.992  18.092  1.00  0.00     0.014 C 
ATOM     29  C   UNL     1      43.766  30.728  17.270  1.00  0.00     0.014 C 
ENDROOT
BRANCH   1  30
ATOM     30  C   UNL     1      47.365  28.779  27.904  1.00  0.00     0.048 C 
ATOM     31  O   UNL     1      47.986  27.811  28.433  1.00  0.00    -0.550 OA
ATOM     32  O   UNL     1      47.572  30.057  28.398  1.00  0.00    -0.550 OA
ENDBRANCH   1  30
BRANCH  27  33
ATOM     33  O   UNL     1      41.572  33.125  18.959  1.00  0.00    -0.393 OA
ATOM     34  H   UNL     1      41.616  33.664  18.115  1.00  0.00     0.210 HD
ENDBRANCH  27  33
TORSDOF 2
ENDMDL
MODEL 6
REMARK VINA RESULT:    -5.171      1.963      8.491
REMARK INTER + INTRA:          -5.803
REMARK INTER:                  -5.627
REMARK INTRA:                  -0.176
REMARK UNBOUND:                -0.179
REMARK SMILES CC1(C)CC[C@@]2(C(=O)[O-])CC[C@]3(C)C(=CC[C@@H]4[C@]5(C)CC[C@@H](O)C(C)(C)[C@H]5CC[C@]43C)[C@H]2C1
REMARK SMILES IDX 6 1 5 2 10 3 32 4 4 5 11 6 14 7 33 8 2 9 12 10 15 11 1 12
REMARK SMILES IDX 3 13 13 14 30 15 16 16 17 17 29 18 31 19 18 20 28 21 27 22
REMARK SMILES IDX 20 23 19 24 24 25 21 26 22 27 25 28 26 29 7 30 8 31 9 32
REMARK SMILES IDX 23 33
REMARK H PARENT 23 34
REMARK Flexibility Score: inf
ROOT
ATOM      1  C   UNL     1      44.843  29.032  27.541  1.00  0.00     0.017 C 
ATOM      2  C   UNL     1      46.118  29.101  28.408  1.00  0.00     0.014 C 
ATOM      3  C   UNL     1      44.267  30.484  27.158  1.00  0.00     0.014 C 
ATOM      4  C   UNL     1      45.151  28.211  26.251  1.00  0.00     0.028 C 
ATOM      5  C   UNL     1      46.670  27.721  28.761  1.00  0.00     0.007 C 
ATOM      6  C   UNL     1      44.666  31.173  25.780  1.00  0.00     0.013 C 
ATOM      7  C   UNL     1      45.648  29.133  25.112  1.00  0.00    -0.064 C 
ATOM      8  C   UNL     1      45.951  26.891  26.417  1.00  0.00     0.015 C 
ATOM      9  C   UNL     1      47.019  26.750  27.573  1.00  0.00    -0.035 C 
ATOM     10  C   UNL     1      44.660  30.215  24.562  1.00  0.00    -0.006 C 
ATOM     11  C   UNL     1      46.938  29.160  24.734  1.00  0.00    -0.027 C 
ATOM     12  C   UNL     1      48.444  27.085  27.036  1.00  0.00     0.011 C 
ATOM     13  C   UNL     1      47.008  25.281  28.110  1.00  0.00     0.011 C 
ATOM     14  C   UNL     1      43.243  29.596  24.378  1.00  0.00     0.017 C 
ATOM     15  C   UNL     1      45.121  30.894  23.066  1.00  0.00    -0.020 C 
ATOM     16  C   UNL     1      47.302  29.741  23.434  1.00  0.00     0.032 C 
ATOM     17  C   UNL     1      46.146  29.881  22.473  1.00  0.00     0.006 C 
ATOM     18  C   UNL     1      44.024  31.024  21.963  1.00  0.00     0.008 C 
ATOM     19  C   UNL     1      45.580  32.350  23.300  1.00  0.00     0.012 C 
ATOM     20  C   UNL     1      46.598  29.876  20.883  1.00  0.00    -0.025 C 
ATOM     21  C   UNL     1      44.463  31.327  20.493  1.00  0.00     0.005 C 
ATOM     22  C   UNL     1      45.999  31.109  20.132  1.00  0.00     0.003 C 
ATOM     23  C   UNL     1      48.188  29.885  20.691  1.00  0.00     0.010 C 
ATOM     24  C   UNL     1      46.148  28.523  20.181  1.00  0.00     0.012 C 
ATOM     25  C   UNL     1      46.402  31.301  18.595  1.00  0.00    -0.006 C 
ATOM     26  C   UNL     1      48.705  30.859  19.631  1.00  0.00     0.033 C 
ATOM     27  C   UNL     1      47.900  30.833  18.341  1.00  0.00     0.120 C 
ATOM     28  C   UNL     1      45.445  30.594  17.567  1.00  0.00     0.014 C 
ATOM     29  C   UNL     1      46.300  32.796  18.179  1.00  0.00     0.014 C 
ENDROOT
BRANCH   1  30
ATOM     30  C   UNL     1      43.730  28.358  28.353  1.00  0.00     0.048 C 
ATOM     31  O   UNL     1      42.862  27.666  27.744  1.00  0.00    -0.550 OA
ATOM     32  O   UNL     1      43.531  28.656  29.691  1.00  0.00    -0.550 OA
ENDBRANCH   1  30
BRANCH  27  33
ATOM     33  O   UNL     1      47.973  29.570  17.724  1.00  0.00    -0.393 OA
ATOM     34  H   UNL     1      48.787  29.542  17.138  1.00  0.00     0.210 HD
ENDBRANCH  27  33
TORSDOF 2
ENDMDL
MODEL 7
REMARK VINA RESULT:    -5.083      4.432      7.973
REMARK INTER + INTRA:          -5.708
REMARK INTER:                  -5.538
REMARK INTRA:                  -0.170
REMARK UNBOUND:                -0.179
REMARK SMILES CC1(C)CC[C@@]2(C(=O)[O-])CC[C@]3(C)C(=CC[C@@H]4[C@]5(C)CC[C@@H](O)C(C)(C)[C@H]5CC[C@]43C)[C@H]2C1
REMARK SMILES IDX 6 1 5 2 10 3 32 4 4 5 11 6 14 7 33 8 2 9 12 10 15 11 1 12
REMARK SMILES IDX 3 13 13 14 30 15 16 16 17 17 29 18 31 19 18 20 28 21 27 22
REMARK SMILES IDX 20 23 19 24 24 25 21 26 22 27 25 28 26 29 7 30 8 31 9 32
REMARK SMILES IDX 23 33
REMARK H PARENT 23 34
REMARK Flexibility Score: inf
ROOT
ATOM      1  C   UNL     1      44.916  29.480  25.466  1.00  0.00     0.017 C 
ATOM      2  C   UNL     1      45.462  28.301  26.299  1.00  0.00     0.014 C 
ATOM      3  C   UNL     1      44.483  29.049  23.979  1.00  0.00     0.014 C 
ATOM      4  C   UNL     1      43.710  30.118  26.221  1.00  0.00     0.028 C 
ATOM      5  C   UNL     1      45.861  28.710  27.715  1.00  0.00     0.007 C 
ATOM      6  C   UNL     1      42.973  28.665  23.657  1.00  0.00     0.013 C 
ATOM      7  C   UNL     1      42.378  29.453  25.801  1.00  0.00    -0.064 C 
ATOM      8  C   UNL     1      43.866  30.358  27.747  1.00  0.00     0.015 C 
ATOM      9  C   UNL     1      44.764  29.391  28.615  1.00  0.00    -0.035 C 
ATOM     10  C   UNL     1      41.923  29.600  24.310  1.00  0.00    -0.006 C 
ATOM     11  C   UNL     1      41.722  28.606  26.613  1.00  0.00    -0.027 C 
ATOM     12  C   UNL     1      43.884  28.287  29.277  1.00  0.00     0.011 C 
ATOM     13  C   UNL     1      45.478  30.216  29.735  1.00  0.00     0.011 C 
ATOM     14  C   UNL     1      42.143  31.065  23.830  1.00  0.00     0.017 C 
ATOM     15  C   UNL     1      40.286  29.207  24.031  1.00  0.00    -0.020 C 
ATOM     16  C   UNL     1      40.309  28.296  26.353  1.00  0.00     0.032 C 
ATOM     17  C   UNL     1      39.619  29.280  25.437  1.00  0.00     0.006 C 
ATOM     18  C   UNL     1      39.448  30.190  23.154  1.00  0.00     0.008 C 
ATOM     19  C   UNL     1      40.218  27.875  23.255  1.00  0.00     0.012 C 
ATOM     20  C   UNL     1      37.984  29.361  25.661  1.00  0.00    -0.025 C 
ATOM     21  C   UNL     1      37.891  30.051  23.144  1.00  0.00     0.005 C 
ATOM     22  C   UNL     1      37.228  29.181  24.303  1.00  0.00     0.003 C 
ATOM     23  C   UNL     1      37.443  28.263  26.694  1.00  0.00     0.010 C 
ATOM     24  C   UNL     1      37.583  30.740  26.343  1.00  0.00     0.012 C 
ATOM     25  C   UNL     1      35.629  29.158  24.349  1.00  0.00    -0.006 C 
ATOM     26  C   UNL     1      36.176  27.528  26.251  1.00  0.00     0.033 C 
ATOM     27  C   UNL     1      35.112  28.451  25.675  1.00  0.00     0.120 C 
ATOM     28  C   UNL     1      34.941  30.564  24.196  1.00  0.00     0.014 C 
ATOM     29  C   UNL     1      35.052  28.366  23.140  1.00  0.00     0.014 C 
ENDROOT
BRANCH   1  30
ATOM     30  C   UNL     1      46.037  30.511  25.278  1.00  0.00     0.048 C 
ATOM     31  O   UNL     1      45.755  31.743  25.356  1.00  0.00    -0.550 OA
ATOM     32  O   UNL     1      47.291  30.138  24.820  1.00  0.00    -0.550 OA
ENDBRANCH   1  30
BRANCH  27  33
ATOM     33  O   UNL     1      34.665  29.373  26.640  1.00  0.00    -0.393 OA
ATOM     34  H   UNL     1      35.243  29.296  27.456  1.00  0.00     0.210 HD
ENDBRANCH  27  33
TORSDOF 2
ENDMDL
MODEL 8
REMARK VINA RESULT:    -4.968      4.635      8.537
REMARK INTER + INTRA:          -5.583
REMARK INTER:                  -5.404
REMARK INTRA:                  -0.178
REMARK UNBOUND:                -0.179
REMARK SMILES CC1(C)CC[C@@]2(C(=O)[O-])CC[C@]3(C)C(=CC[C@@H]4[C@]5(C)CC[C@@H](O)C(C)(C)[C@H]5CC[C@]43C)[C@H]2C1
REMARK SMILES IDX 6 1 5 2 10 3 32 4 4 5 11 6 14 7 33 8 2 9 12 10 15 11 1 12
REMARK SMILES IDX 3 13 13 14 30 15 16 16 17 17 29 18 31 19 18 20 28 21 27 22
REMARK SMILES IDX 20 23 19 24 24 25 21 26 22 27 25 28 26 29 7 30 8 31 9 32
REMARK SMILES IDX 23 33
REMARK H PARENT 23 34
REMARK Flexibility Score: inf
ROOT
ATOM      1  C   UNL     1      44.319  28.894  28.295  1.00  0.00     0.017 C 
ATOM      2  C   UNL     1      43.365  29.426  27.204  1.00  0.00     0.014 C 
ATOM      3  C   UNL     1      43.657  27.739  29.197  1.00  0.00     0.014 C 
ATOM      4  C   UNL     1      45.624  28.374  27.617  1.00  0.00     0.028 C 
ATOM      5  C   UNL     1      44.001  30.514  26.341  1.00  0.00     0.007 C 
ATOM      6  C   UNL     1      43.882  26.205  28.839  1.00  0.00     0.013 C 
ATOM      7  C   UNL     1      45.503  26.873  27.259  1.00  0.00    -0.064 C 
ATOM      8  C   UNL     1      46.258  29.259  26.511  1.00  0.00     0.015 C 
ATOM      9  C   UNL     1      45.342  30.164  25.596  1.00  0.00    -0.035 C 
ATOM     10  C   UNL     1      45.334  25.851  28.432  1.00  0.00    -0.006 C 
ATOM     11  C   UNL     1      45.341  26.459  25.990  1.00  0.00    -0.027 C 
ATOM     12  C   UNL     1      45.012  29.423  24.263  1.00  0.00     0.011 C 
ATOM     13  C   UNL     1      46.093  31.495  25.267  1.00  0.00     0.011 C 
ATOM     14  C   UNL     1      46.313  26.206  29.590  1.00  0.00     0.017 C 
ATOM     15  C   UNL     1      45.621  24.226  27.996  1.00  0.00    -0.020 C 
ATOM     16  C   UNL     1      45.607  25.056  25.644  1.00  0.00     0.032 C 
ATOM     17  C   UNL     1      46.431  24.312  26.668  1.00  0.00     0.006 C 
ATOM     18  C   UNL     1      46.522  23.373  28.944  1.00  0.00     0.008 C 
ATOM     19  C   UNL     1      44.276  23.468  27.988  1.00  0.00     0.012 C 
ATOM     20  C   UNL     1      47.280  23.040  26.041  1.00  0.00    -0.025 C 
ATOM     21  C   UNL     1      47.075  22.005  28.429  1.00  0.00     0.005 C 
ATOM     22  C   UNL     1      47.010  21.735  26.860  1.00  0.00     0.003 C 
ATOM     23  C   UNL     1      46.929  22.757  24.504  1.00  0.00     0.010 C 
ATOM     24  C   UNL     1      48.834  23.368  26.012  1.00  0.00     0.012 C 
ATOM     25  C   UNL     1      47.696  20.386  26.341  1.00  0.00    -0.006 C 
ATOM     26  C   UNL     1      46.715  21.285  24.150  1.00  0.00     0.033 C 
ATOM     27  C   UNL     1      47.761  20.359  24.753  1.00  0.00     0.120 C 
ATOM     28  C   UNL     1      49.125  20.100  26.933  1.00  0.00     0.014 C 
ATOM     29  C   UNL     1      46.885  19.141  26.799  1.00  0.00     0.014 C 
ENDROOT
BRANCH   1  30
ATOM     30  C   UNL     1      44.639  30.035  29.270  1.00  0.00     0.048 C 
ATOM     31  O   UNL     1      45.802  30.110  29.763  1.00  0.00    -0.550 OA
ATOM     32  O   UNL     1      43.641  30.849  29.780  1.00  0.00    -0.550 OA
ENDBRANCH   1  30
BRANCH  27  33
ATOM     33  O   UNL     1      49.045  20.657  24.260  1.00  0.00    -0.393 OA
ATOM     34  H   UNL     1      49.575  21.106  24.983  1.00  0.00     0.210 HD
ENDBRANCH  27  33
TORSDOF 2
ENDMDL
