MODEL 1
REMARK VINA RESULT:    15.256      0.000      0.000
REMARK INTER + INTRA:          17.173
REMARK INTER:                  17.485
REMARK INTRA:                  -0.312
REMARK UNBOUND:                -0.312
REMARK SMILES O=C1C[C@H](c2ccc(O)cc2)Oc2cc(O)cc(O)c21
REMARK SMILES IDX 3 1 4 2 12 3 13 4 14 5 15 6 17 7 18 8 20 9 2 10 1 11 5 12
REMARK SMILES IDX 6 13 11 14 7 15 10 16 8 17 9 18 19 20 16 22
REMARK H PARENT 9 19 19 21 16 23
REMARK Flexibility Score: inf
ROOT
ATOM      1  C   UNL     1       0.976  29.323  31.037  1.00  0.00     0.131 C 
ATOM      2  C   UNL     1      -0.125  28.759  31.946  1.00  0.00     0.211 C 
ATOM      3  O   UNL     1      -0.090  27.328  31.952  1.00  0.00    -0.484 OA
ATOM      4  C   UNL     1       0.167  26.574  30.798  1.00  0.00     0.138 A 
ATOM      5  C   UNL     1      -0.086  25.201  30.817  1.00  0.00     0.093 A 
ATOM      6  C   UNL     1       0.147  24.425  29.677  1.00  0.00     0.123 A 
ATOM      7  C   UNL     1       0.662  25.022  28.526  1.00  0.00     0.093 A 
ATOM      8  C   UNL     1       0.962  26.390  28.497  1.00  0.00     0.133 A 
ATOM      9  C   UNL     1       0.682  27.190  29.636  1.00  0.00     0.102 A 
ATOM     10  C   UNL     1       0.892  28.657  29.695  1.00  0.00     0.174 C 
ATOM     11  O   UNL     1       0.948  29.362  28.653  1.00  0.00    -0.294 OA
ENDROOT
BRANCH   2  12
ATOM     12  C   UNL     1       0.023  29.285  33.353  1.00  0.00    -0.007 A 
ATOM     13  C   UNL     1      -0.026  28.404  34.446  1.00  0.00     0.011 A 
ATOM     14  C   UNL     1       0.156  30.665  33.590  1.00  0.00     0.011 A 
ATOM     15  C   UNL     1       0.081  28.892  35.752  1.00  0.00     0.046 A 
ATOM     16  C   UNL     1       0.262  31.150  34.897  1.00  0.00     0.046 A 
ATOM     17  C   UNL     1       0.226  30.264  35.981  1.00  0.00     0.115 A 
BRANCH  17  18
ATOM     18  O   UNL     1       0.331  30.736  37.289  1.00  0.00    -0.508 OA
ATOM     19  H   UNL     1       0.037  30.174  38.079  1.00  0.00     0.293 HD
ENDBRANCH  17  18
ENDBRANCH   2  12
BRANCH   8  20
ATOM     20  O   UNL     1       1.563  26.893  27.341  1.00  0.00    -0.507 OA
ATOM     21  H   UNL     1       2.523  26.720  27.082  1.00  0.00     0.293 HD
ENDBRANCH   8  20
BRANCH   6  22
ATOM     22  O   UNL     1      -0.124  23.059  29.681  1.00  0.00    -0.508 OA
ATOM     23  H   UNL     1       0.379  22.421  30.287  1.00  0.00     0.293 HD
ENDBRANCH   6  22
TORSDOF 4
ENDMDL
MODEL 2
REMARK VINA RESULT:    17.386      2.875      7.337
REMARK INTER + INTRA:          19.615
REMARK INTER:                  19.935
REMARK INTRA:                  -0.321
REMARK UNBOUND:                -0.312
REMARK SMILES O=C1C[C@H](c2ccc(O)cc2)Oc2cc(O)cc(O)c21
REMARK SMILES IDX 3 1 4 2 12 3 13 4 14 5 15 6 17 7 18 8 20 9 2 10 1 11 5 12
REMARK SMILES IDX 6 13 11 14 7 15 10 16 8 17 9 18 19 20 16 22
REMARK H PARENT 9 19 19 21 16 23
REMARK Flexibility Score: inf
ROOT
ATOM      1  C   UNL     1       1.057  24.765  30.992  1.00  0.00     0.131 C 
ATOM      2  C   UNL     1      -0.124  24.707  30.014  1.00  0.00     0.211 C 
ATOM      3  O   UNL     1      -0.095  25.824  29.121  1.00  0.00    -0.484 OA
ATOM      4  C   UNL     1       0.264  27.114  29.535  1.00  0.00     0.138 A 
ATOM      5  C   UNL     1       0.006  28.194  28.689  1.00  0.00     0.093 A 
ATOM      6  C   UNL     1       0.339  29.494  29.082  1.00  0.00     0.123 A 
ATOM      7  C   UNL     1       0.960  29.708  30.313  1.00  0.00     0.093 A 
ATOM      8  C   UNL     1       1.266  28.636  31.160  1.00  0.00     0.133 A 
ATOM      9  C   UNL     1       0.886  27.320  30.787  1.00  0.00     0.102 A 
ATOM     10  C   UNL     1       1.095  26.120  31.634  1.00  0.00     0.174 C 
ATOM     11  O   UNL     1       1.249  26.208  32.882  1.00  0.00    -0.294 OA
ENDROOT
BRANCH   2  12
ATOM     12  C   UNL     1      -0.104  23.417  29.230  1.00  0.00    -0.007 A 
ATOM     13  C   UNL     1      -0.021  22.184  29.898  1.00  0.00     0.011 A 
ATOM     14  C   UNL     1      -0.114  23.435  27.824  1.00  0.00     0.011 A 
ATOM     15  C   UNL     1       0.029  20.989  29.174  1.00  0.00     0.046 A 
ATOM     16  C   UNL     1      -0.063  22.238  27.102  1.00  0.00     0.046 A 
ATOM     17  C   UNL     1       0.006  21.013  27.776  1.00  0.00     0.115 A 
BRANCH  17  18
ATOM     18  O   UNL     1       0.056  19.814  27.067  1.00  0.00    -0.508 OA
ATOM     19  H   UNL     1      -0.287  19.747  26.116  1.00  0.00     0.293 HD
ENDBRANCH  17  18
ENDBRANCH   2  12
BRANCH   8  20
ATOM     20  O   UNL     1       1.973  28.923  32.330  1.00  0.00    -0.507 OA
ATOM     21  H   UNL     1       2.906  28.591  32.523  1.00  0.00     0.293 HD
ENDBRANCH   8  20
BRANCH   6  22
ATOM     22  O   UNL     1       0.064  30.578  28.252  1.00  0.00    -0.508 OA
ATOM     23  H   UNL     1      -0.611  30.512  27.499  1.00  0.00     0.293 HD
ENDBRANCH   6  22
TORSDOF 4
ENDMDL
