MODEL 1
REMARK VINA RESULT:    -5.203      0.000      0.000
REMARK INTER + INTRA:          -5.880
REMARK INTER:                  -5.659
REMARK INTRA:                  -0.221
REMARK UNBOUND:                -0.221
REMARK SMILES O=C([O-])c1ccccc1O
REMARK SMILES IDX 4 1 9 2 5 3 8 4 6 5 7 6 2 7 1 8 3 9 10 10
REMARK H PARENT 10 11
REMARK Flexibility Score: inf
ROOT
ATOM      1  C   UNL     1      -6.496  64.244 165.143  1.00  0.00     0.039 A 
ATOM      2  C   UNL     1      -7.251  65.438 165.279  1.00  0.00     0.124 A 
ATOM      3  C   UNL     1      -5.105  64.290 165.358  1.00  0.00     0.014 A 
ATOM      4  C   UNL     1      -6.613  66.618 165.684  1.00  0.00     0.047 A 
ATOM      5  C   UNL     1      -4.483  65.480 165.740  1.00  0.00     0.001 A 
ATOM      6  C   UNL     1      -5.236  66.640 165.912  1.00  0.00     0.004 A 
ENDROOT
BRANCH   1   7
ATOM      7  C   UNL     1      -7.111  62.938 164.816  1.00  0.00     0.075 C 
ATOM      8  O   UNL     1      -6.475  61.863 164.984  1.00  0.00    -0.545 OA
ATOM      9  O   UNL     1      -8.380  62.890 164.252  1.00  0.00    -0.545 OA
ENDBRANCH   1   7
BRANCH   2  10
ATOM     10  O   UNL     1      -8.616  65.504 164.994  1.00  0.00    -0.507 OA
ATOM     11  H   UNL     1      -9.339  65.349 165.683  1.00  0.00     0.293 HD
ENDBRANCH   2  10
TORSDOF 2
ENDMDL
MODEL 2
REMARK VINA RESULT:    -4.625      4.165      5.121
REMARK INTER + INTRA:          -5.251
REMARK INTER:                  -5.035
REMARK INTRA:                  -0.216
REMARK UNBOUND:                -0.221
REMARK SMILES O=C([O-])c1ccccc1O
REMARK SMILES IDX 4 1 9 2 5 3 8 4 6 5 7 6 2 7 1 8 3 9 10 10
REMARK H PARENT 10 11
REMARK Flexibility Score: inf
ROOT
ATOM      1  C   UNL     1      -3.036  66.712 165.720  1.00  0.00     0.039 A 
ATOM      2  C   UNL     1      -3.936  67.573 165.039  1.00  0.00     0.124 A 
ATOM      3  C   UNL     1      -3.558  65.675 166.516  1.00  0.00     0.014 A 
ATOM      4  C   UNL     1      -5.314  67.338 165.120  1.00  0.00     0.047 A 
ATOM      5  C   UNL     1      -4.936  65.468 166.602  1.00  0.00     0.001 A 
ATOM      6  C   UNL     1      -5.812  66.292 165.898  1.00  0.00     0.004 A 
ENDROOT
BRANCH   1   7
ATOM      7  C   UNL     1      -1.566  66.834 165.605  1.00  0.00     0.075 C 
ATOM      8  O   UNL     1      -1.045  67.646 164.794  1.00  0.00    -0.545 OA
ATOM      9  O   UNL     1      -0.738  65.999 166.348  1.00  0.00    -0.545 OA
ENDBRANCH   1   7
BRANCH   2  10
ATOM     10  O   UNL     1      -3.509  68.683 164.306  1.00  0.00    -0.507 OA
ATOM     11  H   UNL     1      -3.122  68.621 163.374  1.00  0.00     0.293 HD
ENDBRANCH   2  10
TORSDOF 2
ENDMDL
MODEL 3
REMARK VINA RESULT:    -4.470      3.802      5.194
REMARK INTER + INTRA:          -5.083
REMARK INTER:                  -4.834
REMARK INTRA:                  -0.248
REMARK UNBOUND:                -0.221
REMARK SMILES O=C([O-])c1ccccc1O
REMARK SMILES IDX 4 1 9 2 5 3 8 4 6 5 7 6 2 7 1 8 3 9 10 10
REMARK H PARENT 10 11
REMARK Flexibility Score: inf
ROOT
ATOM      1  C   UNL     1      -4.394  67.438 165.460  1.00  0.00     0.039 A 
ATOM      2  C   UNL     1      -3.701  66.300 165.950  1.00  0.00     0.124 A 
ATOM      3  C   UNL     1      -5.794  67.378 165.332  1.00  0.00     0.014 A 
ATOM      4  C   UNL     1      -4.424  65.170 166.354  1.00  0.00     0.047 A 
ATOM      5  C   UNL     1      -6.497  66.236 165.720  1.00  0.00     0.001 A 
ATOM      6  C   UNL     1      -5.814  65.137 166.239  1.00  0.00     0.004 A 
ENDROOT
BRANCH   1   7
ATOM      7  C   UNL     1      -3.711  68.702 165.106  1.00  0.00     0.075 C 
ATOM      8  O   UNL     1      -2.672  68.699 164.395  1.00  0.00    -0.545 OA
ATOM      9  O   UNL     1      -4.175  69.909 165.616  1.00  0.00    -0.545 OA
ENDBRANCH   1   7
BRANCH   2  10
ATOM     10  O   UNL     1      -2.307  66.237 166.021  1.00  0.00    -0.507 OA
ATOM     11  H   UNL     1      -1.711  67.053 166.009  1.00  0.00     0.293 HD
ENDBRANCH   2  10
TORSDOF 2
ENDMDL
MODEL 4
REMARK VINA RESULT:    -4.439      3.823      5.314
REMARK INTER + INTRA:          -5.049
REMARK INTER:                  -4.801
REMARK INTRA:                  -0.247
REMARK UNBOUND:                -0.221
REMARK SMILES O=C([O-])c1ccccc1O
REMARK SMILES IDX 4 1 9 2 5 3 8 4 6 5 7 6 2 7 1 8 3 9 10 10
REMARK H PARENT 10 11
REMARK Flexibility Score: inf
ROOT
ATOM      1  C   UNL     1      -4.332  67.496 165.454  1.00  0.00     0.039 A 
ATOM      2  C   UNL     1      -3.620  66.348 165.889  1.00  0.00     0.124 A 
ATOM      3  C   UNL     1      -5.729  67.415 165.307  1.00  0.00     0.014 A 
ATOM      4  C   UNL     1      -4.323  65.183 166.223  1.00  0.00     0.047 A 
ATOM      5  C   UNL     1      -6.411  66.239 165.624  1.00  0.00     0.001 A 
ATOM      6  C   UNL     1      -5.711  65.128 166.091  1.00  0.00     0.004 A 
ENDROOT
BRANCH   1   7
ATOM      7  C   UNL     1      -3.673  68.792 165.177  1.00  0.00     0.075 C 
ATOM      8  O   UNL     1      -4.155  69.870 165.615  1.00  0.00    -0.545 OA
ATOM      9  O   UNL     1      -2.544  68.839 164.367  1.00  0.00    -0.545 OA
ENDBRANCH   1   7
BRANCH   2  10
ATOM     10  O   UNL     1      -2.226  66.311 165.972  1.00  0.00    -0.507 OA
ATOM     11  H   UNL     1      -1.638  65.860 165.285  1.00  0.00     0.293 HD
ENDBRANCH   2  10
TORSDOF 2
ENDMDL
MODEL 5
REMARK VINA RESULT:    -4.367      3.598      4.718
REMARK INTER + INTRA:          -4.970
REMARK INTER:                  -4.753
REMARK INTRA:                  -0.218
REMARK UNBOUND:                -0.221
REMARK SMILES O=C([O-])c1ccccc1O
REMARK SMILES IDX 4 1 9 2 5 3 8 4 6 5 7 6 2 7 1 8 3 9 10 10
REMARK H PARENT 10 11
REMARK Flexibility Score: inf
ROOT
ATOM      1  C   UNL     1      -3.274  66.963 165.768  1.00  0.00     0.039 A 
ATOM      2  C   UNL     1      -3.082  68.361 165.919  1.00  0.00     0.124 A 
ATOM      3  C   UNL     1      -2.155  66.111 165.828  1.00  0.00     0.014 A 
ATOM      4  C   UNL     1      -1.800  68.858 166.187  1.00  0.00     0.047 A 
ATOM      5  C   UNL     1      -0.881  66.627 166.075  1.00  0.00     0.001 A 
ATOM      6  C   UNL     1      -0.705  67.996 166.264  1.00  0.00     0.004 A 
ENDROOT
BRANCH   1   7
ATOM      7  C   UNL     1      -4.609  66.351 165.580  1.00  0.00     0.075 C 
ATOM      8  O   UNL     1      -5.659  67.036 165.713  1.00  0.00    -0.545 OA
ATOM      9  O   UNL     1      -4.721  64.990 165.321  1.00  0.00    -0.545 OA
ENDBRANCH   1   7
BRANCH   2  10
ATOM     10  O   UNL     1      -4.120  69.284 165.779  1.00  0.00    -0.507 OA
ATOM     11  H   UNL     1      -4.501  69.817 166.549  1.00  0.00     0.293 HD
ENDBRANCH   2  10
TORSDOF 2
ENDMDL
MODEL 6
REMARK VINA RESULT:    -4.199      2.519      3.702
REMARK INTER + INTRA:          -4.788
REMARK INTER:                  -4.553
REMARK INTRA:                  -0.235
REMARK UNBOUND:                -0.221
REMARK SMILES O=C([O-])c1ccccc1O
REMARK SMILES IDX 4 1 9 2 5 3 8 4 6 5 7 6 2 7 1 8 3 9 10 10
REMARK H PARENT 10 11
REMARK Flexibility Score: inf
ROOT
ATOM      1  C   UNL     1      -5.478  65.558 165.543  1.00  0.00     0.039 A 
ATOM      2  C   UNL     1      -6.812  66.035 165.448  1.00  0.00     0.124 A 
ATOM      3  C   UNL     1      -5.226  64.192 165.314  1.00  0.00     0.014 A 
ATOM      4  C   UNL     1      -7.835  65.157 165.068  1.00  0.00     0.047 A 
ATOM      5  C   UNL     1      -6.263  63.327 164.958  1.00  0.00     0.001 A 
ATOM      6  C   UNL     1      -7.563  63.810 164.825  1.00  0.00     0.004 A 
ENDROOT
BRANCH   1   7
ATOM      7  C   UNL     1      -4.329  66.441 165.841  1.00  0.00     0.075 C 
ATOM      8  O   UNL     1      -4.393  67.681 165.627  1.00  0.00    -0.545 OA
ATOM      9  O   UNL     1      -3.135  65.898 166.301  1.00  0.00    -0.545 OA
ENDBRANCH   1   7
BRANCH   2  10
ATOM     10  O   UNL     1      -7.165  67.351 165.750  1.00  0.00    -0.507 OA
ATOM     11  H   UNL     1      -7.318  67.686 166.691  1.00  0.00     0.293 HD
ENDBRANCH   2  10
TORSDOF 2
ENDMDL
MODEL 7
REMARK VINA RESULT:    -4.190      4.982      6.404
REMARK INTER + INTRA:          -4.778
REMARK INTER:                  -4.525
REMARK INTRA:                  -0.253
REMARK UNBOUND:                -0.221
REMARK SMILES O=C([O-])c1ccccc1O
REMARK SMILES IDX 4 1 9 2 5 3 8 4 6 5 7 6 2 7 1 8 3 9 10 10
REMARK H PARENT 10 11
REMARK Flexibility Score: inf
ROOT
ATOM      1  C   UNL     1      -2.439  67.842 165.182  1.00  0.00     0.039 A 
ATOM      2  C   UNL     1      -2.134  66.618 165.833  1.00  0.00     0.124 A 
ATOM      3  C   UNL     1      -3.786  68.150 164.911  1.00  0.00     0.014 A 
ATOM      4  C   UNL     1      -3.173  65.777 166.249  1.00  0.00     0.047 A 
ATOM      5  C   UNL     1      -4.808  67.289 165.314  1.00  0.00     0.001 A 
ATOM      6  C   UNL     1      -4.504  66.109 165.990  1.00  0.00     0.004 A 
ENDROOT
BRANCH   1   7
ATOM      7  C   UNL     1      -1.405  68.829 164.801  1.00  0.00     0.075 C 
ATOM      8  O   UNL     1      -1.485  69.464 163.716  1.00  0.00    -0.545 OA
ATOM      9  O   UNL     1      -0.290  69.016 165.611  1.00  0.00    -0.545 OA
ENDBRANCH   1   7
BRANCH   2  10
ATOM     10  O   UNL     1      -0.823  66.189 166.056  1.00  0.00    -0.507 OA
ATOM     11  H   UNL     1      -0.124  66.749 166.523  1.00  0.00     0.293 HD
ENDBRANCH   2  10
TORSDOF 2
ENDMDL
MODEL 8
REMARK VINA RESULT:    -4.036      5.631      6.719
REMARK INTER + INTRA:          -4.610
REMARK INTER:                  -4.375
REMARK INTRA:                  -0.235
REMARK UNBOUND:                -0.221
REMARK SMILES O=C([O-])c1ccccc1O
REMARK SMILES IDX 4 1 9 2 5 3 8 4 6 5 7 6 2 7 1 8 3 9 10 10
REMARK H PARENT 10 11
REMARK Flexibility Score: inf
ROOT
ATOM      1  C   UNL     1      -1.534  68.195 164.495  1.00  0.00     0.039 A 
ATOM      2  C   UNL     1      -2.869  68.675 164.462  1.00  0.00     0.124 A 
ATOM      3  C   UNL     1      -1.224  67.102 165.325  1.00  0.00     0.014 A 
ATOM      4  C   UNL     1      -3.860  68.017 165.201  1.00  0.00     0.047 A 
ATOM      5  C   UNL     1      -2.221  66.470 166.072  1.00  0.00     0.001 A 
ATOM      6  C   UNL     1      -3.538  66.920 166.003  1.00  0.00     0.004 A 
ENDROOT
BRANCH   1   7
ATOM      7  C   UNL     1      -0.451  68.775 163.668  1.00  0.00     0.075 C 
ATOM      8  O   UNL     1      -0.179  70.003 163.728  1.00  0.00    -0.545 OA
ATOM      9  O   UNL     1       0.234  67.975 162.761  1.00  0.00    -0.545 OA
ENDBRANCH   1   7
BRANCH   2  10
ATOM     10  O   UNL     1      -3.245  69.811 163.741  1.00  0.00    -0.507 OA
ATOM     11  H   UNL     1      -4.087  70.338 163.928  1.00  0.00     0.293 HD
ENDBRANCH   2  10
TORSDOF 2
ENDMDL
MODEL 9
REMARK VINA RESULT:    -3.987      5.005      6.283
REMARK INTER + INTRA:          -4.558
REMARK INTER:                  -4.346
REMARK INTRA:                  -0.212
REMARK UNBOUND:                -0.221
REMARK SMILES O=C([O-])c1ccccc1O
REMARK SMILES IDX 4 1 9 2 5 3 8 4 6 5 7 6 2 7 1 8 3 9 10 10
REMARK H PARENT 10 11
REMARK Flexibility Score: inf
ROOT
ATOM      1  C   UNL     1      -2.429  68.089 166.094  1.00  0.00     0.039 A 
ATOM      2  C   UNL     1      -3.717  68.576 165.750  1.00  0.00     0.124 A 
ATOM      3  C   UNL     1      -2.216  66.698 166.131  1.00  0.00     0.014 A 
ATOM      4  C   UNL     1      -4.726  67.673 165.392  1.00  0.00     0.047 A 
ATOM      5  C   UNL     1      -3.240  65.811 165.792  1.00  0.00     0.001 A 
ATOM      6  C   UNL     1      -4.490  66.298 165.415  1.00  0.00     0.004 A 
ENDROOT
BRANCH   1   7
ATOM      7  C   UNL     1      -1.285  68.981 166.388  1.00  0.00     0.075 C 
ATOM      8  O   UNL     1      -1.399  70.232 166.292  1.00  0.00    -0.545 OA
ATOM      9  O   UNL     1      -0.046  68.439 166.709  1.00  0.00    -0.545 OA
ENDBRANCH   1   7
BRANCH   2  10
ATOM     10  O   UNL     1      -4.043  69.934 165.780  1.00  0.00    -0.507 OA
ATOM     11  H   UNL     1      -4.947  70.285 166.065  1.00  0.00     0.293 HD
ENDBRANCH   2  10
TORSDOF 2
ENDMDL
