MODEL 1
REMARK VINA RESULT:    -3.466      0.000      0.000
REMARK INTER + INTRA:          -5.048
REMARK INTER:                  -4.885
REMARK INTRA:                  -0.163
REMARK UNBOUND:                -0.163
REMARK SMILES CC1=CCC(=C(C)C)C(=O)CC(C)=CCC1
REMARK SMILES IDX 12 1 14 2 13 3 15 4 16 5 2 6 1 7 3 8 11 10 9 11 10 12 5 13
REMARK SMILES IDX 6 14 7 15 8 16 4 17
REMARK H PARENT
REMARK Flexibility Score: 60.00
ROOT
ATOM      1  C   UNL     1     124.228 132.080 113.110  1.00  0.00    -0.070 C 
ATOM      2  C   UNL     1     122.957 131.598 113.191  1.00  0.00    -0.027 C 
ATOM      3  C   UNL     1     125.334 131.104 113.438  1.00  0.00     0.039 C 
ENDROOT
BRANCH   2   4
ATOM      4  C   UNL     1     121.659 132.322 112.901  1.00  0.00     0.032 C 
BRANCH   4   5
ATOM      5  C   UNL     1     120.913 131.873 111.620  1.00  0.00     0.034 C 
BRANCH   5   6
ATOM      6  C   UNL     1     121.029 132.830 110.453  1.00  0.00    -0.077 C 
ATOM      7  C   UNL     1     119.904 133.803 110.205  1.00  0.00     0.039 C 
ATOM      8  C   UNL     1     122.067 132.828 109.588  1.00  0.00    -0.023 CG0
ATOM      9  G   UNL     1     123.308 131.966 109.657  1.00  0.00     0.000 G0
ENDBRANCH   5   6
ENDBRANCH   4   5
ENDBRANCH   2   4
BRANCH   1  10
ATOM     10  C   UNL     1     124.672 133.460 112.616  1.00  0.00     0.111 C 
BRANCH  10  11
ATOM     11  C   UNL     1     124.557 133.727 111.137  1.00  0.00     0.163 C 
ATOM     12  O   UNL     1     124.422 134.936 110.807  1.00  0.00    -0.294 OA
BRANCH  11  13
ATOM     13  C   UNL     1     124.617 132.645 110.078  1.00  0.00    -0.002 C 
ATOM     14  C   UNL     1     125.819 132.186 109.584  1.00  0.00    -0.069 C 
ATOM     15  C   UNL     1     125.892 131.029 108.607  1.00  0.00     0.039 C 
ATOM     16  C   UNL     1     127.151 132.799 109.966  1.00  0.00     0.039 C 
BRANCH  13  17
ATOM     17  C   UNL     1     123.308 131.972 109.636  1.00  0.00     0.066 CG0
ATOM     18  G   UNL     1     122.065 132.834 109.604  1.00  0.00     0.000 G0
ENDBRANCH  13  17
ENDBRANCH  11  13
ENDBRANCH  10  11
ENDBRANCH   1  10
TORSDOF 0
ENDMDL
MODEL 2
REMARK VINA RESULT:    -3.349     11.821     14.115
REMARK INTER + INTRA:          -4.883
REMARK INTER:                  -4.389
REMARK INTRA:                  -0.494
REMARK UNBOUND:                -0.163
REMARK SMILES CC1=CCC(=C(C)C)C(=O)CC(C)=CCC1
REMARK SMILES IDX 12 1 14 2 13 3 15 4 16 5 2 6 1 7 3 8 11 10 9 11 10 12 5 13
REMARK SMILES IDX 6 14 7 15 8 16 4 17
REMARK H PARENT
REMARK Flexibility Score: 60.00
ROOT
ATOM      1  C   UNL     1     136.119 126.978 112.156  1.00  0.00    -0.070 C 
ATOM      2  C   UNL     1     137.348 126.856 111.580  1.00  0.00    -0.027 C 
ATOM      3  C   UNL     1     135.913 126.230 113.453  1.00  0.00     0.039 C 
ENDROOT
BRANCH   2   4
ATOM      4  C   UNL     1     137.854 127.500 110.307  1.00  0.00     0.032 C 
BRANCH   4   5
ATOM      5  C   UNL     1     137.481 126.772 108.993  1.00  0.00     0.034 C 
BRANCH   5   6
ATOM      6  C   UNL     1     137.238 125.285 109.142  1.00  0.00    -0.077 C 
ATOM      7  C   UNL     1     138.426 124.379 109.348  1.00  0.00     0.039 C 
ATOM      8  C   UNL     1     136.017 124.716 109.049  1.00  0.00    -0.023 CG0
ATOM      9  G   UNL     1     134.692 125.426 108.872  1.00  0.00     0.000 G0
ENDBRANCH   5   6
ENDBRANCH   4   5
ENDBRANCH   2   4
BRANCH   1  10
ATOM     10  C   UNL     1     134.961 127.872 111.702  1.00  0.00     0.111 C 
BRANCH  10  11
ATOM     11  C   UNL     1     134.153 127.397 110.522  1.00  0.00     0.163 C 
ATOM     12  O   UNL     1     133.623 128.301 109.822  1.00  0.00    -0.294 OA
BRANCH  11  13
ATOM     13  C   UNL     1     133.981 125.938 110.150  1.00  0.00    -0.002 C 
ATOM     14  C   UNL     1     133.148 125.105 110.865  1.00  0.00    -0.069 C 
ATOM     15  C   UNL     1     132.886 123.676 110.433  1.00  0.00     0.039 C 
ATOM     16  C   UNL     1     132.441 125.542 112.132  1.00  0.00     0.039 C 
BRANCH  13  17
ATOM     17  C   UNL     1     134.667 125.417 108.877  1.00  0.00     0.066 CG0
ATOM     18  G   UNL     1     136.004 124.730 109.045  1.00  0.00     0.000 G0
ENDBRANCH  13  17
ENDBRANCH  11  13
ENDBRANCH  10  11
ENDBRANCH   1  10
TORSDOF 0
ENDMDL
MODEL 3
REMARK VINA RESULT:    -3.343      1.309      3.907
REMARK INTER + INTRA:          -4.874
REMARK INTER:                  -4.695
REMARK INTRA:                  -0.179
REMARK UNBOUND:                -0.163
REMARK SMILES CC1=CCC(=C(C)C)C(=O)CC(C)=CCC1
REMARK SMILES IDX 12 1 14 2 13 3 15 4 16 5 2 6 1 7 3 8 11 10 9 11 10 12 5 13
REMARK SMILES IDX 6 14 7 15 8 16 4 17
REMARK H PARENT
REMARK Flexibility Score: 60.00
ROOT
ATOM      1  C   UNL     1     123.353 132.371 112.818  1.00  0.00    -0.070 C 
ATOM      2  C   UNL     1     124.114 131.346 113.293  1.00  0.00    -0.027 C 
ATOM      3  C   UNL     1     121.875 132.303 113.125  1.00  0.00     0.039 C 
ENDROOT
BRANCH   2   4
ATOM      4  C   UNL     1     125.610 131.152 113.168  1.00  0.00     0.032 C 
BRANCH   4   5
ATOM      5  C   UNL     1     126.099 130.551 111.828  1.00  0.00     0.034 C 
BRANCH   5   6
ATOM      6  C   UNL     1     126.707 131.554 110.870  1.00  0.00    -0.077 C 
ATOM      7  C   UNL     1     128.082 132.095 111.172  1.00  0.00     0.039 C 
ATOM      8  C   UNL     1     126.063 132.031 109.783  1.00  0.00    -0.023 CG0
ATOM      9  G   UNL     1     124.700 131.616 109.276  1.00  0.00     0.000 G0
ENDBRANCH   5   6
ENDBRANCH   4   5
ENDBRANCH   2   4
BRANCH   1  10
ATOM     10  C   UNL     1     123.836 133.638 112.106  1.00  0.00     0.111 C 
BRANCH  10  11
ATOM     11  C   UNL     1     123.730 133.661 110.603  1.00  0.00     0.163 C 
ATOM     12  O   UNL     1     123.881 134.788 110.060  1.00  0.00    -0.294 OA
BRANCH  11  13
ATOM     13  C   UNL     1     123.483 132.429 109.757  1.00  0.00    -0.002 C 
ATOM     14  C   UNL     1     122.218 132.096 109.320  1.00  0.00    -0.069 C 
ATOM     15  C   UNL     1     121.978 130.930 108.383  1.00  0.00     0.039 C 
ATOM     16  C   UNL     1     120.978 132.857 109.743  1.00  0.00     0.039 C 
BRANCH  13  17
ATOM     17  C   UNL     1     124.690 131.604 109.286  1.00  0.00     0.066 CG0
ATOM     18  G   UNL     1     126.055 132.033 109.778  1.00  0.00     0.000 G0
ENDBRANCH  13  17
ENDBRANCH  11  13
ENDBRANCH  10  11
ENDBRANCH   1  10
TORSDOF 0
ENDMDL
MODEL 4
REMARK VINA RESULT:    -3.279     11.653     13.772
REMARK INTER + INTRA:          -4.784
REMARK INTER:                  -4.304
REMARK INTRA:                  -0.480
REMARK UNBOUND:                -0.163
REMARK SMILES CC1=CCC(=C(C)C)C(=O)CC(C)=CCC1
REMARK SMILES IDX 12 1 14 2 13 3 15 4 16 5 2 6 1 7 3 8 11 10 9 11 10 12 5 13
REMARK SMILES IDX 6 14 7 15 8 16 4 17
REMARK H PARENT
REMARK Flexibility Score: 60.00
ROOT
ATOM      1  C   UNL     1     135.885 127.829 110.465  1.00  0.00    -0.070 C 
ATOM      2  C   UNL     1     135.018 127.977 111.506  1.00  0.00    -0.027 C 
ATOM      3  C   UNL     1     135.589 128.648 109.230  1.00  0.00     0.039 C 
ENDROOT
BRANCH   2   4
ATOM      4  C   UNL     1     135.067 127.316 112.867  1.00  0.00     0.032 C 
BRANCH   4   5
ATOM      5  C   UNL     1     134.537 125.862 112.926  1.00  0.00     0.034 C 
BRANCH   5   6
ATOM      6  C   UNL     1     133.445 125.547 111.926  1.00  0.00    -0.077 C 
ATOM      7  C   UNL     1     132.071 126.125 112.154  1.00  0.00     0.039 C 
ATOM      8  C   UNL     1     133.622 124.733 110.862  1.00  0.00    -0.023 CG0
ATOM      9  G   UNL     1     134.909 124.071 110.426  1.00  0.00     0.000 G0
ENDBRANCH   5   6
ENDBRANCH   4   5
ENDBRANCH   2   4
BRANCH   1  10
ATOM     10  C   UNL     1     137.184 127.018 110.441  1.00  0.00     0.111 C 
BRANCH  10  11
ATOM     11  C   UNL     1     137.062 125.542 110.162  1.00  0.00     0.163 C 
ATOM     12  O   UNL     1     138.043 124.834 110.518  1.00  0.00    -0.294 OA
BRANCH  11  13
ATOM     13  C   UNL     1     135.848 124.902 109.520  1.00  0.00    -0.002 C 
ATOM     14  C   UNL     1     135.637 124.961 108.159  1.00  0.00    -0.069 C 
ATOM     15  C   UNL     1     134.486 124.231 107.496  1.00  0.00     0.039 C 
ATOM     16  C   UNL     1     136.525 125.759 107.225  1.00  0.00     0.039 C 
BRANCH  13  17
ATOM     17  C   UNL     1     134.898 124.074 110.399  1.00  0.00     0.066 CG0
ATOM     18  G   UNL     1     133.629 124.749 110.870  1.00  0.00     0.000 G0
ENDBRANCH  13  17
ENDBRANCH  11  13
ENDBRANCH  10  11
ENDBRANCH   1  10
TORSDOF 0
ENDMDL
MODEL 5
REMARK VINA RESULT:    -3.201     11.263     14.074
REMARK INTER + INTRA:          -4.675
REMARK INTER:                  -4.452
REMARK INTRA:                  -0.222
REMARK UNBOUND:                -0.163
REMARK SMILES CC1=CCC(=C(C)C)C(=O)CC(C)=CCC1
REMARK SMILES IDX 12 1 14 2 13 3 15 4 16 5 2 6 1 7 3 8 11 10 9 11 10 12 5 13
REMARK SMILES IDX 6 14 7 15 8 16 4 17
REMARK H PARENT
REMARK Flexibility Score: 60.00
ROOT
ATOM      1  C   UNL     1     134.046 128.175 110.101  1.00  0.00    -0.070 C 
ATOM      2  C   UNL     1     134.878 128.416 109.050  1.00  0.00    -0.027 C 
ATOM      3  C   UNL     1     132.576 128.052 109.775  1.00  0.00     0.039 C 
ENDROOT
BRANCH   2   4
ATOM      4  C   UNL     1     136.384 128.562 109.060  1.00  0.00     0.032 C 
BRANCH   4   5
ATOM      5  C   UNL     1     137.183 127.303 108.641  1.00  0.00     0.034 C 
BRANCH   5   6
ATOM      6  C   UNL     1     137.748 126.502 109.795  1.00  0.00    -0.077 C 
ATOM      7  C   UNL     1     139.123 126.848 110.307  1.00  0.00     0.039 C 
ATOM      8  C   UNL     1     137.106 125.456 110.360  1.00  0.00    -0.023 CG0
ATOM      9  G   UNL     1     135.719 124.951 110.028  1.00  0.00     0.000 G0
ENDBRANCH   5   6
ENDBRANCH   4   5
ENDBRANCH   2   4
BRANCH   1  10
ATOM     10  C   UNL     1     134.439 127.903 111.557  1.00  0.00     0.111 C 
BRANCH  10  11
ATOM     11  C   UNL     1     134.768 126.478 111.920  1.00  0.00     0.163 C 
ATOM     12  O   UNL     1     135.205 126.298 113.089  1.00  0.00    -0.294 OA
BRANCH  11  13
ATOM     13  C   UNL     1     134.579 125.303 110.982  1.00  0.00    -0.002 C 
ATOM     14  C   UNL     1     133.378 124.632 110.900  1.00  0.00    -0.069 C 
ATOM     15  C   UNL     1     133.148 123.529 109.887  1.00  0.00     0.039 C 
ATOM     16  C   UNL     1     132.205 124.934 111.811  1.00  0.00     0.039 C 
BRANCH  13  17
ATOM     17  C   UNL     1     135.723 124.933 110.026  1.00  0.00     0.066 CG0
ATOM     18  G   UNL     1     137.107 125.431 110.378  1.00  0.00     0.000 G0
ENDBRANCH  13  17
ENDBRANCH  11  13
ENDBRANCH  10  11
ENDBRANCH   1  10
TORSDOF 0
ENDMDL
MODEL 6
REMARK VINA RESULT:    -3.182      2.079      4.015
REMARK INTER + INTRA:          -4.647
REMARK INTER:                  -4.762
REMARK INTRA:                   0.115
REMARK UNBOUND:                -0.163
REMARK SMILES CC1=CCC(=C(C)C)C(=O)CC(C)=CCC1
REMARK SMILES IDX 12 1 14 2 13 3 15 4 16 5 2 6 1 7 3 8 11 10 9 11 10 12 5 13
REMARK SMILES IDX 6 14 7 15 8 16 4 17
REMARK H PARENT
REMARK Flexibility Score: 60.00
ROOT
ATOM      1  C   UNL     1     121.862 132.044 112.064  1.00  0.00    -0.070 C 
ATOM      2  C   UNL     1     122.694 131.871 113.129  1.00  0.00    -0.027 C 
ATOM      3  C   UNL     1     120.419 132.351 112.389  1.00  0.00     0.039 C 
ENDROOT
BRANCH   2   4
ATOM      4  C   UNL     1     124.180 131.582 113.120  1.00  0.00     0.032 C 
BRANCH   4   5
ATOM      5  C   UNL     1     125.100 132.800 112.864  1.00  0.00     0.034 C 
BRANCH   5   6
ATOM      6  C   UNL     1     125.929 132.710 111.600  1.00  0.00    -0.077 C 
ATOM      7  C   UNL     1     127.086 131.744 111.566  1.00  0.00     0.039 C 
ATOM      8  C   UNL     1     125.720 133.487 110.515  1.00  0.00    -0.023 CG0
ATOM      9  G   UNL     1     124.611 134.497 110.318  1.00  0.00     0.000 G0
ENDBRANCH   5   6
ENDBRANCH   4   5
ENDBRANCH   2   4
BRANCH   1  10
ATOM     10  C   UNL     1     122.241 132.075 110.580  1.00  0.00     0.111 C 
BRANCH  10  11
ATOM     11  C   UNL     1     122.234 133.420 109.901  1.00  0.00     0.163 C 
ATOM     12  O   UNL     1     121.117 134.002 109.849  1.00  0.00    -0.294 OA
BRANCH  11  13
ATOM     13  C   UNL     1     123.470 134.081 109.325  1.00  0.00    -0.002 C 
ATOM     14  C   UNL     1     123.554 134.413 107.990  1.00  0.00    -0.069 C 
ATOM     15  C   UNL     1     124.740 135.172 107.429  1.00  0.00     0.039 C 
ATOM     16  C   UNL     1     122.483 134.043 106.983  1.00  0.00     0.039 C 
BRANCH  13  17
ATOM     17  C   UNL     1     124.602 134.488 110.281  1.00  0.00     0.066 CG0
ATOM     18  G   UNL     1     125.721 133.492 110.490  1.00  0.00     0.000 G0
ENDBRANCH  13  17
ENDBRANCH  11  13
ENDBRANCH  10  11
ENDBRANCH   1  10
TORSDOF 0
ENDMDL
MODEL 7
REMARK VINA RESULT:    -3.069     11.617     13.392
REMARK INTER + INTRA:          -4.488
REMARK INTER:                  -4.229
REMARK INTRA:                  -0.259
REMARK UNBOUND:                -0.163
REMARK SMILES CC1=CCC(=C(C)C)C(=O)CC(C)=CCC1
REMARK SMILES IDX 12 1 14 2 13 3 15 4 16 5 2 6 1 7 3 8 11 10 9 11 10 12 5 13
REMARK SMILES IDX 6 14 7 15 8 16 4 17
REMARK H PARENT
REMARK Flexibility Score: 60.00
ROOT
ATOM      1  C   UNL     1     134.750 126.616 112.661  1.00  0.00    -0.070 C 
ATOM      2  C   UNL     1     133.601 125.901 112.503  1.00  0.00    -0.027 C 
ATOM      3  C   UNL     1     135.758 126.053 113.636  1.00  0.00     0.039 C 
ENDROOT
BRANCH   2   4
ATOM      4  C   UNL     1     132.431 126.197 111.590  1.00  0.00     0.032 C 
BRANCH   4   5
ATOM      5  C   UNL     1     132.563 125.674 110.139  1.00  0.00     0.034 C 
BRANCH   5   6
ATOM      6  C   UNL     1     133.402 124.422 109.993  1.00  0.00    -0.077 C 
ATOM      7  C   UNL     1     132.853 123.122 110.524  1.00  0.00     0.039 C 
ATOM      8  C   UNL     1     134.642 124.414 109.457  1.00  0.00    -0.023 CG0
ATOM      9  G   UNL     1     135.376 125.585 108.842  1.00  0.00     0.000 G0
ENDBRANCH   5   6
ENDBRANCH   4   5
ENDBRANCH   2   4
BRANCH   1  10
ATOM     10  C   UNL     1     135.186 127.863 111.885  1.00  0.00     0.111 C 
BRANCH  10  11
ATOM     11  C   UNL     1     135.417 127.700 110.405  1.00  0.00     0.163 C 
ATOM     12  O   UNL     1     134.961 128.621 109.675  1.00  0.00    -0.294 OA
BRANCH  11  13
ATOM     13  C   UNL     1     136.163 126.533 109.791  1.00  0.00    -0.002 C 
ATOM     14  C   UNL     1     137.463 126.241 110.145  1.00  0.00    -0.069 C 
ATOM     15  C   UNL     1     138.177 125.013 109.618  1.00  0.00     0.039 C 
ATOM     16  C   UNL     1     138.277 127.121 111.072  1.00  0.00     0.039 C 
BRANCH  13  17
ATOM     17  C   UNL     1     135.406 125.592 108.840  1.00  0.00     0.066 CG0
ATOM     18  G   UNL     1     134.660 124.434 109.463  1.00  0.00     0.000 G0
ENDBRANCH  13  17
ENDBRANCH  11  13
ENDBRANCH  10  11
ENDBRANCH   1  10
TORSDOF 0
ENDMDL
MODEL 8
REMARK VINA RESULT:    -2.999     11.169     13.187
REMARK INTER + INTRA:          -4.389
REMARK INTER:                  -4.218
REMARK INTRA:                  -0.171
REMARK UNBOUND:                -0.163
REMARK SMILES CC1=CCC(=C(C)C)C(=O)CC(C)=CCC1
REMARK SMILES IDX 12 1 14 2 13 3 15 4 16 5 2 6 1 7 3 8 11 10 9 11 10 12 5 13
REMARK SMILES IDX 6 14 7 15 8 16 4 17
REMARK H PARENT
REMARK Flexibility Score: 60.00
ROOT
ATOM      1  C   UNL     1     134.448 128.139 109.983  1.00  0.00    -0.070 C 
ATOM      2  C   UNL     1     133.402 127.811 109.174  1.00  0.00    -0.027 C 
ATOM      3  C   UNL     1     135.562 128.934 109.343  1.00  0.00     0.039 C 
ENDROOT
BRANCH   2   4
ATOM      4  C   UNL     1     132.143 127.051 109.531  1.00  0.00     0.032 C 
BRANCH   4   5
ATOM      5  C   UNL     1     132.248 125.508 109.461  1.00  0.00     0.034 C 
BRANCH   5   6
ATOM      6  C   UNL     1     132.454 124.828 110.799  1.00  0.00    -0.077 C 
ATOM      7  C   UNL     1     131.254 124.598 111.682  1.00  0.00     0.039 C 
ATOM      8  C   UNL     1     133.666 124.461 111.268  1.00  0.00    -0.023 CG0
ATOM      9  G   UNL     1     134.993 124.569 110.550  1.00  0.00     0.000 G0
ENDBRANCH   5   6
ENDBRANCH   4   5
ENDBRANCH   2   4
BRANCH   1  10
ATOM     10  C   UNL     1     134.574 127.894 111.489  1.00  0.00     0.111 C 
BRANCH  10  11
ATOM     11  C   UNL     1     135.450 126.747 111.924  1.00  0.00     0.163 C 
ATOM     12  O   UNL     1     135.730 126.706 113.152  1.00  0.00    -0.294 OA
BRANCH  11  13
ATOM     13  C   UNL     1     135.967 125.677 110.984  1.00  0.00    -0.002 C 
ATOM     14  C   UNL     1     137.289 125.633 110.598  1.00  0.00    -0.069 C 
ATOM     15  C   UNL     1     137.836 124.504 109.748  1.00  0.00     0.039 C 
ATOM     16  C   UNL     1     138.292 126.704 110.980  1.00  0.00     0.039 C 
BRANCH  13  17
ATOM     17  C   UNL     1     135.011 124.555 110.549  1.00  0.00     0.066 CG0
ATOM     18  G   UNL     1     133.679 124.468 111.260  1.00  0.00     0.000 G0
ENDBRANCH  13  17
ENDBRANCH  11  13
ENDBRANCH  10  11
ENDBRANCH   1  10
TORSDOF 0
ENDMDL
MODEL 9
REMARK VINA RESULT:    -2.942      1.887      3.980
REMARK INTER + INTRA:          -4.309
REMARK INTER:                  -4.273
REMARK INTRA:                  -0.036
REMARK UNBOUND:                -0.163
REMARK SMILES CC1=CCC(=C(C)C)C(=O)CC(C)=CCC1
REMARK SMILES IDX 12 1 14 2 13 3 15 4 16 5 2 6 1 7 3 8 11 10 9 11 10 12 5 13
REMARK SMILES IDX 6 14 7 15 8 16 4 17
REMARK H PARENT
REMARK Flexibility Score: 60.00
ROOT
ATOM      1  C   UNL     1     121.157 132.655 110.562  1.00  0.00    -0.070 C 
ATOM      2  C   UNL     1     121.313 132.587 111.913  1.00  0.00    -0.027 C 
ATOM      3  C   UNL     1     120.242 133.743 110.050  1.00  0.00     0.039 C 
ENDROOT
BRANCH   2   4
ATOM      4  C   UNL     1     122.174 131.631 112.711  1.00  0.00     0.032 C 
BRANCH   4   5
ATOM      5  C   UNL     1     123.343 132.276 113.495  1.00  0.00     0.034 C 
BRANCH   5   6
ATOM      6  C   UNL     1     124.721 131.918 112.981  1.00  0.00    -0.077 C 
ATOM      7  C   UNL     1     125.512 130.863 113.712  1.00  0.00     0.039 C 
ATOM      8  C   UNL     1     125.306 132.531 111.928  1.00  0.00    -0.023 CG0
ATOM      9  G   UNL     1     124.695 133.590 111.037  1.00  0.00     0.000 G0
ENDBRANCH   5   6
ENDBRANCH   4   5
ENDBRANCH   2   4
BRANCH   1  10
ATOM     10  C   UNL     1     121.886 131.831 109.496  1.00  0.00     0.111 C 
BRANCH  10  11
ATOM     11  C   UNL     1     123.393 131.853 109.528  1.00  0.00     0.163 C 
ATOM     12  O   UNL     1     123.959 130.730 109.443  1.00  0.00    -0.294 OA
BRANCH  11  13
ATOM     13  C   UNL     1     124.216 133.121 109.633  1.00  0.00    -0.002 C 
ATOM     14  C   UNL     1     124.448 133.922 108.535  1.00  0.00    -0.069 C 
ATOM     15  C   UNL     1     125.176 135.246 108.653  1.00  0.00     0.039 C 
ATOM     16  C   UNL     1     124.008 133.543 107.135  1.00  0.00     0.039 C 
BRANCH  13  17
ATOM     17  C   UNL     1     124.700 133.573 111.019  1.00  0.00     0.066 CG0
ATOM     18  G   UNL     1     125.318 132.521 111.912  1.00  0.00     0.000 G0
ENDBRANCH  13  17
ENDBRANCH  11  13
ENDBRANCH  10  11
ENDBRANCH   1  10
TORSDOF 0
ENDMDL
