MODEL 1
REMARK VINA RESULT:    -5.233      0.000      0.000
REMARK INTER + INTRA:          -7.412
REMARK INTER:                  -7.069
REMARK INTRA:                  -0.343
REMARK UNBOUND:                -0.343
REMARK SMILES CC[C@H](CC[C@@H](C)[C@H]1CC[C@@H]2[C@@H]3CC(=O)C4=CC(=O)CC[C@@]4(C)[C@@H]3CC[C@]21C)C(C)C
REMARK SMILES IDX 4 1 3 2 2 3 1 4 29 5 30 6 31 7 5 8 6 9 7 10 8 11 9 12 27 13
REMARK SMILES IDX 10 14 11 15 26 16 28 17 12 18 25 19 24 20 13 21 22 22 14 23
REMARK SMILES IDX 16 24 21 25 23 26 15 27 17 28 20 29 18 30 19 31
REMARK H PARENT
REMARK Flexibility Score: inf
ROOT
ATOM      1  C   UNL     1     -22.645  13.146 -29.814  1.00  0.00     0.004 C 
ENDROOT
BRANCH   1   2
ATOM      2  C   UNL     1     -23.947  12.278 -29.784  1.00  0.00    -0.009 C 
BRANCH   2   3
ATOM      3  C   UNL     1     -23.955  11.350 -28.536  1.00  0.00     0.000 C 
ATOM      4  C   UNL     1     -25.343  11.195 -27.907  1.00  0.00     0.004 C 
ENDBRANCH   2   3
BRANCH   2   5
ATOM      5  C   UNL     1     -25.217  13.194 -29.864  1.00  0.00    -0.014 C 
ATOM      6  C   UNL     1     -26.233  12.752 -30.935  1.00  0.00     0.007 C 
ATOM      7  C   UNL     1     -24.820  14.656 -30.152  1.00  0.00     0.007 C 
ENDBRANCH   2   5
ENDBRANCH   1   2
BRANCH   1   8
ATOM      8  C   UNL     1     -21.366  12.285 -29.758  1.00  0.00     0.004 C 
BRANCH   8   9
ATOM      9  C   UNL     1     -20.043  13.084 -29.982  1.00  0.00    -0.011 C 
ATOM     10  C   UNL     1     -20.346  14.599 -29.829  1.00  0.00     0.008 C 
BRANCH   9  11
ATOM     11  C   UNL     1     -18.859  12.619 -29.052  1.00  0.00    -0.002 C 
ATOM     12  C   UNL     1     -18.594  11.081 -29.130  1.00  0.00     0.005 C 
ATOM     13  C   UNL     1     -17.437  13.277 -29.277  1.00  0.00    -0.026 C 
ATOM     14  C   UNL     1     -17.103  10.875 -29.391  1.00  0.00     0.005 C 
ATOM     15  C   UNL     1     -16.700  12.175 -30.048  1.00  0.00    -0.001 C 
ATOM     16  C   UNL     1     -17.336  14.559 -30.143  1.00  0.00     0.007 C 
ATOM     17  C   UNL     1     -16.850  13.564 -27.860  1.00  0.00     0.012 C 
ATOM     18  C   UNL     1     -15.210  12.414 -30.391  1.00  0.00     0.004 C 
ATOM     19  C   UNL     1     -15.870  14.953 -30.436  1.00  0.00     0.005 C 
ATOM     20  C   UNL     1     -15.001  13.814 -31.064  1.00  0.00     0.003 C 
ATOM     21  C   UNL     1     -14.174  12.123 -29.294  1.00  0.00     0.085 C 
ATOM     22  C   UNL     1     -13.463  14.209 -31.282  1.00  0.00    -0.000 C 
ATOM     23  C   UNL     1     -12.821  12.090 -29.930  1.00  0.00     0.159 C 
ATOM     24  C   UNL     1     -12.528  13.009 -31.058  1.00  0.00     0.005 C 
ATOM     25  C   UNL     1     -13.305  14.741 -32.740  1.00  0.00     0.020 C 
ATOM     26  C   UNL     1     -12.985  15.303 -30.289  1.00  0.00     0.017 C 
ATOM     27  O   UNL     1     -11.945  11.297 -29.490  1.00  0.00    -0.295 OA
ATOM     28  C   UNL     1     -11.389  12.861 -31.761  1.00  0.00     0.055 C 
ATOM     29  C   UNL     1     -11.848  14.992 -33.144  1.00  0.00     0.081 C 
ATOM     30  C   UNL     1     -10.997  13.803 -32.821  1.00  0.00     0.156 C 
ATOM     31  O   UNL     1      -9.909  13.630 -33.433  1.00  0.00    -0.295 OA
ENDBRANCH   9  11
ENDBRANCH   8   9
ENDBRANCH   1   8
TORSDOF 6
ENDMDL
MODEL 2
REMARK VINA RESULT:    -4.424      0.596      1.386
REMARK INTER + INTRA:          -6.319
REMARK INTER:                  -6.287
REMARK INTRA:                  -0.032
REMARK UNBOUND:                -0.343
REMARK SMILES CC[C@H](CC[C@@H](C)[C@H]1CC[C@@H]2[C@@H]3CC(=O)C4=CC(=O)CC[C@@]4(C)[C@@H]3CC[C@]21C)C(C)C
REMARK SMILES IDX 4 1 3 2 2 3 1 4 29 5 30 6 31 7 5 8 6 9 7 10 8 11 9 12 27 13
REMARK SMILES IDX 10 14 11 15 26 16 28 17 12 18 25 19 24 20 13 21 22 22 14 23
REMARK SMILES IDX 16 24 21 25 23 26 15 27 17 28 20 29 18 30 19 31
REMARK H PARENT
REMARK Flexibility Score: inf
ROOT
ATOM      1  C   UNL     1     -22.820  13.770 -30.021  1.00  0.00     0.004 C 
ENDROOT
BRANCH   1   2
ATOM      2  C   UNL     1     -24.222  13.247 -29.564  1.00  0.00    -0.009 C 
BRANCH   2   3
ATOM      3  C   UNL     1     -25.325  13.696 -30.563  1.00  0.00     0.000 C 
ATOM      4  C   UNL     1     -26.075  14.953 -30.112  1.00  0.00     0.004 C 
ENDBRANCH   2   3
BRANCH   2   5
ATOM      5  C   UNL     1     -24.186  11.692 -29.361  1.00  0.00    -0.014 C 
ATOM      6  C   UNL     1     -25.217  10.932 -30.217  1.00  0.00     0.007 C 
ATOM      7  C   UNL     1     -24.425  11.327 -27.882  1.00  0.00     0.007 C 
ENDBRANCH   2   5
ENDBRANCH   1   2
BRANCH   1   8
ATOM      8  C   UNL     1     -21.703  12.732 -29.786  1.00  0.00     0.004 C 
BRANCH   8   9
ATOM      9  C   UNL     1     -20.274  13.227 -30.175  1.00  0.00    -0.011 C 
ATOM     10  C   UNL     1     -20.276  14.779 -30.205  1.00  0.00     0.008 C 
BRANCH   9  11
ATOM     11  C   UNL     1     -19.134  12.652 -29.252  1.00  0.00    -0.002 C 
ATOM     12  C   UNL     1     -18.919  11.115 -29.436  1.00  0.00     0.005 C 
ATOM     13  C   UNL     1     -17.684  13.273 -29.390  1.00  0.00    -0.026 C 
ATOM     14  C   UNL     1     -17.429  10.875 -29.673  1.00  0.00     0.005 C 
ATOM     15  C   UNL     1     -16.963  12.205 -30.220  1.00  0.00    -0.001 C 
ATOM     16  C   UNL     1     -17.515  14.610 -30.155  1.00  0.00     0.007 C 
ATOM     17  C   UNL     1     -17.129  13.433 -27.940  1.00  0.00     0.012 C 
ATOM     18  C   UNL     1     -15.457  12.415 -30.505  1.00  0.00     0.004 C 
ATOM     19  C   UNL     1     -16.028  14.972 -30.378  1.00  0.00     0.005 C 
ATOM     20  C   UNL     1     -15.181  13.851 -31.066  1.00  0.00     0.003 C 
ATOM     21  C   UNL     1     -14.463  12.007 -29.406  1.00  0.00     0.085 C 
ATOM     22  C   UNL     1     -13.625  14.206 -31.214  1.00  0.00    -0.000 C 
ATOM     23  C   UNL     1     -13.094  11.972 -30.007  1.00  0.00     0.159 C 
ATOM     24  C   UNL     1     -12.738  12.960 -31.055  1.00  0.00     0.005 C 
ATOM     25  C   UNL     1     -13.406  14.837 -32.624  1.00  0.00     0.020 C 
ATOM     26  C   UNL     1     -13.138  15.206 -30.130  1.00  0.00     0.017 C 
ATOM     27  O   UNL     1     -12.258  11.117 -29.604  1.00  0.00    -0.295 OA
ATOM     28  C   UNL     1     -11.584  12.823 -31.737  1.00  0.00     0.055 C 
ATOM     29  C   UNL     1     -11.930  15.065 -32.969  1.00  0.00     0.081 C 
ATOM     30  C   UNL     1     -11.130  13.826 -32.714  1.00  0.00     0.156 C 
ATOM     31  O   UNL     1     -10.031  13.659 -33.307  1.00  0.00    -0.295 OA
ENDBRANCH   9  11
ENDBRANCH   8   9
ENDBRANCH   1   8
TORSDOF 6
ENDMDL
MODEL 3
REMARK VINA RESULT:    -2.658      4.250      7.395
REMARK INTER + INTRA:          -3.934
REMARK INTER:                  -2.735
REMARK INTRA:                  -1.199
REMARK UNBOUND:                -0.343
REMARK SMILES CC[C@H](CC[C@@H](C)[C@H]1CC[C@@H]2[C@@H]3CC(=O)C4=CC(=O)CC[C@@]4(C)[C@@H]3CC[C@]21C)C(C)C
REMARK SMILES IDX 4 1 3 2 2 3 1 4 29 5 30 6 31 7 5 8 6 9 7 10 8 11 9 12 27 13
REMARK SMILES IDX 10 14 11 15 26 16 28 17 12 18 25 19 24 20 13 21 22 22 14 23
REMARK SMILES IDX 16 24 21 25 23 26 15 27 17 28 20 29 18 30 19 31
REMARK H PARENT
REMARK Flexibility Score: inf
ROOT
ATOM      1  C   UNL     1     -13.821  11.242 -25.901  1.00  0.00     0.004 C 
ENDROOT
BRANCH   1   2
ATOM      2  C   UNL     1     -12.341  11.750 -25.946  1.00  0.00    -0.009 C 
BRANCH   2   3
ATOM      3  C   UNL     1     -12.285  13.229 -26.422  1.00  0.00     0.000 C 
ATOM      4  C   UNL     1     -11.924  13.375 -27.903  1.00  0.00     0.004 C 
ENDBRANCH   2   3
BRANCH   2   5
ATOM      5  C   UNL     1     -11.647  11.535 -24.556  1.00  0.00    -0.014 C 
ATOM      6  C   UNL     1     -11.462  12.834 -23.748  1.00  0.00     0.007 C 
ATOM      7  C   UNL     1     -10.264  10.875 -24.730  1.00  0.00     0.007 C 
ENDBRANCH   2   5
ENDBRANCH   1   2
BRANCH   1   8
ATOM      8  C   UNL     1     -14.753  12.078 -26.802  1.00  0.00     0.004 C 
BRANCH   8   9
ATOM      9  C   UNL     1     -15.935  11.272 -27.428  1.00  0.00    -0.011 C 
ATOM     10  C   UNL     1     -16.980  10.979 -26.318  1.00  0.00     0.008 C 
BRANCH   9  11
ATOM     11  C   UNL     1     -16.581  11.970 -28.684  1.00  0.00    -0.002 C 
ATOM     12  C   UNL     1     -17.238  13.346 -28.343  1.00  0.00     0.005 C 
ATOM     13  C   UNL     1     -15.648  12.275 -29.925  1.00  0.00    -0.026 C 
ATOM     14  C   UNL     1     -16.703  14.379 -29.333  1.00  0.00     0.005 C 
ATOM     15  C   UNL     1     -15.385  13.775 -29.759  1.00  0.00    -0.001 C 
ATOM     16  C   UNL     1     -14.258  11.592 -30.000  1.00  0.00     0.007 C 
ATOM     17  C   UNL     1     -16.470  11.910 -31.201  1.00  0.00     0.012 C 
ATOM     18  C   UNL     1     -14.553  14.483 -30.856  1.00  0.00     0.004 C 
ATOM     19  C   UNL     1     -13.394  12.149 -31.155  1.00  0.00     0.005 C 
ATOM     20  C   UNL     1     -13.227  13.704 -31.153  1.00  0.00     0.003 C 
ATOM     21  C   UNL     1     -15.287  14.913 -32.136  1.00  0.00     0.085 C 
ATOM     22  C   UNL     1     -12.401  14.274 -32.403  1.00  0.00    -0.000 C 
ATOM     23  C   UNL     1     -14.401  15.856 -32.886  1.00  0.00     0.159 C 
ATOM     24  C   UNL     1     -12.932  15.643 -32.860  1.00  0.00     0.005 C 
ATOM     25  C   UNL     1     -10.906  14.401 -31.975  1.00  0.00     0.020 C 
ATOM     26  C   UNL     1     -12.496  13.351 -33.648  1.00  0.00     0.017 C 
ATOM     27  O   UNL     1     -14.912  16.804 -33.541  1.00  0.00    -0.295 OA
ATOM     28  C   UNL     1     -12.113  16.584 -33.368  1.00  0.00     0.055 C 
ATOM     29  C   UNL     1     -10.029  15.100 -33.019  1.00  0.00     0.081 C 
ATOM     30  C   UNL     1     -10.658  16.384 -33.463  1.00  0.00     0.156 C 
ATOM     31  O   UNL     1      -9.940  17.289 -33.968  1.00  0.00    -0.295 OA
ENDBRANCH   9  11
ENDBRANCH   8   9
ENDBRANCH   1   8
TORSDOF 6
ENDMDL
