MODEL 1
REMARK VINA RESULT:    -5.690      0.000      0.000
REMARK INTER + INTRA:         -15.163
REMARK INTER:                 -12.342
REMARK INTRA:                  -2.821
REMARK UNBOUND:                -2.821
REMARK SMILES CCCCCCCCCCCCCCCCCCCCCC(=O)[O-]
REMARK SMILES IDX 12 1 11 2 10 3 9 4 8 5 7 6 6 7 5 8 4 9 3 10 2 11 1 12 13 13
REMARK SMILES IDX 14 14 15 15 16 16 17 17 18 18 19 19 20 20 21 21 22 22 23 23
REMARK SMILES IDX 24 24
REMARK H PARENT
REMARK Flexibility Score: inf
ROOT
ATOM      1  C   UNL     1     138.665 138.889 114.257  1.00  0.00     0.000 C 
ENDROOT
BRANCH   1   2
ATOM      2  C   UNL     1     138.068 138.144 113.058  1.00  0.00     0.000 C 
BRANCH   2   3
ATOM      3  C   UNL     1     137.275 136.914 113.512  1.00  0.00     0.000 C 
BRANCH   3   4
ATOM      4  C   UNL     1     136.245 137.292 114.586  1.00  0.00    -0.000 C 
BRANCH   4   5
ATOM      5  C   UNL     1     134.901 136.568 114.403  1.00  0.00    -0.000 C 
BRANCH   5   6
ATOM      6  C   UNL     1     134.703 135.912 113.022  1.00  0.00    -0.000 C 
BRANCH   6   7
ATOM      7  C   UNL     1     134.533 134.379 113.081  1.00  0.00    -0.000 C 
BRANCH   7   8
ATOM      8  C   UNL     1     134.699 133.830 114.509  1.00  0.00    -0.000 C 
BRANCH   8   9
ATOM      9  C   UNL     1     135.997 133.026 114.682  1.00  0.00    -0.000 C 
BRANCH   9  10
ATOM     10  C   UNL     1     136.840 133.522 115.871  1.00  0.00    -0.000 C 
BRANCH  10  11
ATOM     11  C   UNL     1     135.987 134.216 116.945  1.00  0.00    -0.003 C 
ATOM     12  C   UNL     1     136.750 135.315 117.685  1.00  0.00     0.004 C 
ENDBRANCH  10  11
ENDBRANCH   9  10
ENDBRANCH   8   9
ENDBRANCH   7   8
ENDBRANCH   6   7
ENDBRANCH   5   6
ENDBRANCH   4   5
ENDBRANCH   3   4
ENDBRANCH   2   3
ENDBRANCH   1   2
BRANCH   1  13
ATOM     13  C   UNL     1     139.333 140.197 113.817  1.00  0.00     0.000 C 
BRANCH  13  14
ATOM     14  C   UNL     1     140.215 139.976 112.582  1.00  0.00     0.000 C 
BRANCH  14  15
ATOM     15  C   UNL     1     140.749 141.306 112.041  1.00  0.00     0.000 C 
BRANCH  15  16
ATOM     16  C   UNL     1     140.976 142.309 113.183  1.00  0.00     0.000 C 
BRANCH  16  17
ATOM     17  C   UNL     1     142.464 142.521 113.506  1.00  0.00     0.000 C 
BRANCH  17  18
ATOM     18  C   UNL     1     142.877 142.149 114.944  1.00  0.00     0.000 C 
BRANCH  18  19
ATOM     19  C   UNL     1     142.852 140.632 115.229  1.00  0.00     0.000 C 
BRANCH  19  20
ATOM     20  C   UNL     1     141.880 140.269 116.367  1.00  0.00     0.006 C 
BRANCH  20  21
ATOM     21  C   UNL     1     141.543 141.477 117.249  1.00  0.00     0.053 C 
BRANCH  21  22
ATOM     22  C   UNL     1     140.075 141.782 117.240  1.00  0.00     0.041 C 
ATOM     23  O   UNL     1     139.305 141.213 118.060  1.00  0.00    -0.550 OA
ATOM     24  O   UNL     1     139.557 142.693 116.326  1.00  0.00    -0.550 OA
ENDBRANCH  21  22
ENDBRANCH  20  21
ENDBRANCH  19  20
ENDBRANCH  18  19
ENDBRANCH  17  18
ENDBRANCH  16  17
ENDBRANCH  15  16
ENDBRANCH  14  15
ENDBRANCH  13  14
ENDBRANCH   1  13
TORSDOF 20
ENDMDL
MODEL 2
REMARK VINA RESULT:    -5.678      2.354      8.379
REMARK INTER + INTRA:         -15.138
REMARK INTER:                 -12.265
REMARK INTRA:                  -2.873
REMARK UNBOUND:                -2.821
REMARK SMILES CCCCCCCCCCCCCCCCCCCCCC(=O)[O-]
REMARK SMILES IDX 12 1 11 2 10 3 9 4 8 5 7 6 6 7 5 8 4 9 3 10 2 11 1 12 13 13
REMARK SMILES IDX 14 14 15 15 16 16 17 17 18 18 19 19 20 20 21 21 22 22 23 23
REMARK SMILES IDX 24 24
REMARK H PARENT
REMARK Flexibility Score: inf
ROOT
ATOM      1  C   UNL     1     138.044 137.467 114.041  1.00  0.00     0.000 C 
ENDROOT
BRANCH   1   2
ATOM      2  C   UNL     1     138.317 138.371 112.835  1.00  0.00     0.000 C 
BRANCH   2   3
ATOM      3  C   UNL     1     139.186 139.570 113.229  1.00  0.00     0.000 C 
BRANCH   3   4
ATOM      4  C   UNL     1     140.424 139.114 114.014  1.00  0.00    -0.000 C 
BRANCH   4   5
ATOM      5  C   UNL     1     140.587 139.856 115.352  1.00  0.00    -0.000 C 
BRANCH   5   6
ATOM      6  C   UNL     1     139.508 140.919 115.637  1.00  0.00    -0.000 C 
BRANCH   6   7
ATOM      7  C   UNL     1     140.081 142.302 116.017  1.00  0.00    -0.000 C 
BRANCH   7   8
ATOM      8  C   UNL     1     140.221 143.228 114.796  1.00  0.00    -0.000 C 
BRANCH   8   9
ATOM      9  C   UNL     1     141.657 143.261 114.246  1.00  0.00    -0.000 C 
BRANCH   9  10
ATOM     10  C   UNL     1     141.814 142.418 112.967  1.00  0.00    -0.000 C 
BRANCH  10  11
ATOM     11  C   UNL     1     143.214 141.799 112.842  1.00  0.00    -0.003 C 
ATOM     12  C   UNL     1     143.740 141.255 114.170  1.00  0.00     0.004 C 
ENDBRANCH  10  11
ENDBRANCH   9  10
ENDBRANCH   8   9
ENDBRANCH   7   8
ENDBRANCH   6   7
ENDBRANCH   5   6
ENDBRANCH   4   5
ENDBRANCH   3   4
ENDBRANCH   2   3
ENDBRANCH   1   2
BRANCH   1  13
ATOM     13  C   UNL     1     136.541 137.375 114.333  1.00  0.00     0.000 C 
BRANCH  13  14
ATOM     14  C   UNL     1     135.798 136.698 113.176  1.00  0.00     0.000 C 
BRANCH  14  15
ATOM     15  C   UNL     1     134.291 136.640 113.447  1.00  0.00     0.000 C 
BRANCH  15  16
ATOM     16  C   UNL     1     133.840 135.197 113.719  1.00  0.00     0.000 C 
BRANCH  16  17
ATOM     17  C   UNL     1     134.889 134.153 113.302  1.00  0.00     0.000 C 
BRANCH  17  18
ATOM     18  C   UNL     1     135.341 133.200 114.427  1.00  0.00     0.000 C 
BRANCH  18  19
ATOM     19  C   UNL     1     136.570 133.699 115.214  1.00  0.00     0.000 C 
BRANCH  19  20
ATOM     20  C   UNL     1     136.257 133.918 116.706  1.00  0.00     0.006 C 
BRANCH  20  21
ATOM     21  C   UNL     1     136.684 135.309 117.190  1.00  0.00     0.053 C 
BRANCH  21  22
ATOM     22  C   UNL     1     135.563 136.028 117.878  1.00  0.00     0.041 C 
ATOM     23  O   UNL     1     135.571 136.163 119.130  1.00  0.00    -0.550 OA
ATOM     24  O   UNL     1     134.509 136.549 117.135  1.00  0.00    -0.550 OA
ENDBRANCH  21  22
ENDBRANCH  20  21
ENDBRANCH  19  20
ENDBRANCH  18  19
ENDBRANCH  17  18
ENDBRANCH  16  17
ENDBRANCH  15  16
ENDBRANCH  14  15
ENDBRANCH  13  14
ENDBRANCH   1  13
TORSDOF 20
ENDMDL
MODEL 3
REMARK VINA RESULT:    -5.653      1.464      2.745
REMARK INTER + INTRA:         -15.084
REMARK INTER:                 -12.144
REMARK INTRA:                  -2.940
REMARK UNBOUND:                -2.821
REMARK SMILES CCCCCCCCCCCCCCCCCCCCCC(=O)[O-]
REMARK SMILES IDX 12 1 11 2 10 3 9 4 8 5 7 6 6 7 5 8 4 9 3 10 2 11 1 12 13 13
REMARK SMILES IDX 14 14 15 15 16 16 17 17 18 18 19 19 20 20 21 21 22 22 23 23
REMARK SMILES IDX 24 24
REMARK H PARENT
REMARK Flexibility Score: inf
ROOT
ATOM      1  C   UNL     1     140.025 139.124 114.168  1.00  0.00     0.000 C 
ENDROOT
BRANCH   1   2
ATOM      2  C   UNL     1     138.503 138.972 114.264  1.00  0.00     0.000 C 
BRANCH   2   3
ATOM      3  C   UNL     1     137.954 138.170 113.078  1.00  0.00     0.000 C 
BRANCH   3   4
ATOM      4  C   UNL     1     137.316 136.858 113.553  1.00  0.00    -0.000 C 
BRANCH   4   5
ATOM      5  C   UNL     1     137.536 136.597 115.053  1.00  0.00    -0.000 C 
BRANCH   5   6
ATOM      6  C   UNL     1     136.384 135.851 115.754  1.00  0.00    -0.000 C 
BRANCH   6   7
ATOM      7  C   UNL     1     135.041 136.612 115.725  1.00  0.00    -0.000 C 
BRANCH   7   8
ATOM      8  C   UNL     1     133.852 135.680 115.433  1.00  0.00    -0.000 C 
BRANCH   8   9
ATOM      9  C   UNL     1     134.280 134.211 115.280  1.00  0.00    -0.000 C 
BRANCH   9  10
ATOM     10  C   UNL     1     133.962 133.650 113.882  1.00  0.00    -0.000 C 
BRANCH  10  11
ATOM     11  C   UNL     1     134.980 134.103 112.823  1.00  0.00    -0.003 C 
ATOM     12  C   UNL     1     134.357 135.000 111.753  1.00  0.00     0.004 C 
ENDBRANCH  10  11
ENDBRANCH   9  10
ENDBRANCH   8   9
ENDBRANCH   7   8
ENDBRANCH   6   7
ENDBRANCH   5   6
ENDBRANCH   4   5
ENDBRANCH   3   4
ENDBRANCH   2   3
ENDBRANCH   1   2
BRANCH   1  13
ATOM     13  C   UNL     1     140.470 139.327 112.715  1.00  0.00     0.000 C 
BRANCH  13  14
ATOM     14  C   UNL     1     141.936 139.772 112.647  1.00  0.00     0.000 C 
BRANCH  14  15
ATOM     15  C   UNL     1     142.535 139.912 114.051  1.00  0.00     0.000 C 
BRANCH  15  16
ATOM     16  C   UNL     1     143.542 141.072 114.101  1.00  0.00     0.000 C 
BRANCH  16  17
ATOM     17  C   UNL     1     143.009 142.356 113.444  1.00  0.00     0.000 C 
BRANCH  17  18
ATOM     18  C   UNL     1     142.128 143.235 114.355  1.00  0.00     0.000 C 
BRANCH  18  19
ATOM     19  C   UNL     1     140.613 143.042 114.136  1.00  0.00     0.000 C 
BRANCH  19  20
ATOM     20  C   UNL     1     139.890 142.605 115.422  1.00  0.00     0.006 C 
BRANCH  20  21
ATOM     21  C   UNL     1     140.870 142.183 116.524  1.00  0.00     0.053 C 
BRANCH  21  22
ATOM     22  C   UNL     1     140.184 141.424 117.620  1.00  0.00     0.041 C 
ATOM     23  O   UNL     1     139.176 140.712 117.362  1.00  0.00    -0.550 OA
ATOM     24  O   UNL     1     140.657 141.502 118.925  1.00  0.00    -0.550 OA
ENDBRANCH  21  22
ENDBRANCH  20  21
ENDBRANCH  19  20
ENDBRANCH  18  19
ENDBRANCH  17  18
ENDBRANCH  16  17
ENDBRANCH  15  16
ENDBRANCH  14  15
ENDBRANCH  13  14
ENDBRANCH   1  13
TORSDOF 20
ENDMDL
MODEL 4
REMARK VINA RESULT:    -5.649      2.296      8.439
REMARK INTER + INTRA:         -15.075
REMARK INTER:                 -12.283
REMARK INTRA:                  -2.792
REMARK UNBOUND:                -2.821
REMARK SMILES CCCCCCCCCCCCCCCCCCCCCC(=O)[O-]
REMARK SMILES IDX 12 1 11 2 10 3 9 4 8 5 7 6 6 7 5 8 4 9 3 10 2 11 1 12 13 13
REMARK SMILES IDX 14 14 15 15 16 16 17 17 18 18 19 19 20 20 21 21 22 22 23 23
REMARK SMILES IDX 24 24
REMARK H PARENT
REMARK Flexibility Score: inf
ROOT
ATOM      1  C   UNL     1     137.638 138.398 114.337  1.00  0.00     0.000 C 
ENDROOT
BRANCH   1   2
ATOM      2  C   UNL     1     138.743 139.459 114.390  1.00  0.00     0.000 C 
BRANCH   2   3
ATOM      3  C   UNL     1     139.451 139.585 113.036  1.00  0.00     0.000 C 
BRANCH   3   4
ATOM      4  C   UNL     1     140.974 139.646 113.218  1.00  0.00    -0.000 C 
BRANCH   4   5
ATOM      5  C   UNL     1     141.401 139.578 114.694  1.00  0.00    -0.000 C 
BRANCH   5   6
ATOM      6  C   UNL     1     142.712 140.319 115.023  1.00  0.00    -0.000 C 
BRANCH   6   7
ATOM      7  C   UNL     1     142.879 141.654 114.264  1.00  0.00    -0.000 C 
BRANCH   7   8
ATOM      8  C   UNL     1     142.249 142.835 115.023  1.00  0.00    -0.000 C 
BRANCH   8   9
ATOM      9  C   UNL     1     140.859 143.208 114.481  1.00  0.00    -0.000 C 
BRANCH   9  10
ATOM     10  C   UNL     1     139.730 142.831 115.457  1.00  0.00    -0.000 C 
BRANCH  10  11
ATOM     11  C   UNL     1     140.257 142.480 116.857  1.00  0.00    -0.003 C 
ATOM     12  C   UNL     1     139.514 141.303 117.489  1.00  0.00     0.004 C 
ENDBRANCH  10  11
ENDBRANCH   9  10
ENDBRANCH   8   9
ENDBRANCH   7   8
ENDBRANCH   6   7
ENDBRANCH   5   6
ENDBRANCH   4   5
ENDBRANCH   3   4
ENDBRANCH   2   3
ENDBRANCH   1   2
BRANCH   1  13
ATOM     13  C   UNL     1     137.798 137.496 113.108  1.00  0.00     0.000 C 
BRANCH  13  14
ATOM     14  C   UNL     1     136.542 136.644 112.886  1.00  0.00     0.000 C 
BRANCH  14  15
ATOM     15  C   UNL     1     135.321 137.276 113.564  1.00  0.00     0.000 C 
BRANCH  15  16
ATOM     16  C   UNL     1     134.043 136.994 112.758  1.00  0.00     0.000 C 
BRANCH  16  17
ATOM     17  C   UNL     1     133.016 136.156 113.538  1.00  0.00     0.000 C 
BRANCH  17  18
ATOM     18  C   UNL     1     133.336 134.650 113.623  1.00  0.00     0.000 C 
BRANCH  18  19
ATOM     19  C   UNL     1     133.479 134.122 115.066  1.00  0.00     0.000 C 
BRANCH  19  20
ATOM     20  C   UNL     1     134.938 134.150 115.555  1.00  0.00     0.006 C 
BRANCH  20  21
ATOM     21  C   UNL     1     135.048 134.555 117.030  1.00  0.00     0.053 C 
BRANCH  21  22
ATOM     22  C   UNL     1     136.362 135.212 117.331  1.00  0.00     0.041 C 
ATOM     23  O   UNL     1     137.002 135.798 116.417  1.00  0.00    -0.550 OA
ATOM     24  O   UNL     1     136.881 135.175 118.621  1.00  0.00    -0.550 OA
ENDBRANCH  21  22
ENDBRANCH  20  21
ENDBRANCH  19  20
ENDBRANCH  18  19
ENDBRANCH  17  18
ENDBRANCH  16  17
ENDBRANCH  15  16
ENDBRANCH  14  15
ENDBRANCH  13  14
ENDBRANCH   1  13
TORSDOF 20
ENDMDL
MODEL 5
REMARK VINA RESULT:    -5.619      3.177      8.446
REMARK INTER + INTRA:         -15.010
REMARK INTER:                 -12.162
REMARK INTRA:                  -2.848
REMARK UNBOUND:                -2.821
REMARK SMILES CCCCCCCCCCCCCCCCCCCCCC(=O)[O-]
REMARK SMILES IDX 12 1 11 2 10 3 9 4 8 5 7 6 6 7 5 8 4 9 3 10 2 11 1 12 13 13
REMARK SMILES IDX 14 14 15 15 16 16 17 17 18 18 19 19 20 20 21 21 22 22 23 23
REMARK SMILES IDX 24 24
REMARK H PARENT
REMARK Flexibility Score: inf
ROOT
ATOM      1  C   UNL     1     138.378 139.141 114.294  1.00  0.00     0.000 C 
ENDROOT
BRANCH   1   2
ATOM      2  C   UNL     1     139.679 139.236 113.490  1.00  0.00     0.000 C 
BRANCH   2   3
ATOM      3  C   UNL     1     140.900 139.238 114.416  1.00  0.00     0.000 C 
BRANCH   3   4
ATOM      4  C   UNL     1     142.139 139.779 113.688  1.00  0.00    -0.000 C 
BRANCH   4   5
ATOM      5  C   UNL     1     142.840 140.906 114.465  1.00  0.00    -0.000 C 
BRANCH   5   6
ATOM      6  C   UNL     1     142.845 142.275 113.756  1.00  0.00    -0.000 C 
BRANCH   6   7
ATOM      7  C   UNL     1     141.952 143.332 114.440  1.00  0.00    -0.000 C 
BRANCH   7   8
ATOM      8  C   UNL     1     140.455 142.999 114.311  1.00  0.00    -0.000 C 
BRANCH   8   9
ATOM      9  C   UNL     1     139.705 143.140 115.646  1.00  0.00    -0.000 C 
BRANCH   9  10
ATOM     10  C   UNL     1     139.734 141.844 116.475  1.00  0.00    -0.000 C 
BRANCH  10  11
ATOM     11  C   UNL     1     140.678 141.942 117.685  1.00  0.00    -0.003 C 
ATOM     12  C   UNL     1     141.139 140.573 118.186  1.00  0.00     0.004 C 
ENDBRANCH  10  11
ENDBRANCH   9  10
ENDBRANCH   8   9
ENDBRANCH   7   8
ENDBRANCH   6   7
ENDBRANCH   5   6
ENDBRANCH   4   5
ENDBRANCH   3   4
ENDBRANCH   2   3
ENDBRANCH   1   2
BRANCH   1  13
ATOM     13  C   UNL     1     137.794 137.725 114.234  1.00  0.00     0.000 C 
BRANCH  13  14
ATOM     14  C   UNL     1     137.624 137.263 112.782  1.00  0.00     0.000 C 
BRANCH  14  15
ATOM     15  C   UNL     1     136.205 136.738 112.534  1.00  0.00     0.000 C 
BRANCH  15  16
ATOM     16  C   UNL     1     135.242 137.231 113.625  1.00  0.00     0.000 C 
BRANCH  16  17
ATOM     17  C   UNL     1     133.993 136.345 113.765  1.00  0.00     0.000 C 
BRANCH  17  18
ATOM     18  C   UNL     1     133.594 136.009 115.216  1.00  0.00     0.000 C 
BRANCH  18  19
ATOM     19  C   UNL     1     134.704 136.288 116.251  1.00  0.00     0.000 C 
BRANCH  19  20
ATOM     20  C   UNL     1     135.354 134.994 116.773  1.00  0.00     0.006 C 
BRANCH  20  21
ATOM     21  C   UNL     1     136.602 134.607 115.969  1.00  0.00     0.053 C 
BRANCH  21  22
ATOM     22  C   UNL     1     136.437 133.281 115.289  1.00  0.00     0.041 C 
ATOM     23  O   UNL     1     137.193 132.318 115.587  1.00  0.00    -0.550 OA
ATOM     24  O   UNL     1     135.450 133.109 114.325  1.00  0.00    -0.550 OA
ENDBRANCH  21  22
ENDBRANCH  20  21
ENDBRANCH  19  20
ENDBRANCH  18  19
ENDBRANCH  17  18
ENDBRANCH  16  17
ENDBRANCH  15  16
ENDBRANCH  14  15
ENDBRANCH  13  14
ENDBRANCH   1  13
TORSDOF 20
ENDMDL
MODEL 6
REMARK VINA RESULT:    -5.604      2.936      8.872
REMARK INTER + INTRA:         -14.976
REMARK INTER:                 -12.110
REMARK INTRA:                  -2.866
REMARK UNBOUND:                -2.821
REMARK SMILES CCCCCCCCCCCCCCCCCCCCCC(=O)[O-]
REMARK SMILES IDX 12 1 11 2 10 3 9 4 8 5 7 6 6 7 5 8 4 9 3 10 2 11 1 12 13 13
REMARK SMILES IDX 14 14 15 15 16 16 17 17 18 18 19 19 20 20 21 21 22 22 23 23
REMARK SMILES IDX 24 24
REMARK H PARENT
REMARK Flexibility Score: inf
ROOT
ATOM      1  C   UNL     1     138.608 138.908 114.803  1.00  0.00     0.000 C 
ENDROOT
BRANCH   1   2
ATOM      2  C   UNL     1     139.868 138.933 113.932  1.00  0.00     0.000 C 
BRANCH   2   3
ATOM      3  C   UNL     1     139.685 139.856 112.723  1.00  0.00     0.000 C 
BRANCH   3   4
ATOM      4  C   UNL     1     141.032 140.155 112.052  1.00  0.00    -0.000 C 
BRANCH   4   5
ATOM      5  C   UNL     1     142.170 139.263 112.577  1.00  0.00    -0.000 C 
BRANCH   5   6
ATOM      6  C   UNL     1     143.573 139.899 112.512  1.00  0.00    -0.000 C 
BRANCH   6   7
ATOM      7  C   UNL     1     143.805 141.003 113.566  1.00  0.00    -0.000 C 
BRANCH   7   8
ATOM      8  C   UNL     1     143.289 140.595 114.957  1.00  0.00    -0.000 C 
BRANCH   8   9
ATOM      9  C   UNL     1     142.317 141.629 115.549  1.00  0.00    -0.000 C 
BRANCH   9  10
ATOM     10  C   UNL     1     142.110 142.839 114.620  1.00  0.00    -0.000 C 
BRANCH  10  11
ATOM     11  C   UNL     1     140.625 143.119 114.342  1.00  0.00    -0.003 C 
ATOM     12  C   UNL     1     139.711 142.616 115.460  1.00  0.00     0.004 C 
ENDBRANCH  10  11
ENDBRANCH   9  10
ENDBRANCH   8   9
ENDBRANCH   7   8
ENDBRANCH   6   7
ENDBRANCH   5   6
ENDBRANCH   4   5
ENDBRANCH   3   4
ENDBRANCH   2   3
ENDBRANCH   1   2
BRANCH   1  13
ATOM     13  C   UNL     1     137.410 138.350 114.025  1.00  0.00     0.000 C 
BRANCH  13  14
ATOM     14  C   UNL     1     137.612 136.866 113.699  1.00  0.00     0.000 C 
BRANCH  14  15
ATOM     15  C   UNL     1     136.382 136.285 112.993  1.00  0.00     0.000 C 
BRANCH  15  16
ATOM     16  C   UNL     1     135.133 137.129 113.290  1.00  0.00     0.000 C 
BRANCH  16  17
ATOM     17  C   UNL     1     133.855 136.550 112.658  1.00  0.00     0.000 C 
BRANCH  17  18
ATOM     18  C   UNL     1     133.596 135.061 112.963  1.00  0.00     0.000 C 
BRANCH  18  19
ATOM     19  C   UNL     1     133.052 134.800 114.384  1.00  0.00     0.000 C 
BRANCH  19  20
ATOM     20  C   UNL     1     134.054 134.022 115.257  1.00  0.00     0.006 C 
BRANCH  20  21
ATOM     21  C   UNL     1     135.033 133.192 114.417  1.00  0.00     0.053 C 
BRANCH  21  22
ATOM     22  C   UNL     1     136.358 133.035 115.100  1.00  0.00     0.041 C 
ATOM     23  O   UNL     1     136.893 134.019 115.679  1.00  0.00    -0.550 OA
ATOM     24  O   UNL     1     137.003 131.803 115.096  1.00  0.00    -0.550 OA
ENDBRANCH  21  22
ENDBRANCH  20  21
ENDBRANCH  19  20
ENDBRANCH  18  19
ENDBRANCH  17  18
ENDBRANCH  16  17
ENDBRANCH  15  16
ENDBRANCH  14  15
ENDBRANCH  13  14
ENDBRANCH   1  13
TORSDOF 20
ENDMDL
MODEL 7
REMARK VINA RESULT:    -5.570      1.733      2.447
REMARK INTER + INTRA:         -14.904
REMARK INTER:                 -12.269
REMARK INTRA:                  -2.635
REMARK UNBOUND:                -2.821
REMARK SMILES CCCCCCCCCCCCCCCCCCCCCC(=O)[O-]
REMARK SMILES IDX 12 1 11 2 10 3 9 4 8 5 7 6 6 7 5 8 4 9 3 10 2 11 1 12 13 13
REMARK SMILES IDX 14 14 15 15 16 16 17 17 18 18 19 19 20 20 21 21 22 22 23 23
REMARK SMILES IDX 24 24
REMARK H PARENT
REMARK Flexibility Score: inf
ROOT
ATOM      1  C   UNL     1     138.215 137.718 113.922  1.00  0.00     0.000 C 
ENDROOT
BRANCH   1   2
ATOM      2  C   UNL     1     137.617 137.630 112.513  1.00  0.00     0.000 C 
BRANCH   2   3
ATOM      3  C   UNL     1     136.294 136.855 112.523  1.00  0.00     0.000 C 
BRANCH   3   4
ATOM      4  C   UNL     1     136.314 135.724 111.487  1.00  0.00    -0.000 C 
BRANCH   4   5
ATOM      5  C   UNL     1     135.316 134.600 111.814  1.00  0.00    -0.000 C 
BRANCH   5   6
ATOM      6  C   UNL     1     133.858 135.064 112.002  1.00  0.00    -0.000 C 
BRANCH   6   7
ATOM      7  C   UNL     1     133.205 134.553 113.304  1.00  0.00    -0.000 C 
BRANCH   7   8
ATOM      8  C   UNL     1     133.192 135.626 114.407  1.00  0.00    -0.000 C 
BRANCH   8   9
ATOM      9  C   UNL     1     134.000 135.205 115.646  1.00  0.00    -0.000 C 
BRANCH   9  10
ATOM     10  C   UNL     1     135.049 136.257 116.047  1.00  0.00    -0.000 C 
BRANCH  10  11
ATOM     11  C   UNL     1     136.472 135.679 116.092  1.00  0.00    -0.003 C 
ATOM     12  C   UNL     1     136.594 134.352 115.342  1.00  0.00     0.004 C 
ENDBRANCH  10  11
ENDBRANCH   9  10
ENDBRANCH   8   9
ENDBRANCH   7   8
ENDBRANCH   6   7
ENDBRANCH   5   6
ENDBRANCH   4   5
ENDBRANCH   3   4
ENDBRANCH   2   3
ENDBRANCH   1   2
BRANCH   1  13
ATOM     13  C   UNL     1     138.509 139.172 114.306  1.00  0.00     0.000 C 
BRANCH  13  14
ATOM     14  C   UNL     1     139.556 139.786 113.369  1.00  0.00     0.000 C 
BRANCH  14  15
ATOM     15  C   UNL     1     140.958 139.252 113.683  1.00  0.00     0.000 C 
BRANCH  15  16
ATOM     16  C   UNL     1     141.810 139.173 112.408  1.00  0.00     0.000 C 
BRANCH  16  17
ATOM     17  C   UNL     1     143.170 139.877 112.551  1.00  0.00     0.000 C 
BRANCH  17  18
ATOM     18  C   UNL     1     143.092 141.390 112.838  1.00  0.00     0.000 C 
BRANCH  18  19
ATOM     19  C   UNL     1     143.578 141.785 114.249  1.00  0.00     0.000 C 
BRANCH  19  20
ATOM     20  C   UNL     1     142.642 142.805 114.923  1.00  0.00     0.006 C 
BRANCH  20  21
ATOM     21  C   UNL     1     141.343 143.009 114.134  1.00  0.00     0.053 C 
BRANCH  21  22
ATOM     22  C   UNL     1     140.168 143.222 115.041  1.00  0.00     0.041 C 
ATOM     23  O   UNL     1     139.795 142.304 115.820  1.00  0.00    -0.550 OA
ATOM     24  O   UNL     1     139.486 144.434 115.026  1.00  0.00    -0.550 OA
ENDBRANCH  21  22
ENDBRANCH  20  21
ENDBRANCH  19  20
ENDBRANCH  18  19
ENDBRANCH  17  18
ENDBRANCH  16  17
ENDBRANCH  15  16
ENDBRANCH  14  15
ENDBRANCH  13  14
ENDBRANCH   1  13
TORSDOF 20
ENDMDL
MODEL 8
REMARK VINA RESULT:    -5.546      2.330      8.563
REMARK INTER + INTRA:         -14.852
REMARK INTER:                 -12.242
REMARK INTRA:                  -2.609
REMARK UNBOUND:                -2.821
REMARK SMILES CCCCCCCCCCCCCCCCCCCCCC(=O)[O-]
REMARK SMILES IDX 12 1 11 2 10 3 9 4 8 5 7 6 6 7 5 8 4 9 3 10 2 11 1 12 13 13
REMARK SMILES IDX 14 14 15 15 16 16 17 17 18 18 19 19 20 20 21 21 22 22 23 23
REMARK SMILES IDX 24 24
REMARK H PARENT
REMARK Flexibility Score: inf
ROOT
ATOM      1  C   UNL     1     137.401 137.955 112.610  1.00  0.00     0.000 C 
ENDROOT
BRANCH   1   2
ATOM      2  C   UNL     1     138.437 138.033 113.736  1.00  0.00     0.000 C 
BRANCH   2   3
ATOM      3  C   UNL     1     138.749 139.489 114.099  1.00  0.00     0.000 C 
BRANCH   3   4
ATOM      4  C   UNL     1     139.892 140.036 113.233  1.00  0.00    -0.000 C 
BRANCH   4   5
ATOM      5  C   UNL     1     141.124 139.115 113.222  1.00  0.00    -0.000 C 
BRANCH   5   6
ATOM      6  C   UNL     1     142.406 139.757 112.654  1.00  0.00    -0.000 C 
BRANCH   6   7
ATOM      7  C   UNL     1     142.233 141.236 112.248  1.00  0.00    -0.000 C 
BRANCH   7   8
ATOM      8  C   UNL     1     143.164 142.169 113.042  1.00  0.00    -0.000 C 
BRANCH   8   9
ATOM      9  C   UNL     1     142.430 142.907 114.173  1.00  0.00    -0.000 C 
BRANCH   9  10
ATOM     10  C   UNL     1     142.653 142.246 115.546  1.00  0.00    -0.000 C 
BRANCH  10  11
ATOM     11  C   UNL     1     141.377 141.587 116.094  1.00  0.00    -0.003 C 
ATOM     12  C   UNL     1     141.654 140.257 116.793  1.00  0.00     0.004 C 
ENDBRANCH  10  11
ENDBRANCH   9  10
ENDBRANCH   8   9
ENDBRANCH   7   8
ENDBRANCH   6   7
ENDBRANCH   5   6
ENDBRANCH   4   5
ENDBRANCH   3   4
ENDBRANCH   2   3
ENDBRANCH   1   2
BRANCH   1  13
ATOM     13  C   UNL     1     136.454 136.767 112.813  1.00  0.00     0.000 C 
BRANCH  13  14
ATOM     14  C   UNL     1     135.150 137.213 113.486  1.00  0.00     0.000 C 
BRANCH  14  15
ATOM     15  C   UNL     1     133.930 136.785 112.662  1.00  0.00     0.000 C 
BRANCH  15  16
ATOM     16  C   UNL     1     133.709 135.268 112.762  1.00  0.00     0.000 C 
BRANCH  16  17
ATOM     17  C   UNL     1     133.120 134.837 114.116  1.00  0.00     0.000 C 
BRANCH  17  18
ATOM     18  C   UNL     1     133.946 133.780 114.877  1.00  0.00     0.000 C 
BRANCH  18  19
ATOM     19  C   UNL     1     135.336 133.511 114.262  1.00  0.00     0.000 C 
BRANCH  19  20
ATOM     20  C   UNL     1     136.441 133.439 115.331  1.00  0.00     0.006 C 
BRANCH  20  21
ATOM     21  C   UNL     1     136.732 134.808 115.958  1.00  0.00     0.053 C 
BRANCH  21  22
ATOM     22  C   UNL     1     136.507 134.801 117.441  1.00  0.00     0.041 C 
ATOM     23  O   UNL     1     137.352 135.332 118.211  1.00  0.00    -0.550 OA
ATOM     24  O   UNL     1     135.366 134.209 117.971  1.00  0.00    -0.550 OA
ENDBRANCH  21  22
ENDBRANCH  20  21
ENDBRANCH  19  20
ENDBRANCH  18  19
ENDBRANCH  17  18
ENDBRANCH  16  17
ENDBRANCH  15  16
ENDBRANCH  14  15
ENDBRANCH  13  14
ENDBRANCH   1  13
TORSDOF 20
ENDMDL
MODEL 9
REMARK VINA RESULT:    -5.470      2.666      8.710
REMARK INTER + INTRA:         -14.686
REMARK INTER:                 -12.145
REMARK INTRA:                  -2.541
REMARK UNBOUND:                -2.821
REMARK SMILES CCCCCCCCCCCCCCCCCCCCCC(=O)[O-]
REMARK SMILES IDX 12 1 11 2 10 3 9 4 8 5 7 6 6 7 5 8 4 9 3 10 2 11 1 12 13 13
REMARK SMILES IDX 14 14 15 15 16 16 17 17 18 18 19 19 20 20 21 21 22 22 23 23
REMARK SMILES IDX 24 24
REMARK H PARENT
REMARK Flexibility Score: inf
ROOT
ATOM      1  C   UNL     1     137.755 138.170 113.947  1.00  0.00     0.000 C 
ENDROOT
BRANCH   1   2
ATOM      2  C   UNL     1     138.853 138.651 112.993  1.00  0.00     0.000 C 
BRANCH   2   3
ATOM      3  C   UNL     1     139.489 139.951 113.495  1.00  0.00     0.000 C 
BRANCH   3   4
ATOM      4  C   UNL     1     140.049 139.775 114.913  1.00  0.00    -0.000 C 
BRANCH   4   5
ATOM      5  C   UNL     1     139.459 140.783 115.915  1.00  0.00    -0.000 C 
BRANCH   5   6
ATOM      6  C   UNL     1     140.359 141.999 116.214  1.00  0.00    -0.000 C 
BRANCH   6   7
ATOM      7  C   UNL     1     140.248 143.127 115.166  1.00  0.00    -0.000 C 
BRANCH   7   8
ATOM      8  C   UNL     1     141.455 143.156 114.213  1.00  0.00    -0.000 C 
BRANCH   8   9
ATOM      9  C   UNL     1     142.778 142.838 114.930  1.00  0.00    -0.000 C 
BRANCH   9  10
ATOM     10  C   UNL     1     143.511 141.638 114.304  1.00  0.00    -0.000 C 
BRANCH  10  11
ATOM     11  C   UNL     1     142.996 141.307 112.894  1.00  0.00    -0.003 C 
ATOM     12  C   UNL     1     143.089 139.817 112.567  1.00  0.00     0.004 C 
ENDBRANCH  10  11
ENDBRANCH   9  10
ENDBRANCH   8   9
ENDBRANCH   7   8
ENDBRANCH   6   7
ENDBRANCH   5   6
ENDBRANCH   4   5
ENDBRANCH   3   4
ENDBRANCH   2   3
ENDBRANCH   1   2
BRANCH   1  13
ATOM     13  C   UNL     1     136.747 137.271 113.221  1.00  0.00     0.000 C 
BRANCH  13  14
ATOM     14  C   UNL     1     137.040 137.222 111.717  1.00  0.00     0.000 C 
BRANCH  14  15
ATOM     15  C   UNL     1     136.252 136.096 111.038  1.00  0.00     0.000 C 
BRANCH  15  16
ATOM     16  C   UNL     1     135.668 135.132 112.083  1.00  0.00     0.000 C 
BRANCH  16  17
ATOM     17  C   UNL     1     134.149 134.942 111.940  1.00  0.00     0.000 C 
BRANCH  17  18
ATOM     18  C   UNL     1     133.410 134.598 113.249  1.00  0.00     0.000 C 
BRANCH  18  19
ATOM     19  C   UNL     1     133.085 135.826 114.125  1.00  0.00     0.000 C 
BRANCH  19  20
ATOM     20  C   UNL     1     133.896 135.839 115.434  1.00  0.00     0.006 C 
BRANCH  20  21
ATOM     21  C   UNL     1     134.419 134.446 115.806  1.00  0.00     0.053 C 
BRANCH  21  22
ATOM     22  C   UNL     1     135.766 134.513 116.460  1.00  0.00     0.041 C 
ATOM     23  O   UNL     1     136.786 134.810 115.781  1.00  0.00    -0.550 OA
ATOM     24  O   UNL     1     135.896 134.246 117.818  1.00  0.00    -0.550 OA
ENDBRANCH  21  22
ENDBRANCH  20  21
ENDBRANCH  19  20
ENDBRANCH  18  19
ENDBRANCH  17  18
ENDBRANCH  16  17
ENDBRANCH  15  16
ENDBRANCH  14  15
ENDBRANCH  13  14
ENDBRANCH   1  13
TORSDOF 20
ENDMDL
