MODEL 1
REMARK VINA RESULT:    -4.149      0.000      0.000
REMARK INTER + INTRA:          -9.852
REMARK INTER:                  -7.544
REMARK INTRA:                  -2.308
REMARK UNBOUND:                -2.308
REMARK SMILES CCCCCCCCCCCCCC[C@H](C)C(=O)[O-]
REMARK SMILES IDX 9 1 10 2 11 3 12 4 13 5 14 6 15 7 16 8 17 9 18 10 19 11 8 12
REMARK SMILES IDX 7 13 6 14 5 15 4 16 3 17 2 18 1 19
REMARK H PARENT
REMARK Flexibility Score: inf
ROOT
ATOM      1  C   UNL     1      31.618   7.368  31.523  1.00  0.00     0.000 C 
ENDROOT
BRANCH   1   2
ATOM      2  C   UNL     1      31.028   8.618  32.202  1.00  0.00     0.000 C 
BRANCH   2   3
ATOM      3  C   UNL     1      31.804   9.899  31.854  1.00  0.00     0.000 C 
BRANCH   3   4
ATOM      4  C   UNL     1      33.324   9.730  31.999  1.00  0.00     0.000 C 
BRANCH   4   5
ATOM      5  C   UNL     1      34.035   9.994  30.665  1.00  0.00     0.001 C 
BRANCH   5   6
ATOM      6  C   UNL     1      34.900   8.792  30.254  1.00  0.00     0.009 C 
BRANCH   6   7
ATOM      7  C   UNL     1      36.216   8.703  31.056  1.00  0.00     0.032 C 
ATOM      8  C   UNL     1      37.453   8.889  30.168  1.00  0.00     0.014 C 
BRANCH   7   9
ATOM      9  C   UNL     1      36.294   7.372  31.754  1.00  0.00     0.044 C 
ATOM     10  O   UNL     1      35.240   6.781  32.109  1.00  0.00    -0.550 OA
ATOM     11  O   UNL     1      37.527   6.783  32.007  1.00  0.00    -0.550 OA
ENDBRANCH   7   9
ENDBRANCH   6   7
ENDBRANCH   5   6
ENDBRANCH   4   5
ENDBRANCH   3   4
ENDBRANCH   2   3
ENDBRANCH   1   2
BRANCH   1  12
ATOM     12  C   UNL     1      30.631   6.701  30.552  1.00  0.00     0.000 C 
BRANCH  12  13
ATOM     13  C   UNL     1      30.348   7.564  29.309  1.00  0.00    -0.000 C 
BRANCH  13  14
ATOM     14  C   UNL     1      31.635   8.000  28.591  1.00  0.00    -0.000 C 
BRANCH  14  15
ATOM     15  C   UNL     1      31.450   9.294  27.781  1.00  0.00    -0.000 C 
BRANCH  15  16
ATOM     16  C   UNL     1      30.647  10.364  28.540  1.00  0.00    -0.000 C 
BRANCH  16  17
ATOM     17  C   UNL     1      29.385  10.839  27.790  1.00  0.00    -0.000 C 
BRANCH  17  18
ATOM     18  C   UNL     1      28.213  11.111  28.744  1.00  0.00    -0.003 C 
ATOM     19  C   UNL     1      28.651  10.998  30.202  1.00  0.00     0.004 C 
ENDBRANCH  17  18
ENDBRANCH  16  17
ENDBRANCH  15  16
ENDBRANCH  14  15
ENDBRANCH  13  14
ENDBRANCH  12  13
ENDBRANCH   1  12
TORSDOF 14
ENDMDL
MODEL 2
REMARK VINA RESULT:    -4.148      1.736      3.113
REMARK INTER + INTRA:          -9.851
REMARK INTER:                  -7.345
REMARK INTRA:                  -2.507
REMARK UNBOUND:                -2.308
REMARK SMILES CCCCCCCCCCCCCC[C@H](C)C(=O)[O-]
REMARK SMILES IDX 9 1 10 2 11 3 12 4 13 5 14 6 15 7 16 8 17 9 18 10 19 11 8 12
REMARK SMILES IDX 7 13 6 14 5 15 4 16 3 17 2 18 1 19
REMARK H PARENT
REMARK Flexibility Score: inf
ROOT
ATOM      1  C   UNL     1      31.004   6.996  31.396  1.00  0.00     0.000 C 
ENDROOT
BRANCH   1   2
ATOM      2  C   UNL     1      30.072   7.567  30.313  1.00  0.00     0.000 C 
BRANCH   2   3
ATOM      3  C   UNL     1      30.625   7.364  28.892  1.00  0.00     0.000 C 
BRANCH   3   4
ATOM      4  C   UNL     1      31.443   8.566  28.396  1.00  0.00     0.000 C 
BRANCH   4   5
ATOM      5  C   UNL     1      32.948   8.293  28.514  1.00  0.00     0.001 C 
BRANCH   5   6
ATOM      6  C   UNL     1      33.582   9.165  29.609  1.00  0.00     0.009 C 
BRANCH   6   7
ATOM      7  C   UNL     1      34.936   8.610  30.103  1.00  0.00     0.032 C 
ATOM      8  C   UNL     1      34.788   7.754  31.367  1.00  0.00     0.014 C 
BRANCH   7   9
ATOM      9  C   UNL     1      35.881   9.750  30.375  1.00  0.00     0.044 C 
ATOM     10  O   UNL     1      35.463  10.799  30.931  1.00  0.00    -0.550 OA
ATOM     11  O   UNL     1      37.221   9.650  30.019  1.00  0.00    -0.550 OA
ENDBRANCH   7   9
ENDBRANCH   6   7
ENDBRANCH   5   6
ENDBRANCH   4   5
ENDBRANCH   3   4
ENDBRANCH   2   3
ENDBRANCH   1   2
BRANCH   1  12
ATOM     12  C   UNL     1      30.994   7.831  32.686  1.00  0.00     0.000 C 
BRANCH  12  13
ATOM     13  C   UNL     1      31.599   9.233  32.488  1.00  0.00    -0.000 C 
BRANCH  13  14
ATOM     14  C   UNL     1      30.602  10.356  32.814  1.00  0.00    -0.000 C 
BRANCH  14  15
ATOM     15  C   UNL     1      29.930  10.932  31.556  1.00  0.00    -0.000 C 
BRANCH  15  16
ATOM     16  C   UNL     1      30.923  11.646  30.623  1.00  0.00    -0.000 C 
BRANCH  16  17
ATOM     17  C   UNL     1      30.368  11.900  29.205  1.00  0.00    -0.000 C 
BRANCH  17  18
ATOM     18  C   UNL     1      29.063  11.133  28.948  1.00  0.00    -0.003 C 
ATOM     19  C   UNL     1      28.745  11.071  27.457  1.00  0.00     0.004 C 
ENDBRANCH  17  18
ENDBRANCH  16  17
ENDBRANCH  15  16
ENDBRANCH  14  15
ENDBRANCH  13  14
ENDBRANCH  12  13
ENDBRANCH   1  12
TORSDOF 14
ENDMDL
MODEL 3
REMARK VINA RESULT:    -4.034      3.490      6.247
REMARK INTER + INTRA:          -9.644
REMARK INTER:                  -7.211
REMARK INTRA:                  -2.432
REMARK UNBOUND:                -2.308
REMARK SMILES CCCCCCCCCCCCCC[C@H](C)C(=O)[O-]
REMARK SMILES IDX 9 1 10 2 11 3 12 4 13 5 14 6 15 7 16 8 17 9 18 10 19 11 8 12
REMARK SMILES IDX 7 13 6 14 5 15 4 16 3 17 2 18 1 19
REMARK H PARENT
REMARK Flexibility Score: inf
ROOT
ATOM      1  C   UNL     1      35.462   9.430  30.380  1.00  0.00     0.000 C 
ENDROOT
BRANCH   1   2
ATOM      2  C   UNL     1      33.975   9.574  30.006  1.00  0.00     0.000 C 
BRANCH   2   3
ATOM      3  C   UNL     1      33.443   8.362  29.224  1.00  0.00     0.000 C 
BRANCH   3   4
ATOM      4  C   UNL     1      32.344   8.739  28.219  1.00  0.00     0.000 C 
BRANCH   4   5
ATOM      5  C   UNL     1      30.977   8.219  28.680  1.00  0.00     0.001 C 
BRANCH   5   6
ATOM      6  C   UNL     1      30.153   9.338  29.337  1.00  0.00     0.009 C 
BRANCH   6   7
ATOM      7  C   UNL     1      30.436  10.726  28.723  1.00  0.00     0.032 C 
ATOM      8  C   UNL     1      30.954  11.728  29.762  1.00  0.00     0.014 C 
BRANCH   7   9
ATOM      9  C   UNL     1      29.183  11.263  28.086  1.00  0.00     0.044 C 
ATOM     10  O   UNL     1      28.915  10.988  26.887  1.00  0.00    -0.550 OA
ATOM     11  O   UNL     1      28.311  12.061  28.817  1.00  0.00    -0.550 OA
ENDBRANCH   7   9
ENDBRANCH   6   7
ENDBRANCH   5   6
ENDBRANCH   4   5
ENDBRANCH   3   4
ENDBRANCH   2   3
ENDBRANCH   1   2
BRANCH   1  12
ATOM     12  C   UNL     1      35.882   7.964  30.577  1.00  0.00     0.000 C 
BRANCH  12  13
ATOM     13  C   UNL     1      36.263   7.649  32.035  1.00  0.00    -0.000 C 
BRANCH  13  14
ATOM     14  C   UNL     1      35.163   6.870  32.775  1.00  0.00    -0.000 C 
BRANCH  14  15
ATOM     15  C   UNL     1      34.057   7.786  33.323  1.00  0.00    -0.000 C 
BRANCH  15  16
ATOM     16  C   UNL     1      32.654   7.168  33.200  1.00  0.00    -0.000 C 
BRANCH  16  17
ATOM     17  C   UNL     1      31.632   8.085  32.496  1.00  0.00    -0.000 C 
BRANCH  17  18
ATOM     18  C   UNL     1      31.765   9.549  32.940  1.00  0.00    -0.003 C 
ATOM     19  C   UNL     1      30.397  10.218  33.051  1.00  0.00     0.004 C 
ENDBRANCH  17  18
ENDBRANCH  16  17
ENDBRANCH  15  16
ENDBRANCH  14  15
ENDBRANCH  13  14
ENDBRANCH  12  13
ENDBRANCH   1  12
TORSDOF 14
ENDMDL
MODEL 4
REMARK VINA RESULT:    -4.027      1.309      3.200
REMARK INTER + INTRA:          -9.631
REMARK INTER:                  -7.454
REMARK INTRA:                  -2.177
REMARK UNBOUND:                -2.308
REMARK SMILES CCCCCCCCCCCCCC[C@H](C)C(=O)[O-]
REMARK SMILES IDX 9 1 10 2 11 3 12 4 13 5 14 6 15 7 16 8 17 9 18 10 19 11 8 12
REMARK SMILES IDX 7 13 6 14 5 15 4 16 3 17 2 18 1 19
REMARK H PARENT
REMARK Flexibility Score: inf
ROOT
ATOM      1  C   UNL     1      30.188  12.411  30.639  1.00  0.00     0.000 C 
ENDROOT
BRANCH   1   2
ATOM      2  C   UNL     1      30.802  11.210  31.379  1.00  0.00     0.000 C 
BRANCH   2   3
ATOM      3  C   UNL     1      32.339  11.224  31.354  1.00  0.00     0.000 C 
BRANCH   3   4
ATOM      4  C   UNL     1      32.946   9.814  31.317  1.00  0.00     0.000 C 
BRANCH   4   5
ATOM      5  C   UNL     1      34.352   9.836  30.705  1.00  0.00     0.001 C 
BRANCH   5   6
ATOM      6  C   UNL     1      34.671   8.507  30.004  1.00  0.00     0.009 C 
BRANCH   6   7
ATOM      7  C   UNL     1      35.800   7.719  30.704  1.00  0.00     0.032 C 
ATOM      8  C   UNL     1      35.347   7.117  32.040  1.00  0.00     0.014 C 
BRANCH   7   9
ATOM      9  C   UNL     1      36.981   8.622  30.933  1.00  0.00     0.044 C 
ATOM     10  O   UNL     1      37.347   8.900  32.105  1.00  0.00    -0.550 OA
ATOM     11  O   UNL     1      37.678   9.153  29.854  1.00  0.00    -0.550 OA
ENDBRANCH   7   9
ENDBRANCH   6   7
ENDBRANCH   5   6
ENDBRANCH   4   5
ENDBRANCH   3   4
ENDBRANCH   2   3
ENDBRANCH   1   2
BRANCH   1  12
ATOM     12  C   UNL     1      28.683  12.238  30.375  1.00  0.00     0.000 C 
BRANCH  12  13
ATOM     13  C   UNL     1      28.382  11.086  29.400  1.00  0.00    -0.000 C 
BRANCH  13  14
ATOM     14  C   UNL     1      29.125  11.239  28.062  1.00  0.00    -0.000 C 
BRANCH  14  15
ATOM     15  C   UNL     1      29.667   9.902  27.531  1.00  0.00    -0.000 C 
BRANCH  15  16
ATOM     16  C   UNL     1      31.083   9.587  28.041  1.00  0.00    -0.000 C 
BRANCH  16  17
ATOM     17  C   UNL     1      31.242   8.150  28.583  1.00  0.00    -0.000 C 
BRANCH  17  18
ATOM     18  C   UNL     1      30.203   7.822  29.666  1.00  0.00    -0.003 C 
ATOM     19  C   UNL     1      30.767   6.842  30.691  1.00  0.00     0.004 C 
ENDBRANCH  17  18
ENDBRANCH  16  17
ENDBRANCH  15  16
ENDBRANCH  14  15
ENDBRANCH  13  14
ENDBRANCH  12  13
ENDBRANCH   1  12
TORSDOF 14
ENDMDL
MODEL 5
REMARK VINA RESULT:    -4.008      3.244      5.947
REMARK INTER + INTRA:          -9.596
REMARK INTER:                  -7.351
REMARK INTRA:                  -2.245
REMARK UNBOUND:                -2.308
REMARK SMILES CCCCCCCCCCCCCC[C@H](C)C(=O)[O-]
REMARK SMILES IDX 9 1 10 2 11 3 12 4 13 5 14 6 15 7 16 8 17 9 18 10 19 11 8 12
REMARK SMILES IDX 7 13 6 14 5 15 4 16 3 17 2 18 1 19
REMARK H PARENT
REMARK Flexibility Score: inf
ROOT
ATOM      1  C   UNL     1      34.452   9.278  29.997  1.00  0.00     0.000 C 
ENDROOT
BRANCH   1   2
ATOM      2  C   UNL     1      33.954   9.643  31.407  1.00  0.00     0.000 C 
BRANCH   2   3
ATOM      3  C   UNL     1      33.028  10.872  31.405  1.00  0.00     0.000 C 
BRANCH   3   4
ATOM      4  C   UNL     1      31.848  10.727  32.378  1.00  0.00     0.000 C 
BRANCH   4   5
ATOM      5  C   UNL     1      30.838  11.866  32.189  1.00  0.00     0.001 C 
BRANCH   5   6
ATOM      6  C   UNL     1      29.479  11.325  31.720  1.00  0.00     0.009 C 
BRANCH   6   7
ATOM      7  C   UNL     1      28.769  12.275  30.730  1.00  0.00     0.032 C 
ATOM      8  C   UNL     1      27.257  12.350  30.978  1.00  0.00     0.014 C 
BRANCH   7   9
ATOM      9  C   UNL     1      29.026  11.819  29.319  1.00  0.00     0.044 C 
ATOM     10  O   UNL     1      30.140  12.039  28.776  1.00  0.00    -0.550 OA
ATOM     11  O   UNL     1      28.038  11.149  28.606  1.00  0.00    -0.550 OA
ENDBRANCH   7   9
ENDBRANCH   6   7
ENDBRANCH   5   6
ENDBRANCH   4   5
ENDBRANCH   3   4
ENDBRANCH   2   3
ENDBRANCH   1   2
BRANCH   1  12
ATOM     12  C   UNL     1      33.583   8.204  29.322  1.00  0.00     0.000 C 
BRANCH  12  13
ATOM     13  C   UNL     1      32.552   8.802  28.349  1.00  0.00    -0.000 C 
BRANCH  13  14
ATOM     14  C   UNL     1      31.124   8.783  28.919  1.00  0.00    -0.000 C 
BRANCH  14  15
ATOM     15  C   UNL     1      30.428   7.427  28.721  1.00  0.00    -0.000 C 
BRANCH  15  16
ATOM     16  C   UNL     1      30.174   6.686  30.045  1.00  0.00    -0.000 C 
BRANCH  16  17
ATOM     17  C   UNL     1      30.414   7.556  31.297  1.00  0.00    -0.000 C 
BRANCH  17  18
ATOM     18  C   UNL     1      31.509   6.975  32.204  1.00  0.00    -0.003 C 
ATOM     19  C   UNL     1      31.207   7.248  33.676  1.00  0.00     0.004 C 
ENDBRANCH  17  18
ENDBRANCH  16  17
ENDBRANCH  15  16
ENDBRANCH  14  15
ENDBRANCH  13  14
ENDBRANCH  12  13
ENDBRANCH   1  12
TORSDOF 14
ENDMDL
MODEL 6
REMARK VINA RESULT:    -4.000      3.376      6.442
REMARK INTER + INTRA:          -9.581
REMARK INTER:                  -7.070
REMARK INTRA:                  -2.511
REMARK UNBOUND:                -2.308
REMARK SMILES CCCCCCCCCCCCCC[C@H](C)C(=O)[O-]
REMARK SMILES IDX 9 1 10 2 11 3 12 4 13 5 14 6 15 7 16 8 17 9 18 10 19 11 8 12
REMARK SMILES IDX 7 13 6 14 5 15 4 16 3 17 2 18 1 19
REMARK H PARENT
REMARK Flexibility Score: inf
ROOT
ATOM      1  C   UNL     1      31.917   8.607  33.506  1.00  0.00     0.000 C 
ENDROOT
BRANCH   1   2
ATOM      2  C   UNL     1      31.016   7.497  32.934  1.00  0.00     0.000 C 
BRANCH   2   3
ATOM      3  C   UNL     1      31.437   7.068  31.518  1.00  0.00     0.000 C 
BRANCH   3   4
ATOM      4  C   UNL     1      30.299   7.202  30.495  1.00  0.00     0.000 C 
BRANCH   4   5
ATOM      5  C   UNL     1      30.604   8.310  29.478  1.00  0.00     0.001 C 
BRANCH   5   6
ATOM      6  C   UNL     1      29.910   9.624  29.868  1.00  0.00     0.009 C 
BRANCH   6   7
ATOM      7  C   UNL     1      30.341  10.812  28.981  1.00  0.00     0.032 C 
ATOM      8  C   UNL     1      30.818  12.013  29.807  1.00  0.00     0.014 C 
BRANCH   7   9
ATOM      9  C   UNL     1      29.192  11.230  28.102  1.00  0.00     0.044 C 
ATOM     10  O   UNL     1      29.191  10.932  26.879  1.00  0.00    -0.550 OA
ATOM     11  O   UNL     1      28.124  11.942  28.635  1.00  0.00    -0.550 OA
ENDBRANCH   7   9
ENDBRANCH   6   7
ENDBRANCH   5   6
ENDBRANCH   4   5
ENDBRANCH   3   4
ENDBRANCH   2   3
ENDBRANCH   1   2
BRANCH   1  12
ATOM     12  C   UNL     1      31.457  10.014  33.092  1.00  0.00     0.000 C 
BRANCH  12  13
ATOM     13  C   UNL     1      32.636  10.977  32.859  1.00  0.00    -0.000 C 
BRANCH  13  14
ATOM     14  C   UNL     1      33.865  10.269  32.267  1.00  0.00    -0.000 C 
BRANCH  14  15
ATOM     15  C   UNL     1      33.861  10.265  30.730  1.00  0.00    -0.000 C 
BRANCH  15  16
ATOM     16  C   UNL     1      34.273   8.907  30.135  1.00  0.00    -0.000 C 
BRANCH  16  17
ATOM     17  C   UNL     1      34.977   7.976  31.144  1.00  0.00    -0.000 C 
BRANCH  17  18
ATOM     18  C   UNL     1      36.475   7.824  30.845  1.00  0.00    -0.003 C 
ATOM     19  C   UNL     1      37.200   7.134  31.997  1.00  0.00     0.004 C 
ENDBRANCH  17  18
ENDBRANCH  16  17
ENDBRANCH  15  16
ENDBRANCH  14  15
ENDBRANCH  13  14
ENDBRANCH  12  13
ENDBRANCH   1  12
TORSDOF 14
ENDMDL
MODEL 7
REMARK VINA RESULT:    -3.994      3.493      5.889
REMARK INTER + INTRA:          -9.571
REMARK INTER:                  -7.275
REMARK INTRA:                  -2.296
REMARK UNBOUND:                -2.308
REMARK SMILES CCCCCCCCCCCCCC[C@H](C)C(=O)[O-]
REMARK SMILES IDX 9 1 10 2 11 3 12 4 13 5 14 6 15 7 16 8 17 9 18 10 19 11 8 12
REMARK SMILES IDX 7 13 6 14 5 15 4 16 3 17 2 18 1 19
REMARK H PARENT
REMARK Flexibility Score: inf
ROOT
ATOM      1  C   UNL     1      33.376   7.927  31.374  1.00  0.00     0.000 C 
ENDROOT
BRANCH   1   2
ATOM      2  C   UNL     1      32.431   8.316  32.525  1.00  0.00     0.000 C 
BRANCH   2   3
ATOM      3  C   UNL     1      31.917   9.760  32.403  1.00  0.00     0.000 C 
BRANCH   3   4
ATOM      4  C   UNL     1      30.478   9.924  32.915  1.00  0.00     0.000 C 
BRANCH   4   5
ATOM      5  C   UNL     1      29.825  11.180  32.325  1.00  0.00     0.001 C 
BRANCH   5   6
ATOM      6  C   UNL     1      30.106  11.294  30.819  1.00  0.00     0.009 C 
BRANCH   6   7
ATOM      7  C   UNL     1      29.060  12.157  30.080  1.00  0.00     0.032 C 
ATOM      8  C   UNL     1      27.820  12.432  30.940  1.00  0.00     0.014 C 
BRANCH   7   9
ATOM      9  C   UNL     1      28.647  11.471  28.806  1.00  0.00     0.044 C 
ATOM     10  O   UNL     1      27.550  10.856  28.745  1.00  0.00    -0.550 OA
ATOM     11  O   UNL     1      29.470  11.515  27.686  1.00  0.00    -0.550 OA
ENDBRANCH   7   9
ENDBRANCH   6   7
ENDBRANCH   5   6
ENDBRANCH   4   5
ENDBRANCH   3   4
ENDBRANCH   2   3
ENDBRANCH   1   2
BRANCH   1  12
ATOM     12  C   UNL     1      33.590   9.072  30.371  1.00  0.00     0.000 C 
BRANCH  12  13
ATOM     13  C   UNL     1      33.241   8.668  28.927  1.00  0.00    -0.000 C 
BRANCH  13  14
ATOM     14  C   UNL     1      31.832   9.124  28.514  1.00  0.00    -0.000 C 
BRANCH  14  15
ATOM     15  C   UNL     1      30.828   7.962  28.458  1.00  0.00    -0.000 C 
BRANCH  15  16
ATOM     16  C   UNL     1      30.027   7.802  29.761  1.00  0.00    -0.000 C 
BRANCH  16  17
ATOM     17  C   UNL     1      30.057   6.369  30.336  1.00  0.00    -0.000 C 
BRANCH  17  18
ATOM     18  C   UNL     1      29.554   5.329  29.325  1.00  0.00    -0.003 C 
ATOM     19  C   UNL     1      28.842   4.177  30.029  1.00  0.00     0.004 C 
ENDBRANCH  17  18
ENDBRANCH  16  17
ENDBRANCH  15  16
ENDBRANCH  14  15
ENDBRANCH  13  14
ENDBRANCH  12  13
ENDBRANCH   1  12
TORSDOF 14
ENDMDL
MODEL 8
REMARK VINA RESULT:    -3.988      3.199      6.638
REMARK INTER + INTRA:          -9.560
REMARK INTER:                  -7.496
REMARK INTRA:                  -2.064
REMARK UNBOUND:                -2.308
REMARK SMILES CCCCCCCCCCCCCC[C@H](C)C(=O)[O-]
REMARK SMILES IDX 9 1 10 2 11 3 12 4 13 5 14 6 15 7 16 8 17 9 18 10 19 11 8 12
REMARK SMILES IDX 7 13 6 14 5 15 4 16 3 17 2 18 1 19
REMARK H PARENT
REMARK Flexibility Score: inf
ROOT
ATOM      1  C   UNL     1      31.980   7.358  31.454  1.00  0.00     0.000 C 
ENDROOT
BRANCH   1   2
ATOM      2  C   UNL     1      30.652   6.650  31.132  1.00  0.00     0.000 C 
BRANCH   2   3
ATOM      3  C   UNL     1      29.905   7.305  29.958  1.00  0.00     0.000 C 
BRANCH   3   4
ATOM      4  C   UNL     1      30.840   8.080  29.017  1.00  0.00     0.000 C 
BRANCH   4   5
ATOM      5  C   UNL     1      30.366   9.528  28.843  1.00  0.00     0.001 C 
BRANCH   5   6
ATOM      6  C   UNL     1      29.377   9.922  29.951  1.00  0.00     0.009 C 
BRANCH   6   7
ATOM      7  C   UNL     1      28.320  10.942  29.472  1.00  0.00     0.032 C 
ATOM      8  C   UNL     1      28.551  11.381  28.020  1.00  0.00     0.014 C 
BRANCH   7   9
ATOM      9  C   UNL     1      28.337  12.148  30.371  1.00  0.00     0.044 C 
ATOM     10  O   UNL     1      27.344  12.407  31.101  1.00  0.00    -0.550 OA
ATOM     11  O   UNL     1      29.448  12.983  30.406  1.00  0.00    -0.550 OA
ENDBRANCH   7   9
ENDBRANCH   6   7
ENDBRANCH   5   6
ENDBRANCH   4   5
ENDBRANCH   3   4
ENDBRANCH   2   3
ENDBRANCH   1   2
BRANCH   1  12
ATOM     12  C   UNL     1      31.893   8.236  32.713  1.00  0.00     0.000 C 
BRANCH  12  13
ATOM     13  C   UNL     1      32.912   9.389  32.702  1.00  0.00    -0.000 C 
BRANCH  13  14
ATOM     14  C   UNL     1      32.834  10.232  31.418  1.00  0.00    -0.000 C 
BRANCH  14  15
ATOM     15  C   UNL     1      34.206  10.424  30.754  1.00  0.00    -0.000 C 
BRANCH  15  16
ATOM     16  C   UNL     1      34.828   9.102  30.274  1.00  0.00    -0.000 C 
BRANCH  16  17
ATOM     17  C   UNL     1      36.358   9.030  30.468  1.00  0.00    -0.000 C 
BRANCH  17  18
ATOM     18  C   UNL     1      36.803   7.691  31.073  1.00  0.00    -0.003 C 
ATOM     19  C   UNL     1      35.677   7.050  31.880  1.00  0.00     0.004 C 
ENDBRANCH  17  18
ENDBRANCH  16  17
ENDBRANCH  15  16
ENDBRANCH  14  15
ENDBRANCH  13  14
ENDBRANCH  12  13
ENDBRANCH   1  12
TORSDOF 14
ENDMDL
MODEL 9
REMARK VINA RESULT:    -3.938      3.302      5.914
REMARK INTER + INTRA:          -9.469
REMARK INTER:                  -6.737
REMARK INTRA:                  -2.733
REMARK UNBOUND:                -2.308
REMARK SMILES CCCCCCCCCCCCCC[C@H](C)C(=O)[O-]
REMARK SMILES IDX 9 1 10 2 11 3 12 4 13 5 14 6 15 7 16 8 17 9 18 10 19 11 8 12
REMARK SMILES IDX 7 13 6 14 5 15 4 16 3 17 2 18 1 19
REMARK H PARENT
REMARK Flexibility Score: inf
ROOT
ATOM      1  C   UNL     1      30.362   7.720  30.452  1.00  0.00     0.000 C 
ENDROOT
BRANCH   1   2
ATOM      2  C   UNL     1      31.205   6.981  31.507  1.00  0.00     0.000 C 
BRANCH   2   3
ATOM      3  C   UNL     1      31.162   7.667  32.882  1.00  0.00     0.000 C 
BRANCH   3   4
ATOM      4  C   UNL     1      31.591   9.141  32.824  1.00  0.00     0.000 C 
BRANCH   4   5
ATOM      5  C   UNL     1      30.449  10.064  33.268  1.00  0.00     0.001 C 
BRANCH   5   6
ATOM      6  C   UNL     1      30.555  11.438  32.589  1.00  0.00     0.009 C 
BRANCH   6   7
ATOM      7  C   UNL     1      30.346  11.366  31.060  1.00  0.00     0.032 C 
ATOM      8  C   UNL     1      30.963  12.567  30.332  1.00  0.00     0.014 C 
BRANCH   7   9
ATOM      9  C   UNL     1      28.875  11.292  30.753  1.00  0.00     0.044 C 
ATOM     10  O   UNL     1      28.468  10.631  29.762  1.00  0.00    -0.550 OA
ATOM     11  O   UNL     1      27.955  11.948  31.563  1.00  0.00    -0.550 OA
ENDBRANCH   7   9
ENDBRANCH   6   7
ENDBRANCH   5   6
ENDBRANCH   4   5
ENDBRANCH   3   4
ENDBRANCH   2   3
ENDBRANCH   1   2
BRANCH   1  12
ATOM     12  C   UNL     1      31.005   7.691  29.055  1.00  0.00     0.000 C 
BRANCH  12  13
ATOM     13  C   UNL     1      31.847   8.948  28.766  1.00  0.00    -0.000 C 
BRANCH  13  14
ATOM     14  C   UNL     1      33.333   8.751  29.108  1.00  0.00    -0.000 C 
BRANCH  14  15
ATOM     15  C   UNL     1      33.818   9.708  30.209  1.00  0.00    -0.000 C 
BRANCH  15  16
ATOM     16  C   UNL     1      34.976   9.128  31.038  1.00  0.00    -0.000 C 
BRANCH  16  17
ATOM     17  C   UNL     1      34.994   7.585  31.082  1.00  0.00    -0.000 C 
BRANCH  17  18
ATOM     18  C   UNL     1      35.268   7.049  32.495  1.00  0.00    -0.003 C 
ATOM     19  C   UNL     1      35.095   8.146  33.543  1.00  0.00     0.004 C 
ENDBRANCH  17  18
ENDBRANCH  16  17
ENDBRANCH  15  16
ENDBRANCH  14  15
ENDBRANCH  13  14
ENDBRANCH  12  13
ENDBRANCH   1  12
TORSDOF 14
ENDMDL
