MODEL 1
REMARK VINA RESULT:    12.077      0.000      0.000
REMARK INTER + INTRA:          17.918
REMARK INTER:                  16.313
REMARK INTRA:                   1.605
REMARK UNBOUND:                 1.605
REMARK SMILES C=C1CCC=C(C)CC[C@@H]2[C@@H]1CC2(C)C
REMARK SMILES IDX 11 1 12 2 13 3 10 4 14 5 15 6 9 7 8 8 6 9 7 10 5 11 2 13
REMARK SMILES IDX 1 14 3 15 4 16
REMARK H PARENT
REMARK Flexibility Score: 70.00
ROOT
ATOM      1  C   UNL     1     136.568 138.692 163.292  1.00  0.00     0.018 C 
ATOM      2  C   UNL     1     136.746 137.174 163.422  1.00  0.00     0.015 C 
ATOM      3  C   UNL     1     136.279 136.982 161.971  1.00  0.00    -0.031 C 
ATOM      4  C   UNL     1     136.026 138.506 161.862  1.00  0.00     0.002 C 
ATOM      5  C   UNL     1     134.983 136.156 161.872  1.00  0.00     0.011 C 
ATOM      6  C   UNL     1     137.384 136.399 161.066  1.00  0.00     0.011 C 
ENDROOT
BRANCH   4   7
ATOM      7  C   UNL     1     136.820 139.296 160.800  1.00  0.00     0.009 C 
BRANCH   7   8
ATOM      8  C   UNL     1     137.705 140.384 161.430  1.00  0.00     0.030 C 
BRANCH   8   9
ATOM      9  C   UNL     1     137.037 141.747 161.421  1.00  0.00    -0.077 C 
ATOM     10  C   UNL     1     137.726 142.871 160.691  1.00  0.00     0.039 C 
ATOM     11  C   UNL     1     135.833 142.000 161.989  1.00  0.00    -0.028 CG0
ATOM     12  G   UNL     1     134.963 141.008 162.727  1.00  0.00     0.000 G0
ENDBRANCH   8   9
ENDBRANCH   7   8
ENDBRANCH   4   7
BRANCH   1  13
ATOM     13  C   UNL     1     135.629 139.292 164.332  1.00  0.00    -0.074 C 
ATOM     14  C   UNL     1     135.564 138.698 165.536  1.00  0.00     0.008 C 
BRANCH  13  15
ATOM     15  C   UNL     1     134.893 140.606 164.120  1.00  0.00     0.035 C 
BRANCH  15  16
ATOM     16  C   UNL     1     134.875 141.036 162.639  1.00  0.00     0.032 CG0
ATOM     17  G   UNL     1     136.124 141.791 162.242  1.00  0.00     0.000 G0
ENDBRANCH  15  16
ENDBRANCH  13  15
ENDBRANCH   1  13
TORSDOF 0
ENDMDL
MODEL 2
REMARK VINA RESULT:    13.526      1.871      3.906
REMARK INTER + INTRA:          19.875
REMARK INTER:                  18.150
REMARK INTRA:                   1.725
REMARK UNBOUND:                 1.605
REMARK SMILES C=C1CCC=C(C)CC[C@@H]2[C@@H]1CC2(C)C
REMARK SMILES IDX 11 1 12 2 13 3 10 4 14 5 15 6 9 7 8 8 6 9 7 10 5 11 2 13
REMARK SMILES IDX 1 14 3 15 4 16
REMARK H PARENT
REMARK Flexibility Score: 70.00
ROOT
ATOM      1  C   UNL     1     135.139 139.209 162.683  1.00  0.00     0.018 C 
ATOM      2  C   UNL     1     134.946 138.685 161.254  1.00  0.00     0.015 C 
ATOM      3  C   UNL     1     135.864 137.490 161.555  1.00  0.00    -0.031 C 
ATOM      4  C   UNL     1     136.120 138.059 162.973  1.00  0.00     0.002 C 
ATOM      5  C   UNL     1     137.131 137.483 160.680  1.00  0.00     0.011 C 
ATOM      6  C   UNL     1     135.122 136.140 161.476  1.00  0.00     0.011 C 
ENDROOT
BRANCH   4   7
ATOM      7  C   UNL     1     135.707 137.194 164.183  1.00  0.00     0.009 C 
BRANCH   7   8
ATOM      8  C   UNL     1     136.850 137.039 165.200  1.00  0.00     0.030 C 
BRANCH   8   9
ATOM      9  C   UNL     1     137.131 138.328 165.951  1.00  0.00    -0.077 C 
ATOM     10  C   UNL     1     137.025 138.313 167.455  1.00  0.00     0.039 C 
ATOM     11  C   UNL     1     137.520 139.480 165.353  1.00  0.00    -0.028 CG0
ATOM     12  G   UNL     1     137.727 139.695 163.870  1.00  0.00     0.000 G0
ENDBRANCH   8   9
ENDBRANCH   7   8
ENDBRANCH   4   7
BRANCH   1  13
ATOM     13  C   UNL     1     135.679 140.633 162.747  1.00  0.00    -0.074 C 
ATOM     14  C   UNL     1     134.875 141.629 162.334  1.00  0.00     0.008 C 
BRANCH  13  15
ATOM     15  C   UNL     1     137.009 140.983 163.396  1.00  0.00     0.035 C 
BRANCH  15  16
ATOM     16  C   UNL     1     137.778 139.733 163.868  1.00  0.00     0.032 CG0
ATOM     17  G   UNL     1     137.557 139.440 165.336  1.00  0.00     0.000 G0
ENDBRANCH  15  16
ENDBRANCH  13  15
ENDBRANCH   1  13
TORSDOF 0
ENDMDL
MODEL 3
REMARK VINA RESULT:    13.619      1.912      3.817
REMARK INTER + INTRA:          20.001
REMARK INTER:                  19.391
REMARK INTRA:                   0.610
REMARK UNBOUND:                 1.605
REMARK SMILES C=C1CCC=C(C)CC[C@@H]2[C@@H]1CC2(C)C
REMARK SMILES IDX 11 1 12 2 13 3 10 4 14 5 15 6 9 7 8 8 6 9 7 10 5 11 2 13
REMARK SMILES IDX 1 14 3 15 4 16
REMARK H PARENT
REMARK Flexibility Score: 70.00
ROOT
ATOM      1  C   UNL     1     137.157 139.179 165.383  1.00  0.00     0.018 C 
ATOM      2  C   UNL     1     137.915 138.917 166.691  1.00  0.00     0.015 C 
ATOM      3  C   UNL     1     137.232 137.547 166.828  1.00  0.00    -0.031 C 
ATOM      4  C   UNL     1     136.410 137.843 165.549  1.00  0.00     0.002 C 
ATOM      5  C   UNL     1     136.354 137.448 168.088  1.00  0.00     0.011 C 
ATOM      6  C   UNL     1     138.234 136.377 166.749  1.00  0.00     0.011 C 
ENDROOT
BRANCH   4   7
ATOM      7  C   UNL     1     136.582 136.893 164.344  1.00  0.00     0.009 C 
BRANCH   7   8
ATOM      8  C   UNL     1     137.025 137.642 163.076  1.00  0.00     0.030 C 
BRANCH   8   9
ATOM      9  C   UNL     1     135.845 138.149 162.265  1.00  0.00    -0.077 C 
ATOM     10  C   UNL     1     134.977 137.136 161.564  1.00  0.00     0.039 C 
ATOM     11  C   UNL     1     135.498 139.456 162.176  1.00  0.00    -0.028 CG0
ATOM     12  G   UNL     1     136.206 140.619 162.834  1.00  0.00     0.000 G0
ENDBRANCH   8   9
ENDBRANCH   7   8
ENDBRANCH   4   7
BRANCH   1  13
ATOM     13  C   UNL     1     136.330 140.459 165.399  1.00  0.00    -0.074 C 
ATOM     14  C   UNL     1     136.382 141.227 166.501  1.00  0.00     0.008 C 
BRANCH  13  15
ATOM     15  C   UNL     1     135.583 140.975 164.178  1.00  0.00     0.035 C 
BRANCH  15  16
ATOM     16  C   UNL     1     136.258 140.553 162.857  1.00  0.00     0.032 CG0
ATOM     17  G   UNL     1     135.507 139.444 162.155  1.00  0.00     0.000 G0
ENDBRANCH  15  16
ENDBRANCH  13  15
ENDBRANCH   1  13
TORSDOF 0
ENDMDL
