MODEL 1
REMARK VINA RESULT:    -7.343      0.000      0.000
REMARK INTER + INTRA:          -8.699
REMARK INTER:                  -8.416
REMARK INTRA:                  -0.283
REMARK UNBOUND:                -0.283
REMARK SMILES O=C1C[C@@H](c2ccc(O)cc2)Oc2cc(O)cc(O)c21
REMARK SMILES IDX 3 1 4 2 12 3 13 4 14 5 15 6 17 7 18 8 20 9 2 10 1 11 5 12
REMARK SMILES IDX 6 13 11 14 7 15 10 16 8 17 9 18 19 20 16 22
REMARK H PARENT 9 19 19 21 16 23
REMARK Flexibility Score: inf
ROOT
ATOM      1  C   UNL     1       5.123  -7.613   7.897  1.00  0.00     0.131 C 
ATOM      2  C   UNL     1       4.822  -6.424   6.973  1.00  0.00     0.211 C 
ATOM      3  O   UNL     1       4.782  -5.204   7.721  1.00  0.00    -0.484 OA
ATOM      4  C   UNL     1       5.672  -4.929   8.768  1.00  0.00     0.138 A 
ATOM      5  C   UNL     1       5.755  -3.626   9.261  1.00  0.00     0.093 A 
ATOM      6  C   UNL     1       6.644  -3.318  10.294  1.00  0.00     0.123 A 
ATOM      7  C   UNL     1       7.431  -4.324  10.855  1.00  0.00     0.093 A 
ATOM      8  C   UNL     1       7.335  -5.647  10.404  1.00  0.00     0.133 A 
ATOM      9  C   UNL     1       6.469  -5.954   9.322  1.00  0.00     0.102 A 
ATOM     10  C   UNL     1       6.340  -7.303   8.717  1.00  0.00     0.174 C 
ATOM     11  O   UNL     1       7.246  -8.171   8.829  1.00  0.00    -0.294 OA
ENDROOT
BRANCH   2  12
ATOM     12  C   UNL     1       3.516  -6.629   6.247  1.00  0.00    -0.007 A 
ATOM     13  C   UNL     1       2.627  -7.643   6.644  1.00  0.00     0.011 A 
ATOM     14  C   UNL     1       3.198  -5.841   5.126  1.00  0.00     0.011 A 
ATOM     15  C   UNL     1       1.431  -7.848   5.948  1.00  0.00     0.046 A 
ATOM     16  C   UNL     1       2.003  -6.048   4.432  1.00  0.00     0.046 A 
ATOM     17  C   UNL     1       1.115  -7.052   4.843  1.00  0.00     0.115 A 
BRANCH  17  18
ATOM     18  O   UNL     1      -0.079  -7.267   4.159  1.00  0.00    -0.508 OA
ATOM     19  H   UNL     1      -0.925  -7.544   4.644  1.00  0.00     0.293 HD
ENDBRANCH  17  18
ENDBRANCH   2  12
BRANCH   8  20
ATOM     20  O   UNL     1       8.087  -6.612  11.079  1.00  0.00    -0.507 OA
ATOM     21  H   UNL     1       8.155  -6.672  12.084  1.00  0.00     0.293 HD
ENDBRANCH   8  20
BRANCH   6  22
ATOM     22  O   UNL     1       6.748  -2.015  10.776  1.00  0.00    -0.508 OA
ATOM     23  H   UNL     1       6.758  -1.816  11.769  1.00  0.00     0.293 HD
ENDBRANCH   6  22
TORSDOF 4
ENDMDL
MODEL 2
REMARK VINA RESULT:    -7.275      6.924     11.426
REMARK INTER + INTRA:          -8.621
REMARK INTER:                  -8.315
REMARK INTRA:                  -0.307
REMARK UNBOUND:                -0.283
REMARK SMILES O=C1C[C@@H](c2ccc(O)cc2)Oc2cc(O)cc(O)c21
REMARK SMILES IDX 3 1 4 2 12 3 13 4 14 5 15 6 17 7 18 8 20 9 2 10 1 11 5 12
REMARK SMILES IDX 6 13 11 14 7 15 10 16 8 17 9 18 19 20 16 22
REMARK H PARENT 9 19 19 21 16 23
REMARK Flexibility Score: inf
ROOT
ATOM      1  C   UNL     1      11.767  -4.672  13.358  1.00  0.00     0.131 C 
ATOM      2  C   UNL     1      11.754  -4.460  14.878  1.00  0.00     0.211 C 
ATOM      3  O   UNL     1      10.779  -3.477  15.240  1.00  0.00    -0.484 OA
ATOM      4  C   UNL     1       9.524  -3.393  14.621  1.00  0.00     0.138 A 
ATOM      5  C   UNL     1       8.532  -2.603  15.206  1.00  0.00     0.093 A 
ATOM      6  C   UNL     1       7.267  -2.512  14.621  1.00  0.00     0.123 A 
ATOM      7  C   UNL     1       7.004  -3.189  13.430  1.00  0.00     0.093 A 
ATOM      8  C   UNL     1       7.995  -3.955  12.804  1.00  0.00     0.133 A 
ATOM      9  C   UNL     1       9.266  -4.090  13.421  1.00  0.00     0.102 A 
ATOM     10  C   UNL     1      10.367  -4.930  12.885  1.00  0.00     0.174 C 
ATOM     11  O   UNL     1      10.148  -5.883  12.091  1.00  0.00    -0.294 OA
ENDROOT
BRANCH   2  12
ATOM     12  C   UNL     1      13.117  -4.041  15.370  1.00  0.00    -0.007 A 
ATOM     13  C   UNL     1      14.116  -5.000  15.616  1.00  0.00     0.011 A 
ATOM     14  C   UNL     1      13.385  -2.689  15.644  1.00  0.00     0.011 A 
ATOM     15  C   UNL     1      15.368  -4.609  16.101  1.00  0.00     0.046 A 
ATOM     16  C   UNL     1      14.637  -2.300  16.130  1.00  0.00     0.046 A 
ATOM     17  C   UNL     1      15.633  -3.260  16.359  1.00  0.00     0.115 A 
BRANCH  17  18
ATOM     18  O   UNL     1      16.884  -2.885  16.841  1.00  0.00    -0.508 OA
ATOM     19  H   UNL     1      17.040  -2.706  17.826  1.00  0.00     0.293 HD
ENDBRANCH  17  18
ENDBRANCH   2  12
BRANCH   8  20
ATOM     20  O   UNL     1       7.682  -4.525  11.568  1.00  0.00    -0.507 OA
ATOM     21  H   UNL     1       8.342  -4.632  10.812  1.00  0.00     0.293 HD
ENDBRANCH   8  20
BRANCH   6  22
ATOM     22  O   UNL     1       6.266  -1.743  15.211  1.00  0.00    -0.508 OA
ATOM     23  H   UNL     1       6.069  -0.799  14.899  1.00  0.00     0.293 HD
ENDBRANCH   6  22
TORSDOF 4
ENDMDL
MODEL 3
REMARK VINA RESULT:    -7.163      3.267      7.745
REMARK INTER + INTRA:          -8.493
REMARK INTER:                  -8.203
REMARK INTRA:                  -0.289
REMARK UNBOUND:                -0.283
REMARK SMILES O=C1C[C@@H](c2ccc(O)cc2)Oc2cc(O)cc(O)c21
REMARK SMILES IDX 3 1 4 2 12 3 13 4 14 5 15 6 17 7 18 8 20 9 2 10 1 11 5 12
REMARK SMILES IDX 6 13 11 14 7 15 10 16 8 17 9 18 19 20 16 22
REMARK H PARENT 9 19 19 21 16 23
REMARK Flexibility Score: inf
ROOT
ATOM      1  C   UNL     1       6.904  -6.028   9.639  1.00  0.00     0.131 C 
ATOM      2  C   UNL     1       8.081  -5.827   8.674  1.00  0.00     0.211 C 
ATOM      3  O   UNL     1       8.413  -7.058   8.023  1.00  0.00    -0.484 OA
ATOM      4  C   UNL     1       7.441  -7.970   7.589  1.00  0.00     0.138 A 
ATOM      5  C   UNL     1       7.818  -9.001   6.726  1.00  0.00     0.093 A 
ATOM      6  C   UNL     1       6.869  -9.916   6.265  1.00  0.00     0.123 A 
ATOM      7  C   UNL     1       5.544  -9.817   6.692  1.00  0.00     0.093 A 
ATOM      8  C   UNL     1       5.152  -8.816   7.589  1.00  0.00     0.133 A 
ATOM      9  C   UNL     1       6.102  -7.854   8.022  1.00  0.00     0.102 A 
ATOM     10  C   UNL     1       5.784  -6.712   8.913  1.00  0.00     0.174 C 
ATOM     11  O   UNL     1       4.611  -6.269   9.032  1.00  0.00    -0.294 OA
ENDROOT
BRANCH   2  12
ATOM     12  C   UNL     1       9.286  -5.288   9.404  1.00  0.00    -0.007 A 
ATOM     13  C   UNL     1      10.393  -4.793   8.693  1.00  0.00     0.011 A 
ATOM     14  C   UNL     1       9.337  -5.327  10.809  1.00  0.00     0.011 A 
ATOM     15  C   UNL     1      11.519  -4.323   9.375  1.00  0.00     0.046 A 
ATOM     16  C   UNL     1      10.464  -4.857  11.488  1.00  0.00     0.046 A 
ATOM     17  C   UNL     1      11.559  -4.352  10.772  1.00  0.00     0.115 A 
BRANCH  17  18
ATOM     18  O   UNL     1      12.686  -3.880  11.439  1.00  0.00    -0.508 OA
ATOM     19  H   UNL     1      12.792  -3.982  12.441  1.00  0.00     0.293 HD
ENDBRANCH  17  18
ENDBRANCH   2  12
BRANCH   8  20
ATOM     20  O   UNL     1       3.830  -8.840   8.041  1.00  0.00    -0.507 OA
ATOM     21  H   UNL     1       3.546  -9.218   8.933  1.00  0.00     0.293 HD
ENDBRANCH   8  20
BRANCH   6  22
ATOM     22  O   UNL     1       7.233 -10.935   5.386  1.00  0.00    -0.508 OA
ATOM     23  H   UNL     1       7.604 -10.734   4.466  1.00  0.00     0.293 HD
ENDBRANCH   6  22
TORSDOF 4
ENDMDL
MODEL 4
REMARK VINA RESULT:    -7.098      6.430      9.887
REMARK INTER + INTRA:          -8.418
REMARK INTER:                  -8.127
REMARK INTRA:                  -0.291
REMARK UNBOUND:                -0.283
REMARK SMILES O=C1C[C@@H](c2ccc(O)cc2)Oc2cc(O)cc(O)c21
REMARK SMILES IDX 3 1 4 2 12 3 13 4 14 5 15 6 17 7 18 8 20 9 2 10 1 11 5 12
REMARK SMILES IDX 6 13 11 14 7 15 10 16 8 17 9 18 19 20 16 22
REMARK H PARENT 9 19 19 21 16 23
REMARK Flexibility Score: inf
ROOT
ATOM      1  C   UNL     1      11.869  -5.121  14.012  1.00  0.00     0.131 C 
ATOM      2  C   UNL     1      10.659  -4.497  14.720  1.00  0.00     0.211 C 
ATOM      3  O   UNL     1      10.213  -5.338  15.789  1.00  0.00    -0.484 OA
ATOM      4  C   UNL     1      11.099  -6.027  16.629  1.00  0.00     0.138 A 
ATOM      5  C   UNL     1      10.610  -6.597  17.806  1.00  0.00     0.093 A 
ATOM      6  C   UNL     1      11.471  -7.277  18.671  1.00  0.00     0.123 A 
ATOM      7  C   UNL     1      12.820  -7.412  18.341  1.00  0.00     0.093 A 
ATOM      8  C   UNL     1      13.325  -6.884  17.147  1.00  0.00     0.133 A 
ATOM      9  C   UNL     1      12.463  -6.150  16.289  1.00  0.00     0.102 A 
ATOM     10  C   UNL     1      12.903  -5.488  15.036  1.00  0.00     0.174 C 
ATOM     11  O   UNL     1      14.107  -5.179  14.835  1.00  0.00    -0.294 OA
ENDROOT
BRANCH   2  12
ATOM     12  C   UNL     1       9.533  -4.261  13.744  1.00  0.00    -0.007 A 
ATOM     13  C   UNL     1       9.650  -4.666  12.403  1.00  0.00     0.011 A 
ATOM     14  C   UNL     1       8.373  -3.580  14.154  1.00  0.00     0.011 A 
ATOM     15  C   UNL     1       8.616  -4.417  11.495  1.00  0.00     0.046 A 
ATOM     16  C   UNL     1       7.340  -3.332  13.245  1.00  0.00     0.046 A 
ATOM     17  C   UNL     1       7.459  -3.752  11.913  1.00  0.00     0.115 A 
BRANCH  17  18
ATOM     18  O   UNL     1       6.436  -3.511  10.999  1.00  0.00    -0.508 OA
ATOM     19  H   UNL     1       6.466  -2.720  10.366  1.00  0.00     0.293 HD
ENDBRANCH  17  18
ENDBRANCH   2  12
BRANCH   8  20
ATOM     20  O   UNL     1      14.664  -7.142  16.845  1.00  0.00    -0.507 OA
ATOM     21  H   UNL     1      15.162  -7.965  17.150  1.00  0.00     0.293 HD
ENDBRANCH   8  20
BRANCH   6  22
ATOM     22  O   UNL     1      10.995  -7.829  19.858  1.00  0.00    -0.508 OA
ATOM     23  H   UNL     1      11.452  -7.655  20.745  1.00  0.00     0.293 HD
ENDBRANCH   6  22
TORSDOF 4
ENDMDL
MODEL 5
REMARK VINA RESULT:    -7.054      2.602      4.553
REMARK INTER + INTRA:          -8.368
REMARK INTER:                  -8.068
REMARK INTRA:                  -0.300
REMARK UNBOUND:                -0.283
REMARK SMILES O=C1C[C@@H](c2ccc(O)cc2)Oc2cc(O)cc(O)c21
REMARK SMILES IDX 3 1 4 2 12 3 13 4 14 5 15 6 17 7 18 8 20 9 2 10 1 11 5 12
REMARK SMILES IDX 6 13 11 14 7 15 10 16 8 17 9 18 19 20 16 22
REMARK H PARENT 9 19 19 21 16 23
REMARK Flexibility Score: inf
ROOT
ATOM      1  C   UNL     1       7.972  -5.678  10.700  1.00  0.00     0.131 C 
ATOM      2  C   UNL     1       7.358  -4.383  10.150  1.00  0.00     0.211 C 
ATOM      3  O   UNL     1       6.812  -3.594  11.213  1.00  0.00    -0.484 OA
ATOM      4  C   UNL     1       7.439  -3.468  12.460  1.00  0.00     0.138 A 
ATOM      5  C   UNL     1       7.003  -2.476  13.340  1.00  0.00     0.093 A 
ATOM      6  C   UNL     1       7.618  -2.316  14.584  1.00  0.00     0.123 A 
ATOM      7  C   UNL     1       8.654  -3.172  14.961  1.00  0.00     0.093 A 
ATOM      8  C   UNL     1       9.081  -4.200  14.111  1.00  0.00     0.133 A 
ATOM      9  C   UNL     1       8.492  -4.335  12.827  1.00  0.00     0.102 A 
ATOM     10  C   UNL     1       8.912  -5.341  11.819  1.00  0.00     0.174 C 
ATOM     11  O   UNL     1      10.052  -5.874  11.849  1.00  0.00    -0.294 OA
ENDROOT
BRANCH   2  12
ATOM     12  C   UNL     1       6.288  -4.689   9.132  1.00  0.00    -0.007 A 
ATOM     13  C   UNL     1       5.540  -3.653   8.546  1.00  0.00     0.011 A 
ATOM     14  C   UNL     1       5.988  -6.022   8.799  1.00  0.00     0.011 A 
ATOM     15  C   UNL     1       4.528  -3.944   7.626  1.00  0.00     0.046 A 
ATOM     16  C   UNL     1       4.977  -6.310   7.879  1.00  0.00     0.046 A 
ATOM     17  C   UNL     1       4.245  -5.271   7.289  1.00  0.00     0.115 A 
BRANCH  17  18
ATOM     18  O   UNL     1       3.235  -5.547   6.370  1.00  0.00    -0.508 OA
ATOM     19  H   UNL     1       2.756  -4.807   5.870  1.00  0.00     0.293 HD
ENDBRANCH  17  18
ENDBRANCH   2  12
BRANCH   8  20
ATOM     20  O   UNL     1      10.058  -5.072  14.599  1.00  0.00    -0.507 OA
ATOM     21  H   UNL     1      10.742  -5.534  14.018  1.00  0.00     0.293 HD
ENDBRANCH   8  20
BRANCH   6  22
ATOM     22  O   UNL     1       7.202  -1.314  15.458  1.00  0.00    -0.508 OA
ATOM     23  H   UNL     1       6.802  -0.448  15.119  1.00  0.00     0.293 HD
ENDBRANCH   6  22
TORSDOF 4
ENDMDL
MODEL 6
REMARK VINA RESULT:    -6.982      4.348      7.699
REMARK INTER + INTRA:          -8.285
REMARK INTER:                  -7.992
REMARK INTRA:                  -0.293
REMARK UNBOUND:                -0.283
REMARK SMILES O=C1C[C@@H](c2ccc(O)cc2)Oc2cc(O)cc(O)c21
REMARK SMILES IDX 3 1 4 2 12 3 13 4 14 5 15 6 17 7 18 8 20 9 2 10 1 11 5 12
REMARK SMILES IDX 6 13 11 14 7 15 10 16 8 17 9 18 19 20 16 22
REMARK H PARENT 9 19 19 21 16 23
REMARK Flexibility Score: inf
ROOT
ATOM      1  C   UNL     1       9.871  -4.298  10.240  1.00  0.00     0.131 C 
ATOM      2  C   UNL     1       9.077  -5.157  11.234  1.00  0.00     0.211 C 
ATOM      3  O   UNL     1       8.106  -5.953  10.547  1.00  0.00    -0.484 OA
ATOM      4  C   UNL     1       8.367  -6.565   9.313  1.00  0.00     0.138 A 
ATOM      5  C   UNL     1       7.486  -7.541   8.842  1.00  0.00     0.093 A 
ATOM      6  C   UNL     1       7.728  -8.180   7.623  1.00  0.00     0.123 A 
ATOM      7  C   UNL     1       8.838  -7.819   6.859  1.00  0.00     0.093 A 
ATOM      8  C   UNL     1       9.713  -6.814   7.292  1.00  0.00     0.133 A 
ATOM      9  C   UNL     1       9.498  -6.198   8.553  1.00  0.00     0.102 A 
ATOM     10  C   UNL     1      10.397  -5.174   9.142  1.00  0.00     0.174 C 
ATOM     11  O   UNL     1      11.599  -5.062   8.785  1.00  0.00    -0.294 OA
ENDROOT
BRANCH   2  12
ATOM     12  C   UNL     1       8.398  -4.290  12.265  1.00  0.00    -0.007 A 
ATOM     13  C   UNL     1       7.372  -3.404  11.892  1.00  0.00     0.011 A 
ATOM     14  C   UNL     1       8.824  -4.318  13.605  1.00  0.00     0.011 A 
ATOM     15  C   UNL     1       6.767  -2.580  12.847  1.00  0.00     0.046 A 
ATOM     16  C   UNL     1       8.218  -3.495  14.557  1.00  0.00     0.046 A 
ATOM     17  C   UNL     1       7.186  -2.624  14.180  1.00  0.00     0.115 A 
BRANCH  17  18
ATOM     18  O   UNL     1       6.574  -1.799  15.121  1.00  0.00    -0.508 OA
ATOM     19  H   UNL     1       5.979  -1.028  14.843  1.00  0.00     0.293 HD
ENDBRANCH  17  18
ENDBRANCH   2  12
BRANCH   8  20
ATOM     20  O   UNL     1      10.747  -6.446   6.427  1.00  0.00    -0.507 OA
ATOM     21  H   UNL     1      11.562  -5.924   6.713  1.00  0.00     0.293 HD
ENDBRANCH   8  20
BRANCH   6  22
ATOM     22  O   UNL     1       6.865  -9.170   7.157  1.00  0.00    -0.508 OA
ATOM     23  H   UNL     1       6.679 -10.007   7.696  1.00  0.00     0.293 HD
ENDBRANCH   6  22
TORSDOF 4
ENDMDL
MODEL 7
REMARK VINA RESULT:    -6.969      2.974      6.348
REMARK INTER + INTRA:          -8.271
REMARK INTER:                  -7.974
REMARK INTRA:                  -0.298
REMARK UNBOUND:                -0.283
REMARK SMILES O=C1C[C@@H](c2ccc(O)cc2)Oc2cc(O)cc(O)c21
REMARK SMILES IDX 3 1 4 2 12 3 13 4 14 5 15 6 17 7 18 8 20 9 2 10 1 11 5 12
REMARK SMILES IDX 6 13 11 14 7 15 10 16 8 17 9 18 19 20 16 22
REMARK H PARENT 9 19 19 21 16 23
REMARK Flexibility Score: inf
ROOT
ATOM      1  C   UNL     1       8.114  -5.909   8.329  1.00  0.00     0.131 C 
ATOM      2  C   UNL     1       7.091  -5.977   9.471  1.00  0.00     0.211 C 
ATOM      3  O   UNL     1       5.923  -6.693   9.057  1.00  0.00    -0.484 OA
ATOM      4  C   UNL     1       5.984  -7.837   8.249  1.00  0.00     0.138 A 
ATOM      5  C   UNL     1       4.845  -8.634   8.117  1.00  0.00     0.093 A 
ATOM      6  C   UNL     1       4.880  -9.788   7.331  1.00  0.00     0.123 A 
ATOM      7  C   UNL     1       6.049 -10.128   6.649  1.00  0.00     0.093 A 
ATOM      8  C   UNL     1       7.191  -9.322   6.734  1.00  0.00     0.133 A 
ATOM      9  C   UNL     1       7.175  -8.175   7.571  1.00  0.00     0.102 A 
ATOM     10  C   UNL     1       8.345  -7.290   7.792  1.00  0.00     0.174 C 
ATOM     11  O   UNL     1       9.524  -7.686   7.593  1.00  0.00    -0.294 OA
ENDROOT
BRANCH   2  12
ATOM     12  C   UNL     1       6.711  -4.592   9.932  1.00  0.00    -0.007 A 
ATOM     13  C   UNL     1       7.221  -4.072  11.136  1.00  0.00     0.011 A 
ATOM     14  C   UNL     1       5.796  -3.825   9.189  1.00  0.00     0.011 A 
ATOM     15  C   UNL     1       6.841  -2.800  11.574  1.00  0.00     0.046 A 
ATOM     16  C   UNL     1       5.418  -2.553   9.629  1.00  0.00     0.046 A 
ATOM     17  C   UNL     1       5.941  -2.037  10.823  1.00  0.00     0.115 A 
BRANCH  17  18
ATOM     18  O   UNL     1       5.572  -0.771  11.270  1.00  0.00    -0.508 OA
ATOM     19  H   UNL     1       4.643  -0.401  11.109  1.00  0.00     0.293 HD
ENDBRANCH  17  18
ENDBRANCH   2  12
BRANCH   8  20
ATOM     20  O   UNL     1       8.290  -9.680   5.950  1.00  0.00    -0.507 OA
ATOM     21  H   UNL     1       9.232  -9.760   6.302  1.00  0.00     0.293 HD
ENDBRANCH   8  20
BRANCH   6  22
ATOM     22  O   UNL     1       3.754 -10.600   7.212  1.00  0.00    -0.508 OA
ATOM     23  H   UNL     1       2.822 -10.208   7.153  1.00  0.00     0.293 HD
ENDBRANCH   6  22
TORSDOF 4
ENDMDL
MODEL 8
REMARK VINA RESULT:    -6.925      3.377      5.676
REMARK INTER + INTRA:          -8.220
REMARK INTER:                  -7.934
REMARK INTRA:                  -0.286
REMARK UNBOUND:                -0.283
REMARK SMILES O=C1C[C@@H](c2ccc(O)cc2)Oc2cc(O)cc(O)c21
REMARK SMILES IDX 3 1 4 2 12 3 13 4 14 5 15 6 17 7 18 8 20 9 2 10 1 11 5 12
REMARK SMILES IDX 6 13 11 14 7 15 10 16 8 17 9 18 19 20 16 22
REMARK H PARENT 9 19 19 21 16 23
REMARK Flexibility Score: inf
ROOT
ATOM      1  C   UNL     1       9.462  -5.263  10.308  1.00  0.00     0.131 C 
ATOM      2  C   UNL     1       8.397  -4.235  10.712  1.00  0.00     0.211 C 
ATOM      3  O   UNL     1       8.122  -4.321  12.114  1.00  0.00    -0.484 OA
ATOM      4  C   UNL     1       9.124  -4.542  13.070  1.00  0.00     0.138 A 
ATOM      5  C   UNL     1       8.829  -4.338  14.419  1.00  0.00     0.093 A 
ATOM      6  C   UNL     1       9.811  -4.535  15.393  1.00  0.00     0.123 A 
ATOM      7  C   UNL     1      11.084  -4.966  15.017  1.00  0.00     0.093 A 
ATOM      8  C   UNL     1      11.391  -5.215  13.673  1.00  0.00     0.133 A 
ATOM      9  C   UNL     1      10.410  -4.969  12.676  1.00  0.00     0.102 A 
ATOM     10  C   UNL     1      10.645  -5.131  11.220  1.00  0.00     0.174 C 
ATOM     11  O   UNL     1      11.804  -5.104  10.727  1.00  0.00    -0.294 OA
ENDROOT
BRANCH   2  12
ATOM     12  C   UNL     1       7.128  -4.441   9.923  1.00  0.00    -0.007 A 
ATOM     13  C   UNL     1       6.707  -5.735   9.569  1.00  0.00     0.011 A 
ATOM     14  C   UNL     1       6.380  -3.335   9.484  1.00  0.00     0.011 A 
ATOM     15  C   UNL     1       5.547  -5.919   8.810  1.00  0.00     0.046 A 
ATOM     16  C   UNL     1       5.220  -3.521   8.726  1.00  0.00     0.046 A 
ATOM     17  C   UNL     1       4.800  -4.815   8.389  1.00  0.00     0.115 A 
BRANCH  17  18
ATOM     18  O   UNL     1       3.646  -5.013   7.635  1.00  0.00    -0.508 OA
ATOM     19  H   UNL     1       2.755  -5.216   8.072  1.00  0.00     0.293 HD
ENDBRANCH  17  18
ENDBRANCH   2  12
BRANCH   8  20
ATOM     20  O   UNL     1      12.657  -5.733  13.388  1.00  0.00    -0.507 OA
ATOM     21  H   UNL     1      13.377  -5.875  14.081  1.00  0.00     0.293 HD
ENDBRANCH   8  20
BRANCH   6  22
ATOM     22  O   UNL     1       9.530  -4.313  16.739  1.00  0.00    -0.508 OA
ATOM     23  H   UNL     1       8.611  -4.491  17.125  1.00  0.00     0.293 HD
ENDBRANCH   6  22
TORSDOF 4
ENDMDL
MODEL 9
REMARK VINA RESULT:    -6.891     11.636     15.229
REMARK INTER + INTRA:          -8.181
REMARK INTER:                  -7.896
REMARK INTRA:                  -0.286
REMARK UNBOUND:                -0.283
REMARK SMILES O=C1C[C@@H](c2ccc(O)cc2)Oc2cc(O)cc(O)c21
REMARK SMILES IDX 3 1 4 2 12 3 13 4 14 5 15 6 17 7 18 8 20 9 2 10 1 11 5 12
REMARK SMILES IDX 6 13 11 14 7 15 10 16 8 17 9 18 19 20 16 22
REMARK H PARENT 9 19 19 21 16 23
REMARK Flexibility Score: inf
ROOT
ATOM      1  C   UNL     1      16.815  -5.344  18.175  1.00  0.00     0.131 C 
ATOM      2  C   UNL     1      16.868  -6.036  16.806  1.00  0.00     0.211 C 
ATOM      3  O   UNL     1      15.620  -5.889  16.121  1.00  0.00    -0.484 OA
ATOM      4  C   UNL     1      14.872  -4.705  16.156  1.00  0.00     0.138 A 
ATOM      5  C   UNL     1      13.821  -4.540  15.252  1.00  0.00     0.093 A 
ATOM      6  C   UNL     1      13.067  -3.364  15.253  1.00  0.00     0.123 A 
ATOM      7  C   UNL     1      13.347  -2.361  16.183  1.00  0.00     0.093 A 
ATOM      8  C   UNL     1      14.370  -2.521  17.126  1.00  0.00     0.133 A 
ATOM      9  C   UNL     1      15.170  -3.694  17.096  1.00  0.00     0.102 A 
ATOM     10  C   UNL     1      16.323  -3.939  17.998  1.00  0.00     0.174 C 
ATOM     11  O   UNL     1      16.928  -2.995  18.572  1.00  0.00    -0.294 OA
ENDROOT
BRANCH   2  12
ATOM     12  C   UNL     1      17.205  -7.498  16.958  1.00  0.00    -0.007 A 
ATOM     13  C   UNL     1      16.524  -8.297  17.894  1.00  0.00     0.011 A 
ATOM     14  C   UNL     1      18.247  -8.066  16.204  1.00  0.00     0.011 A 
ATOM     15  C   UNL     1      16.862  -9.644  18.053  1.00  0.00     0.046 A 
ATOM     16  C   UNL     1      18.583  -9.413  16.365  1.00  0.00     0.046 A 
ATOM     17  C   UNL     1      17.890 -10.207  17.289  1.00  0.00     0.115 A 
BRANCH  17  18
ATOM     18  O   UNL     1      18.215 -11.550  17.457  1.00  0.00    -0.508 OA
ATOM     19  H   UNL     1      18.202 -11.989  18.370  1.00  0.00     0.293 HD
ENDBRANCH  17  18
ENDBRANCH   2  12
BRANCH   8  20
ATOM     20  O   UNL     1      14.527  -1.514  18.081  1.00  0.00    -0.507 OA
ATOM     21  H   UNL     1      13.759  -1.019  18.510  1.00  0.00     0.293 HD
ENDBRANCH   8  20
BRANCH   6  22
ATOM     22  O   UNL     1      12.030  -3.184  14.340  1.00  0.00    -0.508 OA
ATOM     23  H   UNL     1      11.437  -2.363  14.366  1.00  0.00     0.293 HD
ENDBRANCH   6  22
TORSDOF 4
ENDMDL
