MODEL 1
REMARK VINA RESULT:    -4.594      0.000      0.000
REMARK INTER + INTRA:          -8.598
REMARK INTER:                  -7.279
REMARK INTRA:                  -1.319
REMARK UNBOUND:                -1.319
REMARK SMILES CCCCCCCCCCCC(=O)[O-]
REMARK SMILES IDX 7 1 8 2 9 3 10 4 11 5 12 6 13 7 14 8 6 9 5 10 4 11 3 12 2 13
REMARK SMILES IDX 1 14
REMARK H PARENT
REMARK Flexibility Score: inf
ROOT
ATOM      1  C   UNL     1     -12.980 -28.626 -31.403  1.00  0.00     0.000 C 
ENDROOT
BRANCH   1   2
ATOM      2  C   UNL     1     -12.567 -28.355 -32.861  1.00  0.00     0.000 C 
BRANCH   2   3
ATOM      3  C   UNL     1     -13.667 -27.638 -33.661  1.00  0.00     0.000 C 
BRANCH   3   4
ATOM      4  C   UNL     1     -13.457 -27.739 -35.182  1.00  0.00     0.006 C 
BRANCH   4   5
ATOM      5  C   UNL     1     -13.675 -26.393 -35.886  1.00  0.00     0.053 C 
BRANCH   5   6
ATOM      6  C   UNL     1     -12.505 -25.475 -35.704  1.00  0.00     0.041 C 
ATOM      7  O   UNL     1     -12.673 -24.227 -35.712  1.00  0.00    -0.550 OA
ATOM      8  O   UNL     1     -11.236 -25.997 -35.489  1.00  0.00    -0.550 OA
ENDBRANCH   5   6
ENDBRANCH   4   5
ENDBRANCH   3   4
ENDBRANCH   2   3
ENDBRANCH   1   2
BRANCH   1   9
ATOM      9  C   UNL     1     -11.994 -28.024 -30.388  1.00  0.00     0.000 C 
BRANCH   9  10
ATOM     10  C   UNL     1     -10.679 -27.562 -31.044  1.00  0.00    -0.000 C 
BRANCH  10  11
ATOM     11  C   UNL     1     -10.425 -26.057 -30.860  1.00  0.00    -0.000 C 
BRANCH  11  12
ATOM     12  C   UNL     1     -10.737 -25.244 -32.129  1.00  0.00    -0.000 C 
BRANCH  12  13
ATOM     13  C   UNL     1     -12.162 -24.669 -32.124  1.00  0.00    -0.003 C 
ATOM     14  C   UNL     1     -12.699 -24.427 -30.713  1.00  0.00     0.004 C 
ENDBRANCH  12  13
ENDBRANCH  11  12
ENDBRANCH  10  11
ENDBRANCH   9  10
ENDBRANCH   1   9
TORSDOF 10
ENDMDL
MODEL 2
REMARK VINA RESULT:    -4.550      1.603      4.056
REMARK INTER + INTRA:          -8.528
REMARK INTER:                  -7.217
REMARK INTRA:                  -1.311
REMARK UNBOUND:                -1.319
REMARK SMILES CCCCCCCCCCCC(=O)[O-]
REMARK SMILES IDX 7 1 8 2 9 3 10 4 11 5 12 6 13 7 14 8 6 9 5 10 4 11 3 12 2 13
REMARK SMILES IDX 1 14
REMARK H PARENT
REMARK Flexibility Score: inf
ROOT
ATOM      1  C   UNL     1     -12.992 -28.668 -31.223  1.00  0.00     0.000 C 
ENDROOT
BRANCH   1   2
ATOM      2  C   UNL     1     -11.984 -28.013 -30.262  1.00  0.00     0.000 C 
BRANCH   2   3
ATOM      3  C   UNL     1     -10.702 -27.555 -30.976  1.00  0.00     0.000 C 
BRANCH   3   4
ATOM      4  C   UNL     1     -10.460 -26.040 -30.849  1.00  0.00     0.006 C 
BRANCH   4   5
ATOM      5  C   UNL     1     -10.790 -25.290 -32.146  1.00  0.00     0.053 C 
BRANCH   5   6
ATOM      6  C   UNL     1     -12.054 -24.495 -32.022  1.00  0.00     0.041 C 
ATOM      7  O   UNL     1     -12.293 -23.558 -32.829  1.00  0.00    -0.550 OA
ATOM      8  O   UNL     1     -12.982 -24.811 -31.040  1.00  0.00    -0.550 OA
ENDBRANCH   5   6
ENDBRANCH   4   5
ENDBRANCH   3   4
ENDBRANCH   2   3
ENDBRANCH   1   2
BRANCH   1   9
ATOM      9  C   UNL     1     -12.621 -28.460 -32.701  1.00  0.00     0.000 C 
BRANCH   9  10
ATOM     10  C   UNL     1     -13.634 -27.572 -33.446  1.00  0.00    -0.000 C 
BRANCH  10  11
ATOM     11  C   UNL     1     -13.318 -27.445 -34.945  1.00  0.00    -0.000 C 
BRANCH  11  12
ATOM     12  C   UNL     1     -11.857 -27.042 -35.210  1.00  0.00    -0.000 C 
BRANCH  12  13
ATOM     13  C   UNL     1     -11.720 -25.571 -35.631  1.00  0.00    -0.003 C 
ATOM     14  C   UNL     1     -13.022 -24.987 -36.181  1.00  0.00     0.004 C 
ENDBRANCH  12  13
ENDBRANCH  11  12
ENDBRANCH  10  11
ENDBRANCH   9  10
ENDBRANCH   1   9
TORSDOF 10
ENDMDL
MODEL 3
REMARK VINA RESULT:    -4.393      1.454      2.205
REMARK INTER + INTRA:          -8.280
REMARK INTER:                  -7.023
REMARK INTRA:                  -1.257
REMARK UNBOUND:                -1.319
REMARK SMILES CCCCCCCCCCCC(=O)[O-]
REMARK SMILES IDX 7 1 8 2 9 3 10 4 11 5 12 6 13 7 14 8 6 9 5 10 4 11 3 12 2 13
REMARK SMILES IDX 1 14
REMARK H PARENT
REMARK Flexibility Score: inf
ROOT
ATOM      1  C   UNL     1     -13.027 -28.252 -32.539  1.00  0.00     0.000 C 
ENDROOT
BRANCH   1   2
ATOM      2  C   UNL     1     -13.119 -27.722 -33.980  1.00  0.00     0.000 C 
BRANCH   2   3
ATOM      3  C   UNL     1     -11.774 -27.798 -34.722  1.00  0.00     0.000 C 
BRANCH   3   4
ATOM      4  C   UNL     1     -11.211 -26.409 -35.075  1.00  0.00     0.006 C 
BRANCH   4   5
ATOM      5  C   UNL     1     -12.133 -25.276 -34.605  1.00  0.00     0.053 C 
BRANCH   5   6
ATOM      6  C   UNL     1     -12.713 -24.517 -35.759  1.00  0.00     0.041 C 
ATOM      7  O   UNL     1     -13.291 -25.132 -36.694  1.00  0.00    -0.550 OA
ATOM      8  O   UNL     1     -12.649 -23.130 -35.785  1.00  0.00    -0.550 OA
ENDBRANCH   5   6
ENDBRANCH   4   5
ENDBRANCH   3   4
ENDBRANCH   2   3
ENDBRANCH   1   2
BRANCH   1   9
ATOM      9  C   UNL     1     -13.440 -27.201 -31.495  1.00  0.00     0.000 C 
BRANCH   9  10
ATOM     10  C   UNL     1     -12.864 -27.497 -30.098  1.00  0.00    -0.000 C 
BRANCH  10  11
ATOM     11  C   UNL     1     -11.390 -27.929 -30.146  1.00  0.00    -0.000 C 
BRANCH  11  12
ATOM     12  C   UNL     1     -10.420 -26.742 -30.009  1.00  0.00    -0.000 C 
BRANCH  12  13
ATOM     13  C   UNL     1     -10.063 -26.116 -31.366  1.00  0.00    -0.003 C 
ATOM     14  C   UNL     1     -10.385 -24.623 -31.435  1.00  0.00     0.004 C 
ENDBRANCH  12  13
ENDBRANCH  11  12
ENDBRANCH  10  11
ENDBRANCH   9  10
ENDBRANCH   1   9
TORSDOF 10
ENDMDL
MODEL 4
REMARK VINA RESULT:    -4.372      1.736      4.299
REMARK INTER + INTRA:          -8.247
REMARK INTER:                  -7.259
REMARK INTRA:                  -0.988
REMARK UNBOUND:                -1.319
REMARK SMILES CCCCCCCCCCCC(=O)[O-]
REMARK SMILES IDX 7 1 8 2 9 3 10 4 11 5 12 6 13 7 14 8 6 9 5 10 4 11 3 12 2 13
REMARK SMILES IDX 1 14
REMARK H PARENT
REMARK Flexibility Score: inf
ROOT
ATOM      1  C   UNL     1     -13.081 -28.114 -32.562  1.00  0.00     0.000 C 
ENDROOT
BRANCH   1   2
ATOM      2  C   UNL     1     -12.801 -28.414 -31.078  1.00  0.00     0.000 C 
BRANCH   2   3
ATOM      3  C   UNL     1     -11.319 -28.233 -30.710  1.00  0.00     0.000 C 
BRANCH   3   4
ATOM      4  C   UNL     1     -10.988 -26.796 -30.272  1.00  0.00     0.006 C 
BRANCH   4   5
ATOM      5  C   UNL     1     -10.135 -26.057 -31.312  1.00  0.00     0.053 C 
BRANCH   5   6
ATOM      6  C   UNL     1     -10.814 -24.818 -31.810  1.00  0.00     0.041 C 
ATOM      7  O   UNL     1     -11.845 -24.907 -32.528  1.00  0.00    -0.550 OA
ATOM      8  O   UNL     1     -10.330 -23.567 -31.452  1.00  0.00    -0.550 OA
ENDBRANCH   5   6
ENDBRANCH   4   5
ENDBRANCH   3   4
ENDBRANCH   2   3
ENDBRANCH   1   2
BRANCH   1   9
ATOM      9  C   UNL     1     -11.877 -28.428 -33.465  1.00  0.00     0.000 C 
BRANCH   9  10
ATOM     10  C   UNL     1     -12.036 -27.853 -34.885  1.00  0.00    -0.000 C 
BRANCH  10  11
ATOM     11  C   UNL     1     -13.504 -27.574 -35.247  1.00  0.00    -0.000 C 
BRANCH  11  12
ATOM     12  C   UNL     1     -13.708 -26.176 -35.857  1.00  0.00    -0.000 C 
BRANCH  12  13
ATOM     13  C   UNL     1     -12.420 -25.338 -35.850  1.00  0.00    -0.003 C 
ATOM     14  C   UNL     1     -12.690 -23.834 -35.829  1.00  0.00     0.004 C 
ENDBRANCH  12  13
ENDBRANCH  11  12
ENDBRANCH  10  11
ENDBRANCH   9  10
ENDBRANCH   1   9
TORSDOF 10
ENDMDL
MODEL 5
REMARK VINA RESULT:    -4.367      2.468      4.285
REMARK INTER + INTRA:          -8.239
REMARK INTER:                  -7.121
REMARK INTRA:                  -1.118
REMARK UNBOUND:                -1.319
REMARK SMILES CCCCCCCCCCCC(=O)[O-]
REMARK SMILES IDX 7 1 8 2 9 3 10 4 11 5 12 6 13 7 14 8 6 9 5 10 4 11 3 12 2 13
REMARK SMILES IDX 1 14
REMARK H PARENT
REMARK Flexibility Score: inf
ROOT
ATOM      1  C   UNL     1     -12.068 -24.974 -32.077  1.00  0.00     0.000 C 
ENDROOT
BRANCH   1   2
ATOM      2  C   UNL     1     -12.292 -23.864 -33.119  1.00  0.00     0.000 C 
BRANCH   2   3
ATOM      3  C   UNL     1     -12.307 -24.401 -34.559  1.00  0.00     0.000 C 
BRANCH   3   4
ATOM      4  C   UNL     1     -12.684 -23.324 -35.591  1.00  0.00     0.006 C 
BRANCH   4   5
ATOM      5  C   UNL     1     -13.136 -22.018 -34.924  1.00  0.00     0.053 C 
BRANCH   5   6
ATOM      6  C   UNL     1     -12.598 -20.815 -35.637  1.00  0.00     0.041 C 
ATOM      7  O   UNL     1     -11.388 -20.772 -35.982  1.00  0.00    -0.550 OA
ATOM      8  O   UNL     1     -13.441 -19.757 -35.952  1.00  0.00    -0.550 OA
ENDBRANCH   5   6
ENDBRANCH   4   5
ENDBRANCH   3   4
ENDBRANCH   2   3
ENDBRANCH   1   2
BRANCH   1   9
ATOM      9  C   UNL     1     -11.139 -26.087 -32.591  1.00  0.00     0.000 C 
BRANCH   9  10
ATOM     10  C   UNL     1     -11.512 -27.473 -32.032  1.00  0.00    -0.000 C 
BRANCH  10  11
ATOM     11  C   UNL     1     -12.298 -28.325 -33.042  1.00  0.00    -0.000 C 
BRANCH  11  12
ATOM     12  C   UNL     1     -11.860 -28.075 -34.495  1.00  0.00    -0.000 C 
BRANCH  12  13
ATOM     13  C   UNL     1     -13.050 -27.819 -35.432  1.00  0.00    -0.003 C 
ATOM     14  C   UNL     1     -14.345 -27.517 -34.678  1.00  0.00     0.004 C 
ENDBRANCH  12  13
ENDBRANCH  11  12
ENDBRANCH  10  11
ENDBRANCH   9  10
ENDBRANCH   1   9
TORSDOF 10
ENDMDL
MODEL 6
REMARK VINA RESULT:    -4.358      1.679      2.968
REMARK INTER + INTRA:          -8.225
REMARK INTER:                  -6.859
REMARK INTRA:                  -1.365
REMARK UNBOUND:                -1.319
REMARK SMILES CCCCCCCCCCCC(=O)[O-]
REMARK SMILES IDX 7 1 8 2 9 3 10 4 11 5 12 6 13 7 14 8 6 9 5 10 4 11 3 12 2 13
REMARK SMILES IDX 1 14
REMARK H PARENT
REMARK Flexibility Score: inf
ROOT
ATOM      1  C   UNL     1     -12.478 -27.876 -34.487  1.00  0.00     0.000 C 
ENDROOT
BRANCH   1   2
ATOM      2  C   UNL     1     -11.179 -27.397 -35.160  1.00  0.00     0.000 C 
BRANCH   2   3
ATOM      3  C   UNL     1     -11.192 -25.890 -35.461  1.00  0.00     0.000 C 
BRANCH   3   4
ATOM      4  C   UNL     1     -12.574 -25.251 -35.232  1.00  0.00     0.006 C 
BRANCH   4   5
ATOM      5  C   UNL     1     -12.733 -23.930 -35.996  1.00  0.00     0.053 C 
BRANCH   5   6
ATOM      6  C   UNL     1     -12.773 -22.753 -35.070  1.00  0.00     0.041 C 
ATOM      7  O   UNL     1     -12.589 -22.913 -33.834  1.00  0.00    -0.550 OA
ATOM      8  O   UNL     1     -12.977 -21.475 -35.575  1.00  0.00    -0.550 OA
ENDBRANCH   5   6
ENDBRANCH   4   5
ENDBRANCH   3   4
ENDBRANCH   2   3
ENDBRANCH   1   2
BRANCH   1   9
ATOM      9  C   UNL     1     -12.217 -28.662 -33.191  1.00  0.00     0.000 C 
BRANCH   9  10
ATOM     10  C   UNL     1     -13.010 -28.108 -31.993  1.00  0.00    -0.000 C 
BRANCH  10  11
ATOM     11  C   UNL     1     -13.317 -26.608 -32.131  1.00  0.00    -0.000 C 
BRANCH  11  12
ATOM     12  C   UNL     1     -12.497 -25.744 -31.157  1.00  0.00    -0.000 C 
BRANCH  12  13
ATOM     13  C   UNL     1     -11.144 -25.317 -31.747  1.00  0.00    -0.003 C 
ATOM     14  C   UNL     1      -9.982 -26.177 -31.250  1.00  0.00     0.004 C 
ENDBRANCH  12  13
ENDBRANCH  11  12
ENDBRANCH  10  11
ENDBRANCH   9  10
ENDBRANCH   1   9
TORSDOF 10
ENDMDL
MODEL 7
REMARK VINA RESULT:    -4.358      1.144      3.430
REMARK INTER + INTRA:          -8.224
REMARK INTER:                  -6.865
REMARK INTRA:                  -1.359
REMARK UNBOUND:                -1.319
REMARK SMILES CCCCCCCCCCCC(=O)[O-]
REMARK SMILES IDX 7 1 8 2 9 3 10 4 11 5 12 6 13 7 14 8 6 9 5 10 4 11 3 12 2 13
REMARK SMILES IDX 1 14
REMARK H PARENT
REMARK Flexibility Score: inf
ROOT
ATOM      1  C   UNL     1     -10.448 -27.086 -31.069  1.00  0.00     0.000 C 
ENDROOT
BRANCH   1   2
ATOM      2  C   UNL     1     -10.438 -25.728 -31.792  1.00  0.00     0.000 C 
BRANCH   2   3
ATOM      3  C   UNL     1     -11.576 -24.805 -31.326  1.00  0.00     0.000 C 
BRANCH   3   4
ATOM      4  C   UNL     1     -12.481 -24.346 -32.483  1.00  0.00     0.006 C 
BRANCH   4   5
ATOM      5  C   UNL     1     -11.929 -24.770 -33.851  1.00  0.00     0.053 C 
BRANCH   5   6
ATOM      6  C   UNL     1     -12.573 -24.010 -34.970  1.00  0.00     0.041 C 
ATOM      7  O   UNL     1     -12.789 -22.774 -34.855  1.00  0.00    -0.550 OA
ATOM      8  O   UNL     1     -12.903 -24.658 -36.153  1.00  0.00    -0.550 OA
ENDBRANCH   5   6
ENDBRANCH   4   5
ENDBRANCH   3   4
ENDBRANCH   2   3
ENDBRANCH   1   2
BRANCH   1   9
ATOM      9  C   UNL     1     -11.807 -27.402 -30.423  1.00  0.00     0.000 C 
BRANCH   9  10
ATOM     10  C   UNL     1     -12.546 -28.551 -31.133  1.00  0.00    -0.000 C 
BRANCH  10  11
ATOM     11  C   UNL     1     -13.181 -28.113 -32.463  1.00  0.00    -0.000 C 
BRANCH  11  12
ATOM     12  C   UNL     1     -12.358 -28.555 -33.685  1.00  0.00    -0.000 C 
BRANCH  12  13
ATOM     13  C   UNL     1     -12.916 -27.997 -35.003  1.00  0.00    -0.003 C 
ATOM     14  C   UNL     1     -14.373 -27.549 -34.888  1.00  0.00     0.004 C 
ENDBRANCH  12  13
ENDBRANCH  11  12
ENDBRANCH  10  11
ENDBRANCH   9  10
ENDBRANCH   1   9
TORSDOF 10
ENDMDL
MODEL 8
REMARK VINA RESULT:    -4.237      1.590      2.928
REMARK INTER + INTRA:          -8.033
REMARK INTER:                  -6.931
REMARK INTRA:                  -1.102
REMARK UNBOUND:                -1.319
REMARK SMILES CCCCCCCCCCCC(=O)[O-]
REMARK SMILES IDX 7 1 8 2 9 3 10 4 11 5 12 6 13 7 14 8 6 9 5 10 4 11 3 12 2 13
REMARK SMILES IDX 1 14
REMARK H PARENT
REMARK Flexibility Score: inf
ROOT
ATOM      1  C   UNL     1     -10.983 -26.904 -30.166  1.00  0.00     0.000 C 
ENDROOT
BRANCH   1   2
ATOM      2  C   UNL     1     -11.436 -28.274 -30.702  1.00  0.00     0.000 C 
BRANCH   2   3
ATOM      3  C   UNL     1     -12.922 -28.290 -31.096  1.00  0.00     0.000 C 
BRANCH   3   4
ATOM      4  C   UNL     1     -13.140 -28.052 -32.601  1.00  0.00     0.006 C 
BRANCH   4   5
ATOM      5  C   UNL     1     -11.903 -28.425 -33.430  1.00  0.00     0.053 C 
BRANCH   5   6
ATOM      6  C   UNL     1     -11.912 -27.758 -34.772  1.00  0.00     0.041 C 
ATOM      7  O   UNL     1     -10.895 -27.133 -35.175  1.00  0.00    -0.550 OA
ATOM      8  O   UNL     1     -13.028 -27.857 -35.592  1.00  0.00    -0.550 OA
ENDBRANCH   5   6
ENDBRANCH   4   5
ENDBRANCH   3   4
ENDBRANCH   2   3
ENDBRANCH   1   2
BRANCH   1   9
ATOM      9  C   UNL     1     -10.060 -26.161 -31.147  1.00  0.00     0.000 C 
BRANCH   9  10
ATOM     10  C   UNL     1     -10.542 -24.729 -31.443  1.00  0.00    -0.000 C 
BRANCH  10  11
ATOM     11  C   UNL     1     -12.031 -24.673 -31.820  1.00  0.00    -0.000 C 
BRANCH  11  12
ATOM     12  C   UNL     1     -12.256 -24.301 -33.295  1.00  0.00    -0.000 C 
BRANCH  12  13
ATOM     13  C   UNL     1     -12.284 -22.781 -33.521  1.00  0.00    -0.003 C 
ATOM     14  C   UNL     1     -12.899 -22.392 -34.865  1.00  0.00     0.004 C 
ENDBRANCH  12  13
ENDBRANCH  11  12
ENDBRANCH  10  11
ENDBRANCH   9  10
ENDBRANCH   1   9
TORSDOF 10
ENDMDL
MODEL 9
REMARK VINA RESULT:    -4.165      3.110      5.093
REMARK INTER + INTRA:          -7.918
REMARK INTER:                  -7.042
REMARK INTRA:                  -0.876
REMARK UNBOUND:                -1.319
REMARK SMILES CCCCCCCCCCCC(=O)[O-]
REMARK SMILES IDX 7 1 8 2 9 3 10 4 11 5 12 6 13 7 14 8 6 9 5 10 4 11 3 12 2 13
REMARK SMILES IDX 1 14
REMARK H PARENT
REMARK Flexibility Score: inf
ROOT
ATOM      1  C   UNL     1     -12.563 -25.609 -35.652  1.00  0.00     0.000 C 
ENDROOT
BRANCH   1   2
ATOM      2  C   UNL     1     -12.687 -24.090 -35.867  1.00  0.00     0.000 C 
BRANCH   2   3
ATOM      3  C   UNL     1     -12.741 -23.311 -34.542  1.00  0.00     0.000 C 
BRANCH   3   4
ATOM      4  C   UNL     1     -12.999 -21.808 -34.748  1.00  0.00     0.006 C 
BRANCH   4   5
ATOM      5  C   UNL     1     -12.053 -21.196 -35.790  1.00  0.00     0.053 C 
BRANCH   5   6
ATOM      6  C   UNL     1     -12.431 -19.785 -36.124  1.00  0.00     0.041 C 
ATOM      7  O   UNL     1     -11.579 -19.003 -36.623  1.00  0.00    -0.550 OA
ATOM      8  O   UNL     1     -13.732 -19.345 -35.918  1.00  0.00    -0.550 OA
ENDBRANCH   5   6
ENDBRANCH   4   5
ENDBRANCH   3   4
ENDBRANCH   2   3
ENDBRANCH   1   2
BRANCH   1   9
ATOM      9  C   UNL     1     -13.864 -26.360 -35.984  1.00  0.00     0.000 C 
BRANCH   9  10
ATOM     10  C   UNL     1     -14.171 -27.484 -34.977  1.00  0.00    -0.000 C 
BRANCH  10  11
ATOM     11  C   UNL     1     -12.922 -27.946 -34.209  1.00  0.00    -0.000 C 
BRANCH  11  12
ATOM     12  C   UNL     1     -13.140 -27.973 -32.686  1.00  0.00    -0.000 C 
BRANCH  12  13
ATOM     13  C   UNL     1     -12.934 -26.595 -32.038  1.00  0.00    -0.003 C 
ATOM     14  C   UNL     1     -11.509 -26.068 -32.204  1.00  0.00     0.004 C 
ENDBRANCH  12  13
ENDBRANCH  11  12
ENDBRANCH  10  11
ENDBRANCH   9  10
ENDBRANCH   1   9
TORSDOF 10
ENDMDL
