MODEL 1
REMARK VINA RESULT:    -5.327      0.000      0.000
REMARK INTER + INTRA:          -6.002
REMARK INTER:                  -5.950
REMARK INTRA:                  -0.052
REMARK UNBOUND:                -0.052
REMARK SMILES COc1cc2ccc(=O)oc2c(O)c1O
REMARK SMILES IDX 3 1 14 2 12 3 11 4 5 5 4 6 6 7 7 8 8 9 9 10 10 11 2 12 1 13
REMARK SMILES IDX 15 14 13 16
REMARK H PARENT 15 15 13 17
REMARK Flexibility Score: inf
ROOT
ATOM      1  C   UNL     1      11.362  -7.842  -9.899  1.00  0.00     0.165 A 
ATOM      2  C   UNL     1      11.399  -6.730  -9.033  1.00  0.00     0.204 A 
ATOM      3  C   UNL     1      10.479  -6.627  -7.973  1.00  0.00     0.205 A 
ATOM      4  C   UNL     1       9.524  -7.630  -7.775  1.00  0.00     0.184 A 
ATOM      5  C   UNL     1       9.483  -8.744  -8.639  1.00  0.00     0.025 A 
ATOM      6  C   UNL     1      10.397  -8.848  -9.694  1.00  0.00     0.062 A 
ATOM      7  C   UNL     1       8.515  -9.729  -8.413  1.00  0.00     0.020 A 
ATOM      8  C   UNL     1       7.626  -9.585  -7.350  1.00  0.00     0.094 A 
ATOM      9  C   UNL     1       7.724  -8.454  -6.534  1.00  0.00     0.336 A 
ATOM     10  O   UNL     1       6.930  -8.303  -5.569  1.00  0.00    -0.246 OA
ATOM     11  O   UNL     1       8.654  -7.532  -6.771  1.00  0.00    -0.419 OA
ENDROOT
BRANCH   1  12
ATOM     12  O   UNL     1      12.294  -7.913 -10.947  1.00  0.00    -0.493 OA
ATOM     13  C   UNL     1      12.035  -8.487 -12.224  1.00  0.00     0.278 C 
ENDBRANCH   1  12
BRANCH   2  14
ATOM     14  O   UNL     1      12.345  -5.721  -9.217  1.00  0.00    -0.502 OA
ATOM     15  H   UNL     1      12.968  -5.419  -8.477  1.00  0.00     0.293 HD
ENDBRANCH   2  14
BRANCH   3  16
ATOM     16  O   UNL     1      10.505  -5.532  -7.108  1.00  0.00    -0.502 OA
ATOM     17  H   UNL     1       9.845  -4.768  -7.184  1.00  0.00     0.293 HD
ENDBRANCH   3  16
TORSDOF 3
ENDMDL
MODEL 2
REMARK VINA RESULT:    -5.279      1.851      4.659
REMARK INTER + INTRA:          -5.948
REMARK INTER:                  -5.906
REMARK INTRA:                  -0.043
REMARK UNBOUND:                -0.052
REMARK SMILES COc1cc2ccc(=O)oc2c(O)c1O
REMARK SMILES IDX 3 1 14 2 12 3 11 4 5 5 4 6 6 7 7 8 8 9 9 10 10 11 2 12 1 13
REMARK SMILES IDX 15 14 13 16
REMARK H PARENT 15 15 13 17
REMARK Flexibility Score: inf
ROOT
ATOM      1  C   UNL     1       8.565  -6.288  -7.408  1.00  0.00     0.165 A 
ATOM      2  C   UNL     1       9.928  -5.945  -7.518  1.00  0.00     0.204 A 
ATOM      3  C   UNL     1      10.667  -6.333  -8.651  1.00  0.00     0.205 A 
ATOM      4  C   UNL     1      10.049  -7.061  -9.674  1.00  0.00     0.184 A 
ATOM      5  C   UNL     1       8.686  -7.406  -9.568  1.00  0.00     0.025 A 
ATOM      6  C   UNL     1       7.950  -7.022  -8.442  1.00  0.00     0.062 A 
ATOM      7  C   UNL     1       8.099  -8.135 -10.609  1.00  0.00     0.020 A 
ATOM      8  C   UNL     1       8.870  -8.497 -11.711  1.00  0.00     0.094 A 
ATOM      9  C   UNL     1      10.216  -8.121 -11.749  1.00  0.00     0.336 A 
ATOM     10  O   UNL     1      10.931  -8.439 -12.736  1.00  0.00    -0.246 OA
ATOM     11  O   UNL     1      10.749  -7.429 -10.746  1.00  0.00    -0.419 OA
ENDROOT
BRANCH   1  12
ATOM     12  O   UNL     1       7.857  -5.884  -6.264  1.00  0.00    -0.493 OA
ATOM     13  C   UNL     1       7.788  -6.628  -5.051  1.00  0.00     0.278 C 
ENDBRANCH   1  12
BRANCH   2  14
ATOM     14  O   UNL     1      10.558  -5.219  -6.507  1.00  0.00    -0.502 OA
ATOM     15  H   UNL     1      10.970  -5.663  -5.695  1.00  0.00     0.293 HD
ENDBRANCH   2  14
BRANCH   3  16
ATOM     16  O   UNL     1      12.017  -6.000  -8.773  1.00  0.00    -0.502 OA
ATOM     17  H   UNL     1      12.746  -6.701  -8.792  1.00  0.00     0.293 HD
ENDBRANCH   3  16
TORSDOF 3
ENDMDL
MODEL 3
REMARK VINA RESULT:    -5.240     15.170     16.959
REMARK INTER + INTRA:          -5.904
REMARK INTER:                  -5.855
REMARK INTRA:                  -0.049
REMARK UNBOUND:                -0.052
REMARK SMILES COc1cc2ccc(=O)oc2c(O)c1O
REMARK SMILES IDX 3 1 14 2 12 3 11 4 5 5 4 6 6 7 7 8 8 9 9 10 10 11 2 12 1 13
REMARK SMILES IDX 15 14 13 16
REMARK H PARENT 15 15 13 17
REMARK Flexibility Score: inf
ROOT
ATOM      1  C   UNL     1      20.340  -0.137 -20.044  1.00  0.00     0.165 A 
ATOM      2  C   UNL     1      19.252  -0.424 -19.195  1.00  0.00     0.204 A 
ATOM      3  C   UNL     1      19.298  -0.058 -17.837  1.00  0.00     0.205 A 
ATOM      4  C   UNL     1      20.426   0.592 -17.325  1.00  0.00     0.184 A 
ATOM      5  C   UNL     1      21.517   0.881 -18.171  1.00  0.00     0.025 A 
ATOM      6  C   UNL     1      21.473   0.518 -19.522  1.00  0.00     0.062 A 
ATOM      7  C   UNL     1      22.630   1.532 -17.626  1.00  0.00     0.020 A 
ATOM      8  C   UNL     1      22.630   1.874 -16.276  1.00  0.00     0.094 A 
ATOM      9  C   UNL     1      21.514   1.556 -15.496  1.00  0.00     0.336 A 
ATOM     10  O   UNL     1      21.494   1.856 -14.273  1.00  0.00    -0.246 OA
ATOM     11  O   UNL     1      20.469   0.937 -16.038  1.00  0.00    -0.419 OA
ENDROOT
BRANCH   1  12
ATOM     12  O   UNL     1      20.260  -0.515 -21.394  1.00  0.00    -0.493 OA
ATOM     13  C   UNL     1      21.337  -0.432 -22.323  1.00  0.00     0.278 C 
ENDBRANCH   1  12
BRANCH   2  14
ATOM     14  O   UNL     1      18.119  -1.071 -19.690  1.00  0.00    -0.502 OA
ATOM     15  H   UNL     1      18.156  -1.699 -20.484  1.00  0.00     0.293 HD
ENDBRANCH   2  14
BRANCH   3  16
ATOM     16  O   UNL     1      18.228  -0.336 -16.985  1.00  0.00    -0.502 OA
ATOM     17  H   UNL     1      18.280  -0.188 -15.985  1.00  0.00     0.293 HD
ENDBRANCH   3  16
TORSDOF 3
ENDMDL
MODEL 4
REMARK VINA RESULT:    -5.213      2.384      2.934
REMARK INTER + INTRA:          -5.875
REMARK INTER:                  -5.811
REMARK INTRA:                  -0.064
REMARK UNBOUND:                -0.052
REMARK SMILES COc1cc2ccc(=O)oc2c(O)c1O
REMARK SMILES IDX 3 1 14 2 12 3 11 4 5 5 4 6 6 7 7 8 8 9 9 10 10 11 2 12 1 13
REMARK SMILES IDX 15 14 13 16
REMARK H PARENT 15 15 13 17
REMARK Flexibility Score: inf
ROOT
ATOM      1  C   UNL     1       9.428  -6.859 -11.248  1.00  0.00     0.165 A 
ATOM      2  C   UNL     1      10.734  -6.614 -10.776  1.00  0.00     0.204 A 
ATOM      3  C   UNL     1      10.941  -6.205  -9.446  1.00  0.00     0.205 A 
ATOM      4  C   UNL     1       9.849  -6.039  -8.586  1.00  0.00     0.184 A 
ATOM      5  C   UNL     1       8.541  -6.283  -9.055  1.00  0.00     0.025 A 
ATOM      6  C   UNL     1       8.334  -6.690 -10.378  1.00  0.00     0.062 A 
ATOM      7  C   UNL     1       7.471  -6.108  -8.170  1.00  0.00     0.020 A 
ATOM      8  C   UNL     1       7.725  -5.701  -6.861  1.00  0.00     0.094 A 
ATOM      9  C   UNL     1       9.047  -5.478  -6.466  1.00  0.00     0.336 A 
ATOM     10  O   UNL     1       9.298  -5.109  -5.288  1.00  0.00    -0.246 OA
ATOM     11  O   UNL     1      10.045  -5.651  -7.327  1.00  0.00    -0.419 OA
ENDROOT
BRANCH   1  12
ATOM     12  O   UNL     1       9.258  -7.267 -12.581  1.00  0.00    -0.493 OA
ATOM     13  C   UNL     1       9.174  -8.623 -13.009  1.00  0.00     0.278 C 
ENDBRANCH   1  12
BRANCH   2  14
ATOM     14  O   UNL     1      11.834  -6.775 -11.620  1.00  0.00    -0.502 OA
ATOM     15  H   UNL     1      11.780  -6.613 -12.618  1.00  0.00     0.293 HD
ENDBRANCH   2  14
BRANCH   3  16
ATOM     16  O   UNL     1      12.228  -5.959  -8.965  1.00  0.00    -0.502 OA
ATOM     17  H   UNL     1      12.709  -6.605  -8.352  1.00  0.00     0.293 HD
ENDBRANCH   3  16
TORSDOF 3
ENDMDL
MODEL 5
REMARK VINA RESULT:    -5.178      1.516      2.681
REMARK INTER + INTRA:          -5.835
REMARK INTER:                  -5.766
REMARK INTRA:                  -0.069
REMARK UNBOUND:                -0.052
REMARK SMILES COc1cc2ccc(=O)oc2c(O)c1O
REMARK SMILES IDX 3 1 14 2 12 3 11 4 5 5 4 6 6 7 7 8 8 9 9 10 10 11 2 12 1 13
REMARK SMILES IDX 15 14 13 16
REMARK H PARENT 15 15 13 17
REMARK Flexibility Score: inf
ROOT
ATOM      1  C   UNL     1      11.300  -6.699  -9.147  1.00  0.00     0.165 A 
ATOM      2  C   UNL     1      11.008  -8.057  -9.387  1.00  0.00     0.204 A 
ATOM      3  C   UNL     1       9.975  -8.695  -8.675  1.00  0.00     0.205 A 
ATOM      4  C   UNL     1       9.235  -7.982  -7.725  1.00  0.00     0.184 A 
ATOM      5  C   UNL     1       9.524  -6.623  -7.483  1.00  0.00     0.025 A 
ATOM      6  C   UNL     1      10.551  -5.987  -8.190  1.00  0.00     0.062 A 
ATOM      7  C   UNL     1       8.765  -5.939  -6.527  1.00  0.00     0.020 A 
ATOM      8  C   UNL     1       7.752  -6.612  -5.847  1.00  0.00     0.094 A 
ATOM      9  C   UNL     1       7.521  -7.960  -6.138  1.00  0.00     0.336 A 
ATOM     10  O   UNL     1       6.611  -8.587  -5.534  1.00  0.00    -0.246 OA
ATOM     11  O   UNL     1       8.258  -8.586  -7.051  1.00  0.00    -0.419 OA
ENDROOT
BRANCH   1  12
ATOM     12  O   UNL     1      12.337  -6.093  -9.876  1.00  0.00    -0.493 OA
ATOM     13  C   UNL     1      12.149  -5.293 -11.039  1.00  0.00     0.278 C 
ENDBRANCH   1  12
BRANCH   2  14
ATOM     14  O   UNL     1      11.736  -8.783 -10.330  1.00  0.00    -0.502 OA
ATOM     15  H   UNL     1      12.749  -8.793 -10.343  1.00  0.00     0.293 HD
ENDBRANCH   2  14
BRANCH   3  16
ATOM     16  O   UNL     1       9.675 -10.039  -8.901  1.00  0.00    -0.502 OA
ATOM     17  H   UNL     1       9.236 -10.359  -9.755  1.00  0.00     0.293 HD
ENDBRANCH   3  16
TORSDOF 3
ENDMDL
MODEL 6
REMARK VINA RESULT:    -5.095      1.787      5.279
REMARK INTER + INTRA:          -5.743
REMARK INTER:                  -5.675
REMARK INTRA:                  -0.068
REMARK UNBOUND:                -0.052
REMARK SMILES COc1cc2ccc(=O)oc2c(O)c1O
REMARK SMILES IDX 3 1 14 2 12 3 11 4 5 5 4 6 6 7 7 8 8 9 9 10 10 11 2 12 1 13
REMARK SMILES IDX 15 14 13 16
REMARK H PARENT 15 15 13 17
REMARK Flexibility Score: inf
ROOT
ATOM      1  C   UNL     1       8.352  -6.473  -6.623  1.00  0.00     0.165 A 
ATOM      2  C   UNL     1       7.997  -7.832  -6.742  1.00  0.00     0.204 A 
ATOM      3  C   UNL     1       8.686  -8.669  -7.640  1.00  0.00     0.205 A 
ATOM      4  C   UNL     1       9.728  -8.152  -8.418  1.00  0.00     0.184 A 
ATOM      5  C   UNL     1      10.087  -6.793  -8.302  1.00  0.00     0.025 A 
ATOM      6  C   UNL     1       9.402  -5.960  -7.410  1.00  0.00     0.062 A 
ATOM      7  C   UNL     1      11.133  -6.309  -9.095  1.00  0.00     0.020 A 
ATOM      8  C   UNL     1      11.787  -7.174  -9.970  1.00  0.00     0.094 A 
ATOM      9  C   UNL     1      11.377  -8.510 -10.033  1.00  0.00     0.336 A 
ATOM     10  O   UNL     1      11.954  -9.308 -10.818  1.00  0.00    -0.246 OA
ATOM     11  O   UNL     1      10.379  -8.944  -9.269  1.00  0.00    -0.419 OA
ENDROOT
BRANCH   1  12
ATOM     12  O   UNL     1       7.643  -5.668  -5.717  1.00  0.00    -0.493 OA
ATOM     13  C   UNL     1       8.161  -5.197  -4.476  1.00  0.00     0.278 C 
ENDBRANCH   1  12
BRANCH   2  14
ATOM     14  O   UNL     1       6.960  -8.363  -5.973  1.00  0.00    -0.502 OA
ATOM     15  H   UNL     1       6.871  -8.180  -4.981  1.00  0.00     0.293 HD
ENDBRANCH   2  14
BRANCH   3  16
ATOM     16  O   UNL     1       8.344 -10.016  -7.769  1.00  0.00    -0.502 OA
ATOM     17  H   UNL     1       7.383 -10.328  -7.804  1.00  0.00     0.293 HD
ENDBRANCH   3  16
TORSDOF 3
ENDMDL
MODEL 7
REMARK VINA RESULT:    -5.064     14.358     16.614
REMARK INTER + INTRA:          -5.708
REMARK INTER:                  -5.656
REMARK INTRA:                  -0.052
REMARK UNBOUND:                -0.052
REMARK SMILES COc1cc2ccc(=O)oc2c(O)c1O
REMARK SMILES IDX 3 1 14 2 12 3 11 4 5 5 4 6 6 7 7 8 8 9 9 10 10 11 2 12 1 13
REMARK SMILES IDX 15 14 13 16
REMARK H PARENT 15 15 13 17
REMARK Flexibility Score: inf
ROOT
ATOM      1  C   UNL     1      19.981   1.081 -15.444  1.00  0.00     0.165 A 
ATOM      2  C   UNL     1      21.278   1.393 -15.900  1.00  0.00     0.204 A 
ATOM      3  C   UNL     1      21.681   1.026 -17.197  1.00  0.00     0.205 A 
ATOM      4  C   UNL     1      20.794   0.347 -18.040  1.00  0.00     0.184 A 
ATOM      5  C   UNL     1      19.495   0.032 -17.588  1.00  0.00     0.025 A 
ATOM      6  C   UNL     1      19.093   0.397 -16.299  1.00  0.00     0.062 A 
ATOM      7  C   UNL     1      18.633  -0.647 -18.456  1.00  0.00     0.020 A 
ATOM      8  C   UNL     1      19.077  -0.991 -19.732  1.00  0.00     0.094 A 
ATOM      9  C   UNL     1      20.377  -0.647 -20.112  1.00  0.00     0.336 A 
ATOM     10  O   UNL     1      20.798  -0.949 -21.260  1.00  0.00    -0.246 OA
ATOM     11  O   UNL     1      21.177  -0.001 -19.267  1.00  0.00    -0.419 OA
ENDROOT
BRANCH   1  12
ATOM     12  O   UNL     1      19.611   1.463 -14.145  1.00  0.00    -0.493 OA
ATOM     13  C   UNL     1      18.305   1.884 -13.766  1.00  0.00     0.278 C 
ENDBRANCH   1  12
BRANCH   2  14
ATOM     14  O   UNL     1      22.175   2.070 -15.072  1.00  0.00    -0.502 OA
ATOM     15  H   UNL     1      22.008   2.199 -14.081  1.00  0.00     0.293 HD
ENDBRANCH   2  14
BRANCH   3  16
ATOM     16  O   UNL     1      22.962   1.329 -17.660  1.00  0.00    -0.502 OA
ATOM     17  H   UNL     1      23.365   2.253 -17.570  1.00  0.00     0.293 HD
ENDBRANCH   3  16
TORSDOF 3
ENDMDL
MODEL 8
REMARK VINA RESULT:    -5.051      3.541      5.062
REMARK INTER + INTRA:          -5.694
REMARK INTER:                  -5.624
REMARK INTRA:                  -0.069
REMARK UNBOUND:                -0.052
REMARK SMILES COc1cc2ccc(=O)oc2c(O)c1O
REMARK SMILES IDX 3 1 14 2 12 3 11 4 5 5 4 6 6 7 7 8 8 9 9 10 10 11 2 12 1 13
REMARK SMILES IDX 15 14 13 16
REMARK H PARENT 15 15 13 17
REMARK Flexibility Score: inf
ROOT
ATOM      1  C   UNL     1       8.354  -7.792  -8.457  1.00  0.00     0.165 A 
ATOM      2  C   UNL     1       8.108  -6.532  -7.873  1.00  0.00     0.204 A 
ATOM      3  C   UNL     1       7.875  -5.408  -8.687  1.00  0.00     0.205 A 
ATOM      4  C   UNL     1       7.887  -5.537 -10.080  1.00  0.00     0.184 A 
ATOM      5  C   UNL     1       8.133  -6.796 -10.668  1.00  0.00     0.025 A 
ATOM      6  C   UNL     1       8.364  -7.915  -9.860  1.00  0.00     0.062 A 
ATOM      7  C   UNL     1       8.138  -6.891 -12.064  1.00  0.00     0.020 A 
ATOM      8  C   UNL     1       7.902  -5.750 -12.829  1.00  0.00     0.094 A 
ATOM      9  C   UNL     1       7.666  -4.535 -12.178  1.00  0.00     0.336 A 
ATOM     10  O   UNL     1       7.452  -3.492 -12.851  1.00  0.00    -0.246 OA
ATOM     11  O   UNL     1       7.667  -4.473 -10.850  1.00  0.00    -0.419 OA
ENDROOT
BRANCH   1  12
ATOM     12  O   UNL     1       8.581  -8.893  -7.615  1.00  0.00    -0.493 OA
ATOM     13  C   UNL     1       7.632  -9.921  -7.353  1.00  0.00     0.278 C 
ENDBRANCH   1  12
BRANCH   2  14
ATOM     14  O   UNL     1       8.092  -6.386  -6.486  1.00  0.00    -0.502 OA
ATOM     15  H   UNL     1       7.939  -5.492  -6.036  1.00  0.00     0.293 HD
ENDBRANCH   2  14
BRANCH   3  16
ATOM     16  O   UNL     1       7.631  -4.155  -8.122  1.00  0.00    -0.502 OA
ATOM     17  H   UNL     1       7.133  -4.044  -7.249  1.00  0.00     0.293 HD
ENDBRANCH   3  16
TORSDOF 3
ENDMDL
MODEL 9
REMARK VINA RESULT:    -4.962      3.609      4.593
REMARK INTER + INTRA:          -5.594
REMARK INTER:                  -5.545
REMARK INTRA:                  -0.049
REMARK UNBOUND:                -0.052
REMARK SMILES COc1cc2ccc(=O)oc2c(O)c1O
REMARK SMILES IDX 3 1 14 2 12 3 11 4 5 5 4 6 6 7 7 8 8 9 9 10 10 11 2 12 1 13
REMARK SMILES IDX 15 14 13 16
REMARK H PARENT 15 15 13 17
REMARK Flexibility Score: inf
ROOT
ATOM      1  C   UNL     1       7.613  -4.447 -10.710  1.00  0.00     0.165 A 
ATOM      2  C   UNL     1       7.235  -4.423  -9.352  1.00  0.00     0.204 A 
ATOM      3  C   UNL     1       7.953  -5.176  -8.403  1.00  0.00     0.205 A 
ATOM      4  C   UNL     1       9.046  -5.951  -8.807  1.00  0.00     0.184 A 
ATOM      5  C   UNL     1       9.428  -5.977 -10.164  1.00  0.00     0.025 A 
ATOM      6  C   UNL     1       8.715  -5.230 -11.108  1.00  0.00     0.062 A 
ATOM      7  C   UNL     1      10.525  -6.763 -10.534  1.00  0.00     0.020 A 
ATOM      8  C   UNL     1      11.206  -7.491  -9.560  1.00  0.00     0.094 A 
ATOM      9  C   UNL     1      10.771  -7.417  -8.233  1.00  0.00     0.336 A 
ATOM     10  O   UNL     1      11.371  -8.068  -7.337  1.00  0.00    -0.246 OA
ATOM     11  O   UNL     1       9.725  -6.663  -7.909  1.00  0.00    -0.419 OA
ENDROOT
BRANCH   1  12
ATOM     12  O   UNL     1       6.875  -3.684 -11.629  1.00  0.00    -0.493 OA
ATOM     13  C   UNL     1       7.266  -3.440 -12.977  1.00  0.00     0.278 C 
ENDBRANCH   1  12
BRANCH   2  14
ATOM     14  O   UNL     1       6.148  -3.656  -8.933  1.00  0.00    -0.502 OA
ATOM     15  H   UNL     1       5.193  -3.887  -9.179  1.00  0.00     0.293 HD
ENDBRANCH   2  14
BRANCH   3  16
ATOM     16  O   UNL     1       7.589  -5.162  -7.056  1.00  0.00    -0.502 OA
ATOM     17  H   UNL     1       6.672  -4.867  -6.747  1.00  0.00     0.293 HD
ENDBRANCH   3  16
TORSDOF 3
ENDMDL
