MODEL 1
REMARK VINA RESULT:    -3.573      0.000      0.000
REMARK INTER + INTRA:          -4.160
REMARK INTER:                  -4.095
REMARK INTRA:                  -0.065
REMARK UNBOUND:                -0.065
REMARK SMILES CC(C)[C@H]([NH3+])C(=O)[O-]
REMARK SMILES IDX 4 1 5 2 6 6 7 7 8 8 2 9 1 10 3 11
REMARK H PARENT 5 3 5 4 5 5
REMARK Flexibility Score: inf
ROOT
ATOM      1  C   UNL     1      64.295  -2.451   4.557  1.00  0.00     0.230 C 
ENDROOT
BRANCH   1   2
ATOM      2  N   UNL     1      63.430  -1.805   3.556  1.00  0.00    -0.350 N 
ATOM      3  H   UNL     1      62.799  -1.120   4.035  1.00  0.00     0.345 HD
ATOM      4  H   UNL     1      62.825  -2.514   3.085  1.00  0.00     0.345 HD
ATOM      5  H   UNL     1      63.991  -1.293   2.839  1.00  0.00     0.345 HD
ENDBRANCH   1   2
BRANCH   1   6
ATOM      6  C   UNL     1      65.014  -1.422   5.395  1.00  0.00     0.099 C 
ATOM      7  O   UNL     1      66.268  -1.320   5.359  1.00  0.00    -0.544 OA
ATOM      8  O   UNL     1      64.288  -0.607   6.256  1.00  0.00    -0.544 OA
ENDBRANCH   1   6
BRANCH   1   9
ATOM      9  C   UNL     1      65.304  -3.462   3.932  1.00  0.00     0.047 C 
ATOM     10  C   UNL     1      65.214  -3.551   2.399  1.00  0.00     0.014 C 
ATOM     11  C   UNL     1      65.172  -4.860   4.552  1.00  0.00     0.014 C 
ENDBRANCH   1   9
TORSDOF 3
ENDMDL
MODEL 2
REMARK VINA RESULT:    -3.456      1.969      2.306
REMARK INTER + INTRA:          -4.025
REMARK INTER:                  -3.967
REMARK INTRA:                  -0.058
REMARK UNBOUND:                -0.065
REMARK SMILES CC(C)[C@H]([NH3+])C(=O)[O-]
REMARK SMILES IDX 4 1 5 2 6 6 7 7 8 8 2 9 1 10 3 11
REMARK H PARENT 5 3 5 4 5 5
REMARK Flexibility Score: inf
ROOT
ATOM      1  C   UNL     1      65.306  -2.936   4.351  1.00  0.00     0.230 C 
ENDROOT
BRANCH   1   2
ATOM      2  N   UNL     1      64.606  -4.231   4.382  1.00  0.00    -0.350 N 
ATOM      3  H   UNL     1      64.424  -4.550   3.401  1.00  0.00     0.345 HD
ATOM      4  H   UNL     1      63.682  -4.135   4.858  1.00  0.00     0.345 HD
ATOM      5  H   UNL     1      65.174  -4.962   4.866  1.00  0.00     0.345 HD
ENDBRANCH   1   2
BRANCH   1   6
ATOM      6  C   UNL     1      64.324  -1.790   4.387  1.00  0.00     0.099 C 
ATOM      7  O   UNL     1      63.502  -1.613   3.450  1.00  0.00    -0.544 OA
ATOM      8  O   UNL     1      64.358  -0.889   5.444  1.00  0.00    -0.544 OA
ENDBRANCH   1   6
BRANCH   1   9
ATOM      9  C   UNL     1      66.280  -2.797   3.142  1.00  0.00     0.047 C 
ATOM     10  C   UNL     1      66.694  -4.144   2.527  1.00  0.00     0.014 C 
ATOM     11  C   UNL     1      67.525  -1.973   3.501  1.00  0.00     0.014 C 
ENDBRANCH   1   9
TORSDOF 3
ENDMDL
MODEL 3
REMARK VINA RESULT:    -3.295      2.639      3.501
REMARK INTER + INTRA:          -3.841
REMARK INTER:                  -3.780
REMARK INTRA:                  -0.061
REMARK UNBOUND:                -0.065
REMARK SMILES CC(C)[C@H]([NH3+])C(=O)[O-]
REMARK SMILES IDX 4 1 5 2 6 6 7 7 8 8 2 9 1 10 3 11
REMARK H PARENT 5 3 5 4 5 5
REMARK Flexibility Score: inf
ROOT
ATOM      1  C   UNL     1      65.008  -2.361   3.704  1.00  0.00     0.230 C 
ENDROOT
BRANCH   1   2
ATOM      2  N   UNL     1      63.722  -2.279   4.416  1.00  0.00    -0.350 N 
ATOM      3  H   UNL     1      63.681  -1.382   4.955  1.00  0.00     0.345 HD
ATOM      4  H   UNL     1      63.634  -3.062   5.102  1.00  0.00     0.345 HD
ATOM      5  H   UNL     1      62.915  -2.304   3.753  1.00  0.00     0.345 HD
ENDBRANCH   1   2
BRANCH   1   6
ATOM      6  C   UNL     1      65.022  -3.531   2.748  1.00  0.00     0.099 C 
ATOM      7  O   UNL     1      64.522  -3.431   1.597  1.00  0.00    -0.544 OA
ATOM      8  O   UNL     1      65.549  -4.749   3.160  1.00  0.00    -0.544 OA
ENDBRANCH   1   6
BRANCH   1   9
ATOM      9  C   UNL     1      66.235  -2.411   4.662  1.00  0.00     0.047 C 
ATOM     10  C   UNL     1      65.991  -1.715   6.011  1.00  0.00     0.014 C 
ATOM     11  C   UNL     1      67.502  -1.851   3.999  1.00  0.00     0.014 C 
ENDBRANCH   1   9
TORSDOF 3
ENDMDL
MODEL 4
REMARK VINA RESULT:    -3.288      2.554      3.288
REMARK INTER + INTRA:          -3.833
REMARK INTER:                  -3.777
REMARK INTRA:                  -0.056
REMARK UNBOUND:                -0.065
REMARK SMILES CC(C)[C@H]([NH3+])C(=O)[O-]
REMARK SMILES IDX 4 1 5 2 6 6 7 7 8 8 2 9 1 10 3 11
REMARK H PARENT 5 3 5 4 5 5
REMARK Flexibility Score: inf
ROOT
ATOM      1  C   UNL     1      65.219  -2.897   4.712  1.00  0.00     0.230 C 
ENDROOT
BRANCH   1   2
ATOM      2  N   UNL     1      65.927  -4.175   4.539  1.00  0.00    -0.350 N 
ATOM      3  H   UNL     1      66.958  -3.999   4.504  1.00  0.00     0.345 HD
ATOM      4  H   UNL     1      65.653  -4.624   3.636  1.00  0.00     0.345 HD
ATOM      5  H   UNL     1      65.730  -4.832   5.328  1.00  0.00     0.345 HD
ENDBRANCH   1   2
BRANCH   1   6
ATOM      6  C   UNL     1      64.445  -2.534   3.468  1.00  0.00     0.099 C 
ATOM      7  O   UNL     1      63.568  -1.631   3.492  1.00  0.00    -0.544 OA
ATOM      8  O   UNL     1      64.665  -3.240   2.291  1.00  0.00    -0.544 OA
ENDBRANCH   1   6
BRANCH   1   9
ATOM      9  C   UNL     1      66.160  -1.731   5.141  1.00  0.00     0.047 C 
ATOM     10  C   UNL     1      67.510  -1.728   4.405  1.00  0.00     0.014 C 
ATOM     11  C   UNL     1      66.385  -1.705   6.660  1.00  0.00     0.014 C 
ENDBRANCH   1   9
TORSDOF 3
ENDMDL
MODEL 5
REMARK VINA RESULT:    -3.275      1.954      2.337
REMARK INTER + INTRA:          -3.818
REMARK INTER:                  -3.772
REMARK INTRA:                  -0.046
REMARK UNBOUND:                -0.065
REMARK SMILES CC(C)[C@H]([NH3+])C(=O)[O-]
REMARK SMILES IDX 4 1 5 2 6 6 7 7 8 8 2 9 1 10 3 11
REMARK H PARENT 5 3 5 4 5 5
REMARK Flexibility Score: inf
ROOT
ATOM      1  C   UNL     1      65.605  -2.389   3.987  1.00  0.00     0.230 C 
ENDROOT
BRANCH   1   2
ATOM      2  N   UNL     1      66.787  -1.611   4.393  1.00  0.00    -0.350 N 
ATOM      3  H   UNL     1      67.284  -2.114   5.165  1.00  0.00     0.345 HD
ATOM      4  H   UNL     1      66.500  -0.676   4.760  1.00  0.00     0.345 HD
ATOM      5  H   UNL     1      67.453  -1.484   3.598  1.00  0.00     0.345 HD
ENDBRANCH   1   2
BRANCH   1   6
ATOM      6  C   UNL     1      64.333  -1.625   4.267  1.00  0.00     0.099 C 
ATOM      7  O   UNL     1      63.390  -1.612   3.433  1.00  0.00    -0.544 OA
ATOM      8  O   UNL     1      64.219  -0.886   5.438  1.00  0.00    -0.544 OA
ENDBRANCH   1   6
BRANCH   1   9
ATOM      9  C   UNL     1      65.556  -3.806   4.632  1.00  0.00     0.047 C 
ATOM     10  C   UNL     1      66.630  -4.030   5.709  1.00  0.00     0.014 C 
ATOM     11  C   UNL     1      65.626  -4.919   3.576  1.00  0.00     0.014 C 
ENDBRANCH   1   9
TORSDOF 3
ENDMDL
MODEL 6
REMARK VINA RESULT:    -3.268     14.128     14.714
REMARK INTER + INTRA:          -3.811
REMARK INTER:                  -3.760
REMARK INTRA:                  -0.050
REMARK UNBOUND:                -0.065
REMARK SMILES CC(C)[C@H]([NH3+])C(=O)[O-]
REMARK SMILES IDX 4 1 5 2 6 6 7 7 8 8 2 9 1 10 3 11
REMARK H PARENT 5 3 5 4 5 5
REMARK Flexibility Score: inf
ROOT
ATOM      1  C   UNL     1      61.660   9.603  -3.045  1.00  0.00     0.230 C 
ENDROOT
BRANCH   1   2
ATOM      2  N   UNL     1      62.786   8.852  -3.623  1.00  0.00    -0.350 N 
ATOM      3  H   UNL     1      62.520   8.507  -4.576  1.00  0.00     0.345 HD
ATOM      4  H   UNL     1      63.007   8.017  -3.037  1.00  0.00     0.345 HD
ATOM      5  H   UNL     1      63.639   9.450  -3.714  1.00  0.00     0.345 HD
ENDBRANCH   1   2
BRANCH   1   6
ATOM      6  C   UNL     1      61.296   9.067  -1.682  1.00  0.00     0.099 C 
ATOM      7  O   UNL     1      61.553   9.724  -0.639  1.00  0.00    -0.544 OA
ATOM      8  O   UNL     1      60.714   7.810  -1.570  1.00  0.00    -0.544 OA
ENDBRANCH   1   6
BRANCH   1   9
ATOM      9  C   UNL     1      60.412   9.645  -3.977  1.00  0.00     0.047 C 
ATOM     10  C   UNL     1      60.719   9.264  -5.435  1.00  0.00     0.014 C 
ATOM     11  C   UNL     1      59.702  11.006  -3.924  1.00  0.00     0.014 C 
ENDBRANCH   1   9
TORSDOF 3
ENDMDL
MODEL 7
REMARK VINA RESULT:    -3.087      2.232      2.659
REMARK INTER + INTRA:          -3.603
REMARK INTER:                  -3.537
REMARK INTRA:                  -0.065
REMARK UNBOUND:                -0.065
REMARK SMILES CC(C)[C@H]([NH3+])C(=O)[O-]
REMARK SMILES IDX 4 1 5 2 6 6 7 7 8 8 2 9 1 10 3 11
REMARK H PARENT 5 3 5 4 5 5
REMARK Flexibility Score: inf
ROOT
ATOM      1  C   UNL     1      65.249  -4.018   2.494  1.00  0.00     0.230 C 
ENDROOT
BRANCH   1   2
ATOM      2  N   UNL     1      65.977  -3.860   1.224  1.00  0.00    -0.350 N 
ATOM      3  H   UNL     1      65.372  -4.187   0.434  1.00  0.00     0.345 HD
ATOM      4  H   UNL     1      66.840  -4.447   1.223  1.00  0.00     0.345 HD
ATOM      5  H   UNL     1      66.234  -2.862   1.052  1.00  0.00     0.345 HD
ENDBRANCH   1   2
BRANCH   1   6
ATOM      6  C   UNL     1      65.231  -2.724   3.271  1.00  0.00     0.099 C 
ATOM      7  O   UNL     1      66.283  -2.268   3.791  1.00  0.00    -0.544 OA
ATOM      8  O   UNL     1      64.030  -2.051   3.459  1.00  0.00    -0.544 OA
ENDBRANCH   1   6
BRANCH   1   9
ATOM      9  C   UNL     1      65.795  -5.186   3.369  1.00  0.00     0.047 C 
ATOM     10  C   UNL     1      65.913  -6.519   2.612  1.00  0.00     0.014 C 
ATOM     11  C   UNL     1      64.969  -5.376   4.650  1.00  0.00     0.014 C 
ENDBRANCH   1   9
TORSDOF 3
ENDMDL
MODEL 8
REMARK VINA RESULT:    -3.042      2.989      3.737
REMARK INTER + INTRA:          -3.551
REMARK INTER:                  -3.504
REMARK INTRA:                  -0.048
REMARK UNBOUND:                -0.065
REMARK SMILES CC(C)[C@H]([NH3+])C(=O)[O-]
REMARK SMILES IDX 4 1 5 2 6 6 7 7 8 8 2 9 1 10 3 11
REMARK H PARENT 5 3 5 4 5 5
REMARK Flexibility Score: inf
ROOT
ATOM      1  C   UNL     1      65.177  -3.711   3.897  1.00  0.00     0.230 C 
ENDROOT
BRANCH   1   2
ATOM      2  N   UNL     1      66.121  -4.551   4.651  1.00  0.00    -0.350 N 
ATOM      3  H   UNL     1      65.943  -5.559   4.430  1.00  0.00     0.345 HD
ATOM      4  H   UNL     1      65.982  -4.425   5.679  1.00  0.00     0.345 HD
ATOM      5  H   UNL     1      67.112  -4.329   4.405  1.00  0.00     0.345 HD
ENDBRANCH   1   2
BRANCH   1   6
ATOM      6  C   UNL     1      65.388  -3.863   2.410  1.00  0.00     0.099 C 
ATOM      7  O   UNL     1      66.442  -4.381   1.956  1.00  0.00    -0.544 OA
ATOM      8  O   UNL     1      64.429  -3.382   1.526  1.00  0.00    -0.544 OA
ENDBRANCH   1   6
BRANCH   1   9
ATOM      9  C   UNL     1      65.224  -2.211   4.315  1.00  0.00     0.047 C 
ATOM     10  C   UNL     1      66.185  -1.927   5.481  1.00  0.00     0.014 C 
ATOM     11  C   UNL     1      63.827  -1.661   4.635  1.00  0.00     0.014 C 
ENDBRANCH   1   9
TORSDOF 3
ENDMDL
MODEL 9
REMARK VINA RESULT:    -3.013     13.916     14.563
REMARK INTER + INTRA:          -3.518
REMARK INTER:                  -3.501
REMARK INTRA:                  -0.017
REMARK UNBOUND:                -0.065
REMARK SMILES CC(C)[C@H]([NH3+])C(=O)[O-]
REMARK SMILES IDX 4 1 5 2 6 6 7 7 8 8 2 9 1 10 3 11
REMARK H PARENT 5 3 5 4 5 5
REMARK Flexibility Score: inf
ROOT
ATOM      1  C   UNL     1      61.487   9.954  -2.143  1.00  0.00     0.230 C 
ENDROOT
BRANCH   1   2
ATOM      2  N   UNL     1      62.323  10.217  -0.960  1.00  0.00    -0.350 N 
ATOM      3  H   UNL     1      62.529   9.312  -0.473  1.00  0.00     0.345 HD
ATOM      4  H   UNL     1      61.816  10.830  -0.284  1.00  0.00     0.345 HD
ATOM      5  H   UNL     1      63.230  10.664  -1.223  1.00  0.00     0.345 HD
ENDBRANCH   1   2
BRANCH   1   6
ATOM      6  C   UNL     1      60.652   8.711  -1.949  1.00  0.00     0.099 C 
ATOM      7  O   UNL     1      59.463   8.661  -2.358  1.00  0.00    -0.544 OA
ATOM      8  O   UNL     1      61.185   7.624  -1.266  1.00  0.00    -0.544 OA
ENDBRANCH   1   6
BRANCH   1   9
ATOM      9  C   UNL     1      62.309   9.871  -3.465  1.00  0.00     0.047 C 
ATOM     10  C   UNL     1      63.567  10.755  -3.463  1.00  0.00     0.014 C 
ATOM     11  C   UNL     1      61.445  10.182  -4.696  1.00  0.00     0.014 C 
ENDBRANCH   1   9
TORSDOF 3
ENDMDL
