MODEL 1
REMARK VINA RESULT:    -7.018      0.000      0.000
REMARK INTER + INTRA:          -7.223
REMARK INTER:                  -7.223
REMARK INTRA:                   0.000
REMARK UNBOUND:                 0.000
REMARK SMILES C=C1CCC[C@]2(C)C[C@@]3(O)OC(=O)C(C)=C3C[C@H]12
REMARK SMILES IDX 15 1 14 2 16 3 17 4 18 5 2 6 1 7 3 8 4 9 5 10 6 11 8 12 9 13
REMARK SMILES IDX 11 14 12 15 13 16 7 17 10 18
REMARK H PARENT 10 19
REMARK Flexibility Score: inf
ROOT
ATOM      1  C   UNL     1       4.349   3.314 -21.806  1.00  0.00     0.052 C 
ATOM      2  C   UNL     1       4.541   2.937 -23.242  1.00  0.00     0.040 C 
ATOM      3  C   UNL     1       4.632   1.703 -23.739  1.00  0.00     0.012 C 
ATOM      4  C   UNL     1       4.501   0.417 -22.989  1.00  0.00     0.047 C 
ATOM      5  C   UNL     1       3.275  -0.362 -23.517  1.00  0.00     0.025 C 
ATOM      6  C   UNL     1       3.250  -1.737 -22.872  1.00  0.00    -0.073 C 
ATOM      7  C   UNL     1       2.492  -1.967 -21.787  1.00  0.00     0.008 C 
ATOM      8  C   UNL     1       4.208  -2.796 -23.371  1.00  0.00     0.031 C 
ATOM      9  C   UNL     1       4.195  -2.884 -24.902  1.00  0.00     0.005 C 
ATOM     10  C   UNL     1       4.324  -1.502 -25.566  1.00  0.00     0.008 C 
ATOM     11  C   UNL     1       3.240  -0.489 -25.082  1.00  0.00    -0.019 C 
ATOM     12  C   UNL     1       3.448   0.904 -25.772  1.00  0.00     0.092 C 
ATOM     13  C   UNL     1       4.645   1.719 -25.240  1.00  0.00     0.235 C 
ATOM     14  O   UNL     1       4.507   3.106 -25.555  1.00  0.00    -0.426 OA
ATOM     15  C   UNL     1       4.457   3.828 -24.377  1.00  0.00     0.336 C 
ATOM     16  O   UNL     1       4.332   5.080 -24.323  1.00  0.00    -0.246 OA
ATOM     17  C   UNL     1       1.837  -0.992 -25.518  1.00  0.00     0.012 C 
ENDROOT
BRANCH  13  18
ATOM     18  O   UNL     1       5.871   1.236 -25.719  1.00  0.00    -0.353 OA
ATOM     19  H   UNL     1       6.155   1.850 -26.446  1.00  0.00     0.215 HD
ENDBRANCH  13  18
TORSDOF 1
ENDMDL
MODEL 2
REMARK VINA RESULT:    -6.966      1.823      3.064
REMARK INTER + INTRA:          -7.170
REMARK INTER:                  -7.170
REMARK INTRA:                   0.000
REMARK UNBOUND:                 0.000
REMARK SMILES C=C1CCC[C@]2(C)C[C@@]3(O)OC(=O)C(C)=C3C[C@H]12
REMARK SMILES IDX 15 1 14 2 16 3 17 4 18 5 2 6 1 7 3 8 4 9 5 10 6 11 8 12 9 13
REMARK SMILES IDX 11 14 12 15 13 16 7 17 10 18
REMARK H PARENT 10 19
REMARK Flexibility Score: inf
ROOT
ATOM      1  C   UNL     1       4.759   3.584 -25.643  1.00  0.00     0.052 C 
ATOM      2  C   UNL     1       4.876   2.935 -24.299  1.00  0.00     0.040 C 
ATOM      3  C   UNL     1       4.316   1.788 -23.913  1.00  0.00     0.012 C 
ATOM      4  C   UNL     1       3.498   0.859 -24.751  1.00  0.00     0.047 C 
ATOM      5  C   UNL     1       4.222  -0.502 -24.864  1.00  0.00     0.025 C 
ATOM      6  C   UNL     1       3.308  -1.490 -25.568  1.00  0.00    -0.073 C 
ATOM      7  C   UNL     1       3.430  -1.708 -26.887  1.00  0.00     0.008 C 
ATOM      8  C   UNL     1       2.160  -2.101 -24.797  1.00  0.00     0.031 C 
ATOM      9  C   UNL     1       2.621  -2.625 -23.431  1.00  0.00     0.005 C 
ATOM     10  C   UNL     1       3.464  -1.591 -22.665  1.00  0.00     0.008 C 
ATOM     11  C   UNL     1       4.691  -1.079 -23.480  1.00  0.00    -0.019 C 
ATOM     12  C   UNL     1       5.486  -0.007 -22.655  1.00  0.00     0.092 C 
ATOM     13  C   UNL     1       4.803   1.372 -22.556  1.00  0.00     0.235 C 
ATOM     14  O   UNL     1       5.743   2.393 -22.217  1.00  0.00    -0.426 OA
ATOM     15  C   UNL     1       5.780   3.323 -23.239  1.00  0.00     0.336 C 
ATOM     16  O   UNL     1       6.521   4.341 -23.239  1.00  0.00    -0.246 OA
ATOM     17  C   UNL     1       5.670  -2.259 -23.729  1.00  0.00     0.012 C 
ENDROOT
BRANCH  13  18
ATOM     18  O   UNL     1       3.741   1.374 -21.640  1.00  0.00    -0.353 OA
ATOM     19  H   UNL     1       2.904   1.354 -22.173  1.00  0.00     0.215 HD
ENDBRANCH  13  18
TORSDOF 1
ENDMDL
MODEL 3
REMARK VINA RESULT:    -6.775      3.073      5.294
REMARK INTER + INTRA:          -6.973
REMARK INTER:                  -6.973
REMARK INTRA:                   0.000
REMARK UNBOUND:                 0.000
REMARK SMILES C=C1CCC[C@]2(C)C[C@@]3(O)OC(=O)C(C)=C3C[C@H]12
REMARK SMILES IDX 15 1 14 2 16 3 17 4 18 5 2 6 1 7 3 8 4 9 5 10 6 11 8 12 9 13
REMARK SMILES IDX 11 14 12 15 13 16 7 17 10 18
REMARK H PARENT 10 19
REMARK Flexibility Score: inf
ROOT
ATOM      1  C   UNL     1       1.946  -3.134 -21.037  1.00  0.00     0.052 C 
ATOM      2  C   UNL     1       1.557  -2.742 -22.429  1.00  0.00     0.040 C 
ATOM      3  C   UNL     1       1.886  -1.618 -23.065  1.00  0.00     0.012 C 
ATOM      4  C   UNL     1       2.767  -0.522 -22.560  1.00  0.00     0.047 C 
ATOM      5  C   UNL     1       4.015  -0.410 -23.464  1.00  0.00     0.025 C 
ATOM      6  C   UNL     1       4.817   0.812 -23.049  1.00  0.00    -0.073 C 
ATOM      7  C   UNL     1       5.861   0.690 -22.214  1.00  0.00     0.008 C 
ATOM      8  C   UNL     1       4.326   2.182 -23.460  1.00  0.00     0.031 C 
ATOM      9  C   UNL     1       3.959   2.221 -24.949  1.00  0.00     0.005 C 
ATOM     10  C   UNL     1       3.061   1.040 -25.358  1.00  0.00     0.008 C 
ATOM     11  C   UNL     1       3.675  -0.348 -24.996  1.00  0.00    -0.019 C 
ATOM     12  C   UNL     1       2.698  -1.502 -25.411  1.00  0.00     0.092 C 
ATOM     13  C   UNL     1       1.459  -1.659 -24.504  1.00  0.00     0.235 C 
ATOM     14  O   UNL     1       0.882  -2.959 -24.637  1.00  0.00    -0.426 OA
ATOM     15  C   UNL     1       0.927  -3.597 -23.411  1.00  0.00     0.336 C 
ATOM     16  O   UNL     1       0.500  -4.763 -23.207  1.00  0.00    -0.246 OA
ATOM     17  C   UNL     1       4.979  -0.560 -25.814  1.00  0.00     0.012 C 
ENDROOT
BRANCH  13  18
ATOM     18  O   UNL     1       0.492  -0.675 -24.751  1.00  0.00    -0.353 OA
ATOM     19  H   UNL     1       0.034  -0.501 -23.887  1.00  0.00     0.215 HD
ENDBRANCH  13  18
TORSDOF 1
ENDMDL
MODEL 4
REMARK VINA RESULT:    -6.637      2.213      5.548
REMARK INTER + INTRA:          -6.831
REMARK INTER:                  -6.831
REMARK INTRA:                   0.000
REMARK UNBOUND:                 0.000
REMARK SMILES C=C1CCC[C@]2(C)C[C@@]3(O)OC(=O)C(C)=C3C[C@H]12
REMARK SMILES IDX 15 1 14 2 16 3 17 4 18 5 2 6 1 7 3 8 4 9 5 10 6 11 8 12 9 13
REMARK SMILES IDX 11 14 12 15 13 16 7 17 10 18
REMARK H PARENT 10 19
REMARK Flexibility Score: inf
ROOT
ATOM      1  C   UNL     1       2.079  -0.500 -25.132  1.00  0.00     0.052 C 
ATOM      2  C   UNL     1       3.034  -0.272 -24.002  1.00  0.00     0.040 C 
ATOM      3  C   UNL     1       3.871   0.756 -23.858  1.00  0.00     0.012 C 
ATOM      4  C   UNL     1       4.003   1.943 -24.756  1.00  0.00     0.047 C 
ATOM      5  C   UNL     1       3.627   3.222 -23.974  1.00  0.00     0.025 C 
ATOM      6  C   UNL     1       3.928   4.434 -24.838  1.00  0.00    -0.073 C 
ATOM      7  C   UNL     1       2.957   5.011 -25.564  1.00  0.00     0.008 C 
ATOM      8  C   UNL     1       5.364   4.883 -24.993  1.00  0.00     0.031 C 
ATOM      9  C   UNL     1       6.075   4.960 -23.636  1.00  0.00     0.005 C 
ATOM     10  C   UNL     1       5.860   3.691 -22.793  1.00  0.00     0.008 C 
ATOM     11  C   UNL     1       4.353   3.344 -22.586  1.00  0.00    -0.019 C 
ATOM     12  C   UNL     1       4.206   2.026 -21.749  1.00  0.00     0.092 C 
ATOM     13  C   UNL     1       4.542   0.729 -22.515  1.00  0.00     0.235 C 
ATOM     14  O   UNL     1       3.962  -0.412 -21.881  1.00  0.00    -0.426 OA
ATOM     15  C   UNL     1       3.080  -1.012 -22.761  1.00  0.00     0.336 C 
ATOM     16  O   UNL     1       2.405  -2.040 -22.491  1.00  0.00    -0.246 OA
ATOM     17  C   UNL     1       3.676   4.469 -21.758  1.00  0.00     0.012 C 
ENDROOT
BRANCH  13  18
ATOM     18  O   UNL     1       5.923   0.545 -22.668  1.00  0.00    -0.353 OA
ATOM     19  H   UNL     1       6.136  -0.349 -22.292  1.00  0.00     0.215 HD
ENDBRANCH  13  18
TORSDOF 1
ENDMDL
MODEL 5
REMARK VINA RESULT:    -6.507      2.240      6.046
REMARK INTER + INTRA:          -6.697
REMARK INTER:                  -6.697
REMARK INTRA:                   0.000
REMARK UNBOUND:                 0.000
REMARK SMILES C=C1CCC[C@]2(C)C[C@@]3(O)OC(=O)C(C)=C3C[C@H]12
REMARK SMILES IDX 15 1 14 2 16 3 17 4 18 5 2 6 1 7 3 8 4 9 5 10 6 11 8 12 9 13
REMARK SMILES IDX 11 14 12 15 13 16 7 17 10 18
REMARK H PARENT 10 19
REMARK Flexibility Score: inf
ROOT
ATOM      1  C   UNL     1       2.625   1.424 -26.285  1.00  0.00     0.052 C 
ATOM      2  C   UNL     1       3.495   1.409 -25.066  1.00  0.00     0.040 C 
ATOM      3  C   UNL     1       4.152   2.443 -24.540  1.00  0.00     0.012 C 
ATOM      4  C   UNL     1       4.121   3.862 -25.008  1.00  0.00     0.047 C 
ATOM      5  C   UNL     1       3.521   4.754 -23.898  1.00  0.00     0.025 C 
ATOM      6  C   UNL     1       3.651   6.210 -24.312  1.00  0.00    -0.073 C 
ATOM      7  C   UNL     1       2.624   6.847 -24.898  1.00  0.00     0.008 C 
ATOM      8  C   UNL     1       5.001   6.883 -24.201  1.00  0.00     0.031 C 
ATOM      9  C   UNL     1       5.647   6.619 -22.835  1.00  0.00     0.005 C 
ATOM     10  C   UNL     1       5.610   5.129 -22.452  1.00  0.00     0.008 C 
ATOM     11  C   UNL     1       4.173   4.524 -22.488  1.00  0.00    -0.019 C 
ATOM     12  C   UNL     1       4.212   3.000 -22.119  1.00  0.00     0.092 C 
ATOM     13  C   UNL     1       4.775   2.081 -23.223  1.00  0.00     0.235 C 
ATOM     14  O   UNL     1       4.365   0.726 -23.028  1.00  0.00    -0.426 OA
ATOM     15  C   UNL     1       3.619   0.323 -24.119  1.00  0.00     0.336 C 
ATOM     16  O   UNL     1       3.109  -0.822 -24.240  1.00  0.00    -0.246 OA
ATOM     17  C   UNL     1       3.299   5.216 -21.407  1.00  0.00     0.012 C 
ENDROOT
BRANCH  13  18
ATOM     18  O   UNL     1       6.172   2.153 -23.313  1.00  0.00    -0.353 OA
ATOM     19  H   UNL     1       6.441   3.017 -22.906  1.00  0.00     0.215 HD
ENDBRANCH  13  18
TORSDOF 1
ENDMDL
MODEL 6
REMARK VINA RESULT:    -6.451      2.683      3.529
REMARK INTER + INTRA:          -6.639
REMARK INTER:                  -6.639
REMARK INTRA:                   0.000
REMARK UNBOUND:                 0.000
REMARK SMILES C=C1CCC[C@]2(C)C[C@@]3(O)OC(=O)C(C)=C3C[C@H]12
REMARK SMILES IDX 15 1 14 2 16 3 17 4 18 5 2 6 1 7 3 8 4 9 5 10 6 11 8 12 9 13
REMARK SMILES IDX 11 14 12 15 13 16 7 17 10 18
REMARK H PARENT 10 19
REMARK Flexibility Score: inf
ROOT
ATOM      1  C   UNL     1       2.502   3.189 -26.260  1.00  0.00     0.052 C 
ATOM      2  C   UNL     1       2.103   1.797 -26.641  1.00  0.00     0.040 C 
ATOM      3  C   UNL     1       2.631   0.661 -26.187  1.00  0.00     0.012 C 
ATOM      4  C   UNL     1       3.697   0.514 -25.149  1.00  0.00     0.047 C 
ATOM      5  C   UNL     1       3.124  -0.243 -23.930  1.00  0.00     0.025 C 
ATOM      6  C   UNL     1       4.254  -0.537 -22.958  1.00  0.00    -0.073 C 
ATOM      7  C   UNL     1       4.480   0.272 -21.911  1.00  0.00     0.008 C 
ATOM      8  C   UNL     1       5.216  -1.661 -23.274  1.00  0.00     0.031 C 
ATOM      9  C   UNL     1       4.470  -2.937 -23.684  1.00  0.00     0.005 C 
ATOM     10  C   UNL     1       3.390  -2.664 -24.747  1.00  0.00     0.008 C 
ATOM     11  C   UNL     1       2.370  -1.567 -24.311  1.00  0.00    -0.019 C 
ATOM     12  C   UNL     1       1.319  -1.317 -25.449  1.00  0.00     0.092 C 
ATOM     13  C   UNL     1       1.855  -0.532 -26.665  1.00  0.00     0.235 C 
ATOM     14  O   UNL     1       0.788   0.051 -27.415  1.00  0.00    -0.426 OA
ATOM     15  C   UNL     1       0.938   1.425 -27.413  1.00  0.00     0.336 C 
ATOM     16  O   UNL     1       0.149   2.221 -27.986  1.00  0.00    -0.246 OA
ATOM     17  C   UNL     1       1.572  -2.069 -23.078  1.00  0.00     0.012 C 
ENDROOT
BRANCH  13  18
ATOM     18  O   UNL     1       2.653  -1.326 -27.500  1.00  0.00    -0.353 OA
ATOM     19  H   UNL     1       2.775  -2.195 -27.036  1.00  0.00     0.215 HD
ENDBRANCH  13  18
TORSDOF 1
ENDMDL
MODEL 7
REMARK VINA RESULT:    -6.181      0.975      1.023
REMARK INTER + INTRA:          -6.362
REMARK INTER:                  -6.362
REMARK INTRA:                   0.000
REMARK UNBOUND:                 0.000
REMARK SMILES C=C1CCC[C@]2(C)C[C@@]3(O)OC(=O)C(C)=C3C[C@H]12
REMARK SMILES IDX 15 1 14 2 16 3 17 4 18 5 2 6 1 7 3 8 4 9 5 10 6 11 8 12 9 13
REMARK SMILES IDX 11 14 12 15 13 16 7 17 10 18
REMARK H PARENT 10 19
REMARK Flexibility Score: inf
ROOT
ATOM      1  C   UNL     1       3.839   4.273 -22.044  1.00  0.00     0.052 C 
ATOM      2  C   UNL     1       3.989   3.882 -23.482  1.00  0.00     0.040 C 
ATOM      3  C   UNL     1       4.289   2.672 -23.955  1.00  0.00     0.012 C 
ATOM      4  C   UNL     1       4.481   1.418 -23.165  1.00  0.00     0.047 C 
ATOM      5  C   UNL     1       3.401   0.389 -23.566  1.00  0.00     0.025 C 
ATOM      6  C   UNL     1       3.706  -0.936 -22.887  1.00  0.00    -0.073 C 
ATOM      7  C   UNL     1       3.099  -1.267 -21.736  1.00  0.00     0.008 C 
ATOM      8  C   UNL     1       4.816  -1.801 -23.440  1.00  0.00     0.031 C 
ATOM      9  C   UNL     1       4.701  -1.954 -24.962  1.00  0.00     0.005 C 
ATOM     10  C   UNL     1       4.494  -0.602 -25.668  1.00  0.00     0.008 C 
ATOM     11  C   UNL     1       3.269   0.192 -25.119  1.00  0.00    -0.019 C 
ATOM     12  C   UNL     1       3.135   1.568 -25.858  1.00  0.00     0.092 C 
ATOM     13  C   UNL     1       4.179   2.628 -25.451  1.00  0.00     0.235 C 
ATOM     14  O   UNL     1       3.739   3.945 -25.787  1.00  0.00    -0.426 OA
ATOM     15  C   UNL     1       3.637   4.691 -24.628  1.00  0.00     0.336 C 
ATOM     16  O   UNL     1       3.265   5.893 -24.594  1.00  0.00    -0.246 OA
ATOM     17  C   UNL     1       1.967  -0.599 -25.420  1.00  0.00     0.012 C 
ENDROOT
BRANCH  13  18
ATOM     18  O   UNL     1       5.436   2.381 -26.021  1.00  0.00    -0.353 OA
ATOM     19  H   UNL     1       6.073   3.013 -25.596  1.00  0.00     0.215 HD
ENDBRANCH  13  18
TORSDOF 1
ENDMDL
MODEL 8
REMARK VINA RESULT:    -5.990      3.001      5.379
REMARK INTER + INTRA:          -6.165
REMARK INTER:                  -6.165
REMARK INTRA:                   0.000
REMARK UNBOUND:                 0.000
REMARK SMILES C=C1CCC[C@]2(C)C[C@@]3(O)OC(=O)C(C)=C3C[C@H]12
REMARK SMILES IDX 15 1 14 2 16 3 17 4 18 5 2 6 1 7 3 8 4 9 5 10 6 11 8 12 9 13
REMARK SMILES IDX 11 14 12 15 13 16 7 17 10 18
REMARK H PARENT 10 19
REMARK Flexibility Score: inf
ROOT
ATOM      1  C   UNL     1       0.250  -2.498 -24.116  1.00  0.00     0.052 C 
ATOM      2  C   UNL     1       1.741  -2.623 -24.125  1.00  0.00     0.040 C 
ATOM      3  C   UNL     1       2.592  -1.995 -24.936  1.00  0.00     0.012 C 
ATOM      4  C   UNL     1       2.258  -0.978 -25.979  1.00  0.00     0.047 C 
ATOM      5  C   UNL     1       2.921   0.369 -25.612  1.00  0.00     0.025 C 
ATOM      6  C   UNL     1       2.720   1.346 -26.758  1.00  0.00    -0.073 C 
ATOM      7  C   UNL     1       1.712   2.232 -26.729  1.00  0.00     0.008 C 
ATOM      8  C   UNL     1       3.572   1.201 -27.999  1.00  0.00     0.031 C 
ATOM      9  C   UNL     1       5.055   1.037 -27.643  1.00  0.00     0.005 C 
ATOM     10  C   UNL     1       5.278  -0.026 -26.553  1.00  0.00     0.008 C 
ATOM     11  C   UNL     1       4.447   0.242 -25.260  1.00  0.00    -0.019 C 
ATOM     12  C   UNL     1       4.696  -0.892 -24.206  1.00  0.00     0.092 C 
ATOM     13  C   UNL     1       4.016  -2.239 -24.529  1.00  0.00     0.235 C 
ATOM     14  O   UNL     1       3.889  -3.049 -23.360  1.00  0.00    -0.426 OA
ATOM     15  C   UNL     1       2.548  -3.287 -23.125  1.00  0.00     0.336 C 
ATOM     16  O   UNL     1       2.111  -3.966 -22.159  1.00  0.00    -0.246 OA
ATOM     17  C   UNL     1       4.928   1.565 -24.606  1.00  0.00     0.012 C 
ENDROOT
BRANCH  13  18
ATOM     18  O   UNL     1       4.692  -2.947 -25.533  1.00  0.00    -0.353 OA
ATOM     19  H   UNL     1       5.508  -3.327 -25.115  1.00  0.00     0.215 HD
ENDBRANCH  13  18
TORSDOF 1
ENDMDL
