MODEL 1
REMARK VINA RESULT:    -3.668      0.000      0.000
REMARK INTER + INTRA:          -3.562
REMARK INTER:                  -3.990
REMARK INTRA:                   0.428
REMARK UNBOUND:                 0.428
REMARK SMILES CC1(C)CC[C@@]2(C(=O)[O-])CC[C@@]3(C)C(=CC[C@H]4[C@@]5(C)CC[C@H](O)C(C)(C)[C@@H]5CC[C@@]43C)[C@@H]2C1
REMARK SMILES IDX 6 1 5 2 10 3 32 4 4 5 11 6 14 7 33 8 2 9 12 10 15 11 1 12
REMARK SMILES IDX 3 13 13 14 30 15 16 16 17 17 29 18 31 19 18 20 28 21 27 22
REMARK SMILES IDX 20 23 19 24 24 25 21 26 22 27 25 28 26 29 7 30 8 31 9 32
REMARK SMILES IDX 23 33
REMARK H PARENT 23 34
REMARK Flexibility Score: inf
ROOT
ATOM      1  C   UNL     1       8.210  22.894  44.215  1.00  0.00     0.017 C 
ATOM      2  C   UNL     1       9.411  21.934  43.988  1.00  0.00     0.014 C 
ATOM      3  C   UNL     1       8.045  23.865  42.990  1.00  0.00     0.014 C 
ATOM      4  C   UNL     1       6.948  21.999  44.383  1.00  0.00     0.028 C 
ATOM      5  C   UNL     1       9.592  20.937  45.153  1.00  0.00     0.007 C 
ATOM      6  C   UNL     1       6.777  23.650  42.123  1.00  0.00     0.013 C 
ATOM      7  C   UNL     1       5.694  22.855  44.287  1.00  0.00    -0.064 C 
ATOM      8  C   UNL     1       7.066  21.031  45.585  1.00  0.00     0.015 C 
ATOM      9  C   UNL     1       8.316  20.107  45.475  1.00  0.00    -0.035 C 
ATOM     10  C   UNL     1       5.415  23.472  42.910  1.00  0.00    -0.006 C 
ATOM     11  C   UNL     1       4.859  23.046  45.339  1.00  0.00    -0.027 C 
ATOM     12  C   UNL     1       8.104  19.011  44.401  1.00  0.00     0.011 C 
ATOM     13  C   UNL     1       8.520  19.397  46.832  1.00  0.00     0.011 C 
ATOM     14  C   UNL     1       4.580  22.375  42.155  1.00  0.00     0.017 C 
ATOM     15  C   UNL     1       4.619  24.863  43.063  1.00  0.00    -0.020 C 
ATOM     16  C   UNL     1       3.750  24.069  45.362  1.00  0.00     0.032 C 
ATOM     17  C   UNL     1       3.346  24.602  43.965  1.00  0.00     0.006 C 
ATOM     18  C   UNL     1       4.215  25.450  41.644  1.00  0.00     0.008 C 
ATOM     19  C   UNL     1       5.544  25.905  43.774  1.00  0.00     0.012 C 
ATOM     20  C   UNL     1       2.180  25.709  43.993  1.00  0.00    -0.025 C 
ATOM     21  C   UNL     1       2.758  25.930  41.519  1.00  0.00     0.005 C 
ATOM     22  C   UNL     1       2.368  26.703  42.793  1.00  0.00     0.003 C 
ATOM     23  C   UNL     1       2.163  26.570  45.291  1.00  0.00     0.010 C 
ATOM     24  C   UNL     1       0.833  24.915  43.928  1.00  0.00     0.012 C 
ATOM     25  C   UNL     1       1.307  27.862  42.656  1.00  0.00    -0.006 C 
ATOM     26  C   UNL     1       1.115  27.704  45.258  1.00  0.00     0.033 C 
ATOM     27  C   UNL     1       1.242  28.624  44.027  1.00  0.00     0.120 C 
ATOM     28  C   UNL     1       1.795  28.889  41.592  1.00  0.00     0.014 C 
ATOM     29  C   UNL     1      -0.094  27.368  42.204  1.00  0.00     0.014 C 
ENDROOT
BRANCH   1  30
ATOM     30  C   UNL     1       8.492  23.755  45.449  1.00  0.00     0.048 C 
ATOM     31  O   UNL     1       7.981  23.485  46.568  1.00  0.00    -0.550 OA
ATOM     32  O   UNL     1       9.248  24.915  45.325  1.00  0.00    -0.550 OA
ENDBRANCH   1  30
BRANCH  27  33
ATOM     33  O   UNL     1       0.168  29.534  44.039  1.00  0.00    -0.393 OA
ATOM     34  H   UNL     1      -0.234  29.512  44.946  1.00  0.00     0.210 HD
ENDBRANCH  27  33
TORSDOF 2
ENDMDL
MODEL 2
REMARK VINA RESULT:    -3.608      2.018      3.583
REMARK INTER + INTRA:          -3.496
REMARK INTER:                  -3.933
REMARK INTRA:                   0.437
REMARK UNBOUND:                 0.428
REMARK SMILES CC1(C)CC[C@@]2(C(=O)[O-])CC[C@@]3(C)C(=CC[C@H]4[C@@]5(C)CC[C@H](O)C(C)(C)[C@@H]5CC[C@@]43C)[C@@H]2C1
REMARK SMILES IDX 6 1 5 2 10 3 32 4 4 5 11 6 14 7 33 8 2 9 12 10 15 11 1 12
REMARK SMILES IDX 3 13 13 14 30 15 16 16 17 17 29 18 31 19 18 20 28 21 27 22
REMARK SMILES IDX 20 23 19 24 24 25 21 26 22 27 25 28 26 29 7 30 8 31 9 32
REMARK SMILES IDX 23 33
REMARK H PARENT 23 34
REMARK Flexibility Score: inf
ROOT
ATOM      1  C   UNL     1       6.006  20.780  44.412  1.00  0.00     0.017 C 
ATOM      2  C   UNL     1       6.919  19.710  45.074  1.00  0.00     0.014 C 
ATOM      3  C   UNL     1       4.777  21.099  45.338  1.00  0.00     0.014 C 
ATOM      4  C   UNL     1       6.883  22.049  44.203  1.00  0.00     0.028 C 
ATOM      5  C   UNL     1       8.161  19.387  44.215  1.00  0.00     0.007 C 
ATOM      6  C   UNL     1       4.755  22.517  45.967  1.00  0.00     0.013 C 
ATOM      7  C   UNL     1       5.996  23.237  43.863  1.00  0.00    -0.064 C 
ATOM      8  C   UNL     1       8.104  21.779  43.290  1.00  0.00     0.015 C 
ATOM      9  C   UNL     1       9.010  20.637  43.841  1.00  0.00    -0.035 C 
ATOM     10  C   UNL     1       5.074  23.721  44.989  1.00  0.00    -0.006 C 
ATOM     11  C   UNL     1       6.030  23.849  42.653  1.00  0.00    -0.027 C 
ATOM     12  C   UNL     1       9.825  21.119  45.067  1.00  0.00     0.011 C 
ATOM     13  C   UNL     1      10.017  20.238  42.740  1.00  0.00     0.011 C 
ATOM     14  C   UNL     1       5.946  24.754  45.789  1.00  0.00     0.017 C 
ATOM     15  C   UNL     1       3.734  24.377  44.382  1.00  0.00    -0.020 C 
ATOM     16  C   UNL     1       5.011  24.861  42.190  1.00  0.00     0.032 C 
ATOM     17  C   UNL     1       4.162  25.477  43.330  1.00  0.00     0.006 C 
ATOM     18  C   UNL     1       2.828  24.993  45.531  1.00  0.00     0.008 C 
ATOM     19  C   UNL     1       2.907  23.267  43.653  1.00  0.00     0.012 C 
ATOM     20  C   UNL     1       3.061  26.538  42.832  1.00  0.00    -0.025 C 
ATOM     21  C   UNL     1       2.295  26.411  45.262  1.00  0.00     0.005 C 
ATOM     22  C   UNL     1       1.824  26.506  43.798  1.00  0.00     0.003 C 
ATOM     23  C   UNL     1       2.520  26.258  41.399  1.00  0.00     0.010 C 
ATOM     24  C   UNL     1       3.785  27.927  42.807  1.00  0.00     0.012 C 
ATOM     25  C   UNL     1       0.637  27.492  43.468  1.00  0.00    -0.006 C 
ATOM     26  C   UNL     1       1.382  27.213  40.977  1.00  0.00     0.033 C 
ATOM     27  C   UNL     1       0.209  27.250  41.977  1.00  0.00     0.120 C 
ATOM     28  C   UNL     1      -0.593  27.137  44.354  1.00  0.00     0.014 C 
ATOM     29  C   UNL     1       0.979  28.982  43.735  1.00  0.00     0.014 C 
ENDROOT
BRANCH   1  30
ATOM     30  C   UNL     1       5.459  20.217  43.099  1.00  0.00     0.048 C 
ATOM     31  O   UNL     1       5.895  20.610  41.984  1.00  0.00    -0.550 OA
ATOM     32  O   UNL     1       4.392  19.326  43.119  1.00  0.00    -0.550 OA
ENDBRANCH   1  30
BRANCH  27  33
ATOM     33  O   UNL     1      -0.702  28.238  41.557  1.00  0.00    -0.393 OA
ATOM     34  H   UNL     1      -1.062  28.679  42.370  1.00  0.00     0.210 HD
ENDBRANCH  27  33
TORSDOF 2
ENDMDL
MODEL 3
REMARK VINA RESULT:    -2.678      3.031      9.719
REMARK INTER + INTRA:          -2.485
REMARK INTER:                  -2.916
REMARK INTRA:                   0.431
REMARK UNBOUND:                 0.428
REMARK SMILES CC1(C)CC[C@@]2(C(=O)[O-])CC[C@@]3(C)C(=CC[C@H]4[C@@]5(C)CC[C@H](O)C(C)(C)[C@@H]5CC[C@@]43C)[C@@H]2C1
REMARK SMILES IDX 6 1 5 2 10 3 32 4 4 5 11 6 14 7 33 8 2 9 12 10 15 11 1 12
REMARK SMILES IDX 3 13 13 14 30 15 16 16 17 17 29 18 31 19 18 20 28 21 27 22
REMARK SMILES IDX 20 23 19 24 24 25 21 26 22 27 25 28 26 29 7 30 8 31 9 32
REMARK SMILES IDX 23 33
REMARK H PARENT 23 34
REMARK Flexibility Score: inf
ROOT
ATOM      1  C   UNL     1       7.119  23.854  44.627  1.00  0.00     0.017 C 
ATOM      2  C   UNL     1       6.037  24.938  44.890  1.00  0.00     0.014 C 
ATOM      3  C   UNL     1       7.933  23.564  45.940  1.00  0.00     0.014 C 
ATOM      4  C   UNL     1       6.366  22.577  44.152  1.00  0.00     0.028 C 
ATOM      5  C   UNL     1       5.186  25.234  43.635  1.00  0.00     0.007 C 
ATOM      6  C   UNL     1       7.719  22.164  46.573  1.00  0.00     0.013 C 
ATOM      7  C   UNL     1       7.308  21.383  44.184  1.00  0.00    -0.064 C 
ATOM      8  C   UNL     1       5.555  22.818  42.856  1.00  0.00     0.015 C 
ATOM      9  C   UNL     1       4.519  23.972  43.015  1.00  0.00    -0.035 C 
ATOM     10  C   UNL     1       7.764  20.933  45.578  1.00  0.00    -0.006 C 
ATOM     11  C   UNL     1       7.705  20.738  43.059  1.00  0.00    -0.027 C 
ATOM     12  C   UNL     1       3.316  23.521  43.881  1.00  0.00     0.011 C 
ATOM     13  C   UNL     1       3.975  24.337  41.617  1.00  0.00     0.011 C 
ATOM     14  C   UNL     1       6.656  19.920  46.040  1.00  0.00     0.017 C 
ATOM     15  C   UNL     1       9.227  20.265  45.508  1.00  0.00    -0.020 C 
ATOM     16  C   UNL     1       8.815  19.717  43.018  1.00  0.00     0.032 C 
ATOM     17  C   UNL     1       9.196  19.135  44.402  1.00  0.00     0.006 C 
ATOM     18  C   UNL     1       9.658  19.684  46.921  1.00  0.00     0.008 C 
ATOM     19  C   UNL     1      10.268  21.357  45.094  1.00  0.00     0.012 C 
ATOM     20  C   UNL     1      10.396  18.064  44.360  1.00  0.00    -0.025 C 
ATOM     21  C   UNL     1      10.243  18.261  46.898  1.00  0.00     0.005 C 
ATOM     22  C   UNL     1      11.206  18.127  45.703  1.00  0.00     0.003 C 
ATOM     23  C   UNL     1      11.415  18.307  43.208  1.00  0.00     0.010 C 
ATOM     24  C   UNL     1       9.720  16.673  44.114  1.00  0.00     0.012 C 
ATOM     25  C   UNL     1      12.425  17.136  45.845  1.00  0.00    -0.006 C 
ATOM     26  C   UNL     1      12.622  17.345  43.247  1.00  0.00     0.033 C 
ATOM     27  C   UNL     1      13.360  17.339  44.600  1.00  0.00     0.120 C 
ATOM     28  C   UNL     1      13.259  17.519  47.103  1.00  0.00     0.014 C 
ATOM     29  C   UNL     1      12.001  15.653  46.013  1.00  0.00     0.014 C 
ENDROOT
BRANCH   1  30
ATOM     30  C   UNL     1       8.104  24.383  43.582  1.00  0.00     0.048 C 
ATOM     31  O   UNL     1       8.063  23.992  42.385  1.00  0.00    -0.550 OA
ATOM     32  O   UNL     1       9.130  25.237  43.967  1.00  0.00    -0.550 OA
ENDBRANCH   1  30
BRANCH  27  33
ATOM     33  O   UNL     1      14.354  16.342  44.560  1.00  0.00    -0.393 OA
ATOM     34  H   UNL     1      14.683  16.210  45.488  1.00  0.00     0.210 HD
ENDBRANCH  27  33
TORSDOF 2
ENDMDL
MODEL 4
REMARK VINA RESULT:    -2.607      3.191      9.679
REMARK INTER + INTRA:          -2.408
REMARK INTER:                  -2.837
REMARK INTRA:                   0.429
REMARK UNBOUND:                 0.428
REMARK SMILES CC1(C)CC[C@@]2(C(=O)[O-])CC[C@@]3(C)C(=CC[C@H]4[C@@]5(C)CC[C@H](O)C(C)(C)[C@@H]5CC[C@@]43C)[C@@H]2C1
REMARK SMILES IDX 6 1 5 2 10 3 32 4 4 5 11 6 14 7 33 8 2 9 12 10 15 11 1 12
REMARK SMILES IDX 3 13 13 14 30 15 16 16 17 17 29 18 31 19 18 20 28 21 27 22
REMARK SMILES IDX 20 23 19 24 24 25 21 26 22 27 25 28 26 29 7 30 8 31 9 32
REMARK SMILES IDX 23 33
REMARK H PARENT 23 34
REMARK Flexibility Score: inf
ROOT
ATOM      1  C   UNL     1       5.133  21.704  43.697  1.00  0.00     0.017 C 
ATOM      2  C   UNL     1       4.091  22.629  43.007  1.00  0.00     0.014 C 
ATOM      3  C   UNL     1       5.717  20.673  42.665  1.00  0.00     0.014 C 
ATOM      4  C   UNL     1       6.256  22.630  44.247  1.00  0.00     0.028 C 
ATOM      5  C   UNL     1       3.512  23.684  43.975  1.00  0.00     0.007 C 
ATOM      6  C   UNL     1       7.211  20.864  42.290  1.00  0.00     0.013 C 
ATOM      7  C   UNL     1       7.462  21.793  44.648  1.00  0.00    -0.064 C 
ATOM      8  C   UNL     1       5.723  23.659  45.274  1.00  0.00     0.015 C 
ATOM      9  C   UNL     1       4.594  24.553  44.679  1.00  0.00    -0.035 C 
ATOM     10  C   UNL     1       8.208  21.109  43.495  1.00  0.00    -0.006 C 
ATOM     11  C   UNL     1       7.871  21.675  45.935  1.00  0.00    -0.027 C 
ATOM     12  C   UNL     1       5.174  25.593  43.688  1.00  0.00     0.011 C 
ATOM     13  C   UNL     1       3.926  25.331  45.834  1.00  0.00     0.011 C 
ATOM     14  C   UNL     1       9.257  22.178  43.022  1.00  0.00     0.017 C 
ATOM     15  C   UNL     1       8.896  19.742  43.997  1.00  0.00    -0.020 C 
ATOM     16  C   UNL     1       8.899  20.675  46.406  1.00  0.00     0.032 C 
ATOM     17  C   UNL     1       9.769  20.075  45.273  1.00  0.00     0.006 C 
ATOM     18  C   UNL     1       9.773  19.088  42.847  1.00  0.00     0.008 C 
ATOM     19  C   UNL     1       7.777  18.724  44.394  1.00  0.00     0.012 C 
ATOM     20  C   UNL     1      10.848  18.992  45.773  1.00  0.00    -0.025 C 
ATOM     21  C   UNL     1      11.179  18.629  43.270  1.00  0.00     0.005 C 
ATOM     22  C   UNL     1      11.093  17.932  44.641  1.00  0.00     0.003 C 
ATOM     23  C   UNL     1      10.405  18.202  47.040  1.00  0.00     0.010 C 
ATOM     24  C   UNL     1      12.133  19.806  46.142  1.00  0.00     0.012 C 
ATOM     25  C   UNL     1      12.133  16.787  44.953  1.00  0.00    -0.006 C 
ATOM     26  C   UNL     1      11.395  17.087  47.443  1.00  0.00     0.033 C 
ATOM     27  C   UNL     1      11.708  16.101  46.300  1.00  0.00     0.120 C 
ATOM     28  C   UNL     1      12.049  15.696  43.845  1.00  0.00     0.014 C 
ATOM     29  C   UNL     1      13.604  17.281  44.997  1.00  0.00     0.014 C 
ENDROOT
BRANCH   1  30
ATOM     30  C   UNL     1       4.432  20.906  44.798  1.00  0.00     0.048 C 
ATOM     31  O   UNL     1       4.498  21.258  46.006  1.00  0.00    -0.550 OA
ATOM     32  O   UNL     1       3.787  19.715  44.487  1.00  0.00    -0.550 OA
ENDBRANCH   1  30
BRANCH  27  33
ATOM     33  O   UNL     1      12.707  15.213  46.741  1.00  0.00    -0.393 OA
ATOM     34  H   UNL     1      12.339  14.705  47.510  1.00  0.00     0.210 HD
ENDBRANCH  27  33
TORSDOF 2
ENDMDL
MODEL 5
REMARK VINA RESULT:    -2.550      1.846      8.192
REMARK INTER + INTRA:          -2.346
REMARK INTER:                  -2.885
REMARK INTRA:                   0.539
REMARK UNBOUND:                 0.428
REMARK SMILES CC1(C)CC[C@@]2(C(=O)[O-])CC[C@@]3(C)C(=CC[C@H]4[C@@]5(C)CC[C@H](O)C(C)(C)[C@@H]5CC[C@@]43C)[C@@H]2C1
REMARK SMILES IDX 6 1 5 2 10 3 32 4 4 5 11 6 14 7 33 8 2 9 12 10 15 11 1 12
REMARK SMILES IDX 3 13 13 14 30 15 16 16 17 17 29 18 31 19 18 20 28 21 27 22
REMARK SMILES IDX 20 23 19 24 24 25 21 26 22 27 25 28 26 29 7 30 8 31 9 32
REMARK SMILES IDX 23 33
REMARK H PARENT 23 34
REMARK Flexibility Score: inf
ROOT
ATOM      1  C   UNL     1       2.283  25.355  44.226  1.00  0.00     0.017 C 
ATOM      2  C   UNL     1       0.884  25.958  43.915  1.00  0.00     0.014 C 
ATOM      3  C   UNL     1       2.185  23.793  44.370  1.00  0.00     0.014 C 
ATOM      4  C   UNL     1       3.210  25.742  43.037  1.00  0.00     0.028 C 
ATOM      5  C   UNL     1       0.935  27.491  43.731  1.00  0.00     0.007 C 
ATOM      6  C   UNL     1       2.877  22.966  43.254  1.00  0.00     0.013 C 
ATOM      7  C   UNL     1       4.494  24.929  43.101  1.00  0.00    -0.064 C 
ATOM      8  C   UNL     1       3.339  27.275  42.864  1.00  0.00     0.015 C 
ATOM      9  C   UNL     1       1.955  27.962  42.655  1.00  0.00    -0.035 C 
ATOM     10  C   UNL     1       4.339  23.423  42.852  1.00  0.00    -0.006 C 
ATOM     11  C   UNL     1       5.704  25.494  43.338  1.00  0.00    -0.027 C 
ATOM     12  C   UNL     1       1.405  27.681  41.234  1.00  0.00     0.011 C 
ATOM     13  C   UNL     1       2.143  29.489  42.788  1.00  0.00     0.011 C 
ATOM     14  C   UNL     1       4.462  23.272  41.293  1.00  0.00     0.017 C 
ATOM     15  C   UNL     1       5.470  22.597  43.647  1.00  0.00    -0.020 C 
ATOM     16  C   UNL     1       6.955  24.711  43.650  1.00  0.00     0.032 C 
ATOM     17  C   UNL     1       6.878  23.211  43.270  1.00  0.00     0.006 C 
ATOM     18  C   UNL     1       5.398  21.050  43.301  1.00  0.00     0.008 C 
ATOM     19  C   UNL     1       5.236  22.763  45.185  1.00  0.00     0.012 C 
ATOM     20  C   UNL     1       8.204  22.372  43.625  1.00  0.00    -0.025 C 
ATOM     21  C   UNL     1       6.746  20.385  42.968  1.00  0.00     0.005 C 
ATOM     22  C   UNL     1       7.816  20.888  43.956  1.00  0.00     0.003 C 
ATOM     23  C   UNL     1       8.984  22.919  44.858  1.00  0.00     0.010 C 
ATOM     24  C   UNL     1       9.138  22.499  42.374  1.00  0.00     0.012 C 
ATOM     25  C   UNL     1       8.997  19.909  44.324  1.00  0.00    -0.006 C 
ATOM     26  C   UNL     1      10.189  22.040  45.258  1.00  0.00     0.033 C 
ATOM     27  C   UNL     1       9.820  20.561  45.491  1.00  0.00     0.120 C 
ATOM     28  C   UNL     1       8.412  18.575  44.875  1.00  0.00     0.014 C 
ATOM     29  C   UNL     1       9.900  19.546  43.114  1.00  0.00     0.014 C 
ENDROOT
BRANCH   1  30
ATOM     30  C   UNL     1       2.774  25.911  45.564  1.00  0.00     0.048 C 
ATOM     31  O   UNL     1       3.798  25.447  46.131  1.00  0.00    -0.550 OA
ATOM     32  O   UNL     1       2.029  26.880  46.226  1.00  0.00    -0.550 OA
ENDBRANCH   1  30
BRANCH  27  33
ATOM     33  O   UNL     1      11.006  19.839  45.725  1.00  0.00    -0.393 OA
ATOM     34  H   UNL     1      11.299  20.036  46.652  1.00  0.00     0.210 HD
ENDBRANCH  27  33
TORSDOF 2
ENDMDL
MODEL 6
REMARK VINA RESULT:    -2.533      2.175      8.199
REMARK INTER + INTRA:          -2.327
REMARK INTER:                  -2.864
REMARK INTRA:                   0.537
REMARK UNBOUND:                 0.428
REMARK SMILES CC1(C)CC[C@@]2(C(=O)[O-])CC[C@@]3(C)C(=CC[C@H]4[C@@]5(C)CC[C@H](O)C(C)(C)[C@@H]5CC[C@@]43C)[C@@H]2C1
REMARK SMILES IDX 6 1 5 2 10 3 32 4 4 5 11 6 14 7 33 8 2 9 12 10 15 11 1 12
REMARK SMILES IDX 3 13 13 14 30 15 16 16 17 17 29 18 31 19 18 20 28 21 27 22
REMARK SMILES IDX 20 23 19 24 24 25 21 26 22 27 25 28 26 29 7 30 8 31 9 32
REMARK SMILES IDX 23 33
REMARK H PARENT 23 34
REMARK Flexibility Score: inf
ROOT
ATOM      1  C   UNL     1       3.494  26.362  42.736  1.00  0.00     0.017 C 
ATOM      2  C   UNL     1       2.807  27.752  42.620  1.00  0.00     0.014 C 
ATOM      3  C   UNL     1       5.051  26.532  42.867  1.00  0.00     0.014 C 
ATOM      4  C   UNL     1       2.905  25.677  44.003  1.00  0.00     0.028 C 
ATOM      5  C   UNL     1       1.269  27.638  42.522  1.00  0.00     0.007 C 
ATOM      6  C   UNL     1       5.660  26.142  44.239  1.00  0.00     0.013 C 
ATOM      7  C   UNL     1       3.748  24.465  44.370  1.00  0.00    -0.064 C 
ATOM      8  C   UNL     1       1.371  25.486  43.912  1.00  0.00     0.015 C 
ATOM      9  C   UNL     1       0.622  26.833  43.686  1.00  0.00    -0.035 C 
ATOM     10  C   UNL     1       5.171  24.768  44.855  1.00  0.00    -0.006 C 
ATOM     11  C   UNL     1       3.270  23.197  44.298  1.00  0.00    -0.027 C 
ATOM     12  C   UNL     1       0.606  27.682  44.981  1.00  0.00     0.011 C 
ATOM     13  C   UNL     1      -0.844  26.521  43.315  1.00  0.00     0.011 C 
ATOM     14  C   UNL     1       5.016  24.980  46.404  1.00  0.00     0.017 C 
ATOM     15  C   UNL     1       6.165  23.554  44.490  1.00  0.00    -0.020 C 
ATOM     16  C   UNL     1       4.131  21.963  44.416  1.00  0.00     0.032 C 
ATOM     17  C   UNL     1       5.525  22.217  45.042  1.00  0.00     0.006 C 
ATOM     18  C   UNL     1       7.612  23.799  45.095  1.00  0.00     0.008 C 
ATOM     19  C   UNL     1       6.298  23.454  42.935  1.00  0.00     0.012 C 
ATOM     20  C   UNL     1       6.450  20.905  45.144  1.00  0.00    -0.025 C 
ATOM     21  C   UNL     1       8.232  22.596  45.828  1.00  0.00     0.005 C 
ATOM     22  C   UNL     1       7.961  21.314  45.019  1.00  0.00     0.003 C 
ATOM     23  C   UNL     1       6.175  19.853  44.028  1.00  0.00     0.010 C 
ATOM     24  C   UNL     1       6.105  20.243  46.520  1.00  0.00     0.012 C 
ATOM     25  C   UNL     1       9.022  20.150  45.103  1.00  0.00    -0.006 C 
ATOM     26  C   UNL     1       7.146  18.652  44.068  1.00  0.00     0.033 C 
ATOM     27  C   UNL     1       8.632  19.062  44.040  1.00  0.00     0.120 C 
ATOM     28  C   UNL     1      10.422  20.696  44.696  1.00  0.00     0.014 C 
ATOM     29  C   UNL     1       9.164  19.543  46.524  1.00  0.00     0.014 C 
ENDROOT
BRANCH   1  30
ATOM     30  C   UNL     1       3.223  25.569  41.455  1.00  0.00     0.048 C 
ATOM     31  O   UNL     1       3.794  24.469  41.233  1.00  0.00    -0.550 OA
ATOM     32  O   UNL     1       2.410  26.109  40.466  1.00  0.00    -0.550 OA
ENDBRANCH   1  30
BRANCH  27  33
ATOM     33  O   UNL     1       9.416  17.904  44.206  1.00  0.00    -0.393 OA
ATOM     34  H   UNL     1       9.429  17.424  43.337  1.00  0.00     0.210 HD
ENDBRANCH  27  33
TORSDOF 2
ENDMDL
MODEL 7
REMARK VINA RESULT:    -1.743      3.010      5.623
REMARK INTER + INTRA:          -1.468
REMARK INTER:                  -2.007
REMARK INTRA:                   0.540
REMARK UNBOUND:                 0.428
REMARK SMILES CC1(C)CC[C@@]2(C(=O)[O-])CC[C@@]3(C)C(=CC[C@H]4[C@@]5(C)CC[C@H](O)C(C)(C)[C@@H]5CC[C@@]43C)[C@@H]2C1
REMARK SMILES IDX 6 1 5 2 10 3 32 4 4 5 11 6 14 7 33 8 2 9 12 10 15 11 1 12
REMARK SMILES IDX 3 13 13 14 30 15 16 16 17 17 29 18 31 19 18 20 28 21 27 22
REMARK SMILES IDX 20 23 19 24 24 25 21 26 22 27 25 28 26 29 7 30 8 31 9 32
REMARK SMILES IDX 23 33
REMARK H PARENT 23 34
REMARK Flexibility Score: inf
ROOT
ATOM      1  C   UNL     1      10.278  17.996  44.161  1.00  0.00     0.017 C 
ATOM      2  C   UNL     1      10.947  16.607  44.368  1.00  0.00     0.014 C 
ATOM      3  C   UNL     1       8.765  17.821  43.773  1.00  0.00     0.014 C 
ATOM      4  C   UNL     1      10.417  18.763  45.508  1.00  0.00     0.028 C 
ATOM      5  C   UNL     1      12.429  16.728  44.784  1.00  0.00     0.007 C 
ATOM      6  C   UNL     1       7.736  18.291  44.836  1.00  0.00     0.013 C 
ATOM      7  C   UNL     1       9.516  19.989  45.496  1.00  0.00    -0.064 C 
ATOM      8  C   UNL     1      11.895  18.962  45.924  1.00  0.00     0.015 C 
ATOM      9  C   UNL     1      12.659  17.610  46.046  1.00  0.00    -0.035 C 
ATOM     10  C   UNL     1       8.008  19.705  45.495  1.00  0.00    -0.006 C 
ATOM     11  C   UNL     1      10.005  21.253  45.511  1.00  0.00    -0.027 C 
ATOM     12  C   UNL     1      12.230  16.843  47.321  1.00  0.00     0.011 C 
ATOM     13  C   UNL     1      14.169  17.911  46.169  1.00  0.00     0.011 C 
ATOM     14  C   UNL     1       7.633  19.590  47.016  1.00  0.00     0.017 C 
ATOM     15  C   UNL     1       7.210  20.884  44.744  1.00  0.00    -0.020 C 
ATOM     16  C   UNL     1       9.171  22.485  45.257  1.00  0.00     0.032 C 
ATOM     17  C   UNL     1       7.644  22.259  45.394  1.00  0.00     0.006 C 
ATOM     18  C   UNL     1       5.640  20.665  44.843  1.00  0.00     0.008 C 
ATOM     19  C   UNL     1       7.606  20.887  43.231  1.00  0.00     0.012 C 
ATOM     20  C   UNL     1       6.755  23.567  45.100  1.00  0.00    -0.025 C 
ATOM     21  C   UNL     1       4.826  21.906  45.250  1.00  0.00     0.005 C 
ATOM     22  C   UNL     1       5.369  23.137  44.501  1.00  0.00     0.003 C 
ATOM     23  C   UNL     1       7.401  24.550  44.078  1.00  0.00     0.010 C 
ATOM     24  C   UNL     1       6.628  24.316  46.469  1.00  0.00     0.012 C 
ATOM     25  C   UNL     1       4.355  24.295  44.153  1.00  0.00    -0.006 C 
ATOM     26  C   UNL     1       6.489  25.742  43.717  1.00  0.00     0.033 C 
ATOM     27  C   UNL     1       5.093  25.319  43.218  1.00  0.00     0.120 C 
ATOM     28  C   UNL     1       3.165  23.713  43.336  1.00  0.00     0.014 C 
ATOM     29  C   UNL     1       3.753  24.988  45.405  1.00  0.00     0.014 C 
ENDROOT
BRANCH   1  30
ATOM     30  C   UNL     1      10.972  18.710  42.999  1.00  0.00     0.048 C 
ATOM     31  O   UNL     1      10.464  19.727  42.458  1.00  0.00    -0.550 OA
ATOM     32  O   UNL     1      12.136  18.179  42.456  1.00  0.00    -0.550 OA
ENDBRANCH   1  30
BRANCH  27  33
ATOM     33  O   UNL     1       4.313  26.478  43.041  1.00  0.00    -0.393 OA
ATOM     34  H   UNL     1       3.398  26.277  43.369  1.00  0.00     0.210 HD
ENDBRANCH  27  33
TORSDOF 2
ENDMDL
MODEL 8
REMARK VINA RESULT:    -1.487      2.797      5.271
REMARK INTER + INTRA:          -1.189
REMARK INTER:                  -1.729
REMARK INTRA:                   0.540
REMARK UNBOUND:                 0.428
REMARK SMILES CC1(C)CC[C@@]2(C(=O)[O-])CC[C@@]3(C)C(=CC[C@H]4[C@@]5(C)CC[C@H](O)C(C)(C)[C@@H]5CC[C@@]43C)[C@@H]2C1
REMARK SMILES IDX 6 1 5 2 10 3 32 4 4 5 11 6 14 7 33 8 2 9 12 10 15 11 1 12
REMARK SMILES IDX 3 13 13 14 30 15 16 16 17 17 29 18 31 19 18 20 28 21 27 22
REMARK SMILES IDX 20 23 19 24 24 25 21 26 22 27 25 28 26 29 7 30 8 31 9 32
REMARK SMILES IDX 23 33
REMARK H PARENT 23 34
REMARK Flexibility Score: inf
ROOT
ATOM      1  C   UNL     1      10.883  19.085  45.869  1.00  0.00     0.017 C 
ATOM      2  C   UNL     1      12.300  18.482  46.083  1.00  0.00     0.014 C 
ATOM      3  C   UNL     1      10.938  20.654  45.957  1.00  0.00     0.014 C 
ATOM      4  C   UNL     1      10.410  18.628  44.459  1.00  0.00     0.028 C 
ATOM      5  C   UNL     1      12.302  16.941  45.972  1.00  0.00     0.007 C 
ATOM      6  C   UNL     1      10.671  21.415  44.632  1.00  0.00     0.013 C 
ATOM      7  C   UNL     1       9.187  19.431  44.042  1.00  0.00    -0.064 C 
ATOM      8  C   UNL     1      10.336  17.087  44.332  1.00  0.00     0.015 C 
ATOM      9  C   UNL     1      11.703  16.405  44.640  1.00  0.00    -0.035 C 
ATOM     10  C   UNL     1       9.429  20.923  43.782  1.00  0.00    -0.006 C 
ATOM     11  C   UNL     1       7.964  18.866  43.884  1.00  0.00    -0.027 C 
ATOM     12  C   UNL     1      12.704  16.618  43.477  1.00  0.00     0.011 C 
ATOM     13  C   UNL     1      11.470  14.885  44.781  1.00  0.00     0.011 C 
ATOM     14  C   UNL     1       9.842  20.992  42.268  1.00  0.00     0.017 C 
ATOM     15  C   UNL     1       8.101  21.777  44.103  1.00  0.00    -0.020 C 
ATOM     16  C   UNL     1       6.687  19.651  43.712  1.00  0.00     0.032 C 
ATOM     17  C   UNL     1       6.899  21.130  43.304  1.00  0.00     0.006 C 
ATOM     18  C   UNL     1       8.298  23.305  43.721  1.00  0.00     0.008 C 
ATOM     19  C   UNL     1       7.799  21.693  45.636  1.00  0.00     0.012 C 
ATOM     20  C   UNL     1       5.538  21.972  43.144  1.00  0.00    -0.025 C 
ATOM     21  C   UNL     1       7.148  23.937  42.918  1.00  0.00     0.005 C 
ATOM     22  C   UNL     1       5.803  23.476  43.510  1.00  0.00     0.003 C 
ATOM     23  C   UNL     1       4.383  21.481  44.067  1.00  0.00     0.010 C 
ATOM     24  C   UNL     1       5.082  21.771  41.659  1.00  0.00     0.012 C 
ATOM     25  C   UNL     1       4.574  24.460  43.404  1.00  0.00    -0.006 C 
ATOM     26  C   UNL     1       3.121  22.367  43.989  1.00  0.00     0.033 C 
ATOM     27  C   UNL     1       3.399  23.860  44.256  1.00  0.00     0.120 C 
ATOM     28  C   UNL     1       4.948  25.826  44.051  1.00  0.00     0.014 C 
ATOM     29  C   UNL     1       4.138  24.751  41.943  1.00  0.00     0.014 C 
ENDROOT
BRANCH   1  30
ATOM     30  C   UNL     1       9.963  18.594  46.989  1.00  0.00     0.048 C 
ATOM     31  O   UNL     1       8.832  19.113  47.184  1.00  0.00    -0.550 OA
ATOM     32  O   UNL     1      10.412  17.623  47.878  1.00  0.00    -0.550 OA
ENDBRANCH   1  30
BRANCH  27  33
ATOM     33  O   UNL     1       2.210  24.581  44.036  1.00  0.00    -0.393 OA
ATOM     34  H   UNL     1       1.453  24.004  44.320  1.00  0.00     0.210 HD
ENDBRANCH  27  33
TORSDOF 2
ENDMDL
