MODEL 1
REMARK VINA RESULT:    -3.012      0.000      0.000
REMARK INTER + INTRA:          -4.040
REMARK INTER:                  -3.892
REMARK INTRA:                  -0.147
REMARK UNBOUND:                -0.147
REMARK SMILES CCCCCCC(=O)[O-]
REMARK SMILES IDX 5 1 6 2 7 3 8 4 9 5 4 6 3 7 2 8 1 9
REMARK H PARENT
REMARK Flexibility Score: inf
ROOT
ATOM      1  C   UNL     1      57.232  25.681  50.828  1.00  0.00     0.006 C 
ENDROOT
BRANCH   1   2
ATOM      2  C   UNL     1      58.470  25.300  50.000  1.00  0.00     0.053 C 
BRANCH   2   3
ATOM      3  C   UNL     1      59.305  24.261  50.683  1.00  0.00     0.041 C 
ATOM      4  O   UNL     1      59.058  23.933  51.872  1.00  0.00    -0.550 OA
ATOM      5  O   UNL     1      60.377  23.682  50.016  1.00  0.00    -0.550 OA
ENDBRANCH   2   3
ENDBRANCH   1   2
BRANCH   1   6
ATOM      6  C   UNL     1      55.903  25.596  50.054  1.00  0.00     0.000 C 
BRANCH   6   7
ATOM      7  C   UNL     1      55.002  26.820  50.286  1.00  0.00    -0.000 C 
BRANCH   7   8
ATOM      8  C   UNL     1      53.972  27.012  49.162  1.00  0.00    -0.003 C 
ATOM      9  C   UNL     1      53.919  25.825  48.201  1.00  0.00     0.004 C 
ENDBRANCH   7   8
ENDBRANCH   6   7
ENDBRANCH   1   6
TORSDOF 5
ENDMDL
MODEL 2
REMARK VINA RESULT:    -2.978     14.515     15.600
REMARK INTER + INTRA:          -3.995
REMARK INTER:                  -3.864
REMARK INTRA:                  -0.131
REMARK UNBOUND:                -0.147
REMARK SMILES CCCCCCC(=O)[O-]
REMARK SMILES IDX 5 1 6 2 7 3 8 4 9 5 4 6 3 7 2 8 1 9
REMARK H PARENT
REMARK Flexibility Score: inf
ROOT
ATOM      1  C   UNL     1      64.970  32.746  60.073  1.00  0.00     0.006 C 
ENDROOT
BRANCH   1   2
ATOM      2  C   UNL     1      65.134  31.406  60.809  1.00  0.00     0.053 C 
BRANCH   2   3
ATOM      3  C   UNL     1      66.057  30.475  60.083  1.00  0.00     0.041 C 
ATOM      4  O   UNL     1      66.306  30.657  58.863  1.00  0.00    -0.550 OA
ATOM      5  O   UNL     1      66.612  29.389  60.746  1.00  0.00    -0.550 OA
ENDBRANCH   2   3
ENDBRANCH   1   2
BRANCH   1   6
ATOM      6  C   UNL     1      64.947  33.976  60.999  1.00  0.00     0.000 C 
BRANCH   6   7
ATOM      7  C   UNL     1      63.726  34.880  60.756  1.00  0.00    -0.000 C 
BRANCH   7   8
ATOM      8  C   UNL     1      63.653  36.048  61.751  1.00  0.00    -0.003 C 
ATOM      9  C   UNL     1      64.766  36.002  62.797  1.00  0.00     0.004 C 
ENDBRANCH   7   8
ENDBRANCH   6   7
ENDBRANCH   1   6
TORSDOF 5
ENDMDL
MODEL 3
REMARK VINA RESULT:    -2.882     14.213     15.511
REMARK INTER + INTRA:          -3.872
REMARK INTER:                  -3.782
REMARK INTRA:                  -0.090
REMARK UNBOUND:                -0.147
REMARK SMILES CCCCCCC(=O)[O-]
REMARK SMILES IDX 5 1 6 2 7 3 8 4 9 5 4 6 3 7 2 8 1 9
REMARK H PARENT
REMARK Flexibility Score: inf
ROOT
ATOM      1  C   UNL     1      64.665  33.152  60.155  1.00  0.00     0.006 C 
ENDROOT
BRANCH   1   2
ATOM      2  C   UNL     1      64.862  34.372  61.069  1.00  0.00     0.053 C 
BRANCH   2   3
ATOM      3  C   UNL     1      63.675  35.286  61.050  1.00  0.00     0.041 C 
ATOM      4  O   UNL     1      63.502  36.117  61.978  1.00  0.00    -0.550 OA
ATOM      5  O   UNL     1      62.743  35.194  60.025  1.00  0.00    -0.550 OA
ENDBRANCH   2   3
ENDBRANCH   1   2
BRANCH   1   6
ATOM      6  C   UNL     1      65.102  31.815  60.783  1.00  0.00     0.000 C 
BRANCH   6   7
ATOM      7  C   UNL     1      64.272  30.622  60.279  1.00  0.00    -0.000 C 
BRANCH   7   8
ATOM      8  C   UNL     1      64.243  29.461  61.285  1.00  0.00    -0.003 C 
ATOM      9  C   UNL     1      62.827  28.955  61.560  1.00  0.00     0.004 C 
ENDBRANCH   7   8
ENDBRANCH   6   7
ENDBRANCH   1   6
TORSDOF 5
ENDMDL
MODEL 4
REMARK VINA RESULT:    -2.866     13.972     15.087
REMARK INTER + INTRA:          -3.851
REMARK INTER:                  -3.710
REMARK INTRA:                  -0.140
REMARK UNBOUND:                -0.147
REMARK SMILES CCCCCCC(=O)[O-]
REMARK SMILES IDX 5 1 6 2 7 3 8 4 9 5 4 6 3 7 2 8 1 9
REMARK H PARENT
REMARK Flexibility Score: inf
ROOT
ATOM      1  C   UNL     1      65.079  32.204  60.702  1.00  0.00     0.006 C 
ENDROOT
BRANCH   1   2
ATOM      2  C   UNL     1      64.254  31.150  59.946  1.00  0.00     0.053 C 
BRANCH   2   3
ATOM      3  C   UNL     1      64.041  29.912  60.761  1.00  0.00     0.041 C 
ATOM      4  O   UNL     1      65.025  29.313  61.269  1.00  0.00    -0.550 OA
ATOM      5  O   UNL     1      62.761  29.401  60.930  1.00  0.00    -0.550 OA
ENDBRANCH   2   3
ENDBRANCH   1   2
BRANCH   1   6
ATOM      6  C   UNL     1      64.677  33.659  60.398  1.00  0.00     0.000 C 
BRANCH   6   7
ATOM      7  C   UNL     1      65.150  34.645  61.479  1.00  0.00    -0.000 C 
BRANCH   7   8
ATOM      8  C   UNL     1      64.101  35.723  61.791  1.00  0.00    -0.003 C 
ATOM      9  C   UNL     1      62.917  35.690  60.826  1.00  0.00     0.004 C 
ENDBRANCH   7   8
ENDBRANCH   6   7
ENDBRANCH   1   6
TORSDOF 5
ENDMDL
MODEL 5
REMARK VINA RESULT:    -2.790      3.240      5.057
REMARK INTER + INTRA:          -3.753
REMARK INTER:                  -3.543
REMARK INTRA:                  -0.210
REMARK UNBOUND:                -0.147
REMARK SMILES CCCCCCC(=O)[O-]
REMARK SMILES IDX 5 1 6 2 7 3 8 4 9 5 4 6 3 7 2 8 1 9
REMARK H PARENT
REMARK Flexibility Score: inf
ROOT
ATOM      1  C   UNL     1      56.205  26.633  51.046  1.00  0.00     0.006 C 
ENDROOT
BRANCH   1   2
ATOM      2  C   UNL     1      55.500  25.601  50.151  1.00  0.00     0.053 C 
BRANCH   2   3
ATOM      3  C   UNL     1      54.560  26.248  49.179  1.00  0.00     0.041 C 
ATOM      4  O   UNL     1      54.194  25.629  48.146  1.00  0.00    -0.550 OA
ATOM      5  O   UNL     1      54.118  27.546  49.398  1.00  0.00    -0.550 OA
ENDBRANCH   2   3
ENDBRANCH   1   2
BRANCH   1   6
ATOM      6  C   UNL     1      57.701  26.350  51.278  1.00  0.00     0.000 C 
BRANCH   6   7
ATOM      7  C   UNL     1      58.214  25.156  50.456  1.00  0.00    -0.000 C 
BRANCH   7   8
ATOM      8  C   UNL     1      59.402  25.529  49.556  1.00  0.00    -0.003 C 
ATOM      9  C   UNL     1      60.307  26.589  50.183  1.00  0.00     0.004 C 
ENDBRANCH   7   8
ENDBRANCH   6   7
ENDBRANCH   1   6
TORSDOF 5
ENDMDL
MODEL 6
REMARK VINA RESULT:    -2.768     18.858     19.785
REMARK INTER + INTRA:          -3.724
REMARK INTER:                  -3.522
REMARK INTRA:                  -0.202
REMARK UNBOUND:                -0.147
REMARK SMILES CCCCCCC(=O)[O-]
REMARK SMILES IDX 5 1 6 2 7 3 8 4 9 5 4 6 3 7 2 8 1 9
REMARK H PARENT
REMARK Flexibility Score: inf
ROOT
ATOM      1  C   UNL     1      72.625  31.487  59.808  1.00  0.00     0.006 C 
ENDROOT
BRANCH   1   2
ATOM      2  C   UNL     1      73.796  30.727  60.452  1.00  0.00     0.053 C 
BRANCH   2   3
ATOM      3  C   UNL     1      73.357  29.909  61.628  1.00  0.00     0.041 C 
ATOM      4  O   UNL     1      72.449  29.048  61.495  1.00  0.00    -0.550 OA
ATOM      5  O   UNL     1      73.926  30.123  62.876  1.00  0.00    -0.550 OA
ENDBRANCH   2   3
ENDBRANCH   1   2
BRANCH   1   6
ATOM      6  C   UNL     1      72.275  32.816  60.503  1.00  0.00     0.000 C 
BRANCH   6   7
ATOM      7  C   UNL     1      71.559  33.805  59.568  1.00  0.00    -0.000 C 
BRANCH   7   8
ATOM      8  C   UNL     1      71.738  33.445  58.085  1.00  0.00    -0.003 C 
ATOM      9  C   UNL     1      71.976  34.672  57.206  1.00  0.00     0.004 C 
ENDBRANCH   7   8
ENDBRANCH   6   7
ENDBRANCH   1   6
TORSDOF 5
ENDMDL
MODEL 7
REMARK VINA RESULT:    -2.709     18.106     19.745
REMARK INTER + INTRA:          -3.649
REMARK INTER:                  -3.305
REMARK INTRA:                  -0.343
REMARK UNBOUND:                -0.147
REMARK SMILES CCCCCCC(=O)[O-]
REMARK SMILES IDX 5 1 6 2 7 3 8 4 9 5 4 6 3 7 2 8 1 9
REMARK H PARENT
REMARK Flexibility Score: inf
ROOT
ATOM      1  C   UNL     1      71.037  30.008  59.896  1.00  0.00     0.006 C 
ENDROOT
BRANCH   1   2
ATOM      2  C   UNL     1      72.044  30.883  59.132  1.00  0.00     0.053 C 
BRANCH   2   3
ATOM      3  C   UNL     1      71.876  32.338  59.446  1.00  0.00     0.041 C 
ATOM      4  O   UNL     1      71.192  33.074  58.689  1.00  0.00    -0.550 OA
ATOM      5  O   UNL     1      72.505  32.886  60.556  1.00  0.00    -0.550 OA
ENDBRANCH   2   3
ENDBRANCH   1   2
BRANCH   1   6
ATOM      6  C   UNL     1      71.626  29.300  61.131  1.00  0.00     0.000 C 
BRANCH   6   7
ATOM      7  C   UNL     1      72.876  28.467  60.799  1.00  0.00    -0.000 C 
BRANCH   7   8
ATOM      8  C   UNL     1      74.124  28.958  61.547  1.00  0.00    -0.003 C 
ATOM      9  C   UNL     1      73.841  30.166  62.439  1.00  0.00     0.004 C 
ENDBRANCH   7   8
ENDBRANCH   6   7
ENDBRANCH   1   6
TORSDOF 5
ENDMDL
MODEL 8
REMARK VINA RESULT:    -2.698     16.702     18.545
REMARK INTER + INTRA:          -3.634
REMARK INTER:                  -3.489
REMARK INTRA:                  -0.145
REMARK UNBOUND:                -0.147
REMARK SMILES CCCCCCC(=O)[O-]
REMARK SMILES IDX 5 1 6 2 7 3 8 4 9 5 4 6 3 7 2 8 1 9
REMARK H PARENT
REMARK Flexibility Score: inf
ROOT
ATOM      1  C   UNL     1      72.249  30.112  61.387  1.00  0.00     0.006 C 
ENDROOT
BRANCH   1   2
ATOM      2  C   UNL     1      72.972  30.844  60.245  1.00  0.00     0.053 C 
BRANCH   2   3
ATOM      3  C   UNL     1      72.304  32.138  59.895  1.00  0.00     0.041 C 
ATOM      4  O   UNL     1      72.357  33.113  60.690  1.00  0.00    -0.550 OA
ATOM      5  O   UNL     1      71.595  32.256  58.707  1.00  0.00    -0.550 OA
ENDBRANCH   2   3
ENDBRANCH   1   2
BRANCH   1   6
ATOM      6  C   UNL     1      71.522  28.826  60.953  1.00  0.00     0.000 C 
BRANCH   6   7
ATOM      7  C   UNL     1      70.050  29.071  60.584  1.00  0.00    -0.000 C 
BRANCH   7   8
ATOM      8  C   UNL     1      69.084  28.636  61.697  1.00  0.00    -0.003 C 
ATOM      9  C   UNL     1      67.696  28.277  61.167  1.00  0.00     0.004 C 
ENDBRANCH   7   8
ENDBRANCH   6   7
ENDBRANCH   1   6
TORSDOF 5
ENDMDL
MODEL 9
REMARK VINA RESULT:    -2.604     17.986     19.222
REMARK INTER + INTRA:          -3.513
REMARK INTER:                  -3.240
REMARK INTRA:                  -0.273
REMARK UNBOUND:                -0.147
REMARK SMILES CCCCCCC(=O)[O-]
REMARK SMILES IDX 5 1 6 2 7 3 8 4 9 5 4 6 3 7 2 8 1 9
REMARK H PARENT
REMARK Flexibility Score: inf
ROOT
ATOM      1  C   UNL     1      73.051  31.011  60.141  1.00  0.00     0.006 C 
ENDROOT
BRANCH   1   2
ATOM      2  C   UNL     1      71.979  31.585  59.201  1.00  0.00     0.053 C 
BRANCH   2   3
ATOM      3  C   UNL     1      71.898  33.078  59.286  1.00  0.00     0.041 C 
ATOM      4  O   UNL     1      71.952  33.775  58.240  1.00  0.00    -0.550 OA
ATOM      5  O   UNL     1      71.798  33.700  60.524  1.00  0.00    -0.550 OA
ENDBRANCH   2   3
ENDBRANCH   1   2
BRANCH   1   6
ATOM      6  C   UNL     1      72.489  30.153  61.290  1.00  0.00     0.000 C 
BRANCH   6   7
ATOM      7  C   UNL     1      72.444  28.654  60.945  1.00  0.00    -0.000 C 
BRANCH   7   8
ATOM      8  C   UNL     1      71.060  28.206  60.451  1.00  0.00    -0.003 C 
ATOM      9  C   UNL     1      69.917  28.916  61.175  1.00  0.00     0.004 C 
ENDBRANCH   7   8
ENDBRANCH   6   7
ENDBRANCH   1   6
TORSDOF 5
ENDMDL
