MODEL 1
REMARK VINA RESULT:    -7.262      0.000      0.000
REMARK INTER + INTRA:         -11.341
REMARK INTER:                 -10.445
REMARK INTRA:                  -0.895
REMARK UNBOUND:                -0.895
REMARK SMILES C=C(CC[C@H](C(=O)[O-])[C@@H]1[C@H](O)C[C@@]2(C)C3=C(CC[C@@]12C)[C@]1(C)CC[C@H](OC(C)=O)C(C)(C)[C@@H]1CC3)C(C)C
REMARK SMILES IDX 4 1 5 2 6 3 7 4 8 5 9 6 10 7 19 8 12 9 13 10 18 11 20 12
REMARK SMILES IDX 14 13 15 14 17 15 16 16 35 17 21 18 34 19 33 20 23 21 22 22
REMARK SMILES IDX 30 23 24 24 25 25 31 26 32 27 11 28 26 30 27 31 29 32 28 33
REMARK SMILES IDX 3 34 2 35 1 36 36 37 37 38 38 39
REMARK H PARENT 11 29
REMARK Flexibility Score: inf
ROOT
ATOM      1  C   UNL     1      12.149   4.333  52.470  1.00  0.00     0.014 C 
ENDROOT
BRANCH   1   2
ATOM      2  C   UNL     1      12.403   4.518  50.949  1.00  0.00     0.042 C 
BRANCH   2   3
ATOM      3  C   UNL     1      13.881   4.660  50.635  1.00  0.00     0.045 C 
ATOM      4  O   UNL     1      14.624   5.332  51.397  1.00  0.00    -0.550 OA
ATOM      5  O   UNL     1      14.419   4.131  49.462  1.00  0.00    -0.550 OA
ENDBRANCH   2   3
BRANCH   2   6
ATOM      6  C   UNL     1      11.456   5.615  50.327  1.00  0.00     0.033 C 
ATOM      7  C   UNL     1      10.111   5.809  51.044  1.00  0.00     0.119 C 
ATOM      8  C   UNL     1      11.168   5.720  48.773  1.00  0.00    -0.017 C 
ATOM      9  C   UNL     1       9.289   6.675  50.091  1.00  0.00     0.043 C 
ATOM     10  C   UNL     1       9.658   6.230  48.655  1.00  0.00    -0.003 C 
ATOM     11  C   UNL     1      12.160   6.749  48.147  1.00  0.00     0.012 C 
ATOM     12  C   UNL     1      11.399   4.387  48.011  1.00  0.00     0.013 C 
ATOM     13  C   UNL     1       8.657   5.082  48.287  1.00  0.00     0.017 C 
ATOM     14  C   UNL     1       9.483   7.456  47.697  1.00  0.00    -0.064 C 
ATOM     15  C   UNL     1      11.727   8.194  48.401  1.00  0.00     0.032 C 
ATOM     16  C   UNL     1      10.413   8.459  47.686  1.00  0.00    -0.064 C 
ATOM     17  C   UNL     1       8.244   7.593  46.828  1.00  0.00     0.032 C 
ATOM     18  C   UNL     1      10.089   9.885  47.140  1.00  0.00    -0.008 C 
ATOM     19  C   UNL     1       8.516   8.446  45.608  1.00  0.00     0.009 C 
ATOM     20  C   UNL     1       9.031   9.871  45.940  1.00  0.00     0.009 C 
ATOM     21  C   UNL     1       9.587  10.732  48.352  1.00  0.00     0.015 C 
ATOM     22  C   UNL     1      11.395  10.542  46.607  1.00  0.00     0.016 C 
ATOM     23  C   UNL     1       7.946  11.041  45.967  1.00  0.00     0.005 C 
ATOM     24  C   UNL     1       8.083  10.631  48.564  1.00  0.00     0.047 C 
ATOM     25  C   UNL     1       7.306  11.272  47.403  1.00  0.00     0.182 C 
ATOM     26  C   UNL     1       8.642  12.374  45.524  1.00  0.00     0.015 C 
ATOM     27  C   UNL     1       6.846  10.818  44.894  1.00  0.00     0.015 C 
BRANCH   7  28
ATOM     28  O   UNL     1       9.464   4.588  51.274  1.00  0.00    -0.393 OA
ATOM     29  H   UNL     1       8.663   4.786  51.828  1.00  0.00     0.210 HD
ENDBRANCH   7  28
BRANCH  25  30
ATOM     30  O   UNL     1       5.787  10.909  47.508  1.00  0.00    -0.462 OA
BRANCH  30  31
ATOM     31  C   UNL     1       4.788  11.797  48.091  1.00  0.00     0.302 C 
ATOM     32  O   UNL     1       5.606  10.854  48.180  1.00  0.00    -0.253 OA
ATOM     33  C   UNL     1       4.650  12.459  49.418  1.00  0.00     0.139 C 
ENDBRANCH  30  31
ENDBRANCH  25  30
ENDBRANCH   2   6
ENDBRANCH   1   2
BRANCH   1  34
ATOM     34  C   UNL     1      11.929   2.872  52.914  1.00  0.00     0.031 C 
BRANCH  34  35
ATOM     35  C   UNL     1      11.017   2.718  54.121  1.00  0.00    -0.075 C 
ATOM     36  C   UNL     1      11.538   2.820  55.358  1.00  0.00     0.008 C 
BRANCH  35  37
ATOM     37  C   UNL     1       9.575   2.242  53.963  1.00  0.00     0.008 C 
ATOM     38  C   UNL     1       9.310   0.936  54.716  1.00  0.00     0.012 C 
ATOM     39  C   UNL     1       8.599   3.336  54.405  1.00  0.00     0.012 C 
ENDBRANCH  35  37
ENDBRANCH  34  35
ENDBRANCH   1  34
TORSDOF 9
ENDMDL
MODEL 2
REMARK VINA RESULT:    -7.245      0.578      1.010
REMARK INTER + INTRA:         -11.317
REMARK INTER:                 -10.225
REMARK INTRA:                  -1.092
REMARK UNBOUND:                -0.895
REMARK SMILES C=C(CC[C@H](C(=O)[O-])[C@@H]1[C@H](O)C[C@@]2(C)C3=C(CC[C@@]12C)[C@]1(C)CC[C@H](OC(C)=O)C(C)(C)[C@@H]1CC3)C(C)C
REMARK SMILES IDX 4 1 5 2 6 3 7 4 8 5 9 6 10 7 19 8 12 9 13 10 18 11 20 12
REMARK SMILES IDX 14 13 15 14 17 15 16 16 35 17 21 18 34 19 33 20 23 21 22 22
REMARK SMILES IDX 30 23 24 24 25 25 31 26 32 27 11 28 26 30 27 31 29 32 28 33
REMARK SMILES IDX 3 34 2 35 1 36 36 37 37 38 38 39
REMARK H PARENT 11 29
REMARK Flexibility Score: inf
ROOT
ATOM      1  C   UNL     1      12.693   4.315  52.212  1.00  0.00     0.014 C 
ENDROOT
BRANCH   1   2
ATOM      2  C   UNL     1      12.783   4.464  50.669  1.00  0.00     0.042 C 
BRANCH   2   3
ATOM      3  C   UNL     1      14.218   4.587  50.194  1.00  0.00     0.045 C 
ATOM      4  O   UNL     1      14.991   5.421  50.735  1.00  0.00    -0.550 OA
ATOM      5  O   UNL     1      14.679   3.852  49.102  1.00  0.00    -0.550 OA
ENDBRANCH   2   3
BRANCH   2   6
ATOM      6  C   UNL     1      11.779   5.553  50.127  1.00  0.00     0.033 C 
ATOM      7  C   UNL     1      10.467   5.690  50.913  1.00  0.00     0.119 C 
ATOM      8  C   UNL     1      11.413   5.696  48.592  1.00  0.00    -0.017 C 
ATOM      9  C   UNL     1       9.578   6.562  50.027  1.00  0.00     0.043 C 
ATOM     10  C   UNL     1       9.887   6.169  48.563  1.00  0.00    -0.003 C 
ATOM     11  C   UNL     1      12.349   6.769  47.951  1.00  0.00     0.012 C 
ATOM     12  C   UNL     1      11.640   4.393  47.780  1.00  0.00     0.013 C 
ATOM     13  C   UNL     1       8.899   5.007  48.208  1.00  0.00     0.017 C 
ATOM     14  C   UNL     1       9.636   7.418  47.651  1.00  0.00    -0.064 C 
ATOM     15  C   UNL     1      11.892   8.193  48.270  1.00  0.00     0.032 C 
ATOM     16  C   UNL     1      10.539   8.445  47.627  1.00  0.00    -0.064 C 
ATOM     17  C   UNL     1       8.353   7.547  46.848  1.00  0.00     0.032 C 
ATOM     18  C   UNL     1      10.154   9.877  47.140  1.00  0.00    -0.008 C 
ATOM     19  C   UNL     1       8.544   8.443  45.642  1.00  0.00     0.009 C 
ATOM     20  C   UNL     1       9.039   9.871  45.992  1.00  0.00     0.009 C 
ATOM     21  C   UNL     1       9.690  10.675  48.401  1.00  0.00     0.015 C 
ATOM     22  C   UNL     1      11.416  10.584  46.566  1.00  0.00     0.016 C 
ATOM     23  C   UNL     1       7.928  11.010  46.107  1.00  0.00     0.005 C 
ATOM     24  C   UNL     1       8.201  10.528  48.681  1.00  0.00     0.047 C 
ATOM     25  C   UNL     1       7.353  11.183  47.579  1.00  0.00     0.182 C 
ATOM     26  C   UNL     1       8.568  12.373  45.672  1.00  0.00     0.015 C 
ATOM     27  C   UNL     1       6.783  10.790  45.081  1.00  0.00     0.015 C 
BRANCH   7  28
ATOM     28  O   UNL     1       9.862   4.446  51.136  1.00  0.00    -0.393 OA
ATOM     29  H   UNL     1       9.900   4.278  52.115  1.00  0.00     0.210 HD
ENDBRANCH   7  28
BRANCH  25  30
ATOM     30  O   UNL     1       5.851  10.776  47.745  1.00  0.00    -0.462 OA
BRANCH  30  31
ATOM     31  C   UNL     1       4.806  11.712  48.147  1.00  0.00     0.302 C 
ATOM     32  O   UNL     1       5.534  10.717  48.364  1.00  0.00    -0.253 OA
ATOM     33  C   UNL     1       4.439  12.348  49.442  1.00  0.00     0.139 C 
ENDBRANCH  30  31
ENDBRANCH  25  30
ENDBRANCH   2   6
ENDBRANCH   1   2
BRANCH   1  34
ATOM     34  C   UNL     1      12.259   2.918  52.702  1.00  0.00     0.031 C 
BRANCH  34  35
ATOM     35  C   UNL     1      11.344   2.940  53.917  1.00  0.00    -0.075 C 
ATOM     36  C   UNL     1      10.651   1.832  54.240  1.00  0.00     0.008 C 
BRANCH  35  37
ATOM     37  C   UNL     1      11.034   4.246  54.645  1.00  0.00     0.008 C 
ATOM     38  C   UNL     1       9.570   4.666  54.482  1.00  0.00     0.012 C 
ATOM     39  C   UNL     1      11.410   4.136  56.124  1.00  0.00     0.012 C 
ENDBRANCH  35  37
ENDBRANCH  34  35
ENDBRANCH   1  34
TORSDOF 9
ENDMDL
MODEL 3
REMARK VINA RESULT:    -6.855      2.510      8.809
REMARK INTER + INTRA:         -10.755
REMARK INTER:                  -9.955
REMARK INTRA:                  -0.801
REMARK UNBOUND:                -0.895
REMARK SMILES C=C(CC[C@H](C(=O)[O-])[C@@H]1[C@H](O)C[C@@]2(C)C3=C(CC[C@@]12C)[C@]1(C)CC[C@H](OC(C)=O)C(C)(C)[C@@H]1CC3)C(C)C
REMARK SMILES IDX 4 1 5 2 6 3 7 4 8 5 9 6 10 7 19 8 12 9 13 10 18 11 20 12
REMARK SMILES IDX 14 13 15 14 17 15 16 16 35 17 21 18 34 19 33 20 23 21 22 22
REMARK SMILES IDX 30 23 24 24 25 25 31 26 32 27 11 28 26 30 27 31 29 32 28 33
REMARK SMILES IDX 3 34 2 35 1 36 36 37 37 38 38 39
REMARK H PARENT 11 29
REMARK Flexibility Score: inf
ROOT
ATOM      1  C   UNL     1       8.485   9.013  46.041  1.00  0.00     0.014 C 
ENDROOT
BRANCH   1   2
ATOM      2  C   UNL     1       9.997   9.274  46.280  1.00  0.00     0.042 C 
BRANCH   2   3
ATOM      3  C   UNL     1      10.814   9.062  45.019  1.00  0.00     0.045 C 
ATOM      4  O   UNL     1      10.727   7.976  44.388  1.00  0.00    -0.550 OA
ATOM      5  O   UNL     1      11.734  10.020  44.591  1.00  0.00    -0.550 OA
ENDBRANCH   2   3
BRANCH   2   6
ATOM      6  C   UNL     1      10.520   8.541  47.574  1.00  0.00     0.033 C 
ATOM      7  C   UNL     1      12.043   8.358  47.659  1.00  0.00     0.119 C 
ATOM      8  C   UNL     1       9.865   7.211  48.132  1.00  0.00    -0.017 C 
ATOM      9  C   UNL     1      12.248   7.381  48.817  1.00  0.00     0.043 C 
ATOM     10  C   UNL     1      11.072   6.377  48.766  1.00  0.00    -0.003 C 
ATOM     11  C   UNL     1       8.810   7.589  49.220  1.00  0.00     0.012 C 
ATOM     12  C   UNL     1       9.094   6.403  47.054  1.00  0.00     0.013 C 
ATOM     13  C   UNL     1      11.545   5.202  47.845  1.00  0.00     0.017 C 
ATOM     14  C   UNL     1      10.789   5.872  50.221  1.00  0.00    -0.064 C 
ATOM     15  C   UNL     1       9.462   7.921  50.562  1.00  0.00     0.032 C 
ATOM     16  C   UNL     1      10.139   6.678  51.115  1.00  0.00    -0.064 C 
ATOM     17  C   UNL     1      11.303   4.521  50.688  1.00  0.00     0.032 C 
ATOM     18  C   UNL     1      10.237   6.455  52.657  1.00  0.00    -0.008 C 
ATOM     19  C   UNL     1      10.468   3.975  51.827  1.00  0.00     0.009 C 
ATOM     20  C   UNL     1      10.397   4.915  53.059  1.00  0.00     0.009 C 
ATOM     21  C   UNL     1      11.435   7.319  53.165  1.00  0.00     0.015 C 
ATOM     22  C   UNL     1       8.943   6.988  53.338  1.00  0.00     0.016 C 
ATOM     23  C   UNL     1      11.414   4.618  54.251  1.00  0.00     0.005 C 
ATOM     24  C   UNL     1      12.763   6.576  53.120  1.00  0.00     0.047 C 
ATOM     25  C   UNL     1      12.787   5.407  54.118  1.00  0.00     0.182 C 
ATOM     26  C   UNL     1      10.737   5.045  55.600  1.00  0.00     0.015 C 
ATOM     27  C   UNL     1      11.659   3.094  54.422  1.00  0.00     0.015 C 
BRANCH   7  28
ATOM     28  O   UNL     1      12.569   7.826  46.474  1.00  0.00    -0.393 OA
ATOM     29  H   UNL     1      11.895   7.186  46.121  1.00  0.00     0.210 HD
ENDBRANCH   7  28
BRANCH  25  30
ATOM     30  O   UNL     1      14.037   4.502  53.853  1.00  0.00    -0.462 OA
BRANCH  30  31
ATOM     31  C   UNL     1      15.223   4.504  54.702  1.00  0.00     0.302 C 
ATOM     32  O   UNL     1      14.672   4.614  53.584  1.00  0.00    -0.253 OA
ATOM     33  C   UNL     1      16.475   5.310  54.718  1.00  0.00     0.139 C 
ENDBRANCH  30  31
ENDBRANCH  25  30
ENDBRANCH   2   6
ENDBRANCH   1   2
BRANCH   1  34
ATOM     34  C   UNL     1       7.633  10.285  45.849  1.00  0.00     0.031 C 
BRANCH  34  35
ATOM     35  C   UNL     1       6.506  10.439  46.858  1.00  0.00    -0.075 C 
ATOM     36  C   UNL     1       5.251  10.652  46.418  1.00  0.00     0.008 C 
BRANCH  35  37
ATOM     37  C   UNL     1       6.799  10.571  48.351  1.00  0.00     0.008 C 
ATOM     38  C   UNL     1       8.018  11.455  48.626  1.00  0.00     0.012 C 
ATOM     39  C   UNL     1       5.566  11.091  49.094  1.00  0.00     0.012 C 
ENDBRANCH  35  37
ENDBRANCH  34  35
ENDBRANCH   1  34
TORSDOF 9
ENDMDL
MODEL 4
REMARK VINA RESULT:    -6.795      2.342      8.887
REMARK INTER + INTRA:         -10.670
REMARK INTER:                  -9.716
REMARK INTRA:                  -0.954
REMARK UNBOUND:                -0.895
REMARK SMILES C=C(CC[C@H](C(=O)[O-])[C@@H]1[C@H](O)C[C@@]2(C)C3=C(CC[C@@]12C)[C@]1(C)CC[C@H](OC(C)=O)C(C)(C)[C@@H]1CC3)C(C)C
REMARK SMILES IDX 4 1 5 2 6 3 7 4 8 5 9 6 10 7 19 8 12 9 13 10 18 11 20 12
REMARK SMILES IDX 14 13 15 14 17 15 16 16 35 17 21 18 34 19 33 20 23 21 22 22
REMARK SMILES IDX 30 23 24 24 25 25 31 26 32 27 11 28 26 30 27 31 29 32 28 33
REMARK SMILES IDX 3 34 2 35 1 36 36 37 37 38 38 39
REMARK H PARENT 11 29
REMARK Flexibility Score: inf
ROOT
ATOM      1  C   UNL     1       8.126   8.962  46.106  1.00  0.00     0.014 C 
ENDROOT
BRANCH   1   2
ATOM      2  C   UNL     1       9.653   8.986  46.387  1.00  0.00     0.042 C 
BRANCH   2   3
ATOM      3  C   UNL     1      10.463   8.687  45.140  1.00  0.00     0.045 C 
ATOM      4  O   UNL     1      11.156   9.593  44.607  1.00  0.00    -0.550 OA
ATOM      5  O   UNL     1      10.384   7.442  44.514  1.00  0.00    -0.550 OA
ENDBRANCH   2   3
BRANCH   2   6
ATOM      6  C   UNL     1      10.025   8.148  47.671  1.00  0.00     0.033 C 
ATOM      7  C   UNL     1       8.856   7.838  48.618  1.00  0.00     0.119 C 
ATOM      8  C   UNL     1      11.278   8.480  48.580  1.00  0.00    -0.017 C 
ATOM      9  C   UNL     1       9.521   7.304  49.886  1.00  0.00     0.043 C 
ATOM     10  C   UNL     1      10.835   8.100  50.068  1.00  0.00    -0.003 C 
ATOM     11  C   UNL     1      12.484   7.607  48.111  1.00  0.00     0.012 C 
ATOM     12  C   UNL     1      11.749   9.955  48.466  1.00  0.00     0.013 C 
ATOM     13  C   UNL     1      10.467   9.355  50.930  1.00  0.00     0.017 C 
ATOM     14  C   UNL     1      11.866   7.188  50.815  1.00  0.00    -0.064 C 
ATOM     15  C   UNL     1      12.392   6.172  48.631  1.00  0.00     0.032 C 
ATOM     16  C   UNL     1      12.502   6.178  50.147  1.00  0.00    -0.064 C 
ATOM     17  C   UNL     1      12.114   7.354  52.305  1.00  0.00     0.032 C 
ATOM     18  C   UNL     1      13.152   4.971  50.893  1.00  0.00    -0.008 C 
ATOM     19  C   UNL     1      13.486   6.848  52.697  1.00  0.00     0.009 C 
ATOM     20  C   UNL     1      13.735   5.361  52.331  1.00  0.00     0.009 C 
ATOM     21  C   UNL     1      12.062   3.855  50.987  1.00  0.00     0.015 C 
ATOM     22  C   UNL     1      14.331   4.414  50.043  1.00  0.00     0.016 C 
ATOM     23  C   UNL     1      13.497   4.286  53.484  1.00  0.00     0.005 C 
ATOM     24  C   UNL     1      11.200   3.974  52.236  1.00  0.00     0.047 C 
ATOM     25  C   UNL     1      12.016   3.710  53.511  1.00  0.00     0.182 C 
ATOM     26  C   UNL     1      14.481   3.087  53.256  1.00  0.00     0.015 C 
ATOM     27  C   UNL     1      13.904   4.846  54.874  1.00  0.00     0.015 C 
BRANCH   7  28
ATOM     28  O   UNL     1       8.103   8.984  48.907  1.00  0.00    -0.393 OA
ATOM     29  H   UNL     1       8.371   9.679  48.249  1.00  0.00     0.210 HD
ENDBRANCH   7  28
BRANCH  25  30
ATOM     30  O   UNL     1      11.182   4.110  54.774  1.00  0.00    -0.462 OA
BRANCH  30  31
ATOM     31  C   UNL     1      10.687   3.144  55.749  1.00  0.00     0.302 C 
ATOM     32  O   UNL     1      10.500   4.056  54.913  1.00  0.00    -0.253 OA
ATOM     33  C   UNL     1       9.478   2.277  55.815  1.00  0.00     0.139 C 
ENDBRANCH  30  31
ENDBRANCH  25  30
ENDBRANCH   2   6
ENDBRANCH   1   2
BRANCH   1  34
ATOM     34  C   UNL     1       7.567  10.252  45.469  1.00  0.00     0.031 C 
BRANCH  34  35
ATOM     35  C   UNL     1       6.900  11.196  46.458  1.00  0.00    -0.075 C 
ATOM     36  C   UNL     1       7.466  12.392  46.711  1.00  0.00     0.008 C 
BRANCH  35  37
ATOM     37  C   UNL     1       5.730  10.734  47.322  1.00  0.00     0.008 C 
ATOM     38  C   UNL     1       5.582  11.574  48.594  1.00  0.00     0.012 C 
ATOM     39  C   UNL     1       4.433  10.735  46.511  1.00  0.00     0.012 C 
ENDBRANCH  35  37
ENDBRANCH  34  35
ENDBRANCH   1  34
TORSDOF 9
ENDMDL
MODEL 5
REMARK VINA RESULT:    -6.774      2.586      8.223
REMARK INTER + INTRA:         -10.639
REMARK INTER:                  -9.229
REMARK INTRA:                  -1.410
REMARK UNBOUND:                -0.895
REMARK SMILES C=C(CC[C@H](C(=O)[O-])[C@@H]1[C@H](O)C[C@@]2(C)C3=C(CC[C@@]12C)[C@]1(C)CC[C@H](OC(C)=O)C(C)(C)[C@@H]1CC3)C(C)C
REMARK SMILES IDX 4 1 5 2 6 3 7 4 8 5 9 6 10 7 19 8 12 9 13 10 18 11 20 12
REMARK SMILES IDX 14 13 15 14 17 15 16 16 35 17 21 18 34 19 33 20 23 21 22 22
REMARK SMILES IDX 30 23 24 24 25 25 31 26 32 27 11 28 26 30 27 31 29 32 28 33
REMARK SMILES IDX 3 34 2 35 1 36 36 37 37 38 38 39
REMARK H PARENT 11 29
REMARK Flexibility Score: inf
ROOT
ATOM      1  C   UNL     1       9.956  11.554  46.424  1.00  0.00     0.014 C 
ENDROOT
BRANCH   1   2
ATOM      2  C   UNL     1      11.156  11.273  47.369  1.00  0.00     0.042 C 
BRANCH   2   3
ATOM      3  C   UNL     1      12.465  11.181  46.609  1.00  0.00     0.045 C 
ATOM      4  O   UNL     1      13.138  12.222  46.386  1.00  0.00    -0.550 OA
ATOM      5  O   UNL     1      12.899   9.970  46.069  1.00  0.00    -0.550 OA
ENDBRANCH   2   3
BRANCH   2   6
ATOM      6  C   UNL     1      10.851  10.091  48.367  1.00  0.00     0.033 C 
ATOM      7  C   UNL     1       9.392   9.981  48.834  1.00  0.00     0.119 C 
ATOM      8  C   UNL     1      11.761   9.770  49.623  1.00  0.00    -0.017 C 
ATOM      9  C   UNL     1       9.433   8.982  49.990  1.00  0.00     0.043 C 
ATOM     10  C   UNL     1      10.760   9.231  50.746  1.00  0.00    -0.003 C 
ATOM     11  C   UNL     1      12.801   8.676  49.223  1.00  0.00     0.012 C 
ATOM     12  C   UNL     1      12.591  10.988  50.111  1.00  0.00     0.013 C 
ATOM     13  C   UNL     1      10.441  10.306  51.840  1.00  0.00     0.017 C 
ATOM     14  C   UNL     1      11.217   7.883  51.398  1.00  0.00    -0.064 C 
ATOM     15  C   UNL     1      12.187   7.275  49.216  1.00  0.00     0.032 C 
ATOM     16  C   UNL     1      11.773   6.899  50.628  1.00  0.00    -0.064 C 
ATOM     17  C   UNL     1      10.976   7.614  52.875  1.00  0.00     0.032 C 
ATOM     18  C   UNL     1      11.813   5.408  51.089  1.00  0.00    -0.008 C 
ATOM     19  C   UNL     1      11.964   6.605  53.420  1.00  0.00     0.009 C 
ATOM     20  C   UNL     1      11.949   5.244  52.675  1.00  0.00     0.009 C 
ATOM     21  C   UNL     1      10.517   4.729  50.540  1.00  0.00     0.015 C 
ATOM     22  C   UNL     1      13.035   4.699  50.436  1.00  0.00     0.016 C 
ATOM     23  C   UNL     1      11.076   4.077  53.322  1.00  0.00     0.005 C 
ATOM     24  C   UNL     1       9.338   4.841  51.497  1.00  0.00     0.047 C 
ATOM     25  C   UNL     1       9.581   4.037  52.785  1.00  0.00     0.182 C 
ATOM     26  C   UNL     1      11.752   2.704  52.982  1.00  0.00     0.015 C 
ATOM     27  C   UNL     1      11.111   4.137  54.874  1.00  0.00     0.015 C 
BRANCH   7  28
ATOM     28  O   UNL     1       8.892  11.215  49.272  1.00  0.00    -0.393 OA
ATOM     29  H   UNL     1       9.434  11.481  50.061  1.00  0.00     0.210 HD
ENDBRANCH   7  28
BRANCH  25  30
ATOM     30  O   UNL     1       8.493   4.394  53.852  1.00  0.00    -0.462 OA
BRANCH  30  31
ATOM     31  C   UNL     1       7.093   4.001  53.734  1.00  0.00     0.302 C 
ATOM     32  O   UNL     1       8.007   4.853  53.651  1.00  0.00    -0.253 OA
ATOM     33  C   UNL     1       6.005   4.349  52.778  1.00  0.00     0.139 C 
ENDBRANCH  30  31
ENDBRANCH  25  30
ENDBRANCH   2   6
ENDBRANCH   1   2
BRANCH   1  34
ATOM     34  C   UNL     1       9.821  10.571  45.243  1.00  0.00     0.031 C 
BRANCH  34  35
ATOM     35  C   UNL     1       8.688   9.569  45.392  1.00  0.00    -0.075 C 
ATOM     36  C   UNL     1       7.480   9.996  45.806  1.00  0.00     0.008 C 
BRANCH  35  37
ATOM     37  C   UNL     1       8.946   8.067  45.290  1.00  0.00     0.008 C 
ATOM     38  C   UNL     1      10.395   7.754  44.908  1.00  0.00     0.012 C 
ATOM     39  C   UNL     1       8.561   7.369  46.596  1.00  0.00     0.012 C 
ENDBRANCH  35  37
ENDBRANCH  34  35
ENDBRANCH   1  34
TORSDOF 9
ENDMDL
MODEL 6
REMARK VINA RESULT:    -6.717      1.874      2.764
REMARK INTER + INTRA:         -10.557
REMARK INTER:                  -9.457
REMARK INTRA:                  -1.100
REMARK UNBOUND:                -0.895
REMARK SMILES C=C(CC[C@H](C(=O)[O-])[C@@H]1[C@H](O)C[C@@]2(C)C3=C(CC[C@@]12C)[C@]1(C)CC[C@H](OC(C)=O)C(C)(C)[C@@H]1CC3)C(C)C
REMARK SMILES IDX 4 1 5 2 6 3 7 4 8 5 9 6 10 7 19 8 12 9 13 10 18 11 20 12
REMARK SMILES IDX 14 13 15 14 17 15 16 16 35 17 21 18 34 19 33 20 23 21 22 22
REMARK SMILES IDX 30 23 24 24 25 25 31 26 32 27 11 28 26 30 27 31 29 32 28 33
REMARK SMILES IDX 3 34 2 35 1 36 36 37 37 38 38 39
REMARK H PARENT 11 29
REMARK Flexibility Score: inf
ROOT
ATOM      1  C   UNL     1      10.395   4.870  55.112  1.00  0.00     0.014 C 
ENDROOT
BRANCH   1   2
ATOM      2  C   UNL     1      11.498   5.256  54.089  1.00  0.00     0.042 C 
BRANCH   2   3
ATOM      3  C   UNL     1      12.732   5.816  54.771  1.00  0.00     0.045 C 
ATOM      4  O   UNL     1      13.841   5.235  54.640  1.00  0.00    -0.550 OA
ATOM      5  O   UNL     1      12.644   6.919  55.621  1.00  0.00    -0.550 OA
ENDBRANCH   2   3
BRANCH   2   6
ATOM      6  C   UNL     1      10.918   6.113  52.898  1.00  0.00     0.033 C 
ATOM      7  C   UNL     1       9.441   5.859  52.561  1.00  0.00     0.119 C 
ATOM      8  C   UNL     1      11.679   6.295  51.521  1.00  0.00    -0.017 C 
ATOM      9  C   UNL     1       9.226   6.564  51.222  1.00  0.00     0.043 C 
ATOM     10  C   UNL     1      10.532   6.385  50.412  1.00  0.00    -0.003 C 
ATOM     11  C   UNL     1      12.511   7.615  51.579  1.00  0.00     0.012 C 
ATOM     12  C   UNL     1      12.697   5.162  51.223  1.00  0.00     0.013 C 
ATOM     13  C   UNL     1      10.364   5.054  49.605  1.00  0.00     0.017 C 
ATOM     14  C   UNL     1      10.687   7.610  49.448  1.00  0.00    -0.064 C 
ATOM     15  C   UNL     1      11.643   8.853  51.350  1.00  0.00     0.032 C 
ATOM     16  C   UNL     1      11.087   8.824  49.936  1.00  0.00    -0.064 C 
ATOM     17  C   UNL     1      10.318   7.494  47.979  1.00  0.00     0.032 C 
ATOM     18  C   UNL     1      10.816  10.156  49.170  1.00  0.00    -0.008 C 
ATOM     19  C   UNL     1      11.063   8.511  47.140  1.00  0.00     0.009 C 
ATOM     20  C   UNL     1      10.830   9.980  47.580  1.00  0.00     0.009 C 
ATOM     21  C   UNL     1       9.447  10.706  49.685  1.00  0.00     0.015 C 
ATOM     22  C   UNL     1      11.915  11.196  49.538  1.00  0.00     0.016 C 
ATOM     23  C   UNL     1       9.716  10.802  46.788  1.00  0.00     0.005 C 
ATOM     24  C   UNL     1       8.260  10.178  48.891  1.00  0.00     0.047 C 
ATOM     25  C   UNL     1       8.273  10.701  47.446  1.00  0.00     0.182 C 
ATOM     26  C   UNL     1      10.136  12.312  46.764  1.00  0.00     0.015 C 
ATOM     27  C   UNL     1       9.675  10.401  45.288  1.00  0.00     0.015 C 
BRANCH   7  28
ATOM     28  O   UNL     1       9.162   4.491  52.443  1.00  0.00    -0.393 OA
ATOM     29  H   UNL     1       9.041   4.304  51.474  1.00  0.00     0.210 HD
ENDBRANCH   7  28
BRANCH  25  30
ATOM     30  O   UNL     1       7.215   9.930  46.588  1.00  0.00    -0.462 OA
BRANCH  30  31
ATOM     31  C   UNL     1       5.970  10.529  46.119  1.00  0.00     0.302 C 
ATOM     32  O   UNL     1       6.597   9.699  46.816  1.00  0.00    -0.253 OA
ATOM     33  C   UNL     1       4.671  10.844  46.775  1.00  0.00     0.139 C 
ENDBRANCH  30  31
ENDBRANCH  25  30
ENDBRANCH   2   6
ENDBRANCH   1   2
BRANCH   1  34
ATOM     34  C   UNL     1      10.695   3.601  55.936  1.00  0.00     0.031 C 
BRANCH  34  35
ATOM     35  C   UNL     1      10.145   2.319  55.328  1.00  0.00    -0.075 C 
ATOM     36  C   UNL     1      10.761   1.780  54.259  1.00  0.00     0.008 C 
BRANCH  35  37
ATOM     37  C   UNL     1       8.797   1.754  55.768  1.00  0.00     0.008 C 
ATOM     38  C   UNL     1       7.676   2.100  54.784  1.00  0.00     0.012 C 
ATOM     39  C   UNL     1       8.894   0.242  55.978  1.00  0.00     0.012 C 
ENDBRANCH  35  37
ENDBRANCH  34  35
ENDBRANCH   1  34
TORSDOF 9
ENDMDL
MODEL 7
REMARK VINA RESULT:    -6.690      2.695      4.965
REMARK INTER + INTRA:         -10.518
REMARK INTER:                 -10.106
REMARK INTRA:                  -0.413
REMARK UNBOUND:                -0.895
REMARK SMILES C=C(CC[C@H](C(=O)[O-])[C@@H]1[C@H](O)C[C@@]2(C)C3=C(CC[C@@]12C)[C@]1(C)CC[C@H](OC(C)=O)C(C)(C)[C@@H]1CC3)C(C)C
REMARK SMILES IDX 4 1 5 2 6 3 7 4 8 5 9 6 10 7 19 8 12 9 13 10 18 11 20 12
REMARK SMILES IDX 14 13 15 14 17 15 16 16 35 17 21 18 34 19 33 20 23 21 22 22
REMARK SMILES IDX 30 23 24 24 25 25 31 26 32 27 11 28 26 30 27 31 29 32 28 33
REMARK SMILES IDX 3 34 2 35 1 36 36 37 37 38 38 39
REMARK H PARENT 11 29
REMARK Flexibility Score: inf
ROOT
ATOM      1  C   UNL     1       9.281   5.424  52.757  1.00  0.00     0.014 C 
ENDROOT
BRANCH   1   2
ATOM      2  C   UNL     1       8.851   6.916  52.736  1.00  0.00     0.042 C 
BRANCH   2   3
ATOM      3  C   UNL     1       7.409   7.096  53.172  1.00  0.00     0.045 C 
ATOM      4  O   UNL     1       7.009   8.218  53.579  1.00  0.00    -0.550 OA
ATOM      5  O   UNL     1       6.532   6.011  53.216  1.00  0.00    -0.550 OA
ENDBRANCH   2   3
BRANCH   2   6
ATOM      6  C   UNL     1       9.259   7.624  51.387  1.00  0.00     0.033 C 
ATOM      7  C   UNL     1      10.457   7.004  50.653  1.00  0.00     0.119 C 
ATOM      8  C   UNL     1       9.397   9.195  51.249  1.00  0.00    -0.017 C 
ATOM      9  C   UNL     1      10.822   8.029  49.579  1.00  0.00     0.043 C 
ATOM     10  C   UNL     1      10.579   9.426  50.198  1.00  0.00    -0.003 C 
ATOM     11  C   UNL     1       8.049   9.774  50.716  1.00  0.00     0.012 C 
ATOM     12  C   UNL     1       9.664   9.912  52.600  1.00  0.00     0.013 C 
ATOM     13  C   UNL     1      11.926   9.838  50.882  1.00  0.00     0.017 C 
ATOM     14  C   UNL     1      10.208  10.419  49.046  1.00  0.00    -0.064 C 
ATOM     15  C   UNL     1       7.896   9.579  49.207  1.00  0.00     0.032 C 
ATOM     16  C   UNL     1       8.961  10.387  48.485  1.00  0.00    -0.064 C 
ATOM     17  C   UNL     1      11.246  11.373  48.477  1.00  0.00     0.032 C 
ATOM     18  C   UNL     1       8.671  10.984  47.072  1.00  0.00    -0.008 C 
ATOM     19  C   UNL     1      10.595  12.590  47.854  1.00  0.00     0.009 C 
ATOM     20  C   UNL     1       9.584  12.253  46.727  1.00  0.00     0.009 C 
ATOM     21  C   UNL     1       8.868   9.826  46.041  1.00  0.00     0.015 C 
ATOM     22  C   UNL     1       7.185  11.440  46.998  1.00  0.00     0.016 C 
ATOM     23  C   UNL     1      10.124  12.324  45.228  1.00  0.00     0.005 C 
ATOM     24  C   UNL     1      10.301   9.715  45.540  1.00  0.00     0.047 C 
ATOM     25  C   UNL     1      10.700  10.940  44.701  1.00  0.00     0.182 C 
ATOM     26  C   UNL     1       8.940  12.746  44.292  1.00  0.00     0.015 C 
ATOM     27  C   UNL     1      11.163  13.464  45.054  1.00  0.00     0.015 C 
BRANCH   7  28
ATOM     28  O   UNL     1      11.542   6.793  51.514  1.00  0.00    -0.393 OA
ATOM     29  H   UNL     1      11.628   5.810  51.635  1.00  0.00     0.210 HD
ENDBRANCH   7  28
BRANCH  25  30
ATOM     30  O   UNL     1      12.244  10.930  44.440  1.00  0.00    -0.462 OA
BRANCH  30  31
ATOM     31  C   UNL     1      13.236  10.789  45.500  1.00  0.00     0.302 C 
ATOM     32  O   UNL     1      12.230  10.384  44.874  1.00  0.00    -0.253 OA
ATOM     33  C   UNL     1      13.957   9.624  46.083  1.00  0.00     0.139 C 
ENDBRANCH  30  31
ENDBRANCH  25  30
ENDBRANCH   2   6
ENDBRANCH   1   2
BRANCH   1  34
ATOM     34  C   UNL     1       9.607   4.866  54.158  1.00  0.00     0.031 C 
BRANCH  34  35
ATOM     35  C   UNL     1       9.757   3.353  54.207  1.00  0.00    -0.075 C 
ATOM     36  C   UNL     1      10.762   2.768  53.528  1.00  0.00     0.008 C 
BRANCH  35  37
ATOM     37  C   UNL     1       8.674   2.475  54.828  1.00  0.00     0.008 C 
ATOM     38  C   UNL     1       7.342   2.582  54.081  1.00  0.00     0.012 C 
ATOM     39  C   UNL     1       9.144   1.020  54.903  1.00  0.00     0.012 C 
ENDBRANCH  35  37
ENDBRANCH  34  35
ENDBRANCH   1  34
TORSDOF 9
ENDMDL
MODEL 8
REMARK VINA RESULT:    -6.667      2.368      8.592
REMARK INTER + INTRA:         -10.486
REMARK INTER:                  -9.155
REMARK INTRA:                  -1.330
REMARK UNBOUND:                -0.895
REMARK SMILES C=C(CC[C@H](C(=O)[O-])[C@@H]1[C@H](O)C[C@@]2(C)C3=C(CC[C@@]12C)[C@]1(C)CC[C@H](OC(C)=O)C(C)(C)[C@@H]1CC3)C(C)C
REMARK SMILES IDX 4 1 5 2 6 3 7 4 8 5 9 6 10 7 19 8 12 9 13 10 18 11 20 12
REMARK SMILES IDX 14 13 15 14 17 15 16 16 35 17 21 18 34 19 33 20 23 21 22 22
REMARK SMILES IDX 30 23 24 24 25 25 31 26 32 27 11 28 26 30 27 31 29 32 28 33
REMARK SMILES IDX 3 34 2 35 1 36 36 37 37 38 38 39
REMARK H PARENT 11 29
REMARK Flexibility Score: inf
ROOT
ATOM      1  C   UNL     1      11.041   9.801  47.200  1.00  0.00     0.014 C 
ENDROOT
BRANCH   1   2
ATOM      2  C   UNL     1      10.914   8.255  47.131  1.00  0.00     0.042 C 
BRANCH   2   3
ATOM      3  C   UNL     1       9.762   7.820  46.245  1.00  0.00     0.045 C 
ATOM      4  O   UNL     1       9.931   7.706  45.003  1.00  0.00    -0.550 OA
ATOM      5  O   UNL     1       8.484   7.631  46.772  1.00  0.00    -0.550 OA
ENDBRANCH   2   3
BRANCH   2   6
ATOM      6  C   UNL     1      10.970   7.599  48.564  1.00  0.00     0.033 C 
ATOM      7  C   UNL     1      12.020   8.188  49.518  1.00  0.00     0.119 C 
ATOM      8  C   UNL     1      10.970   6.031  48.792  1.00  0.00    -0.017 C 
ATOM      9  C   UNL     1      12.072   7.203  50.686  1.00  0.00     0.043 C 
ATOM     10  C   UNL     1      11.877   5.791  50.085  1.00  0.00    -0.003 C 
ATOM     11  C   UNL     1       9.502   5.560  49.037  1.00  0.00     0.012 C 
ATOM     12  C   UNL     1      11.475   5.229  47.563  1.00  0.00     0.013 C 
ATOM     13  C   UNL     1      13.310   5.267  49.732  1.00  0.00     0.017 C 
ATOM     14  C   UNL     1      11.198   4.884  51.167  1.00  0.00    -0.064 C 
ATOM     15  C   UNL     1       9.038   5.844  50.467  1.00  0.00     0.032 C 
ATOM     16  C   UNL     1       9.864   5.017  51.438  1.00  0.00    -0.064 C 
ATOM     17  C   UNL     1      12.021   3.905  51.987  1.00  0.00     0.032 C 
ATOM     18  C   UNL     1       9.234   4.514  52.775  1.00  0.00    -0.008 C 
ATOM     19  C   UNL     1      11.170   2.762  52.501  1.00  0.00     0.009 C 
ATOM     20  C   UNL     1       9.962   3.216  53.362  1.00  0.00     0.009 C 
ATOM     21  C   UNL     1       9.279   5.713  53.776  1.00  0.00     0.015 C 
ATOM     22  C   UNL     1       7.740   4.149  52.537  1.00  0.00     0.016 C 
ATOM     23  C   UNL     1      10.158   3.196  54.945  1.00  0.00     0.005 C 
ATOM     24  C   UNL     1      10.574   5.769  54.576  1.00  0.00     0.047 C 
ATOM     25  C   UNL     1      10.698   4.571  55.531  1.00  0.00     0.182 C 
ATOM     26  C   UNL     1       8.773   2.892  55.613  1.00  0.00     0.015 C 
ATOM     27  C   UNL     1      11.056   2.009  55.390  1.00  0.00     0.015 C 
BRANCH   7  28
ATOM     28  O   UNL     1      13.277   8.290  48.910  1.00  0.00    -0.393 OA
ATOM     29  H   UNL     1      13.170   8.891  48.125  1.00  0.00     0.210 HD
ENDBRANCH   7  28
BRANCH  25  30
ATOM     30  O   UNL     1      12.145   4.506  56.124  1.00  0.00    -0.462 OA
BRANCH  30  31
ATOM     31  C   UNL     1      13.351   4.669  55.320  1.00  0.00     0.302 C 
ATOM     32  O   UNL     1      12.454   5.129  56.062  1.00  0.00    -0.253 OA
ATOM     33  C   UNL     1      14.587   5.483  55.475  1.00  0.00     0.139 C 
ENDBRANCH  30  31
ENDBRANCH  25  30
ENDBRANCH   2   6
ENDBRANCH   1   2
BRANCH   1  34
ATOM     34  C   UNL     1       9.713  10.547  47.444  1.00  0.00     0.031 C 
BRANCH  34  35
ATOM     35  C   UNL     1       9.304  10.629  48.907  1.00  0.00    -0.075 C 
ATOM     36  C   UNL     1      10.094  11.286  49.776  1.00  0.00     0.008 C 
BRANCH  35  37
ATOM     37  C   UNL     1       8.137   9.805  49.445  1.00  0.00     0.008 C 
ATOM     38  C   UNL     1       8.309   9.454  50.925  1.00  0.00     0.012 C 
ATOM     39  C   UNL     1       6.813  10.534  49.205  1.00  0.00     0.012 C 
ENDBRANCH  35  37
ENDBRANCH  34  35
ENDBRANCH   1  34
TORSDOF 9
ENDMDL
MODEL 9
REMARK VINA RESULT:    -6.527      2.372      9.000
REMARK INTER + INTRA:         -10.284
REMARK INTER:                  -9.502
REMARK INTRA:                  -0.782
REMARK UNBOUND:                -0.895
REMARK SMILES C=C(CC[C@H](C(=O)[O-])[C@@H]1[C@H](O)C[C@@]2(C)C3=C(CC[C@@]12C)[C@]1(C)CC[C@H](OC(C)=O)C(C)(C)[C@@H]1CC3)C(C)C
REMARK SMILES IDX 4 1 5 2 6 3 7 4 8 5 9 6 10 7 19 8 12 9 13 10 18 11 20 12
REMARK SMILES IDX 14 13 15 14 17 15 16 16 35 17 21 18 34 19 33 20 23 21 22 22
REMARK SMILES IDX 30 23 24 24 25 25 31 26 32 27 11 28 26 30 27 31 29 32 28 33
REMARK SMILES IDX 3 34 2 35 1 36 36 37 37 38 38 39
REMARK H PARENT 11 29
REMARK Flexibility Score: inf
ROOT
ATOM      1  C   UNL     1       8.646  10.799  45.009  1.00  0.00     0.014 C 
ENDROOT
BRANCH   1   2
ATOM      2  C   UNL     1       9.404  11.461  46.191  1.00  0.00     0.042 C 
BRANCH   2   3
ATOM      3  C   UNL     1      10.475  12.422  45.709  1.00  0.00     0.045 C 
ATOM      4  O   UNL     1      10.752  13.447  46.387  1.00  0.00    -0.550 OA
ATOM      5  O   UNL     1      11.101  12.240  44.476  1.00  0.00    -0.550 OA
ENDBRANCH   2   3
BRANCH   2   6
ATOM      6  C   UNL     1       9.861  10.398  47.262  1.00  0.00     0.033 C 
ATOM      7  C   UNL     1      11.338   9.983  47.192  1.00  0.00     0.119 C 
ATOM      8  C   UNL     1       9.029   9.088  47.581  1.00  0.00    -0.017 C 
ATOM      9  C   UNL     1      11.437   8.760  48.104  1.00  0.00     0.043 C 
ATOM     10  C   UNL     1      10.116   7.972  47.935  1.00  0.00    -0.003 C 
ATOM     11  C   UNL     1       8.095   9.371  48.800  1.00  0.00     0.012 C 
ATOM     12  C   UNL     1       8.096   8.652  46.420  1.00  0.00     0.013 C 
ATOM     13  C   UNL     1      10.358   6.967  46.759  1.00  0.00     0.017 C 
ATOM     14  C   UNL     1       9.821   7.211  49.272  1.00  0.00    -0.064 C 
ATOM     15  C   UNL     1       8.848   9.307  50.129  1.00  0.00     0.032 C 
ATOM     16  C   UNL     1       9.344   7.890  50.359  1.00  0.00    -0.064 C 
ATOM     17  C   UNL     1      10.135   5.730  49.409  1.00  0.00     0.032 C 
ATOM     18  C   UNL     1       9.472   7.327  51.810  1.00  0.00    -0.008 C 
ATOM     19  C   UNL     1       9.274   5.078  50.470  1.00  0.00     0.009 C 
ATOM     20  C   UNL     1       9.405   5.730  51.872  1.00  0.00     0.009 C 
ATOM     21  C   UNL     1      10.812   7.879  52.394  1.00  0.00     0.015 C 
ATOM     22  C   UNL     1       8.308   7.882  52.683  1.00  0.00     0.016 C 
ATOM     23  C   UNL     1      10.413   5.039  52.897  1.00  0.00     0.005 C 
ATOM     24  C   UNL     1      12.003   6.979  52.096  1.00  0.00     0.047 C 
ATOM     25  C   UNL     1      11.886   5.631  52.826  1.00  0.00     0.182 C 
ATOM     26  C   UNL     1       9.871   5.258  54.351  1.00  0.00     0.015 C 
ATOM     27  C   UNL     1      10.422   3.495  52.729  1.00  0.00     0.015 C 
BRANCH   7  28
ATOM     28  O   UNL     1      11.722   9.649  45.887  1.00  0.00    -0.393 OA
ATOM     29  H   UNL     1      11.397   8.726  45.717  1.00  0.00     0.210 HD
ENDBRANCH   7  28
BRANCH  25  30
ATOM     30  O   UNL     1      12.966   4.634  52.286  1.00  0.00    -0.462 OA
BRANCH  30  31
ATOM     31  C   UNL     1      14.019   4.063  53.119  1.00  0.00     0.302 C 
ATOM     32  O   UNL     1      13.363   5.040  52.692  1.00  0.00    -0.253 OA
ATOM     33  C   UNL     1      14.528   4.368  54.484  1.00  0.00     0.139 C 
ENDBRANCH  30  31
ENDBRANCH  25  30
ENDBRANCH   2   6
ENDBRANCH   1   2
BRANCH   1  34
ATOM     34  C   UNL     1       7.435  11.602  44.488  1.00  0.00     0.031 C 
BRANCH  34  35
ATOM     35  C   UNL     1       6.650  12.321  45.575  1.00  0.00    -0.075 C 
ATOM     36  C   UNL     1       6.616  13.666  45.582  1.00  0.00     0.008 C 
BRANCH  35  37
ATOM     37  C   UNL     1       6.084  11.559  46.771  1.00  0.00     0.008 C 
ATOM     38  C   UNL     1       5.577  12.499  47.868  1.00  0.00     0.012 C 
ATOM     39  C   UNL     1       4.980  10.599  46.319  1.00  0.00     0.012 C 
ENDBRANCH  35  37
ENDBRANCH  34  35
ENDBRANCH   1  34
TORSDOF 9
ENDMDL
