MODEL 1
REMARK VINA RESULT:    -3.167      0.000      0.000
REMARK INTER + INTRA:          -6.072
REMARK INTER:                  -4.834
REMARK INTRA:                  -1.238
REMARK UNBOUND:                -1.238
REMARK SMILES CCCCCCCCCCC(=O)[O-]
REMARK SMILES IDX 7 1 8 2 9 3 10 4 11 5 12 6 13 7 6 8 5 9 4 10 3 11 2 12 1 13
REMARK H PARENT
REMARK Flexibility Score: inf
ROOT
ATOM      1  C   UNL     1      59.009  25.292  50.982  1.00  0.00     0.000 C 
ENDROOT
BRANCH   1   2
ATOM      2  C   UNL     1      57.663  25.952  51.323  1.00  0.00     0.000 C 
BRANCH   2   3
ATOM      3  C   UNL     1      56.790  26.191  50.078  1.00  0.00     0.006 C 
BRANCH   3   4
ATOM      4  C   UNL     1      55.713  27.256  50.323  1.00  0.00     0.053 C 
BRANCH   4   5
ATOM      5  C   UNL     1      54.426  26.914  49.637  1.00  0.00     0.041 C 
ATOM      6  O   UNL     1      54.258  25.771  49.135  1.00  0.00    -0.550 OA
ATOM      7  O   UNL     1      53.400  27.848  49.579  1.00  0.00    -0.550 OA
ENDBRANCH   4   5
ENDBRANCH   3   4
ENDBRANCH   2   3
ENDBRANCH   1   2
BRANCH   1   8
ATOM      8  C   UNL     1      59.695  25.934  49.766  1.00  0.00     0.000 C 
BRANCH   8   9
ATOM      9  C   UNL     1      60.854  26.840  50.208  1.00  0.00    -0.000 C 
BRANCH   9  10
ATOM     10  C   UNL     1      60.707  28.283  49.700  1.00  0.00    -0.000 C 
BRANCH  10  11
ATOM     11  C   UNL     1      59.366  28.527  48.992  1.00  0.00    -0.000 C 
BRANCH  11  12
ATOM     12  C   UNL     1      58.632  29.724  49.608  1.00  0.00    -0.003 C 
ATOM     13  C   UNL     1      58.537  29.592  51.126  1.00  0.00     0.004 C 
ENDBRANCH  11  12
ENDBRANCH  10  11
ENDBRANCH   9  10
ENDBRANCH   8   9
ENDBRANCH   1   8
TORSDOF 9
ENDMDL
MODEL 2
REMARK VINA RESULT:    -3.057      1.053      2.937
REMARK INTER + INTRA:          -5.903
REMARK INTER:                  -4.543
REMARK INTRA:                  -1.360
REMARK UNBOUND:                -1.238
REMARK SMILES CCCCCCCCCCC(=O)[O-]
REMARK SMILES IDX 7 1 8 2 9 3 10 4 11 5 12 6 13 7 6 8 5 9 4 10 3 11 2 12 1 13
REMARK H PARENT
REMARK Flexibility Score: inf
ROOT
ATOM      1  C   UNL     1      58.764  29.683  50.910  1.00  0.00     0.000 C 
ENDROOT
BRANCH   1   2
ATOM      2  C   UNL     1      57.431  29.438  51.636  1.00  0.00     0.000 C 
BRANCH   2   3
ATOM      3  C   UNL     1      56.260  29.216  50.662  1.00  0.00     0.006 C 
BRANCH   3   4
ATOM      4  C   UNL     1      55.338  28.078  51.118  1.00  0.00     0.053 C 
BRANCH   4   5
ATOM      5  C   UNL     1      54.486  27.569  49.995  1.00  0.00     0.041 C 
ATOM      6  O   UNL     1      53.498  28.239  49.594  1.00  0.00    -0.550 OA
ATOM      7  O   UNL     1      54.800  26.367  49.373  1.00  0.00    -0.550 OA
ENDBRANCH   4   5
ENDBRANCH   3   4
ENDBRANCH   2   3
ENDBRANCH   1   2
BRANCH   1   8
ATOM      8  C   UNL     1      58.711  29.296  49.424  1.00  0.00     0.000 C 
BRANCH   8   9
ATOM      9  C   UNL     1      59.860  28.342  49.066  1.00  0.00    -0.000 C 
BRANCH   9  10
ATOM     10  C   UNL     1      59.815  27.031  49.865  1.00  0.00    -0.000 C 
BRANCH  10  11
ATOM     11  C   UNL     1      58.483  26.283  49.700  1.00  0.00    -0.000 C 
BRANCH  11  12
ATOM     12  C   UNL     1      58.006  25.713  51.041  1.00  0.00    -0.003 C 
ATOM     13  C   UNL     1      58.950  26.104  52.175  1.00  0.00     0.004 C 
ENDBRANCH  11  12
ENDBRANCH  10  11
ENDBRANCH   9  10
ENDBRANCH   8   9
ENDBRANCH   1   8
TORSDOF 9
ENDMDL
MODEL 3
REMARK VINA RESULT:    -3.038      2.338      5.143
REMARK INTER + INTRA:          -5.874
REMARK INTER:                  -5.134
REMARK INTRA:                  -0.740
REMARK UNBOUND:                -1.238
REMARK SMILES CCCCCCCCCCC(=O)[O-]
REMARK SMILES IDX 7 1 8 2 9 3 10 4 11 5 12 6 13 7 6 8 5 9 4 10 3 11 2 12 1 13
REMARK H PARENT
REMARK Flexibility Score: inf
ROOT
ATOM      1  C   UNL     1      58.229  29.599  51.167  1.00  0.00     0.000 C 
ENDROOT
BRANCH   1   2
ATOM      2  C   UNL     1      58.510  29.329  49.680  1.00  0.00     0.000 C 
BRANCH   2   3
ATOM      3  C   UNL     1      59.704  28.381  49.466  1.00  0.00     0.006 C 
BRANCH   3   4
ATOM      4  C   UNL     1      59.260  26.922  49.301  1.00  0.00     0.053 C 
BRANCH   4   5
ATOM      5  C   UNL     1      59.003  26.265  50.623  1.00  0.00     0.041 C 
ATOM      6  O   UNL     1      59.883  26.287  51.524  1.00  0.00    -0.550 OA
ATOM      7  O   UNL     1      57.780  25.653  50.870  1.00  0.00    -0.550 OA
ENDBRANCH   4   5
ENDBRANCH   3   4
ENDBRANCH   2   3
ENDBRANCH   1   2
BRANCH   1   8
ATOM      8  C   UNL     1      56.757  29.371  51.544  1.00  0.00     0.000 C 
BRANCH   8   9
ATOM      9  C   UNL     1      55.994  28.701  50.392  1.00  0.00    -0.000 C 
BRANCH   9  10
ATOM     10  C   UNL     1      54.493  29.033  50.401  1.00  0.00    -0.000 C 
BRANCH  10  11
ATOM     11  C   UNL     1      53.619  27.830  50.016  1.00  0.00    -0.000 C 
BRANCH  11  12
ATOM     12  C   UNL     1      54.485  26.631  49.613  1.00  0.00    -0.003 C 
ATOM     13  C   UNL     1      53.624  25.447  49.183  1.00  0.00     0.004 C 
ENDBRANCH  11  12
ENDBRANCH  10  11
ENDBRANCH   9  10
ENDBRANCH   8   9
ENDBRANCH   1   8
TORSDOF 9
ENDMDL
MODEL 4
REMARK VINA RESULT:    -2.995      3.348      5.684
REMARK INTER + INTRA:          -5.809
REMARK INTER:                  -4.940
REMARK INTRA:                  -0.869
REMARK UNBOUND:                -1.238
REMARK SMILES CCCCCCCCCCC(=O)[O-]
REMARK SMILES IDX 7 1 8 2 9 3 10 4 11 5 12 6 13 7 6 8 5 9 4 10 3 11 2 12 1 13
REMARK H PARENT
REMARK Flexibility Score: inf
ROOT
ATOM      1  C   UNL     1      58.130  29.323  51.347  1.00  0.00     0.000 C 
ENDROOT
BRANCH   1   2
ATOM      2  C   UNL     1      58.393  29.727  49.887  1.00  0.00     0.000 C 
BRANCH   2   3
ATOM      3  C   UNL     1      59.037  28.595  49.067  1.00  0.00     0.006 C 
BRANCH   3   4
ATOM      4  C   UNL     1      59.549  27.456  49.958  1.00  0.00     0.053 C 
BRANCH   4   5
ATOM      5  C   UNL     1      61.032  27.279  49.838  1.00  0.00     0.041 C 
ATOM      6  O   UNL     1      61.750  28.219  49.403  1.00  0.00    -0.550 OA
ATOM      7  O   UNL     1      61.624  26.087  50.233  1.00  0.00    -0.550 OA
ENDBRANCH   4   5
ENDBRANCH   3   4
ENDBRANCH   2   3
ENDBRANCH   1   2
BRANCH   1   8
ATOM      8  C   UNL     1      56.685  29.604  51.789  1.00  0.00     0.000 C 
BRANCH   8   9
ATOM      9  C   UNL     1      55.688  29.179  50.701  1.00  0.00    -0.000 C 
BRANCH   9  10
ATOM     10  C   UNL     1      55.111  27.774  50.940  1.00  0.00    -0.000 C 
BRANCH  10  11
ATOM     11  C   UNL     1      55.631  26.742  49.928  1.00  0.00    -0.000 C 
BRANCH  11  12
ATOM     12  C   UNL     1      54.476  25.923  49.340  1.00  0.00    -0.003 C 
ATOM     13  C   UNL     1      53.185  26.735  49.305  1.00  0.00     0.004 C 
ENDBRANCH  11  12
ENDBRANCH  10  11
ENDBRANCH   9  10
ENDBRANCH   8   9
ENDBRANCH   1   8
TORSDOF 9
ENDMDL
MODEL 5
REMARK VINA RESULT:    -2.927      1.392      3.096
REMARK INTER + INTRA:          -5.705
REMARK INTER:                  -5.122
REMARK INTRA:                  -0.583
REMARK UNBOUND:                -1.238
REMARK SMILES CCCCCCCCCCC(=O)[O-]
REMARK SMILES IDX 7 1 8 2 9 3 10 4 11 5 12 6 13 7 6 8 5 9 4 10 3 11 2 12 1 13
REMARK H PARENT
REMARK Flexibility Score: inf
ROOT
ATOM      1  C   UNL     1      57.814  29.263  50.821  1.00  0.00     0.000 C 
ENDROOT
BRANCH   1   2
ATOM      2  C   UNL     1      56.280  29.206  50.741  1.00  0.00     0.000 C 
BRANCH   2   3
ATOM      3  C   UNL     1      55.760  27.812  50.348  1.00  0.00     0.006 C 
BRANCH   3   4
ATOM      4  C   UNL     1      54.277  27.839  49.955  1.00  0.00     0.053 C 
BRANCH   4   5
ATOM      5  C   UNL     1      53.694  26.461  49.888  1.00  0.00     0.041 C 
ATOM      6  O   UNL     1      53.087  25.980  50.883  1.00  0.00    -0.550 OA
ATOM      7  O   UNL     1      53.794  25.719  48.719  1.00  0.00    -0.550 OA
ENDBRANCH   4   5
ENDBRANCH   3   4
ENDBRANCH   2   3
ENDBRANCH   1   2
BRANCH   1   8
ATOM      8  C   UNL     1      58.468  29.579  49.466  1.00  0.00     0.000 C 
BRANCH   8   9
ATOM      9  C   UNL     1      59.590  28.578  49.154  1.00  0.00    -0.000 C 
BRANCH   9  10
ATOM     10  C   UNL     1      59.188  27.124  49.447  1.00  0.00    -0.000 C 
BRANCH  10  11
ATOM     11  C   UNL     1      60.343  26.296  50.028  1.00  0.00    -0.000 C 
BRANCH  11  12
ATOM     12  C   UNL     1      61.628  27.128  50.105  1.00  0.00    -0.003 C 
ATOM     13  C   UNL     1      62.840  26.248  50.399  1.00  0.00     0.004 C 
ENDBRANCH  11  12
ENDBRANCH  10  11
ENDBRANCH   9  10
ENDBRANCH   8   9
ENDBRANCH   1   8
TORSDOF 9
ENDMDL
MODEL 6
REMARK VINA RESULT:    -2.906      2.702      4.882
REMARK INTER + INTRA:          -5.673
REMARK INTER:                  -4.715
REMARK INTRA:                  -0.958
REMARK UNBOUND:                -1.238
REMARK SMILES CCCCCCCCCCC(=O)[O-]
REMARK SMILES IDX 7 1 8 2 9 3 10 4 11 5 12 6 13 7 6 8 5 9 4 10 3 11 2 12 1 13
REMARK H PARENT
REMARK Flexibility Score: inf
ROOT
ATOM      1  C   UNL     1      59.296  28.395  49.048  1.00  0.00     0.000 C 
ENDROOT
BRANCH   1   2
ATOM      2  C   UNL     1      60.719  28.114  49.558  1.00  0.00     0.000 C 
BRANCH   2   3
ATOM      3  C   UNL     1      60.858  26.713  50.178  1.00  0.00     0.006 C 
BRANCH   3   4
ATOM      4  C   UNL     1      59.666  25.810  49.838  1.00  0.00     0.053 C 
BRANCH   4   5
ATOM      5  C   UNL     1      59.790  24.459  50.474  1.00  0.00     0.041 C 
ATOM      6  O   UNL     1      59.224  24.222  51.575  1.00  0.00    -0.550 OA
ATOM      7  O   UNL     1      60.507  23.454  49.839  1.00  0.00    -0.550 OA
ENDBRANCH   4   5
ENDBRANCH   3   4
ENDBRANCH   2   3
ENDBRANCH   1   2
BRANCH   1   8
ATOM      8  C   UNL     1      58.665  29.635  49.701  1.00  0.00     0.000 C 
BRANCH   8   9
ATOM      9  C   UNL     1      57.321  29.283  50.358  1.00  0.00    -0.000 C 
BRANCH   9  10
ATOM     10  C   UNL     1      57.472  28.290  51.522  1.00  0.00    -0.000 C 
BRANCH  10  11
ATOM     11  C   UNL     1      56.427  27.165  51.479  1.00  0.00    -0.000 C 
BRANCH  11  12
ATOM     12  C   UNL     1      55.344  27.464  50.436  1.00  0.00    -0.003 C 
ATOM     13  C   UNL     1      55.057  26.239  49.571  1.00  0.00     0.004 C 
ENDBRANCH  11  12
ENDBRANCH  10  11
ENDBRANCH   9  10
ENDBRANCH   8   9
ENDBRANCH   1   8
TORSDOF 9
ENDMDL
MODEL 7
REMARK VINA RESULT:    -2.894      2.831      4.971
REMARK INTER + INTRA:          -5.655
REMARK INTER:                  -4.586
REMARK INTRA:                  -1.068
REMARK UNBOUND:                -1.238
REMARK SMILES CCCCCCCCCCC(=O)[O-]
REMARK SMILES IDX 7 1 8 2 9 3 10 4 11 5 12 6 13 7 6 8 5 9 4 10 3 11 2 12 1 13
REMARK H PARENT
REMARK Flexibility Score: inf
ROOT
ATOM      1  C   UNL     1      57.573  26.990  52.279  1.00  0.00     0.000 C 
ENDROOT
BRANCH   1   2
ATOM      2  C   UNL     1      57.506  25.847  51.253  1.00  0.00     0.000 C 
BRANCH   2   3
ATOM      3  C   UNL     1      57.943  26.290  49.845  1.00  0.00     0.006 C 
BRANCH   3   4
ATOM      4  C   UNL     1      59.465  26.453  49.738  1.00  0.00     0.053 C 
BRANCH   4   5
ATOM      5  C   UNL     1      59.849  27.849  49.354  1.00  0.00     0.041 C 
ATOM      6  O   UNL     1      61.064  28.181  49.304  1.00  0.00    -0.550 OA
ATOM      7  O   UNL     1      58.869  28.774  49.021  1.00  0.00    -0.550 OA
ENDBRANCH   4   5
ENDBRANCH   3   4
ENDBRANCH   2   3
ENDBRANCH   1   2
BRANCH   1   8
ATOM      8  C   UNL     1      56.235  27.729  52.434  1.00  0.00     0.000 C 
BRANCH   8   9
ATOM      9  C   UNL     1      56.179  28.959  51.516  1.00  0.00    -0.000 C 
BRANCH   9  10
ATOM     10  C   UNL     1      55.054  28.871  50.474  1.00  0.00    -0.000 C 
BRANCH  10  11
ATOM     11  C   UNL     1      54.000  27.811  50.828  1.00  0.00    -0.000 C 
BRANCH  11  12
ATOM     12  C   UNL     1      53.460  27.133  49.563  1.00  0.00    -0.003 C 
ATOM     13  C   UNL     1      54.305  25.921  49.182  1.00  0.00     0.004 C 
ENDBRANCH  11  12
ENDBRANCH  10  11
ENDBRANCH   9  10
ENDBRANCH   8   9
ENDBRANCH   1   8
TORSDOF 9
ENDMDL
MODEL 8
REMARK VINA RESULT:    -2.888      1.967      2.696
REMARK INTER + INTRA:          -5.645
REMARK INTER:                  -4.541
REMARK INTRA:                  -1.105
REMARK UNBOUND:                -1.238
REMARK SMILES CCCCCCCCCCC(=O)[O-]
REMARK SMILES IDX 7 1 8 2 9 3 10 4 11 5 12 6 13 7 6 8 5 9 4 10 3 11 2 12 1 13
REMARK H PARENT
REMARK Flexibility Score: inf
ROOT
ATOM      1  C   UNL     1      56.345  26.701  51.224  1.00  0.00     0.000 C 
ENDROOT
BRANCH   1   2
ATOM      2  C   UNL     1      55.406  26.694  50.007  1.00  0.00     0.000 C 
BRANCH   2   3
ATOM      3  C   UNL     1      54.477  27.920  49.970  1.00  0.00     0.006 C 
BRANCH   3   4
ATOM      4  C   UNL     1      55.063  29.112  50.738  1.00  0.00     0.053 C 
BRANCH   4   5
ATOM      5  C   UNL     1      54.033  29.785  51.592  1.00  0.00     0.041 C 
ATOM      6  O   UNL     1      53.882  29.441  52.795  1.00  0.00    -0.550 OA
ATOM      7  O   UNL     1      53.259  30.813  51.069  1.00  0.00    -0.550 OA
ENDBRANCH   4   5
ENDBRANCH   3   4
ENDBRANCH   2   3
ENDBRANCH   1   2
BRANCH   1   8
ATOM      8  C   UNL     1      57.641  25.913  50.979  1.00  0.00     0.000 C 
BRANCH   8   9
ATOM      9  C   UNL     1      58.303  26.344  49.662  1.00  0.00    -0.000 C 
BRANCH   9  10
ATOM     10  C   UNL     1      59.481  27.308  49.876  1.00  0.00    -0.000 C 
BRANCH  10  11
ATOM     11  C   UNL     1      59.376  28.573  49.012  1.00  0.00    -0.000 C 
BRANCH  11  12
ATOM     12  C   UNL     1      58.475  29.618  49.680  1.00  0.00    -0.003 C 
ATOM     13  C   UNL     1      58.786  29.745  51.169  1.00  0.00     0.004 C 
ENDBRANCH  11  12
ENDBRANCH  10  11
ENDBRANCH   9  10
ENDBRANCH   8   9
ENDBRANCH   1   8
TORSDOF 9
ENDMDL
MODEL 9
REMARK VINA RESULT:    -2.886      3.367      5.354
REMARK INTER + INTRA:          -5.643
REMARK INTER:                  -4.640
REMARK INTRA:                  -1.003
REMARK UNBOUND:                -1.238
REMARK SMILES CCCCCCCCCCC(=O)[O-]
REMARK SMILES IDX 7 1 8 2 9 3 10 4 11 5 12 6 13 7 6 8 5 9 4 10 3 11 2 12 1 13
REMARK H PARENT
REMARK Flexibility Score: inf
ROOT
ATOM      1  C   UNL     1      56.978  26.326  50.083  1.00  0.00     0.000 C 
ENDROOT
BRANCH   1   2
ATOM      2  C   UNL     1      57.798  27.415  50.795  1.00  0.00     0.000 C 
BRANCH   2   3
ATOM      3  C   UNL     1      58.004  28.665  49.921  1.00  0.00     0.006 C 
BRANCH   3   4
ATOM      4  C   UNL     1      59.325  28.614  49.143  1.00  0.00     0.053 C 
BRANCH   4   5
ATOM      5  C   UNL     1      60.480  29.080  49.976  1.00  0.00     0.041 C 
ATOM      6  O   UNL     1      60.744  30.309  50.064  1.00  0.00    -0.550 OA
ATOM      7  O   UNL     1      61.247  28.160  50.679  1.00  0.00    -0.550 OA
ENDBRANCH   4   5
ENDBRANCH   3   4
ENDBRANCH   2   3
ENDBRANCH   1   2
BRANCH   1   8
ATOM      8  C   UNL     1      55.590  26.123  50.710  1.00  0.00     0.000 C 
BRANCH   8   9
ATOM      9  C   UNL     1      54.492  26.173  49.637  1.00  0.00    -0.000 C 
BRANCH   9  10
ATOM     10  C   UNL     1      53.745  27.516  49.613  1.00  0.00    -0.000 C 
BRANCH  10  11
ATOM     11  C   UNL     1      53.864  28.283  50.938  1.00  0.00    -0.000 C 
BRANCH  11  12
ATOM     12  C   UNL     1      54.441  29.684  50.709  1.00  0.00    -0.003 C 
ATOM     13  C   UNL     1      55.288  30.134  51.897  1.00  0.00     0.004 C 
ENDBRANCH  11  12
ENDBRANCH  10  11
ENDBRANCH   9  10
ENDBRANCH   8   9
ENDBRANCH   1   8
TORSDOF 9
ENDMDL
