MODEL 1
REMARK VINA RESULT:    -5.858      0.000      0.000
REMARK INTER + INTRA:          -7.476
REMARK INTER:                  -7.228
REMARK INTRA:                  -0.248
REMARK UNBOUND:                -0.248
REMARK SMILES Oc1cc(O)c2cc(O)c(-c3cc(O)c(O)c(O)c3)[o+]c2c1
REMARK SMILES IDX 10 1 20 2 21 3 22 4 2 5 3 6 4 7 6 8 7 9 8 10 11 11 12 12
REMARK SMILES IDX 13 13 19 14 15 15 17 16 14 17 16 19 18 21 9 23 1 25 5 27
REMARK H PARENT 14 18 16 20 18 22 9 24 1 26 5 28
REMARK Flexibility Score: inf
ROOT
ATOM      1  C   UNL     1      30.893 -56.980 -12.781  1.00  0.00     0.402 A 
ATOM      2  O   UNL     1      29.697 -56.797 -12.229  1.00  0.00    -0.202 OA
ATOM      3  C   UNL     1      29.293 -55.631 -11.735  1.00  0.00     0.368 A 
ATOM      4  C   UNL     1      28.018 -55.537 -11.171  1.00  0.00     0.162 A 
ATOM      5  C   UNL     1      27.568 -54.324 -10.641  1.00  0.00     0.128 A 
ATOM      6  C   UNL     1      28.398 -53.201 -10.673  1.00  0.00     0.093 A 
ATOM      7  C   UNL     1      29.680 -53.270 -11.232  1.00  0.00     0.136 A 
ATOM      8  C   UNL     1      30.140 -54.498 -11.774  1.00  0.00     0.125 A 
ATOM      9  C   UNL     1      31.404 -54.656 -12.365  1.00  0.00     0.078 A 
ATOM     10  C   UNL     1      31.786 -55.898 -12.883  1.00  0.00     0.223 A 
ENDROOT
BRANCH   1  11
ATOM     11  C   UNL     1      31.231 -58.330 -13.287  1.00  0.00     0.091 A 
ATOM     12  C   UNL     1      32.283 -59.078 -12.732  1.00  0.00     0.068 A 
ATOM     13  C   UNL     1      32.572 -60.363 -13.210  1.00  0.00     0.162 A 
ATOM     14  C   UNL     1      30.452 -58.901 -14.306  1.00  0.00     0.068 A 
ATOM     15  C   UNL     1      31.804 -60.917 -14.243  1.00  0.00     0.200 A 
ATOM     16  C   UNL     1      30.737 -60.184 -14.790  1.00  0.00     0.162 A 
BRANCH  13  17
ATOM     17  O   UNL     1      33.620 -61.100 -12.662  1.00  0.00    -0.504 OA
ATOM     18  H   UNL     1      33.748 -61.175 -11.659  1.00  0.00     0.293 HD
ENDBRANCH  13  17
BRANCH  15  19
ATOM     19  O   UNL     1      32.109 -62.196 -14.709  1.00  0.00    -0.502 OA
ATOM     20  H   UNL     1      33.061 -62.540 -14.753  1.00  0.00     0.293 HD
ENDBRANCH  15  19
BRANCH  16  21
ATOM     21  O   UNL     1      29.965 -60.734 -15.812  1.00  0.00    -0.504 OA
ATOM     22  H   UNL     1      28.967 -60.881 -15.704  1.00  0.00     0.293 HD
ENDBRANCH  16  21
ENDBRANCH   1  11
BRANCH  10  23
ATOM     23  O   UNL     1      33.021 -56.041 -13.515  1.00  0.00    -0.500 OA
ATOM     24  H   UNL     1      33.327 -56.931 -13.892  1.00  0.00     0.294 HD
ENDBRANCH  10  23
BRANCH   5  25
ATOM     25  O   UNL     1      26.298 -54.223 -10.078  1.00  0.00    -0.507 OA
ATOM     26  H   UNL     1      26.024 -54.789  -9.282  1.00  0.00     0.293 HD
ENDBRANCH   5  25
BRANCH   7  27
ATOM     27  O   UNL     1      30.449 -52.102 -11.223  1.00  0.00    -0.507 OA
ATOM     28  H   UNL     1      30.186 -51.249 -10.754  1.00  0.00     0.293 HD
ENDBRANCH   7  27
TORSDOF 7
ENDMDL
MODEL 2
REMARK VINA RESULT:    -5.785      9.222     12.939
REMARK INTER + INTRA:          -7.386
REMARK INTER:                  -7.099
REMARK INTRA:                  -0.287
REMARK UNBOUND:                -0.248
REMARK SMILES Oc1cc(O)c2cc(O)c(-c3cc(O)c(O)c(O)c3)[o+]c2c1
REMARK SMILES IDX 10 1 20 2 21 3 22 4 2 5 3 6 4 7 6 8 7 9 8 10 11 11 12 12
REMARK SMILES IDX 13 13 19 14 15 15 17 16 14 17 16 19 18 21 9 23 1 25 5 27
REMARK H PARENT 14 18 16 20 18 22 9 24 1 26 5 28
REMARK Flexibility Score: inf
ROOT
ATOM      1  C   UNL     1      32.719 -65.421  -6.244  1.00  0.00     0.402 A 
ATOM      2  O   UNL     1      33.490 -66.473  -6.504  1.00  0.00    -0.202 OA
ATOM      3  C   UNL     1      33.151 -67.720  -6.192  1.00  0.00     0.368 A 
ATOM      4  C   UNL     1      34.029 -68.761  -6.503  1.00  0.00     0.162 A 
ATOM      5  C   UNL     1      33.700 -70.082  -6.183  1.00  0.00     0.128 A 
ATOM      6  C   UNL     1      32.487 -70.362  -5.549  1.00  0.00     0.093 A 
ATOM      7  C   UNL     1      31.590 -69.336  -5.226  1.00  0.00     0.136 A 
ATOM      8  C   UNL     1      31.919 -67.994  -5.551  1.00  0.00     0.125 A 
ATOM      9  C   UNL     1      31.076 -66.905  -5.278  1.00  0.00     0.078 A 
ATOM     10  C   UNL     1      31.466 -65.610  -5.633  1.00  0.00     0.223 A 
ENDROOT
BRANCH   1  11
ATOM     11  C   UNL     1      33.212 -64.079  -6.631  1.00  0.00     0.091 A 
ATOM     12  C   UNL     1      32.641 -63.370  -7.701  1.00  0.00     0.068 A 
ATOM     13  C   UNL     1      33.108 -62.092  -8.037  1.00  0.00     0.162 A 
ATOM     14  C   UNL     1      34.235 -63.476  -5.881  1.00  0.00     0.068 A 
ATOM     15  C   UNL     1      34.143 -61.506  -7.298  1.00  0.00     0.200 A 
ATOM     16  C   UNL     1      34.706 -62.199  -6.214  1.00  0.00     0.162 A 
BRANCH  13  17
ATOM     17  O   UNL     1      32.543 -61.394  -9.104  1.00  0.00    -0.504 OA
ATOM     18  H   UNL     1      32.371 -61.840  -9.998  1.00  0.00     0.293 HD
ENDBRANCH  13  17
BRANCH  15  19
ATOM     19  O   UNL     1      34.598 -60.235  -7.651  1.00  0.00    -0.502 OA
ATOM     20  H   UNL     1      34.506 -59.439  -7.030  1.00  0.00     0.293 HD
ENDBRANCH  15  19
BRANCH  16  21
ATOM     21  O   UNL     1      35.732 -61.617  -5.470  1.00  0.00    -0.504 OA
ATOM     22  H   UNL     1      36.474 -61.086  -5.913  1.00  0.00     0.293 HD
ENDBRANCH  16  21
ENDBRANCH   1  11
BRANCH  10  23
ATOM     23  O   UNL     1      30.607 -64.534  -5.406  1.00  0.00    -0.500 OA
ATOM     24  H   UNL     1      30.783 -63.856  -4.674  1.00  0.00     0.294 HD
ENDBRANCH  10  23
BRANCH   5  25
ATOM     25  O   UNL     1      34.570 -71.125  -6.490  1.00  0.00    -0.507 OA
ATOM     26  H   UNL     1      34.896 -71.770  -5.779  1.00  0.00     0.293 HD
ENDBRANCH   5  25
BRANCH   7  27
ATOM     27  O   UNL     1      30.399 -69.699  -4.590  1.00  0.00    -0.507 OA
ATOM     28  H   UNL     1      30.156 -70.642  -4.330  1.00  0.00     0.293 HD
ENDBRANCH   7  27
TORSDOF 7
ENDMDL
MODEL 3
REMARK VINA RESULT:    -5.775      0.184      1.795
REMARK INTER + INTRA:          -7.374
REMARK INTER:                  -7.151
REMARK INTRA:                  -0.224
REMARK UNBOUND:                -0.248
REMARK SMILES Oc1cc(O)c2cc(O)c(-c3cc(O)c(O)c(O)c3)[o+]c2c1
REMARK SMILES IDX 10 1 20 2 21 3 22 4 2 5 3 6 4 7 6 8 7 9 8 10 11 11 12 12
REMARK SMILES IDX 13 13 19 14 15 15 17 16 14 17 16 19 18 21 9 23 1 25 5 27
REMARK H PARENT 14 18 16 20 18 22 9 24 1 26 5 28
REMARK Flexibility Score: inf
ROOT
ATOM      1  C   UNL     1      30.791 -57.016 -12.869  1.00  0.00     0.402 A 
ATOM      2  O   UNL     1      29.594 -56.811 -12.325  1.00  0.00    -0.202 OA
ATOM      3  C   UNL     1      29.226 -55.651 -11.791  1.00  0.00     0.368 A 
ATOM      4  C   UNL     1      27.948 -55.532 -11.239  1.00  0.00     0.162 A 
ATOM      5  C   UNL     1      27.534 -54.325 -10.668  1.00  0.00     0.128 A 
ATOM      6  C   UNL     1      28.404 -53.232 -10.648  1.00  0.00     0.093 A 
ATOM      7  C   UNL     1      29.690 -53.326 -11.194  1.00  0.00     0.136 A 
ATOM      8  C   UNL     1      30.113 -54.548 -11.777  1.00  0.00     0.125 A 
ATOM      9  C   UNL     1      31.378 -54.729 -12.359  1.00  0.00     0.078 A 
ATOM     10  C   UNL     1      31.722 -55.964 -12.920  1.00  0.00     0.223 A 
ENDROOT
BRANCH   1  11
ATOM     11  C   UNL     1      31.087 -58.357 -13.423  1.00  0.00     0.091 A 
ATOM     12  C   UNL     1      30.397 -58.857 -14.540  1.00  0.00     0.068 A 
ATOM     13  C   UNL     1      30.709 -60.120 -15.063  1.00  0.00     0.162 A 
ATOM     14  C   UNL     1      32.116 -59.126 -12.856  1.00  0.00     0.068 A 
ATOM     15  C   UNL     1      31.721 -60.890 -14.478  1.00  0.00     0.200 A 
ATOM     16  C   UNL     1      32.430 -60.390 -13.373  1.00  0.00     0.162 A 
BRANCH  13  17
ATOM     17  O   UNL     1      30.018 -60.615 -16.168  1.00  0.00    -0.504 OA
ATOM     18  H   UNL     1      29.559 -59.997 -16.827  1.00  0.00     0.293 HD
ENDBRANCH  13  17
BRANCH  15  19
ATOM     19  O   UNL     1      32.015 -62.147 -15.009  1.00  0.00    -0.502 OA
ATOM     20  H   UNL     1      32.140 -62.296 -16.003  1.00  0.00     0.293 HD
ENDBRANCH  15  19
BRANCH  16  21
ATOM     21  O   UNL     1      33.445 -61.151 -12.793  1.00  0.00    -0.504 OA
ATOM     22  H   UNL     1      33.560 -61.204 -11.787  1.00  0.00     0.293 HD
ENDBRANCH  16  21
ENDBRANCH   1  11
BRANCH  10  23
ATOM     23  O   UNL     1      32.960 -56.128 -13.542  1.00  0.00    -0.500 OA
ATOM     24  H   UNL     1      33.036 -56.331 -14.532  1.00  0.00     0.294 HD
ENDBRANCH  10  23
BRANCH   5  25
ATOM     25  O   UNL     1      26.262 -54.199 -10.116  1.00  0.00    -0.507 OA
ATOM     26  H   UNL     1      25.529 -54.872 -10.314  1.00  0.00     0.293 HD
ENDBRANCH   5  25
BRANCH   7  27
ATOM     27  O   UNL     1      30.500 -52.188 -11.132  1.00  0.00    -0.507 OA
ATOM     28  H   UNL     1      30.517 -51.541 -10.358  1.00  0.00     0.293 HD
ENDBRANCH   7  27
TORSDOF 7
ENDMDL
MODEL 4
REMARK VINA RESULT:    -5.728      8.651     12.524
REMARK INTER + INTRA:          -7.316
REMARK INTER:                  -6.966
REMARK INTRA:                  -0.350
REMARK UNBOUND:                -0.248
REMARK SMILES Oc1cc(O)c2cc(O)c(-c3cc(O)c(O)c(O)c3)[o+]c2c1
REMARK SMILES IDX 10 1 20 2 21 3 22 4 2 5 3 6 4 7 6 8 7 9 8 10 11 11 12 12
REMARK SMILES IDX 13 13 19 14 15 15 17 16 14 17 16 19 18 21 9 23 1 25 5 27
REMARK H PARENT 14 18 16 20 18 22 9 24 1 26 5 28
REMARK Flexibility Score: inf
ROOT
ATOM      1  C   UNL     1      34.493 -65.166  -6.814  1.00  0.00     0.402 A 
ATOM      2  O   UNL     1      33.312 -65.700  -7.114  1.00  0.00    -0.202 OA
ATOM      3  C   UNL     1      33.093 -67.011  -7.152  1.00  0.00     0.368 A 
ATOM      4  C   UNL     1      31.818 -67.477  -7.481  1.00  0.00     0.162 A 
ATOM      5  C   UNL     1      31.560 -68.850  -7.532  1.00  0.00     0.128 A 
ATOM      6  C   UNL     1      32.582 -69.760  -7.253  1.00  0.00     0.093 A 
ATOM      7  C   UNL     1      33.868 -69.318  -6.921  1.00  0.00     0.136 A 
ATOM      8  C   UNL     1      34.135 -67.925  -6.866  1.00  0.00     0.125 A 
ATOM      9  C   UNL     1      35.389 -67.392  -6.529  1.00  0.00     0.078 A 
ATOM     10  C   UNL     1      35.574 -66.006  -6.490  1.00  0.00     0.223 A 
ENDROOT
BRANCH   1  11
ATOM     11  C   UNL     1      34.615 -63.691  -6.814  1.00  0.00     0.091 A 
ATOM     12  C   UNL     1      34.770 -62.969  -8.010  1.00  0.00     0.068 A 
ATOM     13  C   UNL     1      34.860 -61.571  -7.991  1.00  0.00     0.162 A 
ATOM     14  C   UNL     1      34.518 -62.989  -5.602  1.00  0.00     0.068 A 
ATOM     15  C   UNL     1      34.786 -60.880  -6.775  1.00  0.00     0.200 A 
ATOM     16  C   UNL     1      34.610 -61.591  -5.577  1.00  0.00     0.162 A 
BRANCH  13  17
ATOM     17  O   UNL     1      35.021 -60.859  -9.179  1.00  0.00    -0.504 OA
ATOM     18  H   UNL     1      35.911 -60.828  -9.663  1.00  0.00     0.293 HD
ENDBRANCH  13  17
BRANCH  15  19
ATOM     19  O   UNL     1      34.882 -59.488  -6.775  1.00  0.00    -0.502 OA
ATOM     20  H   UNL     1      35.332 -58.979  -6.024  1.00  0.00     0.293 HD
ENDBRANCH  15  19
BRANCH  16  21
ATOM     21  O   UNL     1      34.526 -60.907  -4.365  1.00  0.00    -0.504 OA
ATOM     22  H   UNL     1      35.356 -60.584  -3.879  1.00  0.00     0.293 HD
ENDBRANCH  16  21
ENDBRANCH   1  11
BRANCH  10  23
ATOM     23  O   UNL     1      36.807 -65.476  -6.107  1.00  0.00    -0.500 OA
ATOM     24  H   UNL     1      37.533 -66.055  -5.703  1.00  0.00     0.294 HD
ENDBRANCH  10  23
BRANCH   5  25
ATOM     25  O   UNL     1      30.291 -69.322  -7.860  1.00  0.00    -0.507 OA
ATOM     26  H   UNL     1      30.058 -70.307  -7.790  1.00  0.00     0.293 HD
ENDBRANCH   5  25
BRANCH   7  27
ATOM     27  O   UNL     1      34.836 -70.292  -6.658  1.00  0.00    -0.507 OA
ATOM     28  H   UNL     1      35.714 -70.371  -7.148  1.00  0.00     0.293 HD
ENDBRANCH   7  27
TORSDOF 7
ENDMDL
MODEL 5
REMARK VINA RESULT:    -5.704      1.635      7.370
REMARK INTER + INTRA:          -7.286
REMARK INTER:                  -6.926
REMARK INTRA:                  -0.361
REMARK UNBOUND:                -0.248
REMARK SMILES Oc1cc(O)c2cc(O)c(-c3cc(O)c(O)c(O)c3)[o+]c2c1
REMARK SMILES IDX 10 1 20 2 21 3 22 4 2 5 3 6 4 7 6 8 7 9 8 10 11 11 12 12
REMARK SMILES IDX 13 13 19 14 15 15 17 16 14 17 16 19 18 21 9 23 1 25 5 27
REMARK H PARENT 14 18 16 20 18 22 9 24 1 26 5 28
REMARK Flexibility Score: inf
ROOT
ATOM      1  C   UNL     1      30.334 -57.848 -13.784  1.00  0.00     0.402 A 
ATOM      2  O   UNL     1      31.126 -58.806 -13.310  1.00  0.00    -0.202 OA
ATOM      3  C   UNL     1      31.473 -59.880 -14.012  1.00  0.00     0.368 A 
ATOM      4  C   UNL     1      32.307 -60.835 -13.426  1.00  0.00     0.162 A 
ATOM      5  C   UNL     1      32.686 -61.975 -14.141  1.00  0.00     0.128 A 
ATOM      6  C   UNL     1      32.226 -62.161 -15.447  1.00  0.00     0.093 A 
ATOM      7  C   UNL     1      31.388 -61.219 -16.056  1.00  0.00     0.136 A 
ATOM      8  C   UNL     1      31.003 -60.059 -15.336  1.00  0.00     0.125 A 
ATOM      9  C   UNL     1      30.179 -59.056 -15.870  1.00  0.00     0.078 A 
ATOM     10  C   UNL     1      29.846 -57.937 -15.100  1.00  0.00     0.223 A 
ENDROOT
BRANCH   1  11
ATOM     11  C   UNL     1      30.011 -56.705 -12.899  1.00  0.00     0.091 A 
ATOM     12  C   UNL     1      28.778 -56.622 -12.231  1.00  0.00     0.068 A 
ATOM     13  C   UNL     1      28.501 -55.543 -11.380  1.00  0.00     0.162 A 
ATOM     14  C   UNL     1      30.976 -55.709 -12.678  1.00  0.00     0.068 A 
ATOM     15  C   UNL     1      29.460 -54.542 -11.182  1.00  0.00     0.200 A 
ATOM     16  C   UNL     1      30.704 -54.628 -11.830  1.00  0.00     0.162 A 
BRANCH  13  17
ATOM     17  O   UNL     1      27.274 -55.461 -10.723  1.00  0.00    -0.504 OA
ATOM     18  H   UNL     1      26.476 -54.999 -11.146  1.00  0.00     0.293 HD
ENDBRANCH  13  17
BRANCH  15  19
ATOM     19  O   UNL     1      29.165 -53.473 -10.335  1.00  0.00    -0.502 OA
ATOM     20  H   UNL     1      29.286 -53.532  -9.331  1.00  0.00     0.293 HD
ENDBRANCH  15  19
BRANCH  16  21
ATOM     21  O   UNL     1      31.665 -53.637 -11.629  1.00  0.00    -0.504 OA
ATOM     22  H   UNL     1      32.641 -53.790 -11.859  1.00  0.00     0.293 HD
ENDBRANCH  16  21
ENDBRANCH   1  11
BRANCH  10  23
ATOM     23  O   UNL     1      29.067 -56.917 -15.649  1.00  0.00    -0.500 OA
ATOM     24  H   UNL     1      29.484 -56.091 -16.060  1.00  0.00     0.294 HD
ENDBRANCH  10  23
BRANCH   5  25
ATOM     25  O   UNL     1      33.518 -62.932 -13.564  1.00  0.00    -0.507 OA
ATOM     26  H   UNL     1      33.515 -63.895 -13.879  1.00  0.00     0.293 HD
ENDBRANCH   5  25
BRANCH   7  27
ATOM     27  O   UNL     1      30.969 -61.481 -17.364  1.00  0.00    -0.507 OA
ATOM     28  H   UNL     1      30.821 -62.404 -17.742  1.00  0.00     0.293 HD
ENDBRANCH   7  27
TORSDOF 7
ENDMDL
MODEL 6
REMARK VINA RESULT:    -5.573      9.622     13.381
REMARK INTER + INTRA:          -7.125
REMARK INTER:                  -6.900
REMARK INTRA:                  -0.224
REMARK UNBOUND:                -0.248
REMARK SMILES Oc1cc(O)c2cc(O)c(-c3cc(O)c(O)c(O)c3)[o+]c2c1
REMARK SMILES IDX 10 1 20 2 21 3 22 4 2 5 3 6 4 7 6 8 7 9 8 10 11 11 12 12
REMARK SMILES IDX 13 13 19 14 15 15 17 16 14 17 16 19 18 21 9 23 1 25 5 27
REMARK H PARENT 14 18 16 20 18 22 9 24 1 26 5 28
REMARK Flexibility Score: inf
ROOT
ATOM      1  C   UNL     1      33.129 -66.336  -6.541  1.00  0.00     0.402 A 
ATOM      2  O   UNL     1      34.172 -66.556  -5.745  1.00  0.00    -0.202 OA
ATOM      3  C   UNL     1      34.381 -67.711  -5.121  1.00  0.00     0.368 A 
ATOM      4  C   UNL     1      35.504 -67.847  -4.301  1.00  0.00     0.162 A 
ATOM      5  C   UNL     1      35.748 -69.049  -3.631  1.00  0.00     0.128 A 
ATOM      6  C   UNL     1      34.863 -70.120  -3.781  1.00  0.00     0.093 A 
ATOM      7  C   UNL     1      33.730 -70.009  -4.596  1.00  0.00     0.136 A 
ATOM      8  C   UNL     1      33.481 -68.792  -5.281  1.00  0.00     0.125 A 
ATOM      9  C   UNL     1      32.379 -68.595  -6.129  1.00  0.00     0.078 A 
ATOM     10  C   UNL     1      32.201 -67.367  -6.774  1.00  0.00     0.223 A 
ENDROOT
BRANCH   1  11
ATOM     11  C   UNL     1      33.000 -65.002  -7.172  1.00  0.00     0.091 A 
ATOM     12  C   UNL     1      31.891 -64.177  -6.919  1.00  0.00     0.068 A 
ATOM     13  C   UNL     1      31.799 -62.908  -7.507  1.00  0.00     0.162 A 
ATOM     14  C   UNL     1      34.031 -64.525  -7.997  1.00  0.00     0.068 A 
ATOM     15  C   UNL     1      32.821 -62.449  -8.348  1.00  0.00     0.200 A 
ATOM     16  C   UNL     1      33.943 -63.259  -8.590  1.00  0.00     0.162 A 
BRANCH  13  17
ATOM     17  O   UNL     1      30.694 -62.095  -7.259  1.00  0.00    -0.504 OA
ATOM     18  H   UNL     1      30.525 -61.695  -6.343  1.00  0.00     0.293 HD
ENDBRANCH  13  17
BRANCH  15  19
ATOM     19  O   UNL     1      32.710 -61.185  -8.928  1.00  0.00    -0.502 OA
ATOM     20  H   UNL     1      31.924 -60.574  -8.742  1.00  0.00     0.293 HD
ENDBRANCH  15  19
BRANCH  16  21
ATOM     21  O   UNL     1      34.967 -62.802  -9.419  1.00  0.00    -0.504 OA
ATOM     22  H   UNL     1      35.774 -63.378  -9.634  1.00  0.00     0.293 HD
ENDBRANCH  16  21
ENDBRANCH   1  11
BRANCH  10  23
ATOM     23  O   UNL     1      31.134 -67.188  -7.655  1.00  0.00    -0.500 OA
ATOM     24  H   UNL     1      31.252 -67.269  -8.658  1.00  0.00     0.294 HD
ENDBRANCH  10  23
BRANCH   5  25
ATOM     25  O   UNL     1      36.865 -69.192  -2.812  1.00  0.00    -0.507 OA
ATOM     26  H   UNL     1      37.031 -68.571  -2.028  1.00  0.00     0.293 HD
ENDBRANCH   5  25
BRANCH   7  27
ATOM     27  O   UNL     1      32.894 -71.125  -4.691  1.00  0.00    -0.507 OA
ATOM     28  H   UNL     1      32.961 -71.941  -4.101  1.00  0.00     0.293 HD
ENDBRANCH   7  27
TORSDOF 7
ENDMDL
MODEL 7
REMARK VINA RESULT:    -5.564      9.313     12.706
REMARK INTER + INTRA:          -7.113
REMARK INTER:                  -6.740
REMARK INTRA:                  -0.373
REMARK UNBOUND:                -0.248
REMARK SMILES Oc1cc(O)c2cc(O)c(-c3cc(O)c(O)c(O)c3)[o+]c2c1
REMARK SMILES IDX 10 1 20 2 21 3 22 4 2 5 3 6 4 7 6 8 7 9 8 10 11 11 12 12
REMARK SMILES IDX 13 13 19 14 15 15 17 16 14 17 16 19 18 21 9 23 1 25 5 27
REMARK H PARENT 14 18 16 20 18 22 9 24 1 26 5 28
REMARK Flexibility Score: inf
ROOT
ATOM      1  C   UNL     1      32.793 -65.779  -6.270  1.00  0.00     0.402 A 
ATOM      2  O   UNL     1      32.081 -66.779  -6.783  1.00  0.00    -0.202 OA
ATOM      3  C   UNL     1      31.841 -67.913  -6.133  1.00  0.00     0.368 A 
ATOM      4  C   UNL     1      31.084 -68.907  -6.757  1.00  0.00     0.162 A 
ATOM      5  C   UNL     1      30.818 -70.111  -6.098  1.00  0.00     0.128 A 
ATOM      6  C   UNL     1      31.313 -70.321  -4.809  1.00  0.00     0.093 A 
ATOM      7  C   UNL     1      32.074 -69.340  -4.161  1.00  0.00     0.136 A 
ATOM      8  C   UNL     1      32.344 -68.116  -4.826  1.00  0.00     0.125 A 
ATOM      9  C   UNL     1      33.086 -67.072  -4.250  1.00  0.00     0.078 A 
ATOM     10  C   UNL     1      33.307 -65.890  -4.965  1.00  0.00     0.223 A 
ENDROOT
BRANCH   1  11
ATOM     11  C   UNL     1      33.000 -64.569  -7.098  1.00  0.00     0.091 A 
ATOM     12  C   UNL     1      32.059 -63.526  -7.119  1.00  0.00     0.068 A 
ATOM     13  C   UNL     1      32.285 -62.379  -7.892  1.00  0.00     0.162 A 
ATOM     14  C   UNL     1      34.187 -64.433  -7.836  1.00  0.00     0.068 A 
ATOM     15  C   UNL     1      33.461 -62.261  -8.643  1.00  0.00     0.200 A 
ATOM     16  C   UNL     1      34.417 -63.289  -8.612  1.00  0.00     0.162 A 
BRANCH  13  17
ATOM     17  O   UNL     1      31.346 -61.349  -7.915  1.00  0.00    -0.504 OA
ATOM     18  H   UNL     1      31.446 -60.554  -8.536  1.00  0.00     0.293 HD
ENDBRANCH  13  17
BRANCH  15  19
ATOM     19  O   UNL     1      33.667 -61.113  -9.411  1.00  0.00    -0.502 OA
ATOM     20  H   UNL     1      32.905 -60.629  -9.870  1.00  0.00     0.293 HD
ENDBRANCH  15  19
BRANCH  16  21
ATOM     21  O   UNL     1      35.593 -63.172  -9.352  1.00  0.00    -0.504 OA
ATOM     22  H   UNL     1      35.718 -63.660 -10.232  1.00  0.00     0.293 HD
ENDBRANCH  16  21
ENDBRANCH   1  11
BRANCH  10  23
ATOM     23  O   UNL     1      34.002 -64.834  -4.374  1.00  0.00    -0.500 OA
ATOM     24  H   UNL     1      33.710 -64.433  -3.491  1.00  0.00     0.294 HD
ENDBRANCH  10  23
BRANCH   5  25
ATOM     25  O   UNL     1      30.064 -71.107  -6.714  1.00  0.00    -0.507 OA
ATOM     26  H   UNL     1      30.463 -72.012  -6.937  1.00  0.00     0.293 HD
ENDBRANCH   5  25
BRANCH   7  27
ATOM     27  O   UNL     1      32.535 -69.628  -2.873  1.00  0.00    -0.507 OA
ATOM     28  H   UNL     1      32.659 -68.942  -2.145  1.00  0.00     0.293 HD
ENDBRANCH   7  27
TORSDOF 7
ENDMDL
MODEL 8
REMARK VINA RESULT:    -5.546      7.704     10.926
REMARK INTER + INTRA:          -7.092
REMARK INTER:                  -6.747
REMARK INTRA:                  -0.344
REMARK UNBOUND:                -0.248
REMARK SMILES Oc1cc(O)c2cc(O)c(-c3cc(O)c(O)c(O)c3)[o+]c2c1
REMARK SMILES IDX 10 1 20 2 21 3 22 4 2 5 3 6 4 7 6 8 7 9 8 10 11 11 12 12
REMARK SMILES IDX 13 13 19 14 15 15 17 16 14 17 16 19 18 21 9 23 1 25 5 27
REMARK H PARENT 14 18 16 20 18 22 9 24 1 26 5 28
REMARK Flexibility Score: inf
ROOT
ATOM      1  C   UNL     1      33.609 -63.313  -7.730  1.00  0.00     0.402 A 
ATOM      2  O   UNL     1      34.218 -64.492  -7.637  1.00  0.00    -0.202 OA
ATOM      3  C   UNL     1      33.580 -65.621  -7.348  1.00  0.00     0.368 A 
ATOM      4  C   UNL     1      34.307 -66.811  -7.269  1.00  0.00     0.162 A 
ATOM      5  C   UNL     1      33.663 -68.013  -6.963  1.00  0.00     0.128 A 
ATOM      6  C   UNL     1      32.285 -68.025  -6.734  1.00  0.00     0.093 A 
ATOM      7  C   UNL     1      31.533 -66.845  -6.807  1.00  0.00     0.136 A 
ATOM      8  C   UNL     1      32.183 -65.623  -7.120  1.00  0.00     0.125 A 
ATOM      9  C   UNL     1      31.509 -64.396  -7.227  1.00  0.00     0.078 A 
ATOM     10  C   UNL     1      32.217 -63.232  -7.544  1.00  0.00     0.223 A 
ENDROOT
BRANCH   1  11
ATOM     11  C   UNL     1      34.431 -62.123  -8.049  1.00  0.00     0.091 A 
ATOM     12  C   UNL     1      34.772 -61.183  -7.062  1.00  0.00     0.068 A 
ATOM     13  C   UNL     1      35.570 -60.076  -7.380  1.00  0.00     0.162 A 
ATOM     14  C   UNL     1      34.929 -61.957  -9.352  1.00  0.00     0.068 A 
ATOM     15  C   UNL     1      36.044 -59.904  -8.687  1.00  0.00     0.200 A 
ATOM     16  C   UNL     1      35.726 -60.850  -9.675  1.00  0.00     0.162 A 
BRANCH  13  17
ATOM     17  O   UNL     1      35.901 -59.141  -6.400  1.00  0.00    -0.504 OA
ATOM     18  H   UNL     1      36.784 -58.644  -6.417  1.00  0.00     0.293 HD
ENDBRANCH  13  17
BRANCH  15  19
ATOM     19  O   UNL     1      36.835 -58.794  -8.985  1.00  0.00    -0.502 OA
ATOM     20  H   UNL     1      37.715 -58.876  -9.479  1.00  0.00     0.293 HD
ENDBRANCH  15  19
BRANCH  16  21
ATOM     21  O   UNL     1      36.203 -60.689 -10.975  1.00  0.00    -0.504 OA
ATOM     22  H   UNL     1      36.621 -61.458 -11.488  1.00  0.00     0.293 HD
ENDBRANCH  16  21
ENDBRANCH   1  11
BRANCH  10  23
ATOM     23  O   UNL     1      31.539 -62.022  -7.699  1.00  0.00    -0.500 OA
ATOM     24  H   UNL     1      30.801 -61.909  -8.383  1.00  0.00     0.294 HD
ENDBRANCH  10  23
BRANCH   5  25
ATOM     25  O   UNL     1      34.381 -69.204  -6.883  1.00  0.00    -0.507 OA
ATOM     26  H   UNL     1      34.115 -69.941  -6.239  1.00  0.00     0.293 HD
ENDBRANCH   5  25
BRANCH   7  27
ATOM     27  O   UNL     1      30.160 -66.940  -6.562  1.00  0.00    -0.507 OA
ATOM     28  H   UNL     1      29.444 -66.770  -7.252  1.00  0.00     0.293 HD
ENDBRANCH   7  27
TORSDOF 7
ENDMDL
MODEL 9
REMARK VINA RESULT:    -5.437      9.612     12.119
REMARK INTER + INTRA:          -6.957
REMARK INTER:                  -6.579
REMARK INTRA:                  -0.378
REMARK UNBOUND:                -0.248
REMARK SMILES Oc1cc(O)c2cc(O)c(-c3cc(O)c(O)c(O)c3)[o+]c2c1
REMARK SMILES IDX 10 1 20 2 21 3 22 4 2 5 3 6 4 7 6 8 7 9 8 10 11 11 12 12
REMARK SMILES IDX 13 13 19 14 15 15 17 16 14 17 16 19 18 21 9 23 1 25 5 27
REMARK H PARENT 14 18 16 20 18 22 9 24 1 26 5 28
REMARK Flexibility Score: inf
ROOT
ATOM      1  C   UNL     1      32.214 -66.063  -5.920  1.00  0.00     0.402 A 
ATOM      2  O   UNL     1      33.282 -65.724  -6.638  1.00  0.00    -0.202 OA
ATOM      3  C   UNL     1      33.382 -64.575  -7.298  1.00  0.00     0.368 A 
ATOM      4  C   UNL     1      34.543 -64.310  -8.028  1.00  0.00     0.162 A 
ATOM      5  C   UNL     1      34.674 -63.111  -8.735  1.00  0.00     0.128 A 
ATOM      6  C   UNL     1      33.639 -62.174  -8.712  1.00  0.00     0.093 A 
ATOM      7  C   UNL     1      32.465 -62.416  -7.988  1.00  0.00     0.136 A 
ATOM      8  C   UNL     1      32.328 -63.631  -7.267  1.00  0.00     0.125 A 
ATOM      9  C   UNL     1      31.194 -63.953  -6.504  1.00  0.00     0.078 A 
ATOM     10  C   UNL     1      31.134 -65.169  -5.815  1.00  0.00     0.223 A 
ENDROOT
BRANCH   1  11
ATOM     11  C   UNL     1      32.218 -67.377  -5.237  1.00  0.00     0.091 A 
ATOM     12  C   UNL     1      32.748 -67.530  -3.945  1.00  0.00     0.068 A 
ATOM     13  C   UNL     1      32.721 -68.777  -3.307  1.00  0.00     0.162 A 
ATOM     14  C   UNL     1      31.630 -68.485  -5.868  1.00  0.00     0.068 A 
ATOM     15  C   UNL     1      32.153 -69.883  -3.952  1.00  0.00     0.200 A 
ATOM     16  C   UNL     1      31.602 -69.735  -5.236  1.00  0.00     0.162 A 
BRANCH  13  17
ATOM     17  O   UNL     1      33.254 -68.926  -2.027  1.00  0.00    -0.504 OA
ATOM     18  H   UNL     1      32.683 -69.228  -1.246  1.00  0.00     0.293 HD
ENDBRANCH  13  17
BRANCH  15  19
ATOM     19  O   UNL     1      32.139 -71.118  -3.304  1.00  0.00    -0.502 OA
ATOM     20  H   UNL     1      32.109 -71.196  -2.294  1.00  0.00     0.293 HD
ENDBRANCH  15  19
BRANCH  16  21
ATOM     21  O   UNL     1      31.028 -70.831  -5.879  1.00  0.00    -0.504 OA
ATOM     22  H   UNL     1      30.070 -70.810  -6.213  1.00  0.00     0.293 HD
ENDBRANCH  16  21
ENDBRANCH   1  11
BRANCH  10  23
ATOM     23  O   UNL     1      30.029 -65.466  -5.018  1.00  0.00    -0.500 OA
ATOM     24  H   UNL     1      29.621 -64.779  -4.395  1.00  0.00     0.294 HD
ENDBRANCH  10  23
BRANCH   5  25
ATOM     25  O   UNL     1      35.829 -62.840  -9.465  1.00  0.00    -0.507 OA
ATOM     26  H   UNL     1      35.938 -63.158 -10.422  1.00  0.00     0.293 HD
ENDBRANCH   5  25
BRANCH   7  27
ATOM     27  O   UNL     1      31.475 -61.430  -8.018  1.00  0.00    -0.507 OA
ATOM     28  H   UNL     1      31.642 -60.449  -7.854  1.00  0.00     0.293 HD
ENDBRANCH   7  27
TORSDOF 7
ENDMDL
