MODEL 1
REMARK VINA RESULT:    -3.429      0.000      0.000
REMARK INTER + INTRA:          -6.852
REMARK INTER:                  -6.034
REMARK INTRA:                  -0.818
REMARK UNBOUND:                -0.818
REMARK SMILES CCCCCCCCCCCCCCC(=O)[O-]
REMARK SMILES IDX 9 1 10 2 11 3 12 4 13 5 14 6 15 7 16 8 17 9 8 10 7 11 6 12
REMARK SMILES IDX 5 13 4 14 3 15 2 16 1 17
REMARK H PARENT
REMARK Flexibility Score: inf
ROOT
ATOM      1  C   UNL     1       3.275 -37.564  19.860  1.00  0.00     0.000 C 
ENDROOT
BRANCH   1   2
ATOM      2  C   UNL     1       1.806 -37.782  19.463  1.00  0.00     0.000 C 
BRANCH   2   3
ATOM      3  C   UNL     1       1.558 -37.554  17.962  1.00  0.00     0.000 C 
BRANCH   3   4
ATOM      4  C   UNL     1       2.863 -37.493  17.151  1.00  0.00     0.000 C 
BRANCH   4   5
ATOM      5  C   UNL     1       2.750 -36.589  15.914  1.00  0.00     0.006 C 
BRANCH   5   6
ATOM      6  C   UNL     1       2.647 -37.424  14.633  1.00  0.00     0.053 C 
BRANCH   6   7
ATOM      7  C   UNL     1       3.996 -37.923  14.221  1.00  0.00     0.041 C 
ATOM      8  O   UNL     1       4.893 -37.111  13.875  1.00  0.00    -0.550 OA
ATOM      9  O   UNL     1       4.246 -39.289  14.172  1.00  0.00    -0.550 OA
ENDBRANCH   6   7
ENDBRANCH   5   6
ENDBRANCH   4   5
ENDBRANCH   3   4
ENDBRANCH   2   3
ENDBRANCH   1   2
BRANCH   1  10
ATOM     10  C   UNL     1       3.536 -36.160  20.425  1.00  0.00     0.000 C 
BRANCH  10  11
ATOM     11  C   UNL     1       4.945 -35.673  20.050  1.00  0.00    -0.000 C 
BRANCH  11  12
ATOM     12  C   UNL     1       5.882 -35.570  21.265  1.00  0.00    -0.000 C 
BRANCH  12  13
ATOM     13  C   UNL     1       5.155 -35.087  22.532  1.00  0.00    -0.000 C 
BRANCH  13  14
ATOM     14  C   UNL     1       6.125 -34.757  23.678  1.00  0.00    -0.000 C 
BRANCH  14  15
ATOM     15  C   UNL     1       5.915 -35.656  24.911  1.00  0.00    -0.000 C 
BRANCH  15  16
ATOM     16  C   UNL     1       5.373 -37.045  24.541  1.00  0.00    -0.003 C 
ATOM     17  C   UNL     1       4.730 -37.763  25.728  1.00  0.00     0.004 C 
ENDBRANCH  15  16
ENDBRANCH  14  15
ENDBRANCH  13  14
ENDBRANCH  12  13
ENDBRANCH  11  12
ENDBRANCH  10  11
ENDBRANCH   1  10
TORSDOF 13
ENDMDL
MODEL 2
REMARK VINA RESULT:    -3.403      4.076      8.498
REMARK INTER + INTRA:          -6.807
REMARK INTER:                  -6.107
REMARK INTRA:                  -0.699
REMARK UNBOUND:                -0.818
REMARK SMILES CCCCCCCCCCCCCCC(=O)[O-]
REMARK SMILES IDX 9 1 10 2 11 3 12 4 13 5 14 6 15 7 16 8 17 9 8 10 7 11 6 12
REMARK SMILES IDX 5 13 4 14 3 15 2 16 1 17
REMARK H PARENT
REMARK Flexibility Score: inf
ROOT
ATOM      1  C   UNL     1       4.987 -37.472  20.306  1.00  0.00     0.000 C 
ENDROOT
BRANCH   1   2
ATOM      2  C   UNL     1       5.702 -36.163  20.680  1.00  0.00     0.000 C 
BRANCH   2   3
ATOM      3  C   UNL     1       4.917 -35.334  21.710  1.00  0.00     0.000 C 
BRANCH   3   4
ATOM      4  C   UNL     1       5.683 -35.157  23.032  1.00  0.00     0.000 C 
BRANCH   4   5
ATOM      5  C   UNL     1       6.124 -36.495  23.645  1.00  0.00     0.006 C 
BRANCH   5   6
ATOM      6  C   UNL     1       5.849 -36.525  25.151  1.00  0.00     0.053 C 
BRANCH   6   7
ATOM      7  C   UNL     1       5.020 -37.717  25.511  1.00  0.00     0.041 C 
ATOM      8  O   UNL     1       4.083 -37.610  26.343  1.00  0.00    -0.550 OA
ATOM      9  O   UNL     1       5.316 -38.960  24.963  1.00  0.00    -0.550 OA
ENDBRANCH   6   7
ENDBRANCH   5   6
ENDBRANCH   4   5
ENDBRANCH   3   4
ENDBRANCH   2   3
ENDBRANCH   1   2
BRANCH   1  10
ATOM     10  C   UNL     1       4.076 -37.323  19.079  1.00  0.00     0.000 C 
BRANCH  10  11
ATOM     11  C   UNL     1       2.655 -37.818  19.389  1.00  0.00    -0.000 C 
BRANCH  11  12
ATOM     12  C   UNL     1       1.658 -37.510  18.259  1.00  0.00    -0.000 C 
BRANCH  12  13
ATOM     13  C   UNL     1       2.294 -36.707  17.112  1.00  0.00    -0.000 C 
BRANCH  13  14
ATOM     14  C   UNL     1       2.179 -37.423  15.757  1.00  0.00    -0.000 C 
BRANCH  14  15
ATOM     15  C   UNL     1       2.772 -36.600  14.598  1.00  0.00    -0.000 C 
BRANCH  15  16
ATOM     16  C   UNL     1       3.911 -37.336  13.877  1.00  0.00    -0.003 C 
ATOM     17  C   UNL     1       4.162 -38.734  14.444  1.00  0.00     0.004 C 
ENDBRANCH  15  16
ENDBRANCH  14  15
ENDBRANCH  13  14
ENDBRANCH  12  13
ENDBRANCH  11  12
ENDBRANCH  10  11
ENDBRANCH   1  10
TORSDOF 13
ENDMDL
MODEL 3
REMARK VINA RESULT:    -3.305      3.864      8.009
REMARK INTER + INTRA:          -6.634
REMARK INTER:                  -6.166
REMARK INTRA:                  -0.468
REMARK UNBOUND:                -0.818
REMARK SMILES CCCCCCCCCCCCCCC(=O)[O-]
REMARK SMILES IDX 9 1 10 2 11 3 12 4 13 5 14 6 15 7 16 8 17 9 8 10 7 11 6 12
REMARK SMILES IDX 5 13 4 14 3 15 2 16 1 17
REMARK H PARENT
REMARK Flexibility Score: inf
ROOT
ATOM      1  C   UNL     1       2.510 -37.507  19.937  1.00  0.00     0.000 C 
ENDROOT
BRANCH   1   2
ATOM      2  C   UNL     1       3.734 -37.275  19.037  1.00  0.00     0.000 C 
BRANCH   2   3
ATOM      3  C   UNL     1       5.033 -37.093  19.840  1.00  0.00     0.000 C 
BRANCH   3   4
ATOM      4  C   UNL     1       5.454 -35.618  19.956  1.00  0.00     0.000 C 
BRANCH   4   5
ATOM      5  C   UNL     1       6.113 -35.294  21.305  1.00  0.00     0.006 C 
BRANCH   5   6
ATOM      6  C   UNL     1       5.805 -36.379  22.341  1.00  0.00     0.053 C 
BRANCH   6   7
ATOM      7  C   UNL     1       5.856 -35.815  23.725  1.00  0.00     0.041 C 
ATOM      8  O   UNL     1       6.118 -34.597  23.903  1.00  0.00    -0.550 OA
ATOM      9  O   UNL     1       5.664 -36.645  24.822  1.00  0.00    -0.550 OA
ENDBRANCH   6   7
ENDBRANCH   5   6
ENDBRANCH   4   5
ENDBRANCH   3   4
ENDBRANCH   2   3
ENDBRANCH   1   2
BRANCH   1  10
ATOM     10  C   UNL     1       1.366 -38.231  19.211  1.00  0.00     0.000 C 
BRANCH  10  11
ATOM     11  C   UNL     1       0.853 -37.394  18.028  1.00  0.00    -0.000 C 
BRANCH  11  12
ATOM     12  C   UNL     1       1.665 -37.622  16.742  1.00  0.00    -0.000 C 
BRANCH  12  13
ATOM     13  C   UNL     1       1.600 -36.421  15.783  1.00  0.00    -0.000 C 
BRANCH  13  14
ATOM     14  C   UNL     1       2.935 -36.166  15.066  1.00  0.00    -0.000 C 
BRANCH  14  15
ATOM     15  C   UNL     1       3.161 -37.116  13.876  1.00  0.00    -0.000 C 
BRANCH  15  16
ATOM     16  C   UNL     1       4.556 -37.760  13.894  1.00  0.00    -0.003 C 
ATOM     17  C   UNL     1       4.500 -39.287  13.948  1.00  0.00     0.004 C 
ENDBRANCH  15  16
ENDBRANCH  14  15
ENDBRANCH  13  14
ENDBRANCH  12  13
ENDBRANCH  11  12
ENDBRANCH  10  11
ENDBRANCH   1  10
TORSDOF 13
ENDMDL
MODEL 4
REMARK VINA RESULT:    -2.713      1.116      2.154
REMARK INTER + INTRA:          -5.592
REMARK INTER:                  -4.596
REMARK INTRA:                  -0.997
REMARK UNBOUND:                -0.818
REMARK SMILES CCCCCCCCCCCCCCC(=O)[O-]
REMARK SMILES IDX 9 1 10 2 11 3 12 4 13 5 14 6 15 7 16 8 17 9 8 10 7 11 6 12
REMARK SMILES IDX 5 13 4 14 3 15 2 16 1 17
REMARK H PARENT
REMARK Flexibility Score: inf
ROOT
ATOM      1  C   UNL     1       1.676 -38.229  19.413  1.00  0.00     0.000 C 
ENDROOT
BRANCH   1   2
ATOM      2  C   UNL     1       1.037 -37.216  18.449  1.00  0.00     0.000 C 
BRANCH   2   3
ATOM      3  C   UNL     1       1.324 -37.540  16.973  1.00  0.00     0.000 C 
BRANCH   3   4
ATOM      4  C   UNL     1       1.463 -36.277  16.108  1.00  0.00     0.000 C 
BRANCH   4   5
ATOM      5  C   UNL     1       2.802 -36.215  15.359  1.00  0.00     0.006 C 
BRANCH   5   6
ATOM      6  C   UNL     1       2.818 -37.199  14.184  1.00  0.00     0.053 C 
BRANCH   6   7
ATOM      7  C   UNL     1       4.109 -37.953  14.149  1.00  0.00     0.041 C 
ATOM      8  O   UNL     1       4.132 -39.184  14.411  1.00  0.00    -0.550 OA
ATOM      9  O   UNL     1       5.297 -37.286  13.875  1.00  0.00    -0.550 OA
ENDBRANCH   6   7
ENDBRANCH   5   6
ENDBRANCH   4   5
ENDBRANCH   3   4
ENDBRANCH   2   3
ENDBRANCH   1   2
BRANCH   1  10
ATOM     10  C   UNL     1       2.840 -37.631  20.218  1.00  0.00     0.000 C 
BRANCH  10  11
ATOM     11  C   UNL     1       4.119 -37.570  19.368  1.00  0.00    -0.000 C 
BRANCH  11  12
ATOM     12  C   UNL     1       4.312 -36.208  18.681  1.00  0.00    -0.000 C 
BRANCH  12  13
ATOM     13  C   UNL     1       5.109 -35.217  19.547  1.00  0.00    -0.000 C 
BRANCH  13  14
ATOM     14  C   UNL     1       6.051 -35.923  20.534  1.00  0.00    -0.000 C 
BRANCH  14  15
ATOM     15  C   UNL     1       6.026 -35.286  21.936  1.00  0.00    -0.000 C 
BRANCH  15  16
ATOM     16  C   UNL     1       6.076 -36.334  23.059  1.00  0.00    -0.003 C 
ATOM     17  C   UNL     1       6.076 -35.706  24.453  1.00  0.00     0.004 C 
ENDBRANCH  15  16
ENDBRANCH  14  15
ENDBRANCH  13  14
ENDBRANCH  12  13
ENDBRANCH  11  12
ENDBRANCH  10  11
ENDBRANCH   1  10
TORSDOF 13
ENDMDL
MODEL 5
REMARK VINA RESULT:    -2.570      3.645      7.850
REMARK INTER + INTRA:          -5.340
REMARK INTER:                  -4.412
REMARK INTRA:                  -0.928
REMARK UNBOUND:                -0.818
REMARK SMILES CCCCCCCCCCCCCCC(=O)[O-]
REMARK SMILES IDX 9 1 10 2 11 3 12 4 13 5 14 6 15 7 16 8 17 9 8 10 7 11 6 12
REMARK SMILES IDX 5 13 4 14 3 15 2 16 1 17
REMARK H PARENT
REMARK Flexibility Score: inf
ROOT
ATOM      1  C   UNL     1       5.043 -35.273  22.721  1.00  0.00     0.000 C 
ENDROOT
BRANCH   1   2
ATOM      2  C   UNL     1       5.787 -35.337  24.065  1.00  0.00     0.000 C 
BRANCH   2   3
ATOM      3  C   UNL     1       6.120 -36.777  24.489  1.00  0.00     0.000 C 
BRANCH   3   4
ATOM      4  C   UNL     1       5.036 -37.394  25.388  1.00  0.00     0.000 C 
BRANCH   4   5
ATOM      5  C   UNL     1       4.995 -38.927  25.300  1.00  0.00     0.006 C 
BRANCH   5   6
ATOM      6  C   UNL     1       5.010 -39.393  23.841  1.00  0.00     0.053 C 
BRANCH   6   7
ATOM      7  C   UNL     1       5.501 -40.802  23.744  1.00  0.00     0.041 C 
ATOM      8  O   UNL     1       5.752 -41.459  24.788  1.00  0.00    -0.550 OA
ATOM      9  O   UNL     1       5.731 -41.375  22.499  1.00  0.00    -0.550 OA
ENDBRANCH   6   7
ENDBRANCH   5   6
ENDBRANCH   4   5
ENDBRANCH   3   4
ENDBRANCH   2   3
ENDBRANCH   1   2
BRANCH   1  10
ATOM     10  C   UNL     1       5.490 -36.368  21.741  1.00  0.00     0.000 C 
BRANCH  10  11
ATOM     11  C   UNL     1       5.778 -35.775  20.353  1.00  0.00    -0.000 C 
BRANCH  11  12
ATOM     12  C   UNL     1       4.568 -35.857  19.408  1.00  0.00    -0.000 C 
BRANCH  12  13
ATOM     13  C   UNL     1       3.631 -37.030  19.748  1.00  0.00    -0.000 C 
BRANCH  13  14
ATOM     14  C   UNL     1       2.841 -37.526  18.527  1.00  0.00    -0.000 C 
BRANCH  14  15
ATOM     15  C   UNL     1       3.172 -36.739  17.245  1.00  0.00    -0.000 C 
BRANCH  15  16
ATOM     16  C   UNL     1       2.915 -37.556  15.970  1.00  0.00    -0.003 C 
ATOM     17  C   UNL     1       3.197 -36.763  14.694  1.00  0.00     0.004 C 
ENDBRANCH  15  16
ENDBRANCH  14  15
ENDBRANCH  13  14
ENDBRANCH  12  13
ENDBRANCH  11  12
ENDBRANCH  10  11
ENDBRANCH   1  10
TORSDOF 13
ENDMDL
MODEL 6
REMARK VINA RESULT:    -2.564      2.308      3.787
REMARK INTER + INTRA:          -5.330
REMARK INTER:                  -4.644
REMARK INTRA:                  -0.686
REMARK UNBOUND:                -0.818
REMARK SMILES CCCCCCCCCCCCCCC(=O)[O-]
REMARK SMILES IDX 9 1 10 2 11 3 12 4 13 5 14 6 15 7 16 8 17 9 8 10 7 11 6 12
REMARK SMILES IDX 5 13 4 14 3 15 2 16 1 17
REMARK H PARENT
REMARK Flexibility Score: inf
ROOT
ATOM      1  C   UNL     1       4.775 -35.638  21.940  1.00  0.00     0.000 C 
ENDROOT
BRANCH   1   2
ATOM      2  C   UNL     1       5.529 -36.011  20.654  1.00  0.00     0.000 C 
BRANCH   2   3
ATOM      3  C   UNL     1       4.856 -37.160  19.885  1.00  0.00     0.000 C 
BRANCH   3   4
ATOM      4  C   UNL     1       3.511 -36.749  19.266  1.00  0.00     0.000 C 
BRANCH   4   5
ATOM      5  C   UNL     1       3.229 -37.459  17.934  1.00  0.00     0.006 C 
BRANCH   5   6
ATOM      6  C   UNL     1       3.404 -36.498  16.753  1.00  0.00     0.053 C 
BRANCH   6   7
ATOM      7  C   UNL     1       3.091 -37.188  15.463  1.00  0.00     0.041 C 
ATOM      8  O   UNL     1       3.815 -38.135  15.059  1.00  0.00    -0.550 OA
ATOM      9  O   UNL     1       2.028 -36.753  14.682  1.00  0.00    -0.550 OA
ENDBRANCH   6   7
ENDBRANCH   5   6
ENDBRANCH   4   5
ENDBRANCH   3   4
ENDBRANCH   2   3
ENDBRANCH   1   2
BRANCH   1  10
ATOM     10  C   UNL     1       5.716 -35.352  23.120  1.00  0.00     0.000 C 
BRANCH  10  11
ATOM     11  C   UNL     1       6.125 -36.656  23.822  1.00  0.00    -0.000 C 
BRANCH  11  12
ATOM     12  C   UNL     1       5.414 -36.854  25.171  1.00  0.00    -0.000 C 
BRANCH  12  13
ATOM     13  C   UNL     1       4.993 -38.315  25.408  1.00  0.00    -0.000 C 
BRANCH  13  14
ATOM     14  C   UNL     1       5.017 -39.152  24.120  1.00  0.00    -0.000 C 
BRANCH  14  15
ATOM     15  C   UNL     1       5.223 -40.654  24.391  1.00  0.00    -0.000 C 
BRANCH  15  16
ATOM     16  C   UNL     1       5.706 -41.415  23.147  1.00  0.00    -0.003 C 
ATOM     17  C   UNL     1       6.045 -42.876  23.444  1.00  0.00     0.004 C 
ENDBRANCH  15  16
ENDBRANCH  14  15
ENDBRANCH  13  14
ENDBRANCH  12  13
ENDBRANCH  11  12
ENDBRANCH  10  11
ENDBRANCH   1  10
TORSDOF 13
ENDMDL
MODEL 7
REMARK VINA RESULT:    -2.521      2.626      3.392
REMARK INTER + INTRA:          -5.254
REMARK INTER:                  -4.355
REMARK INTRA:                  -0.899
REMARK UNBOUND:                -0.818
REMARK SMILES CCCCCCCCCCCCCCC(=O)[O-]
REMARK SMILES IDX 9 1 10 2 11 3 12 4 13 5 14 6 15 7 16 8 17 9 8 10 7 11 6 12
REMARK SMILES IDX 5 13 4 14 3 15 2 16 1 17
REMARK H PARENT
REMARK Flexibility Score: inf
ROOT
ATOM      1  C   UNL     1       5.667 -34.865  18.906  1.00  0.00     0.000 C 
ENDROOT
BRANCH   1   2
ATOM      2  C   UNL     1       4.357 -34.866  18.101  1.00  0.00     0.000 C 
BRANCH   2   3
ATOM      3  C   UNL     1       4.244 -36.075  17.158  1.00  0.00     0.000 C 
BRANCH   3   4
ATOM      4  C   UNL     1       2.995 -36.011  16.262  1.00  0.00     0.000 C 
BRANCH   4   5
ATOM      5  C   UNL     1       1.847 -36.887  16.782  1.00  0.00     0.006 C 
BRANCH   5   6
ATOM      6  C   UNL     1       2.311 -37.763  17.950  1.00  0.00     0.053 C 
BRANCH   6   7
ATOM      7  C   UNL     1       1.270 -37.803  19.023  1.00  0.00     0.041 C 
ATOM      8  O   UNL     1       1.609 -37.881  20.233  1.00  0.00    -0.550 OA
ATOM      9  O   UNL     1      -0.078 -37.806  18.685  1.00  0.00    -0.550 OA
ENDBRANCH   6   7
ENDBRANCH   5   6
ENDBRANCH   4   5
ENDBRANCH   3   4
ENDBRANCH   2   3
ENDBRANCH   1   2
BRANCH   1  10
ATOM     10  C   UNL     1       5.720 -35.985  19.955  1.00  0.00     0.000 C 
BRANCH  10  11
ATOM     11  C   UNL     1       4.358 -36.151  20.648  1.00  0.00    -0.000 C 
BRANCH  11  12
ATOM     12  C   UNL     1       4.342 -35.574  22.073  1.00  0.00    -0.000 C 
BRANCH  12  13
ATOM     13  C   UNL     1       5.754 -35.402  22.658  1.00  0.00    -0.000 C 
BRANCH  13  14
ATOM     14  C   UNL     1       6.125 -36.521  23.643  1.00  0.00    -0.000 C 
BRANCH  14  15
ATOM     15  C   UNL     1       5.887 -36.123  25.112  1.00  0.00    -0.000 C 
BRANCH  15  16
ATOM     16  C   UNL     1       4.762 -36.938  25.767  1.00  0.00    -0.003 C 
ATOM     17  C   UNL     1       5.037 -38.442  25.753  1.00  0.00     0.004 C 
ENDBRANCH  15  16
ENDBRANCH  14  15
ENDBRANCH  13  14
ENDBRANCH  12  13
ENDBRANCH  11  12
ENDBRANCH  10  11
ENDBRANCH   1  10
TORSDOF 13
ENDMDL
MODEL 8
REMARK VINA RESULT:    -2.312      1.724      3.105
REMARK INTER + INTRA:          -4.888
REMARK INTER:                  -4.029
REMARK INTRA:                  -0.858
REMARK UNBOUND:                -0.818
REMARK SMILES CCCCCCCCCCCCCCC(=O)[O-]
REMARK SMILES IDX 9 1 10 2 11 3 12 4 13 5 14 6 15 7 16 8 17 9 8 10 7 11 6 12
REMARK SMILES IDX 5 13 4 14 3 15 2 16 1 17
REMARK H PARENT
REMARK Flexibility Score: inf
ROOT
ATOM      1  C   UNL     1       5.817 -36.314  21.303  1.00  0.00     0.000 C 
ENDROOT
BRANCH   1   2
ATOM      2  C   UNL     1       5.496 -36.263  19.800  1.00  0.00     0.000 C 
BRANCH   2   3
ATOM      3  C   UNL     1       3.988 -36.152  19.520  1.00  0.00     0.000 C 
BRANCH   3   4
ATOM      4  C   UNL     1       3.347 -37.509  19.187  1.00  0.00     0.000 C 
BRANCH   4   5
ATOM      5  C   UNL     1       2.530 -37.476  17.887  1.00  0.00     0.006 C 
BRANCH   5   6
ATOM      6  C   UNL     1       3.132 -36.485  16.886  1.00  0.00     0.053 C 
BRANCH   6   7
ATOM      7  C   UNL     1       3.141 -37.069  15.509  1.00  0.00     0.041 C 
ATOM      8  O   UNL     1       2.631 -36.435  14.548  1.00  0.00    -0.550 OA
ATOM      9  O   UNL     1       3.668 -38.337  15.295  1.00  0.00    -0.550 OA
ENDBRANCH   6   7
ENDBRANCH   5   6
ENDBRANCH   4   5
ENDBRANCH   3   4
ENDBRANCH   2   3
ENDBRANCH   1   2
BRANCH   1  10
ATOM     10  C   UNL     1       5.616 -34.959  21.999  1.00  0.00     0.000 C 
BRANCH  10  11
ATOM     11  C   UNL     1       5.224 -35.154  23.472  1.00  0.00    -0.000 C 
BRANCH  11  12
ATOM     12  C   UNL     1       6.065 -36.232  24.175  1.00  0.00    -0.000 C 
BRANCH  12  13
ATOM     13  C   UNL     1       5.402 -36.753  25.462  1.00  0.00    -0.000 C 
BRANCH  13  14
ATOM     14  C   UNL     1       5.075 -38.253  25.391  1.00  0.00    -0.000 C 
BRANCH  14  15
ATOM     15  C   UNL     1       5.404 -38.868  24.018  1.00  0.00    -0.000 C 
BRANCH  15  16
ATOM     16  C   UNL     1       5.364 -40.404  24.037  1.00  0.00    -0.003 C 
ATOM     17  C   UNL     1       5.539 -41.016  22.647  1.00  0.00     0.004 C 
ENDBRANCH  15  16
ENDBRANCH  14  15
ENDBRANCH  13  14
ENDBRANCH  12  13
ENDBRANCH  11  12
ENDBRANCH  10  11
ENDBRANCH   1  10
TORSDOF 13
ENDMDL
MODEL 9
REMARK VINA RESULT:    -1.237      1.122      1.884
REMARK INTER + INTRA:          -2.995
REMARK INTER:                  -2.132
REMARK INTRA:                  -0.863
REMARK UNBOUND:                -0.818
REMARK SMILES CCCCCCCCCCCCCCC(=O)[O-]
REMARK SMILES IDX 9 1 10 2 11 3 12 4 13 5 14 6 15 7 16 8 17 9 8 10 7 11 6 12
REMARK SMILES IDX 5 13 4 14 3 15 2 16 1 17
REMARK H PARENT
REMARK Flexibility Score: inf
ROOT
ATOM      1  C   UNL     1       5.406 -37.385  20.247  1.00  0.00     0.000 C 
ENDROOT
BRANCH   1   2
ATOM      2  C   UNL     1       4.128 -38.052  19.715  1.00  0.00     0.000 C 
BRANCH   2   3
ATOM      3  C   UNL     1       3.001 -37.041  19.443  1.00  0.00     0.000 C 
BRANCH   3   4
ATOM      4  C   UNL     1       1.719 -37.710  18.922  1.00  0.00     0.000 C 
BRANCH   4   5
ATOM      5  C   UNL     1       1.545 -37.559  17.404  1.00  0.00     0.006 C 
BRANCH   5   6
ATOM      6  C   UNL     1       2.674 -36.716  16.804  1.00  0.00     0.053 C 
BRANCH   6   7
ATOM      7  C   UNL     1       2.934 -37.117  15.387  1.00  0.00     0.041 C 
ATOM      8  O   UNL     1       2.324 -36.548  14.445  1.00  0.00    -0.550 OA
ATOM      9  O   UNL     1       3.814 -38.156  15.109  1.00  0.00    -0.550 OA
ENDBRANCH   6   7
ENDBRANCH   5   6
ENDBRANCH   4   5
ENDBRANCH   3   4
ENDBRANCH   2   3
ENDBRANCH   1   2
BRANCH   1  10
ATOM     10  C   UNL     1       5.481 -35.889  19.908  1.00  0.00     0.000 C 
BRANCH  10  11
ATOM     11  C   UNL     1       6.122 -35.098  21.060  1.00  0.00    -0.000 C 
BRANCH  11  12
ATOM     12  C   UNL     1       5.153 -34.861  22.230  1.00  0.00    -0.000 C 
BRANCH  12  13
ATOM     13  C   UNL     1       5.851 -34.928  23.599  1.00  0.00    -0.000 C 
BRANCH  13  14
ATOM     14  C   UNL     1       6.125 -36.372  24.051  1.00  0.00    -0.000 C 
BRANCH  14  15
ATOM     15  C   UNL     1       5.912 -36.571  25.563  1.00  0.00    -0.000 C 
BRANCH  15  16
ATOM     16  C   UNL     1       4.764 -37.543  25.872  1.00  0.00    -0.003 C 
ATOM     17  C   UNL     1       4.979 -38.925  25.255  1.00  0.00     0.004 C 
ENDBRANCH  15  16
ENDBRANCH  14  15
ENDBRANCH  13  14
ENDBRANCH  12  13
ENDBRANCH  11  12
ENDBRANCH  10  11
ENDBRANCH   1  10
TORSDOF 13
ENDMDL
