MODEL 1
REMARK VINA RESULT:    -4.737      0.000      0.000
REMARK INTER + INTRA:          -5.477
REMARK INTER:                  -5.429
REMARK INTRA:                  -0.048
REMARK UNBOUND:                -0.048
REMARK SMILES CC(C)[C@H]([NH3+])C(=O)[O-]
REMARK SMILES IDX 4 1 5 2 6 6 7 7 8 8 2 9 1 10 3 11
REMARK H PARENT 5 3 5 4 5 5
REMARK Flexibility Score: inf
ROOT
ATOM      1  C   UNL     1      -3.621  -0.317  -3.053  1.00  0.00     0.230 C 
ENDROOT
BRANCH   1   2
ATOM      2  N   UNL     1      -4.300   0.984  -3.158  1.00  0.00    -0.350 N 
ATOM      3  H   UNL     1      -4.001   1.617  -2.382  1.00  0.00     0.345 HD
ATOM      4  H   UNL     1      -4.031   1.444  -4.059  1.00  0.00     0.345 HD
ATOM      5  H   UNL     1      -5.338   0.878  -3.139  1.00  0.00     0.345 HD
ENDBRANCH   1   2
BRANCH   1   6
ATOM      6  C   UNL     1      -2.145  -0.131  -2.805  1.00  0.00     0.099 C 
ATOM      7  O   UNL     1      -1.672  -0.321  -1.653  1.00  0.00    -0.544 OA
ATOM      8  O   UNL     1      -1.285   0.202  -3.846  1.00  0.00    -0.544 OA
ENDBRANCH   1   6
BRANCH   1   9
ATOM      9  C   UNL     1      -3.866  -1.233  -4.291  1.00  0.00     0.047 C 
ATOM     10  C   UNL     1      -4.495  -0.498  -5.485  1.00  0.00     0.014 C 
ATOM     11  C   UNL     1      -4.701  -2.471  -3.931  1.00  0.00     0.014 C 
ENDBRANCH   1   9
TORSDOF 3
ENDMDL
MODEL 2
REMARK VINA RESULT:    -4.714      1.434      2.110
REMARK INTER + INTRA:          -5.451
REMARK INTER:                  -5.383
REMARK INTRA:                  -0.068
REMARK UNBOUND:                -0.048
REMARK SMILES CC(C)[C@H]([NH3+])C(=O)[O-]
REMARK SMILES IDX 4 1 5 2 6 6 7 7 8 8 2 9 1 10 3 11
REMARK H PARENT 5 3 5 4 5 5
REMARK Flexibility Score: inf
ROOT
ATOM      1  C   UNL     1      -3.280  -0.790  -3.795  1.00  0.00     0.230 C 
ENDROOT
BRANCH   1   2
ATOM      2  N   UNL     1      -3.290  -0.516  -5.241  1.00  0.00    -0.350 N 
ATOM      3  H   UNL     1      -4.225  -0.159  -5.539  1.00  0.00     0.345 HD
ATOM      4  H   UNL     1      -2.585   0.227  -5.458  1.00  0.00     0.345 HD
ATOM      5  H   UNL     1      -3.051  -1.369  -5.794  1.00  0.00     0.345 HD
ENDBRANCH   1   2
BRANCH   1   6
ATOM      6  C   UNL     1      -2.000  -0.296  -3.167  1.00  0.00     0.099 C 
ATOM      7  O   UNL     1      -1.145   0.304  -3.873  1.00  0.00    -0.544 OA
ATOM      8  O   UNL     1      -1.769  -0.452  -1.806  1.00  0.00    -0.544 OA
ENDBRANCH   1   6
BRANCH   1   9
ATOM      9  C   UNL     1      -3.520  -2.293  -3.459  1.00  0.00     0.047 C 
ATOM     10  C   UNL     1      -2.367  -3.213  -3.888  1.00  0.00     0.014 C 
ATOM     11  C   UNL     1      -4.849  -2.804  -4.037  1.00  0.00     0.014 C 
ENDBRANCH   1   9
TORSDOF 3
ENDMDL
MODEL 3
REMARK VINA RESULT:    -4.650      1.632      1.821
REMARK INTER + INTRA:          -5.378
REMARK INTER:                  -5.332
REMARK INTRA:                  -0.046
REMARK UNBOUND:                -0.048
REMARK SMILES CC(C)[C@H]([NH3+])C(=O)[O-]
REMARK SMILES IDX 4 1 5 2 6 6 7 7 8 8 2 9 1 10 3 11
REMARK H PARENT 5 3 5 4 5 5
REMARK Flexibility Score: inf
ROOT
ATOM      1  C   UNL     1      -3.390  -1.636  -2.795  1.00  0.00     0.230 C 
ENDROOT
BRANCH   1   2
ATOM      2  N   UNL     1      -4.652  -1.104  -3.332  1.00  0.00    -0.350 N 
ATOM      3  H   UNL     1      -5.242  -1.878  -3.712  1.00  0.00     0.345 HD
ATOM      4  H   UNL     1      -5.191  -0.646  -2.561  1.00  0.00     0.345 HD
ATOM      5  H   UNL     1      -4.482  -0.397  -4.082  1.00  0.00     0.345 HD
ENDBRANCH   1   2
BRANCH   1   6
ATOM      6  C   UNL     1      -2.291  -0.607  -2.896  1.00  0.00     0.099 C 
ATOM      7  O   UNL     1      -1.554  -0.376  -1.901  1.00  0.00    -0.544 OA
ATOM      8  O   UNL     1      -2.048   0.060  -4.092  1.00  0.00    -0.544 OA
ENDBRANCH   1   6
BRANCH   1   9
ATOM      9  C   UNL     1      -2.959  -2.976  -3.466  1.00  0.00     0.047 C 
ATOM     10  C   UNL     1      -3.429  -3.115  -4.922  1.00  0.00     0.014 C 
ATOM     11  C   UNL     1      -3.406  -4.196  -2.646  1.00  0.00     0.014 C 
ENDBRANCH   1   9
TORSDOF 3
ENDMDL
MODEL 4
REMARK VINA RESULT:    -4.578      2.038      2.667
REMARK INTER + INTRA:          -5.296
REMARK INTER:                  -5.247
REMARK INTRA:                  -0.049
REMARK UNBOUND:                -0.048
REMARK SMILES CC(C)[C@H]([NH3+])C(=O)[O-]
REMARK SMILES IDX 4 1 5 2 6 6 7 7 8 8 2 9 1 10 3 11
REMARK H PARENT 5 3 5 4 5 5
REMARK Flexibility Score: inf
ROOT
ATOM      1  C   UNL     1      -2.971  -1.626  -3.741  1.00  0.00     0.230 C 
ENDROOT
BRANCH   1   2
ATOM      2  N   UNL     1      -1.661  -2.292  -3.819  1.00  0.00    -0.350 N 
ATOM      3  H   UNL     1      -1.502  -2.676  -4.778  1.00  0.00     0.345 HD
ATOM      4  H   UNL     1      -0.905  -1.593  -3.631  1.00  0.00     0.345 HD
ATOM      5  H   UNL     1      -1.579  -3.062  -3.118  1.00  0.00     0.345 HD
ENDBRANCH   1   2
BRANCH   1   6
ATOM      6  C   UNL     1      -2.917  -0.451  -2.797  1.00  0.00     0.099 C 
ATOM      7  O   UNL     1      -3.762   0.478  -2.903  1.00  0.00    -0.544 OA
ATOM      8  O   UNL     1      -1.974  -0.400  -1.777  1.00  0.00    -0.544 OA
ENDBRANCH   1   6
BRANCH   1   9
ATOM      9  C   UNL     1      -4.125  -2.599  -3.352  1.00  0.00     0.047 C 
ATOM     10  C   UNL     1      -3.644  -3.870  -2.633  1.00  0.00     0.014 C 
ATOM     11  C   UNL     1      -4.993  -2.972  -4.563  1.00  0.00     0.014 C 
ENDBRANCH   1   9
TORSDOF 3
ENDMDL
MODEL 5
REMARK VINA RESULT:    -4.494      1.798      2.208
REMARK INTER + INTRA:          -5.199
REMARK INTER:                  -5.150
REMARK INTRA:                  -0.049
REMARK UNBOUND:                -0.048
REMARK SMILES CC(C)[C@H]([NH3+])C(=O)[O-]
REMARK SMILES IDX 4 1 5 2 6 6 7 7 8 8 2 9 1 10 3 11
REMARK H PARENT 5 3 5 4 5 5
REMARK Flexibility Score: inf
ROOT
ATOM      1  C   UNL     1      -2.852  -2.196  -3.198  1.00  0.00     0.230 C 
ENDROOT
BRANCH   1   2
ATOM      2  N   UNL     1      -3.851  -2.461  -2.152  1.00  0.00    -0.350 N 
ATOM      3  H   UNL     1      -4.006  -1.608  -1.569  1.00  0.00     0.345 HD
ATOM      4  H   UNL     1      -4.765  -2.705  -2.600  1.00  0.00     0.345 HD
ATOM      5  H   UNL     1      -3.562  -3.255  -1.538  1.00  0.00     0.345 HD
ENDBRANCH   1   2
BRANCH   1   6
ATOM      6  C   UNL     1      -2.242  -0.827  -3.020  1.00  0.00     0.099 C 
ATOM      7  O   UNL     1      -2.123  -0.059  -4.012  1.00  0.00    -0.544 OA
ATOM      8  O   UNL     1      -1.852  -0.381  -1.763  1.00  0.00    -0.544 OA
ENDBRANCH   1   6
BRANCH   1   9
ATOM      9  C   UNL     1      -3.419  -2.368  -4.640  1.00  0.00     0.047 C 
ATOM     10  C   UNL     1      -4.915  -2.032  -4.758  1.00  0.00     0.014 C 
ATOM     11  C   UNL     1      -3.146  -3.772  -5.200  1.00  0.00     0.014 C 
ENDBRANCH   1   9
TORSDOF 3
ENDMDL
MODEL 6
REMARK VINA RESULT:    -4.214      3.340      3.875
REMARK INTER + INTRA:          -4.878
REMARK INTER:                  -4.818
REMARK INTRA:                  -0.059
REMARK UNBOUND:                -0.048
REMARK SMILES CC(C)[C@H]([NH3+])C(=O)[O-]
REMARK SMILES IDX 4 1 5 2 6 6 7 7 8 8 2 9 1 10 3 11
REMARK H PARENT 5 3 5 4 5 5
REMARK Flexibility Score: inf
ROOT
ATOM      1  C   UNL     1      -2.962  -2.928  -3.260  1.00  0.00     0.230 C 
ENDROOT
BRANCH   1   2
ATOM      2  N   UNL     1      -2.251  -3.359  -4.474  1.00  0.00    -0.350 N 
ATOM      3  H   UNL     1      -1.234  -3.491  -4.275  1.00  0.00     0.345 HD
ATOM      4  H   UNL     1      -2.632  -4.281  -4.789  1.00  0.00     0.345 HD
ATOM      5  H   UNL     1      -2.367  -2.671  -5.251  1.00  0.00     0.345 HD
ENDBRANCH   1   2
BRANCH   1   6
ATOM      6  C   UNL     1      -3.903  -4.005  -2.781  1.00  0.00     0.099 C 
ATOM      7  O   UNL     1      -3.442  -5.097  -2.353  1.00  0.00    -0.544 OA
ATOM      8  O   UNL     1      -5.276  -3.791  -2.760  1.00  0.00    -0.544 OA
ENDBRANCH   1   6
BRANCH   1   9
ATOM      9  C   UNL     1      -3.713  -1.574  -3.443  1.00  0.00     0.047 C 
ATOM     10  C   UNL     1      -3.823  -1.124  -4.908  1.00  0.00     0.014 C 
ATOM     11  C   UNL     1      -3.095  -0.455  -2.590  1.00  0.00     0.014 C 
ENDBRANCH   1   9
TORSDOF 3
ENDMDL
MODEL 7
REMARK VINA RESULT:    -4.123      1.539      1.661
REMARK INTER + INTRA:          -4.774
REMARK INTER:                  -4.734
REMARK INTRA:                  -0.041
REMARK UNBOUND:                -0.048
REMARK SMILES CC(C)[C@H]([NH3+])C(=O)[O-]
REMARK SMILES IDX 4 1 5 2 6 6 7 7 8 8 2 9 1 10 3 11
REMARK H PARENT 5 3 5 4 5 5
REMARK Flexibility Score: inf
ROOT
ATOM      1  C   UNL     1      -4.231  -1.072  -3.607  1.00  0.00     0.230 C 
ENDROOT
BRANCH   1   2
ATOM      2  N   UNL     1      -4.170   0.383  -3.395  1.00  0.00    -0.350 N 
ATOM      3  H   UNL     1      -4.966   0.857  -3.879  1.00  0.00     0.345 HD
ATOM      4  H   UNL     1      -4.256   0.588  -2.372  1.00  0.00     0.345 HD
ATOM      5  H   UNL     1      -3.268   0.783  -3.737  1.00  0.00     0.345 HD
ENDBRANCH   1   2
BRANCH   1   6
ATOM      6  C   UNL     1      -3.110  -1.766  -2.875  1.00  0.00     0.099 C 
ATOM      7  O   UNL     1      -3.301  -2.904  -2.368  1.00  0.00    -0.544 OA
ATOM      8  O   UNL     1      -1.850  -1.187  -2.790  1.00  0.00    -0.544 OA
ENDBRANCH   1   6
BRANCH   1   9
ATOM      9  C   UNL     1      -4.238  -1.467  -5.116  1.00  0.00     0.047 C 
ATOM     10  C   UNL     1      -4.643  -0.317  -6.052  1.00  0.00     0.014 C 
ATOM     11  C   UNL     1      -5.115  -2.701  -5.381  1.00  0.00     0.014 C 
ENDBRANCH   1   9
TORSDOF 3
ENDMDL
MODEL 8
REMARK VINA RESULT:    -3.957      4.532      5.189
REMARK INTER + INTRA:          -4.584
REMARK INTER:                  -4.526
REMARK INTRA:                  -0.058
REMARK UNBOUND:                -0.048
REMARK SMILES CC(C)[C@H]([NH3+])C(=O)[O-]
REMARK SMILES IDX 4 1 5 2 6 6 7 7 8 8 2 9 1 10 3 11
REMARK H PARENT 5 3 5 4 5 5
REMARK Flexibility Score: inf
ROOT
ATOM      1  C   UNL     1      -3.640  -4.599  -2.474  1.00  0.00     0.230 C 
ENDROOT
BRANCH   1   2
ATOM      2  N   UNL     1      -2.680  -5.696  -2.672  1.00  0.00    -0.350 N 
ATOM      3  H   UNL     1      -1.796  -5.335  -3.096  1.00  0.00     0.345 HD
ATOM      4  H   UNL     1      -2.436  -6.115  -1.745  1.00  0.00     0.345 HD
ATOM      5  H   UNL     1      -3.076  -6.447  -3.280  1.00  0.00     0.345 HD
ENDBRANCH   1   2
BRANCH   1   6
ATOM      6  C   UNL     1      -5.057  -5.101  -2.598  1.00  0.00     0.099 C 
ATOM      7  O   UNL     1      -5.496  -5.952  -1.779  1.00  0.00    -0.544 OA
ATOM      8  O   UNL     1      -5.906  -4.602  -3.579  1.00  0.00    -0.544 OA
ENDBRANCH   1   6
BRANCH   1   9
ATOM      9  C   UNL     1      -3.392  -3.392  -3.429  1.00  0.00     0.047 C 
ATOM     10  C   UNL     1      -2.048  -3.460  -4.171  1.00  0.00     0.014 C 
ATOM     11  C   UNL     1      -3.528  -2.047  -2.701  1.00  0.00     0.014 C 
ENDBRANCH   1   9
TORSDOF 3
ENDMDL
MODEL 9
REMARK VINA RESULT:    -3.792      4.808      5.825
REMARK INTER + INTRA:          -4.395
REMARK INTER:                  -4.331
REMARK INTRA:                  -0.064
REMARK UNBOUND:                -0.048
REMARK SMILES CC(C)[C@H]([NH3+])C(=O)[O-]
REMARK SMILES IDX 4 1 5 2 6 6 7 7 8 8 2 9 1 10 3 11
REMARK H PARENT 5 3 5 4 5 5
REMARK Flexibility Score: inf
ROOT
ATOM      1  C   UNL     1      -3.824  -5.670  -3.328  1.00  0.00     0.230 C 
ENDROOT
BRANCH   1   2
ATOM      2  N   UNL     1      -2.694  -6.225  -2.567  1.00  0.00    -0.350 N 
ATOM      3  H   UNL     1      -2.836  -6.078  -1.542  1.00  0.00     0.345 HD
ATOM      4  H   UNL     1      -2.640  -7.258  -2.731  1.00  0.00     0.345 HD
ATOM      5  H   UNL     1      -1.788  -5.796  -2.858  1.00  0.00     0.345 HD
ENDBRANCH   1   2
BRANCH   1   6
ATOM      6  C   UNL     1      -4.220  -4.318  -2.787  1.00  0.00     0.099 C 
ATOM      7  O   UNL     1      -5.438  -4.037  -2.631  1.00  0.00    -0.544 OA
ATOM      8  O   UNL     1      -3.254  -3.392  -2.412  1.00  0.00    -0.544 OA
ENDBRANCH   1   6
BRANCH   1   9
ATOM      9  C   UNL     1      -5.052  -6.629  -3.382  1.00  0.00     0.047 C 
ATOM     10  C   UNL     1      -5.108  -7.624  -2.212  1.00  0.00     0.014 C 
ATOM     11  C   UNL     1      -5.137  -7.378  -4.720  1.00  0.00     0.014 C 
ENDBRANCH   1   9
TORSDOF 3
ENDMDL
