MODEL 1
REMARK VINA RESULT:    -4.793      0.000      0.000
REMARK INTER + INTRA:          -4.793
REMARK INTER:                  -4.793
REMARK INTRA:                   0.000
REMARK UNBOUND:                 0.000
REMARK SMILES CC1=CC(=O)[C@@H]2C[C@H]1C2(C)C
REMARK SMILES IDX 1 1 2 2 3 3 4 4 5 5 6 6 7 7 8 8 9 9 10 10 11 11
REMARK H PARENT
REMARK Flexibility Score: inf
ROOT
ATOM      1  C   UNL     1      -3.902  -2.475   1.344  1.00  0.00     0.040 C 
ATOM      2  C   UNL     1      -3.659  -3.546   2.360  1.00  0.00    -0.066 C 
ATOM      3  C   UNL     1      -2.397  -3.959   2.667  1.00  0.00     0.047 C 
ATOM      4  C   UNL     1      -2.283  -5.017   3.722  1.00  0.00     0.159 C 
ATOM      5  O   UNL     1      -1.172  -5.452   4.121  1.00  0.00    -0.295 OA
ATOM      6  C   UNL     1      -3.611  -5.528   4.282  1.00  0.00     0.067 C 
ATOM      7  C   UNL     1      -4.486  -5.756   3.030  1.00  0.00     0.021 C 
ATOM      8  C   UNL     1      -4.820  -4.248   3.095  1.00  0.00     0.022 C 
ATOM      9  C   UNL     1      -4.510  -4.303   4.619  1.00  0.00    -0.019 C 
ATOM     10  C   UNL     1      -5.751  -4.698   5.459  1.00  0.00     0.012 C 
ATOM     11  C   UNL     1      -3.848  -3.061   5.280  1.00  0.00     0.012 C 
ENDROOT
TORSDOF 0
ENDMDL
MODEL 2
REMARK VINA RESULT:    -4.718     15.156     16.405
REMARK INTER + INTRA:          -4.718
REMARK INTER:                  -4.718
REMARK INTRA:                   0.000
REMARK UNBOUND:                 0.000
REMARK SMILES CC1=CC(=O)[C@@H]2C[C@H]1C2(C)C
REMARK SMILES IDX 1 1 2 2 3 3 4 4 5 5 6 6 7 7 8 8 9 9 10 10 11 11
REMARK H PARENT
REMARK Flexibility Score: inf
ROOT
ATOM      1  C   UNL     1       5.870   4.689   6.035  1.00  0.00     0.040 C 
ATOM      2  C   UNL     1       7.208   5.279   6.353  1.00  0.00    -0.066 C 
ATOM      3  C   UNL     1       7.516   5.700   7.611  1.00  0.00     0.047 C 
ATOM      4  C   UNL     1       8.898   6.244   7.809  1.00  0.00     0.159 C 
ATOM      5  O   UNL     1       9.315   6.627   8.933  1.00  0.00    -0.295 OA
ATOM      6  C   UNL     1       9.766   6.297   6.552  1.00  0.00     0.067 C 
ATOM      7  C   UNL     1       8.834   6.891   5.474  1.00  0.00     0.021 C 
ATOM      8  C   UNL     1       8.296   5.457   5.273  1.00  0.00     0.022 C 
ATOM      9  C   UNL     1       9.656   4.931   5.816  1.00  0.00    -0.019 C 
ATOM     10  C   UNL     1      10.717   4.777   4.697  1.00  0.00     0.012 C 
ATOM     11  C   UNL     1       9.654   3.631   6.669  1.00  0.00     0.012 C 
ENDROOT
TORSDOF 0
ENDMDL
MODEL 3
REMARK VINA RESULT:    -4.456      1.739      2.564
REMARK INTER + INTRA:          -4.456
REMARK INTER:                  -4.456
REMARK INTRA:                   0.000
REMARK UNBOUND:                 0.000
REMARK SMILES CC1=CC(=O)[C@@H]2C[C@H]1C2(C)C
REMARK SMILES IDX 1 1 2 2 3 3 4 4 5 5 6 6 7 7 8 8 9 9 10 10 11 11
REMARK H PARENT
REMARK Flexibility Score: inf
ROOT
ATOM      1  C   UNL     1      -2.953  -3.088   1.657  1.00  0.00     0.040 C 
ATOM      2  C   UNL     1      -3.481  -3.809   2.857  1.00  0.00    -0.066 C 
ATOM      3  C   UNL     1      -3.860  -3.136   3.979  1.00  0.00     0.047 C 
ATOM      4  C   UNL     1      -4.401  -3.968   5.101  1.00  0.00     0.159 C 
ATOM      5  O   UNL     1      -4.821  -3.460   6.173  1.00  0.00    -0.295 OA
ATOM      6  C   UNL     1      -4.409  -5.476   4.852  1.00  0.00     0.067 C 
ATOM      7  C   UNL     1      -3.016  -5.769   4.256  1.00  0.00     0.021 C 
ATOM      8  C   UNL     1      -3.605  -5.347   2.892  1.00  0.00     0.022 C 
ATOM      9  C   UNL     1      -5.007  -5.741   3.440  1.00  0.00    -0.019 C 
ATOM     10  C   UNL     1      -5.331  -7.239   3.209  1.00  0.00     0.012 C 
ATOM     11  C   UNL     1      -6.236  -4.901   2.989  1.00  0.00     0.012 C 
ENDROOT
TORSDOF 0
ENDMDL
MODEL 4
REMARK VINA RESULT:    -4.420     15.301     16.471
REMARK INTER + INTRA:          -4.420
REMARK INTER:                  -4.420
REMARK INTRA:                   0.000
REMARK UNBOUND:                 0.000
REMARK SMILES CC1=CC(=O)[C@@H]2C[C@H]1C2(C)C
REMARK SMILES IDX 1 1 2 2 3 3 4 4 5 5 6 6 7 7 8 8 9 9 10 10 11 11
REMARK H PARENT
REMARK Flexibility Score: inf
ROOT
ATOM      1  C   UNL     1      10.530   5.785   8.758  1.00  0.00     0.040 C 
ATOM      2  C   UNL     1      10.022   5.622   7.361  1.00  0.00    -0.066 C 
ATOM      3  C   UNL     1      10.845   5.231   6.348  1.00  0.00     0.047 C 
ATOM      4  C   UNL     1      10.211   5.074   5.000  1.00  0.00     0.159 C 
ATOM      5  O   UNL     1      10.857   4.680   3.995  1.00  0.00    -0.295 OA
ATOM      6  C   UNL     1       8.724   5.422   4.933  1.00  0.00     0.067 C 
ATOM      7  C   UNL     1       8.612   6.754   5.704  1.00  0.00     0.021 C 
ATOM      8  C   UNL     1       8.550   5.904   6.992  1.00  0.00     0.022 C 
ATOM      9  C   UNL     1       8.000   4.734   6.126  1.00  0.00    -0.019 C 
ATOM     10  C   UNL     1       6.457   4.781   5.985  1.00  0.00     0.012 C 
ATOM     11  C   UNL     1       8.412   3.283   6.502  1.00  0.00     0.012 C 
ENDROOT
TORSDOF 0
ENDMDL
MODEL 5
REMARK VINA RESULT:    -4.286     15.416     16.538
REMARK INTER + INTRA:          -4.286
REMARK INTER:                  -4.286
REMARK INTRA:                   0.000
REMARK UNBOUND:                 0.000
REMARK SMILES CC1=CC(=O)[C@@H]2C[C@H]1C2(C)C
REMARK SMILES IDX 1 1 2 2 3 3 4 4 5 5 6 6 7 7 8 8 9 9 10 10 11 11
REMARK H PARENT
REMARK Flexibility Score: inf
ROOT
ATOM      1  C   UNL     1       6.130   4.826   5.993  1.00  0.00     0.040 C 
ATOM      2  C   UNL     1       7.611   5.035   6.016  1.00  0.00    -0.066 C 
ATOM      3  C   UNL     1       8.377   4.811   4.912  1.00  0.00     0.047 C 
ATOM      4  C   UNL     1       9.843   5.086   5.054  1.00  0.00     0.159 C 
ATOM      5  O   UNL     1      10.647   4.956   4.095  1.00  0.00    -0.295 OA
ATOM      6  C   UNL     1      10.292   5.540   6.443  1.00  0.00     0.067 C 
ATOM      7  C   UNL     1       9.577   4.569   7.407  1.00  0.00     0.021 C 
ATOM      8  C   UNL     1       8.347   5.497   7.292  1.00  0.00     0.022 C 
ATOM      9  C   UNL     1       9.324   6.654   6.937  1.00  0.00    -0.019 C 
ATOM     10  C   UNL     1       9.859   7.383   8.196  1.00  0.00     0.012 C 
ATOM     11  C   UNL     1       8.853   7.728   5.916  1.00  0.00     0.012 C 
ENDROOT
TORSDOF 0
ENDMDL
MODEL 6
REMARK VINA RESULT:    -4.217      1.717      3.519
REMARK INTER + INTRA:          -4.217
REMARK INTER:                  -4.217
REMARK INTRA:                   0.000
REMARK UNBOUND:                 0.000
REMARK SMILES CC1=CC(=O)[C@@H]2C[C@H]1C2(C)C
REMARK SMILES IDX 1 1 2 2 3 3 4 4 5 5 6 6 7 7 8 8 9 9 10 10 11 11
REMARK H PARENT
REMARK Flexibility Score: inf
ROOT
ATOM      1  C   UNL     1      -5.086  -7.620   3.868  1.00  0.00     0.040 C 
ATOM      2  C   UNL     1      -4.723  -6.168   3.889  1.00  0.00    -0.066 C 
ATOM      3  C   UNL     1      -4.843  -5.424   5.024  1.00  0.00     0.047 C 
ATOM      4  C   UNL     1      -4.419  -3.990   4.925  1.00  0.00     0.159 C 
ATOM      5  O   UNL     1      -4.444  -3.212   5.914  1.00  0.00    -0.295 OA
ATOM      6  C   UNL     1      -3.952  -3.540   3.541  1.00  0.00     0.067 C 
ATOM      7  C   UNL     1      -5.013  -4.116   2.579  1.00  0.00     0.021 C 
ATOM      8  C   UNL     1      -4.216  -5.438   2.628  1.00  0.00     0.022 C 
ATOM      9  C   UNL     1      -2.956  -4.599   2.987  1.00  0.00    -0.019 C 
ATOM     10  C   UNL     1      -2.203  -4.098   1.727  1.00  0.00     0.012 C 
ATOM     11  C   UNL     1      -1.915  -5.216   3.963  1.00  0.00     0.012 C 
ENDROOT
TORSDOF 0
ENDMDL
MODEL 7
REMARK VINA RESULT:    -4.179      2.455      3.932
REMARK INTER + INTRA:          -4.179
REMARK INTER:                  -4.179
REMARK INTRA:                   0.000
REMARK UNBOUND:                 0.000
REMARK SMILES CC1=CC(=O)[C@@H]2C[C@H]1C2(C)C
REMARK SMILES IDX 1 1 2 2 3 3 4 4 5 5 6 6 7 7 8 8 9 9 10 10 11 11
REMARK H PARENT
REMARK Flexibility Score: inf
ROOT
ATOM      1  C   UNL     1      -4.836  -8.428   4.188  1.00  0.00     0.040 C 
ATOM      2  C   UNL     1      -5.096  -7.054   3.658  1.00  0.00    -0.066 C 
ATOM      3  C   UNL     1      -6.276  -6.737   3.056  1.00  0.00     0.047 C 
ATOM      4  C   UNL     1      -6.427  -5.320   2.594  1.00  0.00     0.159 C 
ATOM      5  O   UNL     1      -7.485  -4.896   2.061  1.00  0.00    -0.295 OA
ATOM      6  C   UNL     1      -5.208  -4.425   2.820  1.00  0.00     0.067 C 
ATOM      7  C   UNL     1      -4.016  -5.284   2.346  1.00  0.00     0.021 C 
ATOM      8  C   UNL     1      -4.038  -5.933   3.748  1.00  0.00     0.022 C 
ATOM      9  C   UNL     1      -4.706  -4.632   4.278  1.00  0.00    -0.019 C 
ATOM     10  C   UNL     1      -3.664  -3.564   4.699  1.00  0.00     0.012 C 
ATOM     11  C   UNL     1      -5.762  -4.756   5.412  1.00  0.00     0.012 C 
ENDROOT
TORSDOF 0
ENDMDL
MODEL 8
REMARK VINA RESULT:    -4.140      1.618      3.362
REMARK INTER + INTRA:          -4.140
REMARK INTER:                  -4.140
REMARK INTRA:                   0.000
REMARK UNBOUND:                 0.000
REMARK SMILES CC1=CC(=O)[C@@H]2C[C@H]1C2(C)C
REMARK SMILES IDX 1 1 2 2 3 3 4 4 5 5 6 6 7 7 8 8 9 9 10 10 11 11
REMARK H PARENT
REMARK Flexibility Score: inf
ROOT
ATOM      1  C   UNL     1      -4.941  -3.188   6.232  1.00  0.00     0.040 C 
ATOM      2  C   UNL     1      -4.452  -4.143   5.189  1.00  0.00    -0.066 C 
ATOM      3  C   UNL     1      -5.005  -5.379   5.044  1.00  0.00     0.047 C 
ATOM      4  C   UNL     1      -4.448  -6.231   3.944  1.00  0.00     0.159 C 
ATOM      5  O   UNL     1      -4.902  -7.376   3.685  1.00  0.00    -0.295 OA
ATOM      6  C   UNL     1      -3.293  -5.611   3.158  1.00  0.00     0.067 C 
ATOM      7  C   UNL     1      -2.367  -5.025   4.245  1.00  0.00     0.021 C 
ATOM      8  C   UNL     1      -3.288  -3.785   4.240  1.00  0.00     0.022 C 
ATOM      9  C   UNL     1      -3.680  -4.151   2.779  1.00  0.00    -0.019 C 
ATOM     10  C   UNL     1      -2.710  -3.537   1.737  1.00  0.00     0.012 C 
ATOM     11  C   UNL     1      -5.137  -3.870   2.316  1.00  0.00     0.012 C 
ENDROOT
TORSDOF 0
ENDMDL
MODEL 9
REMARK VINA RESULT:    -4.024      1.503      3.124
REMARK INTER + INTRA:          -4.024
REMARK INTER:                  -4.024
REMARK INTRA:                   0.000
REMARK UNBOUND:                 0.000
REMARK SMILES CC1=CC(=O)[C@@H]2C[C@H]1C2(C)C
REMARK SMILES IDX 1 1 2 2 3 3 4 4 5 5 6 6 7 7 8 8 9 9 10 10 11 11
REMARK H PARENT
REMARK Flexibility Score: inf
ROOT
ATOM      1  C   UNL     1      -5.845  -4.240   6.156  1.00  0.00     0.040 C 
ATOM      2  C   UNL     1      -5.218  -4.676   4.869  1.00  0.00    -0.066 C 
ATOM      3  C   UNL     1      -3.897  -4.461   4.615  1.00  0.00     0.047 C 
ATOM      4  C   UNL     1      -3.381  -4.972   3.304  1.00  0.00     0.159 C 
ATOM      5  O   UNL     1      -2.172  -4.870   2.972  1.00  0.00    -0.295 OA
ATOM      6  C   UNL     1      -4.426  -5.627   2.402  1.00  0.00     0.067 C 
ATOM      7  C   UNL     1      -5.629  -4.661   2.451  1.00  0.00     0.021 C 
ATOM      8  C   UNL     1      -6.036  -5.373   3.761  1.00  0.00     0.022 C 
ATOM      9  C   UNL     1      -5.262  -6.624   3.255  1.00  0.00    -0.019 C 
ATOM     10  C   UNL     1      -6.146  -7.550   2.382  1.00  0.00     0.012 C 
ATOM     11  C   UNL     1      -4.520  -7.503   4.302  1.00  0.00     0.012 C 
ENDROOT
TORSDOF 0
ENDMDL
