MODEL 1
REMARK VINA RESULT:    -2.350      0.000      0.000
REMARK INTER + INTRA:          -3.668
REMARK INTER:                  -3.174
REMARK INTRA:                  -0.494
REMARK UNBOUND:                -0.494
REMARK SMILES O=C[C@H](O)[C@H](O)[C@H](O)CO
REMARK SMILES IDX 7 1 9 2 10 3 5 5 3 6 2 7 1 8 4 9 6 11 8 13
REMARK H PARENT 10 4 4 10 6 12 8 14
REMARK Flexibility Score: inf
ROOT
ATOM      1  C   UNL     1      -8.998  -3.358  -7.060  1.00  0.00     0.171 C 
ENDROOT
BRANCH   1   2
ATOM      2  C   UNL     1      -9.963  -2.344  -7.711  1.00  0.00     0.190 C 
BRANCH   2   3
ATOM      3  O   UNL     1      -9.625  -1.038  -7.335  1.00  0.00    -0.394 OA
ATOM      4  H   UNL     1      -9.068  -0.675  -8.071  1.00  0.00     0.210 HD
ENDBRANCH   2   3
ENDBRANCH   1   2
BRANCH   1   5
ATOM      5  C   UNL     1      -7.695  -3.623  -7.868  1.00  0.00     0.181 C 
BRANCH   5   6
ATOM      6  C   UNL     1      -6.748  -4.693  -7.264  1.00  0.00     0.209 C 
BRANCH   6   7
ATOM      7  C   UNL     1      -5.308  -4.418  -7.608  1.00  0.00     0.258 C 
ATOM      8  O   UNL     1      -4.425  -4.544  -6.774  1.00  0.00    -0.300 OA
ENDBRANCH   6   7
BRANCH   6   9
ATOM      9  O   UNL     1      -7.111  -5.988  -7.672  1.00  0.00    -0.383 OA
ATOM     10  H   UNL     1      -6.833  -6.083  -8.621  1.00  0.00     0.211 HD
ENDBRANCH   6   9
ENDBRANCH   5   6
BRANCH   5  11
ATOM     11  O   UNL     1      -6.998  -2.417  -8.056  1.00  0.00    -0.387 OA
ATOM     12  H   UNL     1      -6.031  -2.623  -7.959  1.00  0.00     0.211 HD
ENDBRANCH   5  11
ENDBRANCH   1   5
BRANCH   1  13
ATOM     13  O   UNL     1      -9.667  -4.576  -6.834  1.00  0.00    -0.388 OA
ATOM     14  H   UNL     1      -9.159  -5.076  -6.142  1.00  0.00     0.211 HD
ENDBRANCH   1  13
TORSDOF 8
ENDMDL
MODEL 2
REMARK VINA RESULT:    -2.188      0.573      4.023
REMARK INTER + INTRA:          -3.450
REMARK INTER:                  -2.984
REMARK INTRA:                  -0.465
REMARK UNBOUND:                -0.494
REMARK SMILES O=C[C@H](O)[C@H](O)[C@H](O)CO
REMARK SMILES IDX 7 1 9 2 10 3 5 5 3 6 2 7 1 8 4 9 6 11 8 13
REMARK H PARENT 10 4 4 10 6 12 8 14
REMARK Flexibility Score: inf
ROOT
ATOM      1  C   UNL     1      -6.922  -4.500  -8.074  1.00  0.00     0.171 C 
ENDROOT
BRANCH   1   2
ATOM      2  C   UNL     1      -5.420  -4.160  -8.197  1.00  0.00     0.190 C 
BRANCH   2   3
ATOM      3  O   UNL     1      -4.735  -4.558  -7.041  1.00  0.00    -0.394 OA
ATOM      4  H   UNL     1      -5.379  -5.095  -6.510  1.00  0.00     0.210 HD
ENDBRANCH   2   3
ENDBRANCH   1   2
BRANCH   1   5
ATOM      5  C   UNL     1      -7.750  -3.479  -7.241  1.00  0.00     0.181 C 
BRANCH   5   6
ATOM      6  C   UNL     1      -9.288  -3.567  -7.428  1.00  0.00     0.209 C 
BRANCH   6   7
ATOM      7  C   UNL     1      -9.978  -2.315  -6.953  1.00  0.00     0.258 C 
ATOM      8  O   UNL     1      -9.856  -1.260  -7.554  1.00  0.00    -0.300 OA
ENDBRANCH   6   7
BRANCH   6   9
ATOM      9  O   UNL     1      -9.820  -4.696  -6.782  1.00  0.00    -0.383 OA
ATOM     10  H   UNL     1     -10.647  -4.402  -6.317  1.00  0.00     0.211 HD
ENDBRANCH   6   9
ENDBRANCH   5   6
BRANCH   5  11
ATOM     11  O   UNL     1      -7.308  -2.173  -7.512  1.00  0.00    -0.387 OA
ATOM     12  H   UNL     1      -7.180  -1.723  -6.637  1.00  0.00     0.211 HD
ENDBRANCH   5  11
ENDBRANCH   1   5
BRANCH   1  13
ATOM     13  O   UNL     1      -7.077  -5.788  -7.528  1.00  0.00    -0.388 OA
ATOM     14  H   UNL     1      -6.596  -5.808  -6.660  1.00  0.00     0.211 HD
ENDBRANCH   1  13
TORSDOF 8
ENDMDL
MODEL 3
REMARK VINA RESULT:    -1.993      1.440      2.407
REMARK INTER + INTRA:          -3.187
REMARK INTER:                  -2.845
REMARK INTRA:                  -0.342
REMARK UNBOUND:                -0.494
REMARK SMILES O=C[C@H](O)[C@H](O)[C@H](O)CO
REMARK SMILES IDX 7 1 9 2 10 3 5 5 3 6 2 7 1 8 4 9 6 11 8 13
REMARK H PARENT 10 4 4 10 6 12 8 14
REMARK Flexibility Score: inf
ROOT
ATOM      1  C   UNL     1      -8.223  -2.802  -7.399  1.00  0.00     0.171 C 
ENDROOT
BRANCH   1   2
ATOM      2  C   UNL     1      -9.728  -3.129  -7.297  1.00  0.00     0.190 C 
BRANCH   2   3
ATOM      3  O   UNL     1     -10.096  -3.320  -5.958  1.00  0.00    -0.394 OA
ATOM      4  H   UNL     1     -10.142  -4.301  -5.822  1.00  0.00     0.210 HD
ENDBRANCH   2   3
ENDBRANCH   1   2
BRANCH   1   5
ATOM      5  C   UNL     1      -7.279  -4.013  -7.141  1.00  0.00     0.181 C 
BRANCH   5   6
ATOM      6  C   UNL     1      -5.888  -3.923  -7.823  1.00  0.00     0.209 C 
BRANCH   6   7
ATOM      7  C   UNL     1      -5.902  -4.537  -9.198  1.00  0.00     0.258 C 
ATOM      8  O   UNL     1      -6.484  -3.997 -10.125  1.00  0.00    -0.300 OA
ENDBRANCH   6   7
BRANCH   6   9
ATOM      9  O   UNL     1      -4.890  -4.515  -7.031  1.00  0.00    -0.383 OA
ATOM     10  H   UNL     1      -4.075  -3.955  -7.123  1.00  0.00     0.211 HD
ENDBRANCH   6   9
ENDBRANCH   5   6
BRANCH   5  11
ATOM     11  O   UNL     1      -7.921  -5.205  -7.517  1.00  0.00    -0.387 OA
ATOM     12  H   UNL     1      -8.023  -5.181  -8.504  1.00  0.00     0.211 HD
ENDBRANCH   5  11
ENDBRANCH   1   5
BRANCH   1  13
ATOM     13  O   UNL     1      -7.900  -1.758  -6.512  1.00  0.00    -0.388 OA
ATOM     14  H   UNL     1      -7.970  -2.114  -5.587  1.00  0.00     0.211 HD
ENDBRANCH   1  13
TORSDOF 8
ENDMDL
MODEL 4
REMARK VINA RESULT:    -1.956      1.407      1.890
REMARK INTER + INTRA:          -3.136
REMARK INTER:                  -2.647
REMARK INTRA:                  -0.489
REMARK UNBOUND:                -0.494
REMARK SMILES O=C[C@H](O)[C@H](O)[C@H](O)CO
REMARK SMILES IDX 7 1 9 2 10 3 5 5 3 6 2 7 1 8 4 9 6 11 8 13
REMARK H PARENT 10 4 4 10 6 12 8 14
REMARK Flexibility Score: inf
ROOT
ATOM      1  C   UNL     1      -9.104  -2.764  -7.710  1.00  0.00     0.171 C 
ENDROOT
BRANCH   1   2
ATOM      2  C   UNL     1      -9.881  -3.698  -6.757  1.00  0.00     0.190 C 
BRANCH   2   3
ATOM      3  O   UNL     1     -10.125  -3.054  -5.537  1.00  0.00    -0.394 OA
ATOM      4  H   UNL     1     -10.707  -2.278  -5.746  1.00  0.00     0.210 HD
ENDBRANCH   2   3
ENDBRANCH   1   2
BRANCH   1   5
ATOM      5  C   UNL     1      -7.555  -2.875  -7.604  1.00  0.00     0.181 C 
BRANCH   5   6
ATOM      6  C   UNL     1      -6.943  -4.167  -8.207  1.00  0.00     0.209 C 
BRANCH   6   7
ATOM      7  C   UNL     1      -5.954  -4.805  -7.266  1.00  0.00     0.258 C 
ATOM      8  O   UNL     1      -4.812  -4.385  -7.171  1.00  0.00    -0.300 OA
ENDBRANCH   6   7
BRANCH   6   9
ATOM      9  O   UNL     1      -6.343  -3.918  -9.453  1.00  0.00    -0.383 OA
ATOM     10  H   UNL     1      -5.688  -3.184  -9.319  1.00  0.00     0.211 HD
ENDBRANCH   6   9
ENDBRANCH   5   6
BRANCH   5  11
ATOM     11  O   UNL     1      -7.158  -2.737  -6.263  1.00  0.00    -0.387 OA
ATOM     12  H   UNL     1      -7.856  -2.197  -5.808  1.00  0.00     0.211 HD
ENDBRANCH   5  11
ENDBRANCH   1   5
BRANCH   1  13
ATOM     13  O   UNL     1      -9.495  -1.429  -7.494  1.00  0.00    -0.388 OA
ATOM     14  H   UNL     1     -10.405  -1.441  -7.098  1.00  0.00     0.211 HD
ENDBRANCH   1  13
TORSDOF 8
ENDMDL
MODEL 5
REMARK VINA RESULT:    -1.326     21.588     22.454
REMARK INTER + INTRA:          -2.286
REMARK INTER:                  -2.003
REMARK INTRA:                  -0.282
REMARK UNBOUND:                -0.494
REMARK SMILES O=C[C@H](O)[C@H](O)[C@H](O)CO
REMARK SMILES IDX 7 1 9 2 10 3 5 5 3 6 2 7 1 8 4 9 6 11 8 13
REMARK H PARENT 10 4 4 10 6 12 8 14
REMARK Flexibility Score: inf
ROOT
ATOM      1  C   UNL     1       7.093  -0.693   8.589  1.00  0.00     0.171 C 
ENDROOT
BRANCH   1   2
ATOM      2  C   UNL     1       6.812  -1.128  10.043  1.00  0.00     0.190 C 
BRANCH   2   3
ATOM      3  O   UNL     1       5.636  -1.887  10.106  1.00  0.00    -0.394 OA
ATOM      4  H   UNL     1       4.915  -1.307   9.747  1.00  0.00     0.210 HD
ENDBRANCH   2   3
ENDBRANCH   1   2
BRANCH   1   5
ATOM      5  C   UNL     1       8.578  -0.327   8.299  1.00  0.00     0.181 C 
BRANCH   5   6
ATOM      6  C   UNL     1       8.823   0.440   6.972  1.00  0.00     0.209 C 
BRANCH   6   7
ATOM      7  C   UNL     1       9.073  -0.502   5.824  1.00  0.00     0.258 C 
ATOM      8  O   UNL     1      10.125  -1.114   5.727  1.00  0.00    -0.300 OA
ENDBRANCH   6   7
BRANCH   6   9
ATOM      9  O   UNL     1       9.883   1.354   7.096  1.00  0.00    -0.383 OA
ATOM     10  H   UNL     1      10.129   1.386   8.058  1.00  0.00     0.211 HD
ENDBRANCH   6   9
ENDBRANCH   5   6
BRANCH   5  11
ATOM     11  O   UNL     1       9.371  -1.487   8.335  1.00  0.00    -0.387 OA
ATOM     12  H   UNL     1       9.606  -1.707   7.396  1.00  0.00     0.211 HD
ENDBRANCH   5  11
ENDBRANCH   1   5
BRANCH   1  13
ATOM     13  O   UNL     1       6.266   0.393   8.247  1.00  0.00    -0.388 OA
ATOM     14  H   UNL     1       5.391   0.027   7.957  1.00  0.00     0.211 HD
ENDBRANCH   1  13
TORSDOF 8
ENDMDL
MODEL 6
REMARK VINA RESULT:    -0.231     21.548     22.549
REMARK INTER + INTRA:          -0.807
REMARK INTER:                  -0.495
REMARK INTRA:                  -0.312
REMARK UNBOUND:                -0.494
REMARK SMILES O=C[C@H](O)[C@H](O)[C@H](O)CO
REMARK SMILES IDX 7 1 9 2 10 3 5 5 3 6 2 7 1 8 4 9 6 11 8 13
REMARK H PARENT 10 4 4 10 6 12 8 14
REMARK Flexibility Score: inf
ROOT
ATOM      1  C   UNL     1       9.142  -1.120   7.409  1.00  0.00     0.171 C 
ENDROOT
BRANCH   1   2
ATOM      2  C   UNL     1       9.645  -0.755   5.996  1.00  0.00     0.190 C 
BRANCH   2   3
ATOM      3  O   UNL     1       8.563  -0.600   5.119  1.00  0.00    -0.394 OA
ATOM      4  H   UNL     1       7.946  -1.354   5.306  1.00  0.00     0.210 HD
ENDBRANCH   2   3
ENDBRANCH   1   2
BRANCH   1   5
ATOM      5  C   UNL     1       8.751   0.101   8.292  1.00  0.00     0.181 C 
BRANCH   5   6
ATOM      6  C   UNL     1       7.321   0.051   8.893  1.00  0.00     0.209 C 
BRANCH   6   7
ATOM      7  C   UNL     1       6.982  -1.323   9.408  1.00  0.00     0.258 C 
ATOM      8  O   UNL     1       6.010  -1.508  10.122  1.00  0.00    -0.300 OA
ENDBRANCH   6   7
BRANCH   6   9
ATOM      9  O   UNL     1       6.359   0.477   7.962  1.00  0.00    -0.383 OA
ATOM     10  H   UNL     1       5.987  -0.338   7.533  1.00  0.00     0.211 HD
ENDBRANCH   6   9
ENDBRANCH   5   6
BRANCH   5  11
ATOM     11  O   UNL     1       8.923   1.290   7.564  1.00  0.00    -0.387 OA
ATOM     12  H   UNL     1       9.641   1.122   6.899  1.00  0.00     0.211 HD
ENDBRANCH   5  11
ENDBRANCH   1   5
BRANCH   1  13
ATOM     13  O   UNL     1      10.112  -1.891   8.076  1.00  0.00    -0.388 OA
ATOM     14  H   UNL     1      10.544  -1.311   8.757  1.00  0.00     0.211 HD
ENDBRANCH   1  13
TORSDOF 8
ENDMDL
