MODEL 1
REMARK VINA RESULT:    -8.208      0.000      0.000
REMARK INTER + INTRA:         -11.114
REMARK INTER:                 -10.848
REMARK INTRA:                  -0.266
REMARK UNBOUND:                -0.266
REMARK SMILES CC[C@H](C=C[C@@H](C)[C@@H]1CC[C@@H]2C3=CC[C@H]4C[C@@H](O)CC[C@@]4(C)[C@H]3CC[C@]21C)C(C)C
REMARK SMILES IDX 6 1 7 2 5 3 4 4 3 5 2 6 1 7 28 8 29 9 30 10 8 11 9 12 26 13
REMARK SMILES IDX 10 14 11 15 25 16 27 17 12 18 24 19 23 20 13 21 21 22 14 23
REMARK SMILES IDX 15 24 20 25 22 26 16 27 19 28 17 29 18 30
REMARK H PARENT 18 31
REMARK Flexibility Score: inf
ROOT
ATOM      1  C   UNL     1     115.342 125.590 126.884  1.00  0.00     0.012 C 
ATOM      2  C   UNL     1     114.184 126.136 127.742  1.00  0.00     0.012 C 
ENDROOT
BRANCH   1   3
ATOM      3  C   UNL     1     115.842 126.669 125.935  1.00  0.00    -0.028 C 
ATOM      4  C   UNL     1     115.820 127.979 126.250  1.00  0.00    -0.027 C 
BRANCH   4   5
ATOM      5  C   UNL     1     116.414 129.104 125.406  1.00  0.00     0.014 C 
BRANCH   5   6
ATOM      6  C   UNL     1     115.419 130.260 125.091  1.00  0.00     0.004 C 
ATOM      7  C   UNL     1     114.254 130.322 126.084  1.00  0.00     0.004 C 
ENDBRANCH   5   6
BRANCH   5   8
ATOM      8  C   UNL     1     117.735 129.606 126.077  1.00  0.00    -0.011 C 
ATOM      9  C   UNL     1     118.950 129.479 125.143  1.00  0.00     0.008 C 
ATOM     10  C   UNL     1     117.621 131.035 126.635  1.00  0.00     0.008 C 
ENDBRANCH   5   8
ENDBRANCH   4   5
ENDBRANCH   1   3
BRANCH   1  11
ATOM     11  C   UNL     1     115.102 124.246 126.114  1.00  0.00     0.002 C 
ATOM     12  C   UNL     1     115.387 124.243 124.595  1.00  0.00     0.005 C 
ATOM     13  C   UNL     1     113.735 123.510 126.243  1.00  0.00    -0.023 C 
ATOM     14  C   UNL     1     114.569 123.075 124.013  1.00  0.00     0.009 C 
ATOM     15  C   UNL     1     113.952 122.378 125.231  1.00  0.00     0.021 C 
ATOM     16  C   UNL     1     113.491 122.873 127.631  1.00  0.00     0.008 C 
ATOM     17  C   UNL     1     112.537 124.430 125.844  1.00  0.00     0.012 C 
ATOM     18  C   UNL     1     112.711 121.528 125.047  1.00  0.00    -0.067 C 
ATOM     19  C   UNL     1     112.493 121.671 127.627  1.00  0.00     0.009 C 
ATOM     20  C   UNL     1     111.826 121.271 126.261  1.00  0.00     0.021 C 
ATOM     21  C   UNL     1     112.422 120.974 123.858  1.00  0.00    -0.027 C 
ATOM     22  C   UNL     1     111.200 119.826 126.246  1.00  0.00    -0.023 C 
ATOM     23  C   UNL     1     111.287 120.016 123.629  1.00  0.00     0.031 C 
ATOM     24  C   UNL     1     110.449 119.634 124.881  1.00  0.00     0.002 C 
ATOM     25  C   UNL     1     112.278 118.712 126.383  1.00  0.00     0.010 C 
ATOM     26  C   UNL     1     110.178 119.731 127.422  1.00  0.00     0.012 C 
ATOM     27  C   UNL     1     109.866 118.205 124.705  1.00  0.00     0.036 C 
ATOM     28  C   UNL     1     111.682 117.296 126.302  1.00  0.00     0.032 C 
ATOM     29  C   UNL     1     110.852 117.056 125.020  1.00  0.00     0.114 C 
BRANCH  29  30
ATOM     30  O   UNL     1     111.650 116.741 123.902  1.00  0.00    -0.393 OA
ATOM     31  H   UNL     1     111.105 116.816 123.077  1.00  0.00     0.210 HD
ENDBRANCH  29  30
ENDBRANCH   1  11
TORSDOF 6
ENDMDL
MODEL 2
REMARK VINA RESULT:    -8.073      3.261      9.618
REMARK INTER + INTRA:         -10.935
REMARK INTER:                  -9.467
REMARK INTRA:                  -1.467
REMARK UNBOUND:                -0.266
REMARK SMILES CC[C@H](C=C[C@@H](C)[C@@H]1CC[C@@H]2C3=CC[C@H]4C[C@@H](O)CC[C@@]4(C)[C@H]3CC[C@]21C)C(C)C
REMARK SMILES IDX 6 1 7 2 5 3 4 4 3 5 2 6 1 7 28 8 29 9 30 10 8 11 9 12 26 13
REMARK SMILES IDX 10 14 11 15 25 16 27 17 12 18 24 19 23 20 13 21 21 22 14 23
REMARK SMILES IDX 15 24 20 25 22 26 16 27 19 28 17 29 18 30
REMARK H PARENT 18 31
REMARK Flexibility Score: inf
ROOT
ATOM      1  C   UNL     1     109.837 116.719 127.056  1.00  0.00     0.012 C 
ATOM      2  C   UNL     1     109.674 115.720 128.219  1.00  0.00     0.012 C 
ENDROOT
BRANCH   1   3
ATOM      3  C   UNL     1     109.632 116.008 125.726  1.00  0.00    -0.028 C 
ATOM      4  C   UNL     1     110.465 116.173 124.680  1.00  0.00    -0.027 C 
BRANCH   4   5
ATOM      5  C   UNL     1     110.398 115.405 123.363  1.00  0.00     0.014 C 
BRANCH   5   6
ATOM      6  C   UNL     1     110.014 116.279 122.132  1.00  0.00     0.004 C 
ATOM      7  C   UNL     1     109.854 117.760 122.489  1.00  0.00     0.004 C 
ENDBRANCH   5   6
BRANCH   5   8
ATOM      8  C   UNL     1     111.735 114.619 123.157  1.00  0.00    -0.011 C 
ATOM      9  C   UNL     1     112.973 115.509 123.354  1.00  0.00     0.008 C 
ATOM     10  C   UNL     1     111.828 113.353 124.027  1.00  0.00     0.008 C 
ENDBRANCH   5   8
ENDBRANCH   4   5
ENDBRANCH   1   3
BRANCH   1  11
ATOM     11  C   UNL     1     111.141 117.586 127.023  1.00  0.00     0.002 C 
ATOM     12  C   UNL     1     112.152 117.386 128.174  1.00  0.00     0.005 C 
ATOM     13  C   UNL     1     111.041 119.134 126.873  1.00  0.00    -0.023 C 
ATOM     14  C   UNL     1     112.992 118.676 128.230  1.00  0.00     0.009 C 
ATOM     15  C   UNL     1     112.520 119.507 127.032  1.00  0.00     0.021 C 
ATOM     16  C   UNL     1     110.574 119.604 125.476  1.00  0.00     0.008 C 
ATOM     17  C   UNL     1     110.153 119.771 127.990  1.00  0.00     0.012 C 
ATOM     18  C   UNL     1     112.735 121.008 127.043  1.00  0.00    -0.067 C 
ATOM     19  C   UNL     1     111.027 121.049 125.092  1.00  0.00     0.009 C 
ATOM     20  C   UNL     1     111.848 121.870 126.150  1.00  0.00     0.021 C 
ATOM     21  C   UNL     1     113.710 121.562 127.781  1.00  0.00    -0.027 C 
ATOM     22  C   UNL     1     112.626 123.101 125.551  1.00  0.00    -0.023 C 
ATOM     23  C   UNL     1     114.069 123.020 127.743  1.00  0.00     0.031 C 
ATOM     24  C   UNL     1     113.268 123.898 126.742  1.00  0.00     0.002 C 
ATOM     25  C   UNL     1     113.757 122.670 124.574  1.00  0.00     0.010 C 
ATOM     26  C   UNL     1     111.595 124.009 124.811  1.00  0.00     0.012 C 
ATOM     27  C   UNL     1     114.146 125.091 126.270  1.00  0.00     0.036 C 
ATOM     28  C   UNL     1     114.565 123.863 124.036  1.00  0.00     0.032 C 
ATOM     29  C   UNL     1     115.160 124.750 125.154  1.00  0.00     0.114 C 
BRANCH  29  30
ATOM     30  O   UNL     1     116.357 124.230 125.686  1.00  0.00    -0.393 OA
ATOM     31  H   UNL     1     117.055 124.934 125.674  1.00  0.00     0.210 HD
ENDBRANCH  29  30
ENDBRANCH   1  11
TORSDOF 6
ENDMDL
MODEL 3
REMARK VINA RESULT:    -7.997      1.423      2.962
REMARK INTER + INTRA:         -10.834
REMARK INTER:                 -10.291
REMARK INTRA:                  -0.543
REMARK UNBOUND:                -0.266
REMARK SMILES CC[C@H](C=C[C@@H](C)[C@@H]1CC[C@@H]2C3=CC[C@H]4C[C@@H](O)CC[C@@]4(C)[C@H]3CC[C@]21C)C(C)C
REMARK SMILES IDX 6 1 7 2 5 3 4 4 3 5 2 6 1 7 28 8 29 9 30 10 8 11 9 12 26 13
REMARK SMILES IDX 10 14 11 15 25 16 27 17 12 18 24 19 23 20 13 21 21 22 14 23
REMARK SMILES IDX 15 24 20 25 22 26 16 27 19 28 17 29 18 30
REMARK H PARENT 18 31
REMARK Flexibility Score: inf
ROOT
ATOM      1  C   UNL     1     115.893 126.848 125.804  1.00  0.00     0.012 C 
ATOM      2  C   UNL     1     117.259 126.433 126.387  1.00  0.00     0.012 C 
ENDROOT
BRANCH   1   3
ATOM      3  C   UNL     1     115.668 128.338 126.014  1.00  0.00    -0.028 C 
ATOM      4  C   UNL     1     116.368 129.278 125.349  1.00  0.00    -0.027 C 
BRANCH   4   5
ATOM      5  C   UNL     1     116.116 130.782 125.413  1.00  0.00     0.014 C 
BRANCH   5   6
ATOM      6  C   UNL     1     114.780 131.178 126.108  1.00  0.00     0.004 C 
ATOM      7  C   UNL     1     113.641 131.406 125.109  1.00  0.00     0.004 C 
ENDBRANCH   5   6
BRANCH   5   8
ATOM      8  C   UNL     1     117.362 131.485 126.046  1.00  0.00    -0.011 C 
ATOM      9  C   UNL     1     117.130 131.876 127.514  1.00  0.00     0.008 C 
ATOM     10  C   UNL     1     118.655 130.665 125.896  1.00  0.00     0.008 C 
ENDBRANCH   5   8
ENDBRANCH   4   5
ENDBRANCH   1   3
BRANCH   1  11
ATOM     11  C   UNL     1     114.634 126.031 126.255  1.00  0.00     0.002 C 
ATOM     12  C   UNL     1     114.209 126.150 127.736  1.00  0.00     0.005 C 
ATOM     13  C   UNL     1     114.553 124.503 125.961  1.00  0.00    -0.023 C 
ATOM     14  C   UNL     1     113.377 124.890 128.041  1.00  0.00     0.009 C 
ATOM     15  C   UNL     1     113.250 124.165 126.696  1.00  0.00     0.021 C 
ATOM     16  C   UNL     1     114.364 124.159 124.465  1.00  0.00     0.008 C 
ATOM     17  C   UNL     1     115.776 123.730 126.550  1.00  0.00     0.012 C 
ATOM     18  C   UNL     1     112.953 122.678 126.682  1.00  0.00    -0.067 C 
ATOM     19  C   UNL     1     113.691 122.774 124.198  1.00  0.00     0.009 C 
ATOM     20  C   UNL     1     113.326 121.880 125.438  1.00  0.00     0.021 C 
ATOM     21  C   UNL     1     112.334 122.087 127.717  1.00  0.00    -0.027 C 
ATOM     22  C   UNL     1     112.284 120.740 125.129  1.00  0.00    -0.023 C 
ATOM     23  C   UNL     1     111.889 120.652 127.723  1.00  0.00     0.031 C 
ATOM     24  C   UNL     1     112.139 119.851 126.415  1.00  0.00     0.002 C 
ATOM     25  C   UNL     1     110.884 121.303 124.751  1.00  0.00     0.010 C 
ATOM     26  C   UNL     1     112.849 119.876 123.958  1.00  0.00     0.012 C 
ATOM     27  C   UNL     1     111.062 118.741 126.266  1.00  0.00     0.036 C 
ATOM     28  C   UNL     1     109.844 120.196 124.513  1.00  0.00     0.032 C 
ATOM     29  C   UNL     1     109.703 119.223 125.707  1.00  0.00     0.114 C 
BRANCH  29  30
ATOM     30  O   UNL     1     108.875 119.727 126.730  1.00  0.00    -0.393 OA
ATOM     31  H   UNL     1     108.116 119.106 126.874  1.00  0.00     0.210 HD
ENDBRANCH  29  30
ENDBRANCH   1  11
TORSDOF 6
ENDMDL
MODEL 4
REMARK VINA RESULT:    -7.610      4.039      7.174
REMARK INTER + INTRA:         -10.323
REMARK INTER:                  -9.171
REMARK INTRA:                  -1.152
REMARK UNBOUND:                -0.266
REMARK SMILES CC[C@H](C=C[C@@H](C)[C@@H]1CC[C@@H]2C3=CC[C@H]4C[C@@H](O)CC[C@@]4(C)[C@H]3CC[C@]21C)C(C)C
REMARK SMILES IDX 6 1 7 2 5 3 4 4 3 5 2 6 1 7 28 8 29 9 30 10 8 11 9 12 26 13
REMARK SMILES IDX 10 14 11 15 25 16 27 17 12 18 24 19 23 20 13 21 21 22 14 23
REMARK SMILES IDX 15 24 20 25 22 26 16 27 19 28 17 29 18 30
REMARK H PARENT 18 31
REMARK Flexibility Score: inf
ROOT
ATOM      1  C   UNL     1     109.906 120.097 124.748  1.00  0.00     0.012 C 
ATOM      2  C   UNL     1     109.025 120.021 123.485  1.00  0.00     0.012 C 
ENDROOT
BRANCH   1   3
ATOM      3  C   UNL     1     111.212 120.812 124.431  1.00  0.00    -0.028 C 
ATOM      4  C   UNL     1     111.474 122.064 124.851  1.00  0.00    -0.027 C 
BRANCH   4   5
ATOM      5  C   UNL     1     112.802 122.798 124.680  1.00  0.00     0.014 C 
BRANCH   5   6
ATOM      6  C   UNL     1     113.182 123.720 125.877  1.00  0.00     0.004 C 
ATOM      7  C   UNL     1     112.298 123.483 127.106  1.00  0.00     0.004 C 
ENDBRANCH   5   6
BRANCH   5   8
ATOM      8  C   UNL     1     113.920 121.761 124.334  1.00  0.00    -0.011 C 
ATOM      9  C   UNL     1     114.490 121.965 122.920  1.00  0.00     0.008 C 
ATOM     10  C   UNL     1     115.049 121.723 125.378  1.00  0.00     0.008 C 
ENDBRANCH   5   8
ENDBRANCH   4   5
ENDBRANCH   1   3
BRANCH   1  11
ATOM     11  C   UNL     1     110.181 118.763 125.522  1.00  0.00     0.002 C 
ATOM     12  C   UNL     1     108.972 118.072 126.191  1.00  0.00     0.005 C 
ATOM     13  C   UNL     1     111.295 118.712 126.610  1.00  0.00    -0.023 C 
ATOM     14  C   UNL     1     109.555 117.177 127.301  1.00  0.00     0.009 C 
ATOM     15  C   UNL     1     111.075 117.289 127.141  1.00  0.00     0.021 C 
ATOM     16  C   UNL     1     112.733 118.798 126.046  1.00  0.00     0.008 C 
ATOM     17  C   UNL     1     111.077 119.791 127.719  1.00  0.00     0.012 C 
ATOM     18  C   UNL     1     111.969 116.975 128.325  1.00  0.00    -0.067 C 
ATOM     19  C   UNL     1     113.828 118.163 126.961  1.00  0.00     0.009 C 
ATOM     20  C   UNL     1     113.377 117.559 128.340  1.00  0.00     0.021 C 
ATOM     21  C   UNL     1     111.551 116.165 129.311  1.00  0.00    -0.027 C 
ATOM     22  C   UNL     1     114.422 116.573 128.987  1.00  0.00    -0.023 C 
ATOM     23  C   UNL     1     112.420 115.703 130.446  1.00  0.00     0.031 C 
ATOM     24  C   UNL     1     113.900 116.177 130.413  1.00  0.00     0.002 C 
ATOM     25  C   UNL     1     114.612 115.277 128.148  1.00  0.00     0.010 C 
ATOM     26  C   UNL     1     115.781 117.331 129.119  1.00  0.00     0.012 C 
ATOM     27  C   UNL     1     114.803 115.128 131.120  1.00  0.00     0.036 C 
ATOM     28  C   UNL     1     115.580 114.280 128.807  1.00  0.00     0.032 C 
ATOM     29  C   UNL     1     115.180 113.904 130.252  1.00  0.00     0.114 C 
BRANCH  29  30
ATOM     30  O   UNL     1     114.183 112.910 130.303  1.00  0.00    -0.393 OA
ATOM     31  H   UNL     1     113.989 112.591 129.384  1.00  0.00     0.210 HD
ENDBRANCH  29  30
ENDBRANCH   1  11
TORSDOF 6
ENDMDL
MODEL 5
REMARK VINA RESULT:    -7.601      4.006      7.474
REMARK INTER + INTRA:         -10.311
REMARK INTER:                  -8.914
REMARK INTRA:                  -1.397
REMARK UNBOUND:                -0.266
REMARK SMILES CC[C@H](C=C[C@@H](C)[C@@H]1CC[C@@H]2C3=CC[C@H]4C[C@@H](O)CC[C@@]4(C)[C@H]3CC[C@]21C)C(C)C
REMARK SMILES IDX 6 1 7 2 5 3 4 4 3 5 2 6 1 7 28 8 29 9 30 10 8 11 9 12 26 13
REMARK SMILES IDX 10 14 11 15 25 16 27 17 12 18 24 19 23 20 13 21 21 22 14 23
REMARK SMILES IDX 15 24 20 25 22 26 16 27 19 28 17 29 18 30
REMARK H PARENT 18 31
REMARK Flexibility Score: inf
ROOT
ATOM      1  C   UNL     1     110.349 119.273 127.361  1.00  0.00     0.012 C 
ATOM      2  C   UNL     1     108.935 119.727 127.774  1.00  0.00     0.012 C 
ENDROOT
BRANCH   1   3
ATOM      3  C   UNL     1     111.284 120.472 127.294  1.00  0.00    -0.028 C 
ATOM      4  C   UNL     1     111.586 121.093 126.137  1.00  0.00    -0.027 C 
BRANCH   4   5
ATOM      5  C   UNL     1     112.412 122.370 126.005  1.00  0.00     0.014 C 
BRANCH   5   6
ATOM      6  C   UNL     1     113.064 122.850 127.335  1.00  0.00     0.004 C 
ATOM      7  C   UNL     1     112.277 123.983 128.001  1.00  0.00     0.004 C 
ENDBRANCH   5   6
BRANCH   5   8
ATOM      8  C   UNL     1     113.450 122.192 124.848  1.00  0.00    -0.011 C 
ATOM      9  C   UNL     1     113.126 120.987 123.950  1.00  0.00     0.008 C 
ATOM     10  C   UNL     1     113.636 123.466 124.006  1.00  0.00     0.008 C 
ENDBRANCH   5   8
ENDBRANCH   4   5
ENDBRANCH   1   3
BRANCH   1  11
ATOM     11  C   UNL     1     110.480 118.399 126.066  1.00  0.00     0.002 C 
ATOM     12  C   UNL     1     109.181 117.794 125.489  1.00  0.00     0.005 C 
ATOM     13  C   UNL     1     111.497 117.220 126.025  1.00  0.00    -0.023 C 
ATOM     14  C   UNL     1     109.618 116.587 124.638  1.00  0.00     0.009 C 
ATOM     15  C   UNL     1     111.150 116.624 124.655  1.00  0.00     0.021 C 
ATOM     16  C   UNL     1     112.978 117.665 125.995  1.00  0.00     0.008 C 
ATOM     17  C   UNL     1     111.255 116.201 127.185  1.00  0.00     0.012 C 
ATOM     18  C   UNL     1     111.925 115.352 124.371  1.00  0.00    -0.067 C 
ATOM     19  C   UNL     1     113.956 116.623 125.362  1.00  0.00     0.009 C 
ATOM     20  C   UNL     1     113.360 115.253 124.876  1.00  0.00     0.021 C 
ATOM     21  C   UNL     1     111.380 114.357 123.651  1.00  0.00    -0.027 C 
ATOM     22  C   UNL     1     114.287 114.462 123.879  1.00  0.00    -0.023 C 
ATOM     23  C   UNL     1     112.126 113.128 123.217  1.00  0.00     0.031 C 
ATOM     24  C   UNL     1     113.629 113.063 123.606  1.00  0.00     0.002 C 
ATOM     25  C   UNL     1     114.466 115.202 122.522  1.00  0.00     0.010 C 
ATOM     26  C   UNL     1     115.674 114.261 124.567  1.00  0.00     0.012 C 
ATOM     27  C   UNL     1     114.407 112.221 122.557  1.00  0.00     0.036 C 
ATOM     28  C   UNL     1     115.316 114.404 121.518  1.00  0.00     0.032 C 
ATOM     29  C   UNL     1     114.779 112.978 121.261  1.00  0.00     0.114 C 
BRANCH  29  30
ATOM     30  O   UNL     1     113.723 112.951 120.327  1.00  0.00    -0.393 OA
ATOM     31  H   UNL     1     112.915 112.567 120.756  1.00  0.00     0.210 HD
ENDBRANCH  29  30
ENDBRANCH   1  11
TORSDOF 6
ENDMDL
MODEL 6
REMARK VINA RESULT:    -7.581      3.565      9.905
REMARK INTER + INTRA:         -10.285
REMARK INTER:                  -8.995
REMARK INTRA:                  -1.290
REMARK UNBOUND:                -0.266
REMARK SMILES CC[C@H](C=C[C@@H](C)[C@@H]1CC[C@@H]2C3=CC[C@H]4C[C@@H](O)CC[C@@]4(C)[C@H]3CC[C@]21C)C(C)C
REMARK SMILES IDX 6 1 7 2 5 3 4 4 3 5 2 6 1 7 28 8 29 9 30 10 8 11 9 12 26 13
REMARK SMILES IDX 10 14 11 15 25 16 27 17 12 18 24 19 23 20 13 21 21 22 14 23
REMARK SMILES IDX 15 24 20 25 22 26 16 27 19 28 17 29 18 30
REMARK H PARENT 18 31
REMARK Flexibility Score: inf
ROOT
ATOM      1  C   UNL     1     110.147 116.503 127.008  1.00  0.00     0.012 C 
ATOM      2  C   UNL     1     109.565 115.760 128.227  1.00  0.00     0.012 C 
ENDROOT
BRANCH   1   3
ATOM      3  C   UNL     1     111.154 115.617 126.289  1.00  0.00    -0.028 C 
ATOM      4  C   UNL     1     110.907 115.067 125.085  1.00  0.00    -0.027 C 
BRANCH   4   5
ATOM      5  C   UNL     1     111.908 114.273 124.249  1.00  0.00     0.014 C 
BRANCH   5   6
ATOM      6  C   UNL     1     111.496 112.793 123.993  1.00  0.00     0.004 C 
ATOM      7  C   UNL     1     112.577 112.001 123.250  1.00  0.00     0.004 C 
ENDBRANCH   5   6
BRANCH   5   8
ATOM      8  C   UNL     1     112.211 115.056 122.930  1.00  0.00    -0.011 C 
ATOM      9  C   UNL     1     111.159 116.139 122.638  1.00  0.00     0.008 C 
ATOM     10  C   UNL     1     113.630 115.650 122.895  1.00  0.00     0.008 C 
ENDBRANCH   5   8
ENDBRANCH   4   5
ENDBRANCH   1   3
BRANCH   1  11
ATOM     11  C   UNL     1     110.742 117.933 127.247  1.00  0.00     0.002 C 
ATOM     12  C   UNL     1     109.846 118.957 127.978  1.00  0.00     0.005 C 
ATOM     13  C   UNL     1     111.336 118.736 126.051  1.00  0.00    -0.023 C 
ATOM     14  C   UNL     1     110.384 120.346 127.587  1.00  0.00     0.009 C 
ATOM     15  C   UNL     1     111.640 120.064 126.755  1.00  0.00     0.021 C 
ATOM     16  C   UNL     1     112.665 118.165 125.505  1.00  0.00     0.008 C 
ATOM     17  C   UNL     1     110.300 118.910 124.894  1.00  0.00     0.012 C 
ATOM     18  C   UNL     1     112.143 121.122 125.792  1.00  0.00    -0.067 C 
ATOM     19  C   UNL     1     113.569 119.209 124.775  1.00  0.00     0.009 C 
ATOM     20  C   UNL     1     113.032 120.679 124.635  1.00  0.00     0.021 C 
ATOM     21  C   UNL     1     111.854 122.420 125.978  1.00  0.00    -0.027 C 
ATOM     22  C   UNL     1     114.142 121.744 124.298  1.00  0.00    -0.023 C 
ATOM     23  C   UNL     1     112.421 123.536 125.147  1.00  0.00     0.031 C 
ATOM     24  C   UNL     1     113.435 123.122 124.044  1.00  0.00     0.002 C 
ATOM     25  C   UNL     1     115.168 121.917 125.455  1.00  0.00     0.010 C 
ATOM     26  C   UNL     1     114.872 121.284 122.997  1.00  0.00     0.012 C 
ATOM     27  C   UNL     1     114.438 124.282 123.793  1.00  0.00     0.036 C 
ATOM     28  C   UNL     1     116.217 123.003 125.161  1.00  0.00     0.032 C 
ATOM     29  C   UNL     1     115.594 124.375 124.815  1.00  0.00     0.114 C 
BRANCH  29  30
ATOM     30  O   UNL     1     115.214 125.107 125.958  1.00  0.00    -0.393 OA
ATOM     31  H   UNL     1     114.931 126.018 125.686  1.00  0.00     0.210 HD
ENDBRANCH  29  30
ENDBRANCH   1  11
TORSDOF 6
ENDMDL
MODEL 7
REMARK VINA RESULT:    -7.446      3.116      9.825
REMARK INTER + INTRA:         -10.106
REMARK INTER:                  -8.755
REMARK INTRA:                  -1.350
REMARK UNBOUND:                -0.266
REMARK SMILES CC[C@H](C=C[C@@H](C)[C@@H]1CC[C@@H]2C3=CC[C@H]4C[C@@H](O)CC[C@@]4(C)[C@H]3CC[C@]21C)C(C)C
REMARK SMILES IDX 6 1 7 2 5 3 4 4 3 5 2 6 1 7 28 8 29 9 30 10 8 11 9 12 26 13
REMARK SMILES IDX 10 14 11 15 25 16 27 17 12 18 24 19 23 20 13 21 21 22 14 23
REMARK SMILES IDX 15 24 20 25 22 26 16 27 19 28 17 29 18 30
REMARK H PARENT 18 31
REMARK Flexibility Score: inf
ROOT
ATOM      1  C   UNL     1     110.680 116.700 125.881  1.00  0.00     0.012 C 
ATOM      2  C   UNL     1     109.842 116.017 126.980  1.00  0.00     0.012 C 
ENDROOT
BRANCH   1   3
ATOM      3  C   UNL     1     111.221 115.657 124.914  1.00  0.00    -0.028 C 
ATOM      4  C   UNL     1     112.317 115.866 124.159  1.00  0.00    -0.027 C 
BRANCH   4   5
ATOM      5  C   UNL     1     112.989 114.828 123.263  1.00  0.00     0.014 C 
BRANCH   5   6
ATOM      6  C   UNL     1     114.363 115.277 122.685  1.00  0.00     0.004 C 
ATOM      7  C   UNL     1     114.859 116.592 123.296  1.00  0.00     0.004 C 
ENDBRANCH   5   6
BRANCH   5   8
ATOM      8  C   UNL     1     113.067 113.465 124.026  1.00  0.00    -0.011 C 
ATOM      9  C   UNL     1     112.281 112.351 123.315  1.00  0.00     0.008 C 
ATOM     10  C   UNL     1     114.511 113.018 124.311  1.00  0.00     0.008 C 
ENDBRANCH   5   8
ENDBRANCH   4   5
ENDBRANCH   1   3
BRANCH   1  11
ATOM     11  C   UNL     1     111.821 117.672 126.337  1.00  0.00     0.002 C 
ATOM     12  C   UNL     1     112.327 117.534 127.790  1.00  0.00     0.005 C 
ATOM     13  C   UNL     1     111.657 119.209 126.139  1.00  0.00    -0.023 C 
ATOM     14  C   UNL     1     112.972 118.887 128.145  1.00  0.00     0.009 C 
ATOM     15  C   UNL     1     112.926 119.700 126.847  1.00  0.00     0.021 C 
ATOM     16  C   UNL     1     111.722 119.665 124.663  1.00  0.00     0.008 C 
ATOM     17  C   UNL     1     110.360 119.750 126.822  1.00  0.00     0.012 C 
ATOM     18  C   UNL     1     112.994 121.213 126.918  1.00  0.00    -0.067 C 
ATOM     19  C   UNL     1     112.166 121.150 124.462  1.00  0.00     0.009 C 
ATOM     20  C   UNL     1     112.448 122.015 125.743  1.00  0.00     0.021 C 
ATOM     21  C   UNL     1     113.564 121.831 127.966  1.00  0.00    -0.027 C 
ATOM     22  C   UNL     1     113.291 123.318 125.470  1.00  0.00    -0.023 C 
ATOM     23  C   UNL     1     113.787 123.314 128.048  1.00  0.00     0.031 C 
ATOM     24  C   UNL     1     113.359 124.142 126.804  1.00  0.00     0.002 C 
ATOM     25  C   UNL     1     114.741 123.000 125.006  1.00  0.00     0.010 C 
ATOM     26  C   UNL     1     112.549 124.152 124.379  1.00  0.00     0.012 C 
ATOM     27  C   UNL     1     114.249 125.411 126.689  1.00  0.00     0.036 C 
ATOM     28  C   UNL     1     115.590 124.265 124.802  1.00  0.00     0.032 C 
ATOM     29  C   UNL     1     115.637 125.177 126.050  1.00  0.00     0.114 C 
BRANCH  29  30
ATOM     30  O   UNL     1     116.578 124.747 127.007  1.00  0.00    -0.393 OA
ATOM     31  H   UNL     1     116.370 125.163 127.882  1.00  0.00     0.210 HD
ENDBRANCH  29  30
ENDBRANCH   1  11
TORSDOF 6
ENDMDL
MODEL 8
REMARK VINA RESULT:    -7.413      3.062      6.392
REMARK INTER + INTRA:         -10.063
REMARK INTER:                  -8.633
REMARK INTRA:                  -1.431
REMARK UNBOUND:                -0.266
REMARK SMILES CC[C@H](C=C[C@@H](C)[C@@H]1CC[C@@H]2C3=CC[C@H]4C[C@@H](O)CC[C@@]4(C)[C@H]3CC[C@]21C)C(C)C
REMARK SMILES IDX 6 1 7 2 5 3 4 4 3 5 2 6 1 7 28 8 29 9 30 10 8 11 9 12 26 13
REMARK SMILES IDX 10 14 11 15 25 16 27 17 12 18 24 19 23 20 13 21 21 22 14 23
REMARK SMILES IDX 15 24 20 25 22 26 16 27 19 28 17 29 18 30
REMARK H PARENT 18 31
REMARK Flexibility Score: inf
ROOT
ATOM      1  C   UNL     1     112.959 120.765 127.005  1.00  0.00     0.012 C 
ATOM      2  C   UNL     1     111.885 121.658 127.659  1.00  0.00     0.012 C 
ENDROOT
BRANCH   1   3
ATOM      3  C   UNL     1     114.144 121.613 126.565  1.00  0.00    -0.028 C 
ATOM      4  C   UNL     1     114.565 121.663 125.286  1.00  0.00    -0.027 C 
BRANCH   4   5
ATOM      5  C   UNL     1     115.661 122.579 124.748  1.00  0.00     0.014 C 
BRANCH   5   6
ATOM      6  C   UNL     1     116.424 122.008 123.517  1.00  0.00     0.004 C 
ATOM      7  C   UNL     1     115.740 120.774 122.920  1.00  0.00     0.004 C 
ENDBRANCH   5   6
BRANCH   5   8
ATOM      8  C   UNL     1     115.060 123.999 124.485  1.00  0.00    -0.011 C 
ATOM      9  C   UNL     1     113.572 123.943 124.104  1.00  0.00     0.008 C 
ATOM     10  C   UNL     1     115.288 124.974 125.654  1.00  0.00     0.008 C 
ENDBRANCH   5   8
ENDBRANCH   4   5
ENDBRANCH   1   3
BRANCH   1  11
ATOM     11  C   UNL     1     112.504 119.812 125.848  1.00  0.00     0.002 C 
ATOM     12  C   UNL     1     111.008 119.835 125.461  1.00  0.00     0.005 C 
ATOM     13  C   UNL     1     112.854 118.294 125.909  1.00  0.00    -0.023 C 
ATOM     14  C   UNL     1     110.728 118.488 124.769  1.00  0.00     0.009 C 
ATOM     15  C   UNL     1     112.095 117.802 124.671  1.00  0.00     0.021 C 
ATOM     16  C   UNL     1     114.356 117.985 125.708  1.00  0.00     0.008 C 
ATOM     17  C   UNL     1     112.329 117.628 127.221  1.00  0.00     0.012 C 
ATOM     18  C   UNL     1     112.157 116.294 124.522  1.00  0.00    -0.067 C 
ATOM     19  C   UNL     1     114.656 116.551 125.167  1.00  0.00     0.009 C 
ATOM     20  C   UNL     1     113.441 115.582 124.932  1.00  0.00     0.021 C 
ATOM     21  C   UNL     1     111.128 115.608 123.999  1.00  0.00    -0.027 C 
ATOM     22  C   UNL     1     113.763 114.355 123.999  1.00  0.00    -0.023 C 
ATOM     23  C   UNL     1     111.164 114.137 123.698  1.00  0.00     0.031 C 
ATOM     24  C   UNL     1     112.509 113.411 123.984  1.00  0.00     0.002 C 
ATOM     25  C   UNL     1     114.079 114.787 122.538  1.00  0.00     0.010 C 
ATOM     26  C   UNL     1     114.982 113.594 124.608  1.00  0.00     0.012 C 
ATOM     27  C   UNL     1     112.669 112.204 123.018  1.00  0.00     0.036 C 
ATOM     28  C   UNL     1     114.329 113.591 121.605  1.00  0.00     0.032 C 
ATOM     29  C   UNL     1     113.170 112.567 121.601  1.00  0.00     0.114 C 
BRANCH  29  30
ATOM     30  O   UNL     1     112.106 112.950 120.760  1.00  0.00    -0.393 OA
ATOM     31  H   UNL     1     112.416 112.954 119.818  1.00  0.00     0.210 HD
ENDBRANCH  29  30
ENDBRANCH   1  11
TORSDOF 6
ENDMDL
MODEL 9
REMARK VINA RESULT:    -7.380      2.548      5.468
REMARK INTER + INTRA:         -10.018
REMARK INTER:                  -8.717
REMARK INTRA:                  -1.301
REMARK UNBOUND:                -0.266
REMARK SMILES CC[C@H](C=C[C@@H](C)[C@@H]1CC[C@@H]2C3=CC[C@H]4C[C@@H](O)CC[C@@]4(C)[C@H]3CC[C@]21C)C(C)C
REMARK SMILES IDX 6 1 7 2 5 3 4 4 3 5 2 6 1 7 28 8 29 9 30 10 8 11 9 12 26 13
REMARK SMILES IDX 10 14 11 15 25 16 27 17 12 18 24 19 23 20 13 21 21 22 14 23
REMARK SMILES IDX 15 24 20 25 22 26 16 27 19 28 17 29 18 30
REMARK H PARENT 18 31
REMARK Flexibility Score: inf
ROOT
ATOM      1  C   UNL     1     111.847 122.644 125.472  1.00  0.00     0.012 C 
ATOM      2  C   UNL     1     111.080 123.941 125.146  1.00  0.00     0.012 C 
ENDROOT
BRANCH   1   3
ATOM      3  C   UNL     1     113.345 122.913 125.478  1.00  0.00    -0.028 C 
ATOM      4  C   UNL     1     113.995 123.425 124.415  1.00  0.00    -0.027 C 
BRANCH   4   5
ATOM      5  C   UNL     1     115.465 123.836 124.387  1.00  0.00     0.014 C 
BRANCH   5   6
ATOM      6  C   UNL     1     116.005 124.369 125.747  1.00  0.00     0.004 C 
ATOM      7  C   UNL     1     115.597 125.822 126.014  1.00  0.00     0.004 C 
ENDBRANCH   5   6
BRANCH   5   8
ATOM      8  C   UNL     1     116.316 122.655 123.817  1.00  0.00    -0.011 C 
ATOM      9  C   UNL     1     116.777 121.681 124.914  1.00  0.00     0.008 C 
ATOM     10  C   UNL     1     115.610 121.899 122.678  1.00  0.00     0.008 C 
ENDBRANCH   5   8
ENDBRANCH   4   5
ENDBRANCH   1   3
BRANCH   1  11
ATOM     11  C   UNL     1     111.518 121.373 124.617  1.00  0.00     0.002 C 
ATOM     12  C   UNL     1     110.045 121.163 124.202  1.00  0.00     0.005 C 
ATOM     13  C   UNL     1     111.977 119.967 125.107  1.00  0.00    -0.023 C 
ATOM     14  C   UNL     1     109.898 119.658 123.907  1.00  0.00     0.009 C 
ATOM     15  C   UNL     1     111.315 119.089 124.037  1.00  0.00     0.021 C 
ATOM     16  C   UNL     1     113.505 119.742 125.036  1.00  0.00     0.008 C 
ATOM     17  C   UNL     1     111.442 119.647 126.540  1.00  0.00     0.012 C 
ATOM     18  C   UNL     1     111.496 117.610 124.317  1.00  0.00    -0.067 C 
ATOM     19  C   UNL     1     113.936 118.244 124.925  1.00  0.00     0.009 C 
ATOM     20  C   UNL     1     112.809 117.150 124.941  1.00  0.00     0.021 C 
ATOM     21  C   UNL     1     110.547 116.722 123.981  1.00  0.00    -0.027 C 
ATOM     22  C   UNL     1     113.264 115.744 124.396  1.00  0.00    -0.023 C 
ATOM     23  C   UNL     1     110.706 115.233 124.105  1.00  0.00     0.031 C 
ATOM     24  C   UNL     1     112.086 114.731 124.614  1.00  0.00     0.002 C 
ATOM     25  C   UNL     1     113.615 115.781 122.880  1.00  0.00     0.010 C 
ATOM     26  C   UNL     1     114.507 115.287 125.222  1.00  0.00     0.012 C 
ATOM     27  C   UNL     1     112.380 113.322 124.028  1.00  0.00     0.036 C 
ATOM     28  C   UNL     1     113.997 114.399 122.325  1.00  0.00     0.032 C 
ATOM     29  C   UNL     1     112.918 113.320 122.578  1.00  0.00     0.114 C 
BRANCH  29  30
ATOM     30  O   UNL     1     111.869 113.364 121.639  1.00  0.00    -0.393 OA
ATOM     31  H   UNL     1     112.232 113.197 120.731  1.00  0.00     0.210 HD
ENDBRANCH  29  30
ENDBRANCH   1  11
TORSDOF 6
ENDMDL
