MODEL 1
REMARK VINA RESULT:    -6.612      0.000      0.000
REMARK INTER + INTRA:         -13.962
REMARK INTER:                 -10.865
REMARK INTRA:                  -3.097
REMARK UNBOUND:                -3.097
REMARK SMILES C[C@H]1O[C@H](OC[C@H]2O[C@@H](Oc3c(-c4ccc(O)c(O)c4)oc4cc(O)cc(O)c4c3=O)[C@@H](O)[C@H](O)[C@@H]2O)[C@@H](O)[C@@H](O)[C@@H]1O
REMARK SMILES IDX 7 1 36 2 34 3 32 4 9 5 8 6 6 7 5 8 4 9 1 10 2 11 42 12 3 13
REMARK SMILES IDX 40 14 38 15 43 16 41 18 39 20 37 22 35 24 10 26 11 27 12 28
REMARK SMILES IDX 30 29 21 30 29 31 31 32 22 33 27 34 23 35 26 36 24 37 13 38
REMARK SMILES IDX 20 39 14 40 18 41 15 42 16 43 19 44 17 46 28 48 25 50 33 52
REMARK H PARENT 43 17 41 19 39 21 37 23 35 25 19 45 17 47 28 49 25 51 33 53
REMARK Flexibility Score: inf
ROOT
ATOM      1  C   UNL     1     106.059 113.779 112.080  1.00  0.00     0.180 C 
ATOM      2  C   UNL     1     105.422 114.197 113.437  1.00  0.00     0.177 C 
ATOM      3  C   UNL     1     103.988 114.763 113.237  1.00  0.00     0.180 C 
ATOM      4  C   UNL     1     103.442 114.393 111.842  1.00  0.00     0.214 C 
ATOM      5  C   UNL     1     103.897 112.961 111.454  1.00  0.00     0.339 C 
ATOM      6  O   UNL     1     105.307 112.764 111.430  1.00  0.00    -0.332 OA
ENDROOT
BRANCH   1   7
ATOM      7  C   UNL     1     107.506 113.285 112.246  1.00  0.00     0.198 C 
BRANCH   7   8
ATOM      8  O   UNL     1     107.780 113.015 113.608  1.00  0.00    -0.347 OA
BRANCH   8   9
ATOM      9  C   UNL     1     109.060 113.495 113.972  1.00  0.00     0.281 C 
ATOM     10  C   UNL     1     109.418 116.701 115.823  1.00  0.00     0.041 C 
ATOM     11  C   UNL     1     109.461 115.180 115.642  1.00  0.00     0.150 C 
ATOM     12  C   UNL     1     110.897 114.637 115.826  1.00  0.00     0.174 C 
ATOM     13  O   UNL     1     108.962 114.875 114.352  1.00  0.00    -0.344 OA
ATOM     14  C   UNL     1     110.952 113.105 115.611  1.00  0.00     0.179 C 
ATOM     15  C   UNL     1     109.625 112.556 115.061  1.00  0.00     0.202 C 
BRANCH  12  16
ATOM     16  O   UNL     1     111.362 114.934 117.122  1.00  0.00    -0.388 OA
ATOM     17  H   UNL     1     112.352 114.879 117.107  1.00  0.00     0.211 HD
ENDBRANCH  12  16
BRANCH  14  18
ATOM     18  O   UNL     1     112.002 112.781 114.734  1.00  0.00    -0.387 OA
ATOM     19  H   UNL     1     111.735 111.945 114.263  1.00  0.00     0.211 HD
ENDBRANCH  14  18
BRANCH  15  20
ATOM     20  O   UNL     1     109.806 111.260 114.550  1.00  0.00    -0.385 OA
ATOM     21  H   UNL     1     110.770 111.032 114.670  1.00  0.00     0.211 HD
ENDBRANCH  15  20
ENDBRANCH   8   9
ENDBRANCH   7   8
ENDBRANCH   1   7
BRANCH   2  22
ATOM     22  O   UNL     1     106.248 115.129 114.093  1.00  0.00    -0.387 OA
ATOM     23  H   UNL     1     106.568 114.691 114.925  1.00  0.00     0.211 HD
ENDBRANCH   2  22
BRANCH   3  24
ATOM     24  O   UNL     1     103.984 116.164 113.381  1.00  0.00    -0.387 OA
ATOM     25  H   UNL     1     104.424 116.531 112.569  1.00  0.00     0.211 HD
ENDBRANCH   3  24
BRANCH   5  26
ATOM     26  O   UNL     1     103.322 112.017 112.357  1.00  0.00    -0.454 OA
BRANCH  26  27
ATOM     27  C   UNL     1     102.750 110.820 111.919  1.00  0.00     0.214 A 
ATOM     28  C   UNL     1     103.358 109.590 112.198  1.00  0.00     0.180 A 
ATOM     29  C   UNL     1     101.549 110.842 111.207  1.00  0.00     0.239 A 
ATOM     30  O   UNL     1     102.807 108.462 111.772  1.00  0.00    -0.452 OA
ATOM     31  C   UNL     1     100.997 109.629 110.720  1.00  0.00     0.111 A 
ATOM     32  O   UNL     1     100.980 111.952 111.027  1.00  0.00    -0.285 OA
ATOM     33  C   UNL     1     101.677 108.432 111.069  1.00  0.00     0.146 A 
ATOM     34  C   UNL     1      99.804 109.535 109.942  1.00  0.00     0.134 A 
ATOM     35  C   UNL     1     101.157 107.187 110.697  1.00  0.00     0.094 A 
ATOM     36  C   UNL     1      99.281 108.273 109.633  1.00  0.00     0.093 A 
ATOM     37  C   UNL     1      99.947 107.103 110.001  1.00  0.00     0.123 A 
BRANCH  28  38
ATOM     38  C   UNL     1     104.572 109.523 113.018  1.00  0.00     0.025 A 
ATOM     39  C   UNL     1     105.826 109.741 112.424  1.00  0.00     0.062 A 
ATOM     40  C   UNL     1     104.488 109.220 114.388  1.00  0.00     0.016 A 
ATOM     41  C   UNL     1     106.993 109.662 113.187  1.00  0.00     0.158 A 
ATOM     42  C   UNL     1     105.655 109.114 115.150  1.00  0.00     0.051 A 
ATOM     43  C   UNL     1     106.910 109.340 114.557  1.00  0.00     0.157 A 
BRANCH  41  44
ATOM     44  O   UNL     1     108.220 109.913 112.570  1.00  0.00    -0.504 OA
ATOM     45  H   UNL     1     108.527 110.858 112.358  1.00  0.00     0.293 HD
ENDBRANCH  41  44
BRANCH  43  46
ATOM     46  O   UNL     1     108.070 109.252 115.322  1.00  0.00    -0.504 OA
ATOM     47  H   UNL     1     108.944 109.670 115.028  1.00  0.00     0.293 HD
ENDBRANCH  43  46
ENDBRANCH  28  38
BRANCH  34  48
ATOM     48  O   UNL     1      99.113 110.639 109.431  1.00  0.00    -0.507 OA
ATOM     49  H   UNL     1      99.080 111.548 109.864  1.00  0.00     0.293 HD
ENDBRANCH  34  48
BRANCH  37  50
ATOM     50  O   UNL     1      99.401 105.862 109.669  1.00  0.00    -0.508 OA
ATOM     51  H   UNL     1      98.933 105.709 108.781  1.00  0.00     0.293 HD
ENDBRANCH  37  50
ENDBRANCH  26  27
ENDBRANCH   5  26
BRANCH   4  52
ATOM     52  O   UNL     1     102.039 114.489 111.846  1.00  0.00    -0.384 OA
ATOM     53  H   UNL     1     101.793 115.134 112.563  1.00  0.00     0.211 HD
ENDBRANCH   4  52
TORSDOF 16
ENDMDL
MODEL 2
REMARK VINA RESULT:    -6.594      2.460      9.597
REMARK INTER + INTRA:         -13.931
REMARK INTER:                 -11.225
REMARK INTRA:                  -2.707
REMARK UNBOUND:                -3.097
REMARK SMILES C[C@H]1O[C@H](OC[C@H]2O[C@@H](Oc3c(-c4ccc(O)c(O)c4)oc4cc(O)cc(O)c4c3=O)[C@@H](O)[C@H](O)[C@@H]2O)[C@@H](O)[C@@H](O)[C@@H]1O
REMARK SMILES IDX 7 1 36 2 34 3 32 4 9 5 8 6 6 7 5 8 4 9 1 10 2 11 42 12 3 13
REMARK SMILES IDX 40 14 38 15 43 16 41 18 39 20 37 22 35 24 10 26 11 27 12 28
REMARK SMILES IDX 30 29 21 30 29 31 31 32 22 33 27 34 23 35 26 36 24 37 13 38
REMARK SMILES IDX 20 39 14 40 18 41 15 42 16 43 19 44 17 46 28 48 25 50 33 52
REMARK H PARENT 43 17 41 19 39 21 37 23 35 25 19 45 17 47 28 49 25 51 33 53
REMARK Flexibility Score: inf
ROOT
ATOM      1  C   UNL     1     104.561 110.890 112.066  1.00  0.00     0.180 C 
ATOM      2  C   UNL     1     104.582 110.805 113.620  1.00  0.00     0.177 C 
ATOM      3  C   UNL     1     106.036 110.862 114.168  1.00  0.00     0.180 C 
ATOM      4  C   UNL     1     107.010 111.379 113.090  1.00  0.00     0.214 C 
ATOM      5  C   UNL     1     106.331 112.493 112.248  1.00  0.00     0.339 C 
ATOM      6  O   UNL     1     105.130 112.102 111.591  1.00  0.00    -0.332 OA
ENDROOT
BRANCH   1   7
ATOM      7  C   UNL     1     103.138 110.762 111.497  1.00  0.00     0.198 C 
BRANCH   7   8
ATOM      8  O   UNL     1     102.198 110.644 112.548  1.00  0.00    -0.347 OA
BRANCH   8   9
ATOM      9  C   UNL     1     101.088 109.863 112.149  1.00  0.00     0.281 C 
ATOM     10  C   UNL     1      98.884 110.992 109.375  1.00  0.00     0.041 C 
ATOM     11  C   UNL     1      99.932 110.104 110.053  1.00  0.00     0.150 C 
ATOM     12  C   UNL     1      99.434 108.646 110.176  1.00  0.00     0.174 C 
ATOM     13  O   UNL     1     100.219 110.654 111.327  1.00  0.00    -0.344 OA
ATOM     14  C   UNL     1     100.475 107.751 110.891  1.00  0.00     0.179 C 
ATOM     15  C   UNL     1     101.628 108.578 111.483  1.00  0.00     0.202 C 
BRANCH  12  16
ATOM     16  O   UNL     1      99.177 108.116 108.896  1.00  0.00    -0.388 OA
ATOM     17  H   UNL     1     100.019 108.164 108.375  1.00  0.00     0.211 HD
ENDBRANCH  12  16
BRANCH  14  18
ATOM     18  O   UNL     1      99.851 107.006 111.906  1.00  0.00    -0.387 OA
ATOM     19  H   UNL     1      99.116 106.491 111.474  1.00  0.00     0.211 HD
ENDBRANCH  14  18
BRANCH  15  20
ATOM     20  O   UNL     1     102.356 107.811 112.408  1.00  0.00    -0.385 OA
ATOM     21  H   UNL     1     103.320 107.907 112.170  1.00  0.00     0.211 HD
ENDBRANCH  15  20
ENDBRANCH   8   9
ENDBRANCH   7   8
ENDBRANCH   1   7
BRANCH   2  22
ATOM     22  O   UNL     1     103.922 109.639 114.050  1.00  0.00    -0.387 OA
ATOM     23  H   UNL     1     103.140 109.516 113.450  1.00  0.00     0.211 HD
ENDBRANCH   2  22
BRANCH   3  24
ATOM     24  O   UNL     1     106.452 109.587 114.597  1.00  0.00    -0.387 OA
ATOM     25  H   UNL     1     107.144 109.285 113.952  1.00  0.00     0.211 HD
ENDBRANCH   3  24
BRANCH   5  26
ATOM     26  O   UNL     1     106.048 113.615 113.083  1.00  0.00    -0.454 OA
BRANCH  26  27
ATOM     27  C   UNL     1     106.296 114.928 112.675  1.00  0.00     0.214 A 
ATOM     28  C   UNL     1     105.291 115.691 112.067  1.00  0.00     0.180 A 
ATOM     29  C   UNL     1     107.552 115.498 112.887  1.00  0.00     0.239 A 
ATOM     30  O   UNL     1     105.541 116.934 111.681  1.00  0.00    -0.452 OA
ATOM     31  C   UNL     1     107.815 116.814 112.426  1.00  0.00     0.111 A 
ATOM     32  O   UNL     1     108.421 114.821 113.499  1.00  0.00    -0.285 OA
ATOM     33  C   UNL     1     106.729 117.514 111.837  1.00  0.00     0.146 A 
ATOM     34  C   UNL     1     109.072 117.479 112.544  1.00  0.00     0.134 A 
ATOM     35  C   UNL     1     106.880 118.844 111.428  1.00  0.00     0.094 A 
ATOM     36  C   UNL     1     109.177 118.826 112.175  1.00  0.00     0.093 A 
ATOM     37  C   UNL     1     108.095 119.511 111.619  1.00  0.00     0.123 A 
BRANCH  28  38
ATOM     38  C   UNL     1     103.935 115.156 111.909  1.00  0.00     0.025 A 
ATOM     39  C   UNL     1     103.196 114.786 113.045  1.00  0.00     0.062 A 
ATOM     40  C   UNL     1     103.381 114.991 110.628  1.00  0.00     0.016 A 
ATOM     41  C   UNL     1     101.911 114.257 112.911  1.00  0.00     0.158 A 
ATOM     42  C   UNL     1     102.105 114.438 110.488  1.00  0.00     0.051 A 
ATOM     43  C   UNL     1     101.363 114.074 111.626  1.00  0.00     0.157 A 
BRANCH  41  44
ATOM     44  O   UNL     1     101.194 113.927 114.063  1.00  0.00    -0.504 OA
ATOM     45  H   UNL     1     100.199 114.113 114.144  1.00  0.00     0.293 HD
ENDBRANCH  41  44
BRANCH  43  46
ATOM     46  O   UNL     1     100.084 113.542 111.483  1.00  0.00    -0.504 OA
ATOM     47  H   UNL     1      99.926 112.557 111.308  1.00  0.00     0.293 HD
ENDBRANCH  43  46
ENDBRANCH  28  38
BRANCH  34  48
ATOM     48  O   UNL     1     110.246 116.862 112.989  1.00  0.00    -0.507 OA
ATOM     49  H   UNL     1     110.514 116.761 113.955  1.00  0.00     0.293 HD
ENDBRANCH  34  48
BRANCH  37  50
ATOM     50  O   UNL     1     108.236 120.851 111.255  1.00  0.00    -0.508 OA
ATOM     51  H   UNL     1     108.226 121.592 111.949  1.00  0.00     0.293 HD
ENDBRANCH  37  50
ENDBRANCH  26  27
ENDBRANCH   5  26
BRANCH   4  52
ATOM     52  O   UNL     1     108.180 111.858 113.704  1.00  0.00    -0.384 OA
ATOM     53  H   UNL     1     108.389 112.738 113.287  1.00  0.00     0.211 HD
ENDBRANCH   4  52
TORSDOF 16
ENDMDL
MODEL 3
REMARK VINA RESULT:    -6.543      1.944      2.216
REMARK INTER + INTRA:         -13.848
REMARK INTER:                 -11.746
REMARK INTRA:                  -2.102
REMARK UNBOUND:                -3.097
REMARK SMILES C[C@H]1O[C@H](OC[C@H]2O[C@@H](Oc3c(-c4ccc(O)c(O)c4)oc4cc(O)cc(O)c4c3=O)[C@@H](O)[C@H](O)[C@@H]2O)[C@@H](O)[C@@H](O)[C@@H]1O
REMARK SMILES IDX 7 1 36 2 34 3 32 4 9 5 8 6 6 7 5 8 4 9 1 10 2 11 42 12 3 13
REMARK SMILES IDX 40 14 38 15 43 16 41 18 39 20 37 22 35 24 10 26 11 27 12 28
REMARK SMILES IDX 30 29 21 30 29 31 31 32 22 33 27 34 23 35 26 36 24 37 13 38
REMARK SMILES IDX 20 39 14 40 18 41 15 42 16 43 19 44 17 46 28 48 25 50 33 52
REMARK H PARENT 43 17 41 19 39 21 37 23 35 25 19 45 17 47 28 49 25 51 33 53
REMARK Flexibility Score: inf
ROOT
ATOM      1  C   UNL     1     106.145 113.489 112.217  1.00  0.00     0.180 C 
ATOM      2  C   UNL     1     105.341 114.086 113.409  1.00  0.00     0.177 C 
ATOM      3  C   UNL     1     104.013 114.732 112.926  1.00  0.00     0.180 C 
ATOM      4  C   UNL     1     103.662 114.267 111.498  1.00  0.00     0.214 C 
ATOM      5  C   UNL     1     104.045 112.774 111.315  1.00  0.00     0.339 C 
ATOM      6  O   UNL     1     105.418 112.473 111.541  1.00  0.00    -0.332 OA
ENDROOT
BRANCH   1   7
ATOM      7  C   UNL     1     107.498 112.909 112.661  1.00  0.00     0.198 C 
BRANCH   7   8
ATOM      8  O   UNL     1     108.381 113.952 113.031  1.00  0.00    -0.347 OA
BRANCH   8   9
ATOM      9  C   UNL     1     108.990 114.528 111.892  1.00  0.00     0.281 C 
ATOM     10  C   UNL     1     109.835 118.149 111.831  1.00  0.00     0.041 C 
ATOM     11  C   UNL     1     110.130 116.646 111.879  1.00  0.00     0.150 C 
ATOM     12  C   UNL     1     110.928 116.194 110.634  1.00  0.00     0.174 C 
ATOM     13  O   UNL     1     108.896 115.956 111.972  1.00  0.00    -0.344 OA
ATOM     14  C   UNL     1     111.199 114.670 110.660  1.00  0.00     0.179 C 
ATOM     15  C   UNL     1     110.428 113.971 111.792  1.00  0.00     0.202 C 
BRANCH  12  16
ATOM     16  O   UNL     1     112.158 116.878 110.575  1.00  0.00    -0.388 OA
ATOM     17  H   UNL     1     112.190 117.367 109.713  1.00  0.00     0.211 HD
ENDBRANCH  12  16
BRANCH  14  18
ATOM     18  O   UNL     1     110.853 114.099 109.424  1.00  0.00    -0.387 OA
ATOM     19  H   UNL     1     109.918 114.384 109.228  1.00  0.00     0.211 HD
ENDBRANCH  14  18
BRANCH  15  20
ATOM     20  O   UNL     1     110.407 112.582 111.584  1.00  0.00    -0.385 OA
ATOM     21  H   UNL     1     110.317 112.436 110.601  1.00  0.00     0.211 HD
ENDBRANCH  15  20
ENDBRANCH   8   9
ENDBRANCH   7   8
ENDBRANCH   1   7
BRANCH   2  22
ATOM     22  O   UNL     1     106.133 115.015 114.109  1.00  0.00    -0.387 OA
ATOM     23  H   UNL     1     105.582 115.834 114.219  1.00  0.00     0.211 HD
ENDBRANCH   2  22
BRANCH   3  24
ATOM     24  O   UNL     1     104.111 116.137 112.947  1.00  0.00    -0.387 OA
ATOM     25  H   UNL     1     104.512 116.378 113.823  1.00  0.00     0.211 HD
ENDBRANCH   3  24
BRANCH   5  26
ATOM     26  O   UNL     1     103.253 111.970 112.188  1.00  0.00    -0.454 OA
BRANCH  26  27
ATOM     27  C   UNL     1     102.674 110.767 111.773  1.00  0.00     0.214 A 
ATOM     28  C   UNL     1     103.298 109.542 112.037  1.00  0.00     0.180 A 
ATOM     29  C   UNL     1     101.451 110.780 111.100  1.00  0.00     0.239 A 
ATOM     30  O   UNL     1     102.740 108.410 111.633  1.00  0.00    -0.452 OA
ATOM     31  C   UNL     1     100.891 109.562 110.635  1.00  0.00     0.111 A 
ATOM     32  O   UNL     1     100.870 111.886 110.934  1.00  0.00    -0.285 OA
ATOM     33  C   UNL     1     101.589 108.370 110.966  1.00  0.00     0.146 A 
ATOM     34  C   UNL     1      99.674 109.458 109.897  1.00  0.00     0.134 A 
ATOM     35  C   UNL     1     101.064 107.121 110.616  1.00  0.00     0.094 A 
ATOM     36  C   UNL     1      99.148 108.192 109.609  1.00  0.00     0.093 A 
ATOM     37  C   UNL     1      99.832 107.027 109.960  1.00  0.00     0.123 A 
BRANCH  28  38
ATOM     38  C   UNL     1     104.538 109.485 112.818  1.00  0.00     0.025 A 
ATOM     39  C   UNL     1     105.774 109.402 112.155  1.00  0.00     0.062 A 
ATOM     40  C   UNL     1     104.494 109.490 114.223  1.00  0.00     0.016 A 
ATOM     41  C   UNL     1     106.963 109.327 112.884  1.00  0.00     0.158 A 
ATOM     42  C   UNL     1     105.680 109.390 114.956  1.00  0.00     0.051 A 
ATOM     43  C   UNL     1     106.917 109.314 114.293  1.00  0.00     0.157 A 
BRANCH  41  44
ATOM     44  O   UNL     1     108.175 109.275 112.193  1.00  0.00    -0.504 OA
ATOM     45  H   UNL     1     108.870 110.010 112.280  1.00  0.00     0.293 HD
ENDBRANCH  41  44
BRANCH  43  46
ATOM     46  O   UNL     1     108.098 109.233 115.027  1.00  0.00    -0.504 OA
ATOM     47  H   UNL     1     108.102 109.116 116.033  1.00  0.00     0.293 HD
ENDBRANCH  43  46
ENDBRANCH  28  38
BRANCH  34  48
ATOM     48  O   UNL     1      98.961 110.556 109.404  1.00  0.00    -0.507 OA
ATOM     49  H   UNL     1      99.274 111.160 108.661  1.00  0.00     0.293 HD
ENDBRANCH  34  48
BRANCH  37  50
ATOM     50  O   UNL     1      99.284 105.781 109.650  1.00  0.00    -0.508 OA
ATOM     51  H   UNL     1      98.845 105.204 110.361  1.00  0.00     0.293 HD
ENDBRANCH  37  50
ENDBRANCH  26  27
ENDBRANCH   5  26
BRANCH   4  52
ATOM     52  O   UNL     1     102.291 114.466 111.262  1.00  0.00    -0.384 OA
ATOM     53  H   UNL     1     101.885 114.750 112.125  1.00  0.00     0.211 HD
ENDBRANCH   4  52
TORSDOF 16
ENDMDL
MODEL 4
REMARK VINA RESULT:    -6.393      5.952     10.960
REMARK INTER + INTRA:         -13.602
REMARK INTER:                 -10.989
REMARK INTRA:                  -2.613
REMARK UNBOUND:                -3.097
REMARK SMILES C[C@H]1O[C@H](OC[C@H]2O[C@@H](Oc3c(-c4ccc(O)c(O)c4)oc4cc(O)cc(O)c4c3=O)[C@@H](O)[C@H](O)[C@@H]2O)[C@@H](O)[C@@H](O)[C@@H]1O
REMARK SMILES IDX 7 1 36 2 34 3 32 4 9 5 8 6 6 7 5 8 4 9 1 10 2 11 42 12 3 13
REMARK SMILES IDX 40 14 38 15 43 16 41 18 39 20 37 22 35 24 10 26 11 27 12 28
REMARK SMILES IDX 30 29 21 30 29 31 31 32 22 33 27 34 23 35 26 36 24 37 13 38
REMARK SMILES IDX 20 39 14 40 18 41 15 42 16 43 19 44 17 46 28 48 25 50 33 52
REMARK H PARENT 43 17 41 19 39 21 37 23 35 25 19 45 17 47 28 49 25 51 33 53
REMARK Flexibility Score: inf
ROOT
ATOM      1  C   UNL     1     110.863 118.256 113.994  1.00  0.00     0.180 C 
ATOM      2  C   UNL     1     111.496 119.651 114.274  1.00  0.00     0.177 C 
ATOM      3  C   UNL     1     112.970 119.709 113.783  1.00  0.00     0.180 C 
ATOM      4  C   UNL     1     113.274 118.546 112.817  1.00  0.00     0.214 C 
ATOM      5  C   UNL     1     112.044 118.270 111.911  1.00  0.00     0.339 C 
ATOM      6  O   UNL     1     110.845 117.948 112.608  1.00  0.00    -0.332 OA
ENDROOT
BRANCH   1   7
ATOM      7  C   UNL     1     109.428 118.151 114.537  1.00  0.00     0.198 C 
BRANCH   7   8
ATOM      8  O   UNL     1     109.096 116.798 114.788  1.00  0.00    -0.347 OA
BRANCH   8   9
ATOM      9  C   UNL     1     108.542 116.191 113.636  1.00  0.00     0.281 C 
ATOM     10  C   UNL     1     109.818 112.912 112.434  1.00  0.00     0.041 C 
ATOM     11  C   UNL     1     108.800 113.870 113.061  1.00  0.00     0.150 C 
ATOM     12  C   UNL     1     107.512 113.952 112.209  1.00  0.00     0.174 C 
ATOM     13  O   UNL     1     109.410 115.142 113.187  1.00  0.00    -0.344 OA
ATOM     14  C   UNL     1     106.494 114.944 112.819  1.00  0.00     0.179 C 
ATOM     15  C   UNL     1     107.103 115.747 113.980  1.00  0.00     0.202 C 
BRANCH  12  16
ATOM     16  O   UNL     1     106.914 112.680 112.116  1.00  0.00    -0.388 OA
ATOM     17  H   UNL     1     106.953 112.263 113.015  1.00  0.00     0.211 HD
ENDBRANCH  12  16
BRANCH  14  18
ATOM     18  O   UNL     1     106.024 115.822 111.827  1.00  0.00    -0.387 OA
ATOM     19  H   UNL     1     106.425 115.521 110.965  1.00  0.00     0.211 HD
ENDBRANCH  14  18
BRANCH  15  20
ATOM     20  O   UNL     1     106.301 116.861 114.280  1.00  0.00    -0.385 OA
ATOM     21  H   UNL     1     106.212 116.896 115.273  1.00  0.00     0.211 HD
ENDBRANCH  15  20
ENDBRANCH   8   9
ENDBRANCH   7   8
ENDBRANCH   1   7
BRANCH   2  22
ATOM     22  O   UNL     1     111.403 119.958 115.644  1.00  0.00    -0.387 OA
ATOM     23  H   UNL     1     111.930 120.788 115.786  1.00  0.00     0.211 HD
ENDBRANCH   2  22
BRANCH   3  24
ATOM     24  O   UNL     1     113.857 119.650 114.876  1.00  0.00    -0.387 OA
ATOM     25  H   UNL     1     114.773 119.705 114.497  1.00  0.00     0.211 HD
ENDBRANCH   3  24
BRANCH   5  26
ATOM     26  O   UNL     1     111.798 119.406 111.083  1.00  0.00    -0.454 OA
BRANCH  26  27
ATOM     27  C   UNL     1     111.267 119.288 109.796  1.00  0.00     0.214 A 
ATOM     28  C   UNL     1     109.897 119.467 109.567  1.00  0.00     0.180 A 
ATOM     29  C   UNL     1     112.109 119.007 108.719  1.00  0.00     0.239 A 
ATOM     30  O   UNL     1     109.406 119.347 108.341  1.00  0.00    -0.452 OA
ATOM     31  C   UNL     1     111.560 118.838 107.421  1.00  0.00     0.111 A 
ATOM     32  O   UNL     1     113.347 118.920 108.934  1.00  0.00    -0.285 OA
ATOM     33  C   UNL     1     110.162 119.055 107.286  1.00  0.00     0.146 A 
ATOM     34  C   UNL     1     112.314 118.502 106.258  1.00  0.00     0.134 A 
ATOM     35  C   UNL     1     109.553 118.987 106.028  1.00  0.00     0.094 A 
ATOM     36  C   UNL     1     111.686 118.495 105.006  1.00  0.00     0.093 A 
ATOM     37  C   UNL     1     110.316 118.733 104.883  1.00  0.00     0.123 A 
BRANCH  28  38
ATOM     38  C   UNL     1     108.998 119.851 110.659  1.00  0.00     0.025 A 
ATOM     39  C   UNL     1     107.834 119.101 110.898  1.00  0.00     0.062 A 
ATOM     40  C   UNL     1     109.282 120.976 111.452  1.00  0.00     0.016 A 
ATOM     41  C   UNL     1     106.957 119.465 111.921  1.00  0.00     0.158 A 
ATOM     42  C   UNL     1     108.394 121.359 112.461  1.00  0.00     0.051 A 
ATOM     43  C   UNL     1     107.233 120.604 112.705  1.00  0.00     0.157 A 
BRANCH  41  44
ATOM     44  O   UNL     1     105.825 118.681 112.150  1.00  0.00    -0.504 OA
ATOM     45  H   UNL     1     105.627 117.854 111.593  1.00  0.00     0.293 HD
ENDBRANCH  41  44
BRANCH  43  46
ATOM     46  O   UNL     1     106.360 120.977 113.723  1.00  0.00    -0.504 OA
ATOM     47  H   UNL     1     105.539 120.432 113.958  1.00  0.00     0.293 HD
ENDBRANCH  43  46
ENDBRANCH  28  38
BRANCH  34  48
ATOM     48  O   UNL     1     113.666 118.144 106.278  1.00  0.00    -0.507 OA
ATOM     49  H   UNL     1     114.361 118.549 106.885  1.00  0.00     0.293 HD
ENDBRANCH  34  48
BRANCH  37  50
ATOM     50  O   UNL     1     109.720 118.711 103.621  1.00  0.00    -0.508 OA
ATOM     51  H   UNL     1     108.769 119.034 103.479  1.00  0.00     0.293 HD
ENDBRANCH  37  50
ENDBRANCH  26  27
ENDBRANCH   5  26
BRANCH   4  52
ATOM     52  O   UNL     1     114.405 118.861 112.044  1.00  0.00    -0.384 OA
ATOM     53  H   UNL     1     114.856 119.630 112.487  1.00  0.00     0.211 HD
ENDBRANCH   4  52
TORSDOF 16
ENDMDL
MODEL 5
REMARK VINA RESULT:    -6.357      6.125     10.954
REMARK INTER + INTRA:         -13.542
REMARK INTER:                 -11.577
REMARK INTRA:                  -1.965
REMARK UNBOUND:                -3.097
REMARK SMILES C[C@H]1O[C@H](OC[C@H]2O[C@@H](Oc3c(-c4ccc(O)c(O)c4)oc4cc(O)cc(O)c4c3=O)[C@@H](O)[C@H](O)[C@@H]2O)[C@@H](O)[C@@H](O)[C@@H]1O
REMARK SMILES IDX 7 1 36 2 34 3 32 4 9 5 8 6 6 7 5 8 4 9 1 10 2 11 42 12 3 13
REMARK SMILES IDX 40 14 38 15 43 16 41 18 39 20 37 22 35 24 10 26 11 27 12 28
REMARK SMILES IDX 30 29 21 30 29 31 31 32 22 33 27 34 23 35 26 36 24 37 13 38
REMARK SMILES IDX 20 39 14 40 18 41 15 42 16 43 19 44 17 46 28 48 25 50 33 52
REMARK H PARENT 43 17 41 19 39 21 37 23 35 25 19 45 17 47 28 49 25 51 33 53
REMARK Flexibility Score: inf
ROOT
ATOM      1  C   UNL     1     112.658 117.563 113.732  1.00  0.00     0.180 C 
ATOM      2  C   UNL     1     112.418 119.002 114.275  1.00  0.00     0.177 C 
ATOM      3  C   UNL     1     113.335 120.034 113.560  1.00  0.00     0.180 C 
ATOM      4  C   UNL     1     113.924 119.440 112.264  1.00  0.00     0.214 C 
ATOM      5  C   UNL     1     112.870 118.546 111.559  1.00  0.00     0.339 C 
ATOM      6  O   UNL     1     112.378 117.464 112.343  1.00  0.00    -0.332 OA
ENDROOT
BRANCH   1   7
ATOM      7  C   UNL     1     111.815 116.514 114.476  1.00  0.00     0.198 C 
BRANCH   7   8
ATOM      8  O   UNL     1     111.749 115.315 113.727  1.00  0.00    -0.347 OA
BRANCH   8   9
ATOM      9  C   UNL     1     110.410 114.876 113.590  1.00  0.00     0.281 C 
ATOM     10  C   UNL     1     107.591 117.068 114.626  1.00  0.00     0.041 C 
ATOM     11  C   UNL     1     108.489 116.324 113.633  1.00  0.00     0.150 C 
ATOM     12  C   UNL     1     107.689 115.263 112.843  1.00  0.00     0.174 C 
ATOM     13  O   UNL     1     109.549 115.726 114.359  1.00  0.00    -0.344 OA
ATOM     14  C   UNL     1     108.599 114.484 111.862  1.00  0.00     0.179 C 
ATOM     15  C   UNL     1     110.086 114.810 112.081  1.00  0.00     0.202 C 
BRANCH  12  16
ATOM     16  O   UNL     1     106.656 115.884 112.114  1.00  0.00    -0.388 OA
ATOM     17  H   UNL     1     106.385 115.265 111.388  1.00  0.00     0.211 HD
ENDBRANCH  12  16
BRANCH  14  18
ATOM     18  O   UNL     1     108.388 113.103 112.005  1.00  0.00    -0.387 OA
ATOM     19  H   UNL     1     109.283 112.668 111.950  1.00  0.00     0.211 HD
ENDBRANCH  14  18
BRANCH  15  20
ATOM     20  O   UNL     1     110.896 113.855 111.443  1.00  0.00    -0.385 OA
ATOM     21  H   UNL     1     111.789 113.888 111.887  1.00  0.00     0.211 HD
ENDBRANCH  15  20
ENDBRANCH   8   9
ENDBRANCH   7   8
ENDBRANCH   1   7
BRANCH   2  22
ATOM     22  O   UNL     1     112.610 119.031 115.669  1.00  0.00    -0.387 OA
ATOM     23  H   UNL     1     113.587 118.939 115.824  1.00  0.00     0.211 HD
ENDBRANCH   2  22
BRANCH   3  24
ATOM     24  O   UNL     1     114.385 120.434 114.409  1.00  0.00    -0.387 OA
ATOM     25  H   UNL     1     113.973 120.629 115.292  1.00  0.00     0.211 HD
ENDBRANCH   3  24
BRANCH   5  26
ATOM     26  O   UNL     1     111.764 119.350 111.147  1.00  0.00    -0.454 OA
BRANCH  26  27
ATOM     27  C   UNL     1     111.221 119.266 109.862  1.00  0.00     0.214 A 
ATOM     28  C   UNL     1     109.853 119.472 109.648  1.00  0.00     0.180 A 
ATOM     29  C   UNL     1     112.050 118.993 108.773  1.00  0.00     0.239 A 
ATOM     30  O   UNL     1     109.350 119.385 108.424  1.00  0.00    -0.452 OA
ATOM     31  C   UNL     1     111.488 118.859 107.477  1.00  0.00     0.111 A 
ATOM     32  O   UNL     1     113.288 118.881 108.976  1.00  0.00    -0.285 OA
ATOM     33  C   UNL     1     110.093 119.101 107.357  1.00  0.00     0.146 A 
ATOM     34  C   UNL     1     112.228 118.534 106.301  1.00  0.00     0.134 A 
ATOM     35  C   UNL     1     109.474 119.069 106.103  1.00  0.00     0.094 A 
ATOM     36  C   UNL     1     111.589 118.563 105.055  1.00  0.00     0.093 A 
ATOM     37  C   UNL     1     110.223 118.826 104.947  1.00  0.00     0.123 A 
BRANCH  28  38
ATOM     38  C   UNL     1     108.968 119.849 110.755  1.00  0.00     0.025 A 
ATOM     39  C   UNL     1     107.784 119.126 110.976  1.00  0.00     0.062 A 
ATOM     40  C   UNL     1     109.288 120.941 111.580  1.00  0.00     0.016 A 
ATOM     41  C   UNL     1     106.921 119.484 112.013  1.00  0.00     0.158 A 
ATOM     42  C   UNL     1     108.415 121.318 112.604  1.00  0.00     0.051 A 
ATOM     43  C   UNL     1     107.233 120.590 112.829  1.00  0.00     0.157 A 
BRANCH  41  44
ATOM     44  O   UNL     1     105.767 118.726 112.222  1.00  0.00    -0.504 OA
ATOM     45  H   UNL     1     104.853 119.159 112.308  1.00  0.00     0.293 HD
ENDBRANCH  41  44
BRANCH  43  46
ATOM     46  O   UNL     1     106.374 120.957 113.862  1.00  0.00    -0.504 OA
ATOM     47  H   UNL     1     106.091 121.918 114.014  1.00  0.00     0.293 HD
ENDBRANCH  43  46
ENDBRANCH  28  38
BRANCH  34  48
ATOM     48  O   UNL     1     113.574 118.154 106.303  1.00  0.00    -0.507 OA
ATOM     49  H   UNL     1     113.907 117.212 106.167  1.00  0.00     0.293 HD
ENDBRANCH  34  48
BRANCH  37  50
ATOM     50  O   UNL     1     109.617 118.839 103.690  1.00  0.00    -0.508 OA
ATOM     51  H   UNL     1     108.656 119.140 103.568  1.00  0.00     0.293 HD
ENDBRANCH  37  50
ENDBRANCH  26  27
ENDBRANCH   5  26
BRANCH   4  52
ATOM     52  O   UNL     1     114.345 120.482 111.419  1.00  0.00    -0.384 OA
ATOM     53  H   UNL     1     114.094 121.337 111.863  1.00  0.00     0.211 HD
ENDBRANCH   4  52
TORSDOF 16
ENDMDL
MODEL 6
REMARK VINA RESULT:    -6.332      2.911      7.032
REMARK INTER + INTRA:         -13.501
REMARK INTER:                 -10.997
REMARK INTRA:                  -2.503
REMARK UNBOUND:                -3.097
REMARK SMILES C[C@H]1O[C@H](OC[C@H]2O[C@@H](Oc3c(-c4ccc(O)c(O)c4)oc4cc(O)cc(O)c4c3=O)[C@@H](O)[C@H](O)[C@@H]2O)[C@@H](O)[C@@H](O)[C@@H]1O
REMARK SMILES IDX 7 1 36 2 34 3 32 4 9 5 8 6 6 7 5 8 4 9 1 10 2 11 42 12 3 13
REMARK SMILES IDX 40 14 38 15 43 16 41 18 39 20 37 22 35 24 10 26 11 27 12 28
REMARK SMILES IDX 30 29 21 30 29 31 31 32 22 33 27 34 23 35 26 36 24 37 13 38
REMARK SMILES IDX 20 39 14 40 18 41 15 42 16 43 19 44 17 46 28 48 25 50 33 52
REMARK H PARENT 43 17 41 19 39 21 37 23 35 25 19 45 17 47 28 49 25 51 33 53
REMARK Flexibility Score: inf
ROOT
ATOM      1  C   UNL     1     110.082 113.237 112.389  1.00  0.00     0.180 C 
ATOM      2  C   UNL     1     110.055 113.390 113.938  1.00  0.00     0.177 C 
ATOM      3  C   UNL     1     110.027 114.887 114.355  1.00  0.00     0.180 C 
ATOM      4  C   UNL     1     109.635 115.783 113.163  1.00  0.00     0.214 C 
ATOM      5  C   UNL     1     108.555 115.079 112.299  1.00  0.00     0.339 C 
ATOM      6  O   UNL     1     108.935 113.810 111.777  1.00  0.00    -0.332 OA
ENDROOT
BRANCH   1   7
ATOM      7  C   UNL     1     110.184 111.766 111.953  1.00  0.00     0.198 C 
BRANCH   7   8
ATOM      8  O   UNL     1     109.539 110.929 112.895  1.00  0.00    -0.347 OA
BRANCH   8   9
ATOM      9  C   UNL     1     109.506 109.589 112.443  1.00  0.00     0.281 C 
ATOM     10  C   UNL     1     111.343 106.929 114.282  1.00  0.00     0.041 C 
ATOM     11  C   UNL     1     110.106 107.681 113.781  1.00  0.00     0.150 C 
ATOM     12  C   UNL     1     109.238 106.785 112.867  1.00  0.00     0.174 C 
ATOM     13  O   UNL     1     110.542 108.840 113.092  1.00  0.00    -0.344 OA
ATOM     14  C   UNL     1     108.005 107.550 112.331  1.00  0.00     0.179 C 
ATOM     15  C   UNL     1     108.075 109.050 112.662  1.00  0.00     0.202 C 
BRANCH  12  16
ATOM     16  O   UNL     1     108.800 105.652 113.580  1.00  0.00    -0.388 OA
ATOM     17  H   UNL     1     108.524 105.953 114.484  1.00  0.00     0.211 HD
ENDBRANCH  12  16
BRANCH  14  18
ATOM     18  O   UNL     1     107.897 107.374 110.941  1.00  0.00    -0.387 OA
ATOM     19  H   UNL     1     106.924 107.378 110.725  1.00  0.00     0.211 HD
ENDBRANCH  14  18
BRANCH  15  20
ATOM     20  O   UNL     1     107.152 109.767 111.882  1.00  0.00    -0.385 OA
ATOM     21  H   UNL     1     106.255 109.637 112.300  1.00  0.00     0.211 HD
ENDBRANCH  15  20
ENDBRANCH   8   9
ENDBRANCH   7   8
ENDBRANCH   1   7
BRANCH   2  22
ATOM     22  O   UNL     1     111.155 112.724 114.509  1.00  0.00    -0.387 OA
ATOM     23  H   UNL     1     110.916 111.760 114.548  1.00  0.00     0.211 HD
ENDBRANCH   2  22
BRANCH   3  24
ATOM     24  O   UNL     1     111.286 115.287 114.844  1.00  0.00    -0.387 OA
ATOM     25  H   UNL     1     111.372 114.896 115.753  1.00  0.00     0.211 HD
ENDBRANCH   3  24
BRANCH   5  26
ATOM     26  O   UNL     1     107.364 114.916 113.068  1.00  0.00    -0.454 OA
BRANCH  26  27
ATOM     27  C   UNL     1     106.115 114.716 112.473  1.00  0.00     0.214 A 
ATOM     28  C   UNL     1     105.301 115.804 112.132  1.00  0.00     0.180 A 
ATOM     29  C   UNL     1     105.675 113.421 112.197  1.00  0.00     0.239 A 
ATOM     30  O   UNL     1     104.117 115.600 111.572  1.00  0.00    -0.452 OA
ATOM     31  C   UNL     1     104.385 113.219 111.640  1.00  0.00     0.111 A 
ATOM     32  O   UNL     1     106.450 112.459 112.446  1.00  0.00    -0.285 OA
ATOM     33  C   UNL     1     103.641 114.384 111.313  1.00  0.00     0.146 A 
ATOM     34  C   UNL     1     103.812 111.942 111.361  1.00  0.00     0.134 A 
ATOM     35  C   UNL     1     102.395 114.276 110.686  1.00  0.00     0.094 A 
ATOM     36  C   UNL     1     102.588 111.869 110.684  1.00  0.00     0.093 A 
ATOM     37  C   UNL     1     101.877 113.021 110.347  1.00  0.00     0.123 A 
BRANCH  28  38
ATOM     38  C   UNL     1     105.769 117.180 112.325  1.00  0.00     0.025 A 
ATOM     39  C   UNL     1     106.354 117.873 111.252  1.00  0.00     0.062 A 
ATOM     40  C   UNL     1     105.655 117.800 113.582  1.00  0.00     0.016 A 
ATOM     41  C   UNL     1     106.822 119.177 111.425  1.00  0.00     0.158 A 
ATOM     42  C   UNL     1     106.144 119.096 113.765  1.00  0.00     0.051 A 
ATOM     43  C   UNL     1     106.724 119.792 112.689  1.00  0.00     0.157 A 
BRANCH  41  44
ATOM     44  O   UNL     1     107.371 119.846 110.329  1.00  0.00    -0.504 OA
ATOM     45  H   UNL     1     108.230 120.383 110.408  1.00  0.00     0.293 HD
ENDBRANCH  41  44
BRANCH  43  46
ATOM     46  O   UNL     1     107.194 121.090 112.871  1.00  0.00    -0.504 OA
ATOM     47  H   UNL     1     108.159 121.287 113.109  1.00  0.00     0.293 HD
ENDBRANCH  43  46
ENDBRANCH  28  38
BRANCH  34  48
ATOM     48  O   UNL     1     104.386 110.726 111.746  1.00  0.00    -0.507 OA
ATOM     49  H   UNL     1     104.987 110.599 112.545  1.00  0.00     0.293 HD
ENDBRANCH  34  48
BRANCH  37  50
ATOM     50  O   UNL     1     100.655 112.911 109.681  1.00  0.00    -0.508 OA
ATOM     51  H   UNL     1      99.915 112.310 110.027  1.00  0.00     0.293 HD
ENDBRANCH  37  50
ENDBRANCH  26  27
ENDBRANCH   5  26
BRANCH   4  52
ATOM     52  O   UNL     1     109.169 117.021 113.638  1.00  0.00    -0.384 OA
ATOM     53  H   UNL     1     108.174 116.972 113.654  1.00  0.00     0.211 HD
ENDBRANCH   4  52
TORSDOF 16
ENDMDL
MODEL 7
REMARK VINA RESULT:    -6.321      6.825     11.397
REMARK INTER + INTRA:         -13.484
REMARK INTER:                 -11.513
REMARK INTRA:                  -1.971
REMARK UNBOUND:                -3.097
REMARK SMILES C[C@H]1O[C@H](OC[C@H]2O[C@@H](Oc3c(-c4ccc(O)c(O)c4)oc4cc(O)cc(O)c4c3=O)[C@@H](O)[C@H](O)[C@@H]2O)[C@@H](O)[C@@H](O)[C@@H]1O
REMARK SMILES IDX 7 1 36 2 34 3 32 4 9 5 8 6 6 7 5 8 4 9 1 10 2 11 42 12 3 13
REMARK SMILES IDX 40 14 38 15 43 16 41 18 39 20 37 22 35 24 10 26 11 27 12 28
REMARK SMILES IDX 30 29 21 30 29 31 31 32 22 33 27 34 23 35 26 36 24 37 13 38
REMARK SMILES IDX 20 39 14 40 18 41 15 42 16 43 19 44 17 46 28 48 25 50 33 52
REMARK H PARENT 43 17 41 19 39 21 37 23 35 25 19 45 17 47 28 49 25 51 33 53
REMARK Flexibility Score: inf
ROOT
ATOM      1  C   UNL     1     113.086 117.766 112.965  1.00  0.00     0.180 C 
ATOM      2  C   UNL     1     112.632 119.061 113.700  1.00  0.00     0.177 C 
ATOM      3  C   UNL     1     113.579 120.252 113.380  1.00  0.00     0.180 C 
ATOM      4  C   UNL     1     114.447 119.946 112.142  1.00  0.00     0.214 C 
ATOM      5  C   UNL     1     113.619 119.158 111.092  1.00  0.00     0.339 C 
ATOM      6  O   UNL     1     113.080 117.924 111.554  1.00  0.00    -0.332 OA
ENDROOT
BRANCH   1   7
ATOM      7  C   UNL     1     112.208 116.557 113.326  1.00  0.00     0.198 C 
BRANCH   7   8
ATOM      8  O   UNL     1     110.845 116.847 113.076  1.00  0.00    -0.347 OA
BRANCH   8   9
ATOM      9  C   UNL     1     110.296 115.936 112.143  1.00  0.00     0.281 C 
ATOM     10  C   UNL     1     111.725 115.646 108.722  1.00  0.00     0.041 C 
ATOM     11  C   UNL     1     111.414 115.184 110.150  1.00  0.00     0.150 C 
ATOM     12  C   UNL     1     110.528 113.917 110.147  1.00  0.00     0.174 C 
ATOM     13  O   UNL     1     110.776 116.251 110.829  1.00  0.00    -0.344 OA
ATOM     14  C   UNL     1     110.182 113.467 111.587  1.00  0.00     0.179 C 
ATOM     15  C   UNL     1     110.620 114.506 112.632  1.00  0.00     0.202 C 
BRANCH  12  16
ATOM     16  O   UNL     1     111.193 112.866 109.485  1.00  0.00    -0.388 OA
ATOM     17  H   UNL     1     110.544 112.125 109.371  1.00  0.00     0.211 HD
ENDBRANCH  12  16
BRANCH  14  18
ATOM     18  O   UNL     1     108.801 113.231 111.698  1.00  0.00    -0.387 OA
ATOM     19  H   UNL     1     108.678 112.242 111.697  1.00  0.00     0.211 HD
ENDBRANCH  14  18
BRANCH  15  20
ATOM     20  O   UNL     1     109.996 114.253 113.865  1.00  0.00    -0.385 OA
ATOM     21  H   UNL     1     109.352 114.998 114.024  1.00  0.00     0.211 HD
ENDBRANCH  15  20
ENDBRANCH   8   9
ENDBRANCH   7   8
ENDBRANCH   1   7
BRANCH   2  22
ATOM     22  O   UNL     1     112.558 118.831 115.086  1.00  0.00    -0.387 OA
ATOM     23  H   UNL     1     112.503 119.722 115.522  1.00  0.00     0.211 HD
ENDBRANCH   2  22
BRANCH   3  24
ATOM     24  O   UNL     1     114.415 120.528 114.478  1.00  0.00    -0.387 OA
ATOM     25  H   UNL     1     114.145 121.421 114.819  1.00  0.00     0.211 HD
ENDBRANCH   3  24
BRANCH   5  26
ATOM     26  O   UNL     1     112.548 119.975 110.620  1.00  0.00    -0.454 OA
BRANCH  26  27
ATOM     27  C   UNL     1     111.880 119.707 109.422  1.00  0.00     0.214 A 
ATOM     28  C   UNL     1     110.482 119.643 109.381  1.00  0.00     0.180 A 
ATOM     29  C   UNL     1     112.607 119.517 108.246  1.00  0.00     0.239 A 
ATOM     30  O   UNL     1     109.860 119.383 108.239  1.00  0.00    -0.452 OA
ATOM     31  C   UNL     1     111.928 119.195 107.042  1.00  0.00     0.111 A 
ATOM     32  O   UNL     1     113.859 119.648 108.289  1.00  0.00    -0.285 OA
ATOM     33  C   UNL     1     110.509 119.169 107.097  1.00  0.00     0.146 A 
ATOM     34  C   UNL     1     112.568 118.932 105.795  1.00  0.00     0.134 A 
ATOM     35  C   UNL     1     109.759 118.939 105.938  1.00  0.00     0.094 A 
ATOM     36  C   UNL     1     111.790 118.759 104.643  1.00  0.00     0.093 A 
ATOM     37  C   UNL     1     110.396 118.759 104.705  1.00  0.00     0.123 A 
BRANCH  28  38
ATOM     38  C   UNL     1     109.682 119.925 110.577  1.00  0.00     0.025 A 
ATOM     39  C   UNL     1     108.631 119.063 110.930  1.00  0.00     0.062 A 
ATOM     40  C   UNL     1     109.948 121.063 111.357  1.00  0.00     0.016 A 
ATOM     41  C   UNL     1     107.847 119.328 112.055  1.00  0.00     0.158 A 
ATOM     42  C   UNL     1     109.151 121.346 112.470  1.00  0.00     0.051 A 
ATOM     43  C   UNL     1     108.102 120.479 112.827  1.00  0.00     0.157 A 
BRANCH  41  44
ATOM     44  O   UNL     1     106.829 118.434 112.394  1.00  0.00    -0.504 OA
ATOM     45  H   UNL     1     106.180 118.627 113.150  1.00  0.00     0.293 HD
ENDBRANCH  41  44
BRANCH  43  46
ATOM     46  O   UNL     1     107.322 120.754 113.947  1.00  0.00    -0.504 OA
ATOM     47  H   UNL     1     107.539 120.378 114.863  1.00  0.00     0.293 HD
ENDBRANCH  43  46
ENDBRANCH  28  38
BRANCH  34  48
ATOM     48  O   UNL     1     113.953 118.806 105.636  1.00  0.00    -0.507 OA
ATOM     49  H   UNL     1     114.585 118.463 106.342  1.00  0.00     0.293 HD
ENDBRANCH  34  48
BRANCH  37  50
ATOM     50  O   UNL     1     109.651 118.576 103.539  1.00  0.00    -0.508 OA
ATOM     51  H   UNL     1     109.306 119.364 103.001  1.00  0.00     0.293 HD
ENDBRANCH  37  50
ENDBRANCH  26  27
ENDBRANCH   5  26
BRANCH   4  52
ATOM     52  O   UNL     1     114.931 121.149 111.599  1.00  0.00    -0.384 OA
ATOM     53  H   UNL     1     114.169 121.789 111.580  1.00  0.00     0.211 HD
ENDBRANCH   4  52
TORSDOF 16
ENDMDL
MODEL 8
REMARK VINA RESULT:    -6.309      4.478      7.810
REMARK INTER + INTRA:         -13.463
REMARK INTER:                 -11.896
REMARK INTRA:                  -1.568
REMARK UNBOUND:                -3.097
REMARK SMILES C[C@H]1O[C@H](OC[C@H]2O[C@@H](Oc3c(-c4ccc(O)c(O)c4)oc4cc(O)cc(O)c4c3=O)[C@@H](O)[C@H](O)[C@@H]2O)[C@@H](O)[C@@H](O)[C@@H]1O
REMARK SMILES IDX 7 1 36 2 34 3 32 4 9 5 8 6 6 7 5 8 4 9 1 10 2 11 42 12 3 13
REMARK SMILES IDX 40 14 38 15 43 16 41 18 39 20 37 22 35 24 10 26 11 27 12 28
REMARK SMILES IDX 30 29 21 30 29 31 31 32 22 33 27 34 23 35 26 36 24 37 13 38
REMARK SMILES IDX 20 39 14 40 18 41 15 42 16 43 19 44 17 46 28 48 25 50 33 52
REMARK H PARENT 43 17 41 19 39 21 37 23 35 25 19 45 17 47 28 49 25 51 33 53
REMARK Flexibility Score: inf
ROOT
ATOM      1  C   UNL     1     110.187 114.842 112.156  1.00  0.00     0.180 C 
ATOM      2  C   UNL     1     110.124 113.991 113.458  1.00  0.00     0.177 C 
ATOM      3  C   UNL     1     110.290 114.880 114.722  1.00  0.00     0.180 C 
ATOM      4  C   UNL     1     110.072 116.368 114.379  1.00  0.00     0.214 C 
ATOM      5  C   UNL     1     108.937 116.513 113.330  1.00  0.00     0.339 C 
ATOM      6  O   UNL     1     109.157 115.818 112.107  1.00  0.00    -0.332 OA
ENDROOT
BRANCH   1   7
ATOM      7  C   UNL     1     110.100 113.974 110.890  1.00  0.00     0.198 C 
BRANCH   7   8
ATOM      8  O   UNL     1     111.384 113.806 110.319  1.00  0.00    -0.347 OA
BRANCH   8   9
ATOM      9  C   UNL     1     111.526 114.594 109.153  1.00  0.00     0.281 C 
ATOM     10  C   UNL     1     112.268 118.229 109.408  1.00  0.00     0.041 C 
ATOM     11  C   UNL     1     112.569 116.761 109.088  1.00  0.00     0.150 C 
ATOM     12  C   UNL     1     112.853 116.564 107.581  1.00  0.00     0.174 C 
ATOM     13  O   UNL     1     111.460 115.982 109.504  1.00  0.00    -0.344 OA
ATOM     14  C   UNL     1     113.124 115.077 107.247  1.00  0.00     0.179 C 
ATOM     15  C   UNL     1     112.828 114.159 108.444  1.00  0.00     0.202 C 
BRANCH  12  16
ATOM     16  O   UNL     1     113.971 117.331 107.198  1.00  0.00    -0.388 OA
ATOM     17  H   UNL     1     114.785 116.828 107.459  1.00  0.00     0.211 HD
ENDBRANCH  12  16
BRANCH  14  18
ATOM     18  O   UNL     1     112.349 114.685 106.142  1.00  0.00    -0.387 OA
ATOM     19  H   UNL     1     112.579 113.734 105.954  1.00  0.00     0.211 HD
ENDBRANCH  14  18
BRANCH  15  20
ATOM     20  O   UNL     1     112.740 112.821 108.025  1.00  0.00    -0.385 OA
ATOM     21  H   UNL     1     111.919 112.439 108.444  1.00  0.00     0.211 HD
ENDBRANCH  15  20
ENDBRANCH   8   9
ENDBRANCH   7   8
ENDBRANCH   1   7
BRANCH   2  22
ATOM     22  O   UNL     1     111.097 112.975 113.420  1.00  0.00    -0.387 OA
ATOM     23  H   UNL     1     111.906 113.370 112.998  1.00  0.00     0.211 HD
ENDBRANCH   2  22
BRANCH   3  24
ATOM     24  O   UNL     1     111.573 114.714 115.278  1.00  0.00    -0.387 OA
ATOM     25  H   UNL     1     111.991 113.953 114.796  1.00  0.00     0.211 HD
ENDBRANCH   3  24
BRANCH   5  26
ATOM     26  O   UNL     1     107.707 116.063 113.895  1.00  0.00    -0.454 OA
BRANCH  26  27
ATOM     27  C   UNL     1     106.640 115.625 113.105  1.00  0.00     0.214 A 
ATOM     28  C   UNL     1     105.891 116.532 112.346  1.00  0.00     0.180 A 
ATOM     29  C   UNL     1     106.324 114.267 113.054  1.00  0.00     0.239 A 
ATOM     30  O   UNL     1     104.879 116.104 111.605  1.00  0.00    -0.452 OA
ATOM     31  C   UNL     1     105.210 113.831 112.291  1.00  0.00     0.111 A 
ATOM     32  O   UNL     1     107.054 113.458 113.688  1.00  0.00    -0.285 OA
ATOM     33  C   UNL     1     104.521 114.823 111.543  1.00  0.00     0.146 A 
ATOM     34  C   UNL     1     104.764 112.479 112.204  1.00  0.00     0.134 A 
ATOM     35  C   UNL     1     103.461 114.467 110.701  1.00  0.00     0.094 A 
ATOM     36  C   UNL     1     103.736 112.147 111.312  1.00  0.00     0.093 A 
ATOM     37  C   UNL     1     103.083 113.128 110.564  1.00  0.00     0.123 A 
BRANCH  28  38
ATOM     38  C   UNL     1     106.250 117.953 112.306  1.00  0.00     0.025 A 
ATOM     39  C   UNL     1     105.994 118.767 113.422  1.00  0.00     0.062 A 
ATOM     40  C   UNL     1     106.827 118.508 111.151  1.00  0.00     0.016 A 
ATOM     41  C   UNL     1     106.312 120.126 113.393  1.00  0.00     0.158 A 
ATOM     42  C   UNL     1     107.124 119.873 111.108  1.00  0.00     0.051 A 
ATOM     43  C   UNL     1     106.874 120.687 112.228  1.00  0.00     0.157 A 
BRANCH  41  44
ATOM     44  O   UNL     1     106.070 120.900 114.530  1.00  0.00    -0.504 OA
ATOM     45  H   UNL     1     105.816 121.881 114.464  1.00  0.00     0.293 HD
ENDBRANCH  41  44
BRANCH  43  46
ATOM     46  O   UNL     1     107.188 122.043 112.189  1.00  0.00    -0.504 OA
ATOM     47  H   UNL     1     108.097 122.379 111.893  1.00  0.00     0.293 HD
ENDBRANCH  43  46
ENDBRANCH  28  38
BRANCH  34  48
ATOM     48  O   UNL     1     105.275 111.434 112.982  1.00  0.00    -0.507 OA
ATOM     49  H   UNL     1     105.462 111.491 113.971  1.00  0.00     0.293 HD
ENDBRANCH  34  48
BRANCH  37  50
ATOM     50  O   UNL     1     102.057 112.763 109.691  1.00  0.00    -0.508 OA
ATOM     51  H   UNL     1     101.939 113.220 108.792  1.00  0.00     0.293 HD
ENDBRANCH  37  50
ENDBRANCH  26  27
ENDBRANCH   5  26
BRANCH   4  52
ATOM     52  O   UNL     1     109.765 117.081 115.551  1.00  0.00    -0.384 OA
ATOM     53  H   UNL     1     110.611 117.499 115.868  1.00  0.00     0.211 HD
ENDBRANCH   4  52
TORSDOF 16
ENDMDL
MODEL 9
REMARK VINA RESULT:    -6.307      2.453      5.433
REMARK INTER + INTRA:         -13.460
REMARK INTER:                 -11.267
REMARK INTRA:                  -2.193
REMARK UNBOUND:                -3.097
REMARK SMILES C[C@H]1O[C@H](OC[C@H]2O[C@@H](Oc3c(-c4ccc(O)c(O)c4)oc4cc(O)cc(O)c4c3=O)[C@@H](O)[C@H](O)[C@@H]2O)[C@@H](O)[C@@H](O)[C@@H]1O
REMARK SMILES IDX 7 1 36 2 34 3 32 4 9 5 8 6 6 7 5 8 4 9 1 10 2 11 42 12 3 13
REMARK SMILES IDX 40 14 38 15 43 16 41 18 39 20 37 22 35 24 10 26 11 27 12 28
REMARK SMILES IDX 30 29 21 30 29 31 31 32 22 33 27 34 23 35 26 36 24 37 13 38
REMARK SMILES IDX 20 39 14 40 18 41 15 42 16 43 19 44 17 46 28 48 25 50 33 52
REMARK H PARENT 43 17 41 19 39 21 37 23 35 25 19 45 17 47 28 49 25 51 33 53
REMARK Flexibility Score: inf
ROOT
ATOM      1  C   UNL     1     105.896 109.015 114.913  1.00  0.00     0.180 C 
ATOM      2  C   UNL     1     105.548 107.770 114.044  1.00  0.00     0.177 C 
ATOM      3  C   UNL     1     104.014 107.524 114.002  1.00  0.00     0.180 C 
ATOM      4  C   UNL     1     103.243 108.772 114.479  1.00  0.00     0.214 C 
ATOM      5  C   UNL     1     103.953 110.060 113.981  1.00  0.00     0.339 C 
ATOM      6  O   UNL     1     105.306 110.201 114.403  1.00  0.00    -0.332 OA
ENDROOT
BRANCH   1   7
ATOM      7  C   UNL     1     107.413 109.234 115.030  1.00  0.00     0.198 C 
BRANCH   7   8
ATOM      8  O   UNL     1     107.832 110.255 114.143  1.00  0.00    -0.347 OA
BRANCH   8   9
ATOM      9  C   UNL     1     108.909 109.815 113.337  1.00  0.00     0.281 C 
ATOM     10  C   UNL     1     111.678 107.819 114.812  1.00  0.00     0.041 C 
ATOM     11  C   UNL     1     110.439 108.061 113.944  1.00  0.00     0.150 C 
ATOM     12  C   UNL     1     110.754 107.837 112.446  1.00  0.00     0.174 C 
ATOM     13  O   UNL     1     109.987 109.383 114.177  1.00  0.00    -0.344 OA
ATOM     14  C   UNL     1     109.514 108.113 111.561  1.00  0.00     0.179 C 
ATOM     15  C   UNL     1     108.366 108.743 112.366  1.00  0.00     0.202 C 
BRANCH  12  16
ATOM     16  O   UNL     1     111.179 106.510 112.238  1.00  0.00    -0.388 OA
ATOM     17  H   UNL     1     111.647 106.478 111.363  1.00  0.00     0.211 HD
ENDBRANCH  12  16
BRANCH  14  18
ATOM     18  O   UNL     1     109.866 108.955 110.493  1.00  0.00    -0.387 OA
ATOM     19  H   UNL     1     109.337 108.653 109.704  1.00  0.00     0.211 HD
ENDBRANCH  14  18
BRANCH  15  20
ATOM     20  O   UNL     1     107.409 109.299 111.501  1.00  0.00    -0.385 OA
ATOM     21  H   UNL     1     106.879 108.540 111.128  1.00  0.00     0.211 HD
ENDBRANCH  15  20
ENDBRANCH   8   9
ENDBRANCH   7   8
ENDBRANCH   1   7
BRANCH   2  22
ATOM     22  O   UNL     1     106.231 106.638 114.525  1.00  0.00    -0.387 OA
ATOM     23  H   UNL     1     107.165 106.924 114.707  1.00  0.00     0.211 HD
ENDBRANCH   2  22
BRANCH   3  24
ATOM     24  O   UNL     1     103.667 106.425 114.811  1.00  0.00    -0.387 OA
ATOM     25  H   UNL     1     104.215 106.500 115.636  1.00  0.00     0.211 HD
ENDBRANCH   3  24
BRANCH   5  26
ATOM     26  O   UNL     1     103.914 110.104 112.556  1.00  0.00    -0.454 OA
BRANCH  26  27
ATOM     27  C   UNL     1     103.086 110.990 111.861  1.00  0.00     0.214 A 
ATOM     28  C   UNL     1     103.355 112.364 111.853  1.00  0.00     0.180 A 
ATOM     29  C   UNL     1     101.987 110.504 111.151  1.00  0.00     0.239 A 
ATOM     30  O   UNL     1     102.558 113.194 111.193  1.00  0.00    -0.452 OA
ATOM     31  C   UNL     1     101.120 111.411 110.488  1.00  0.00     0.111 A 
ATOM     32  O   UNL     1     101.803 109.258 111.111  1.00  0.00    -0.285 OA
ATOM     33  C   UNL     1     101.484 112.784 110.522  1.00  0.00     0.146 A 
ATOM     34  C   UNL     1      99.943 111.035 109.774  1.00  0.00     0.134 A 
ATOM     35  C   UNL     1     100.728 113.735 109.828  1.00  0.00     0.094 A 
ATOM     36  C   UNL     1      99.240 112.002 109.046  1.00  0.00     0.093 A 
ATOM     37  C   UNL     1      99.621 113.344 109.068  1.00  0.00     0.123 A 
BRANCH  28  38
ATOM     38  C   UNL     1     104.549 112.899 112.513  1.00  0.00     0.025 A 
ATOM     39  C   UNL     1     105.814 112.685 111.941  1.00  0.00     0.062 A 
ATOM     40  C   UNL     1     104.437 113.603 113.724  1.00  0.00     0.016 A 
ATOM     41  C   UNL     1     106.964 113.171 112.567  1.00  0.00     0.158 A 
ATOM     42  C   UNL     1     105.587 114.070 114.367  1.00  0.00     0.051 A 
ATOM     43  C   UNL     1     106.853 113.862 113.791  1.00  0.00     0.157 A 
BRANCH  41  44
ATOM     44  O   UNL     1     108.202 112.966 111.956  1.00  0.00    -0.504 OA
ATOM     45  H   UNL     1     108.725 113.730 111.539  1.00  0.00     0.293 HD
ENDBRANCH  41  44
BRANCH  43  46
ATOM     46  O   UNL     1     107.995 114.344 114.424  1.00  0.00    -0.504 OA
ATOM     47  H   UNL     1     108.297 114.002 115.329  1.00  0.00     0.293 HD
ENDBRANCH  43  46
ENDBRANCH  28  38
BRANCH  34  48
ATOM     48  O   UNL     1      99.411 109.741 109.769  1.00  0.00    -0.507 OA
ATOM     49  H   UNL     1      99.663 109.011 110.416  1.00  0.00     0.293 HD
ENDBRANCH  34  48
BRANCH  37  50
ATOM     50  O   UNL     1      98.892 114.284 108.336  1.00  0.00    -0.508 OA
ATOM     51  H   UNL     1      99.353 114.973 107.752  1.00  0.00     0.293 HD
ENDBRANCH  37  50
ENDBRANCH  26  27
ENDBRANCH   5  26
BRANCH   4  52
ATOM     52  O   UNL     1     101.920 108.716 114.009  1.00  0.00    -0.384 OA
ATOM     53  H   UNL     1     101.875 107.970 113.351  1.00  0.00     0.211 HD
ENDBRANCH   4  52
TORSDOF 16
ENDMDL
