MODEL 1
REMARK VINA RESULT:    -3.148      0.000      0.000
REMARK INTER + INTRA:          -3.810
REMARK INTER:                  -3.700
REMARK INTRA:                  -0.110
REMARK UNBOUND:                -0.110
REMARK SMILES O=C([O-])CCC(=O)[O-]
REMARK SMILES IDX 4 1 2 2 1 3 3 4 5 5 6 6 7 7 8 8
REMARK H PARENT
REMARK Flexibility Score: inf
ROOT
ATOM      1  C   UNL     1       9.552  21.670  28.229  1.00  0.00     0.059 C 
ENDROOT
BRANCH   1   2
ATOM      2  C   UNL     1      10.018  21.234  26.873  1.00  0.00     0.042 C 
ATOM      3  O   UNL     1      11.023  21.778  26.344  1.00  0.00    -0.550 OA
ATOM      4  O   UNL     1       9.370  20.196  26.214  1.00  0.00    -0.550 OA
ENDBRANCH   1   2
BRANCH   1   5
ATOM      5  C   UNL     1       8.707  22.946  28.152  1.00  0.00     0.059 C 
BRANCH   5   6
ATOM      6  C   UNL     1       7.265  22.671  28.448  1.00  0.00     0.042 C 
ATOM      7  O   UNL     1       6.677  23.294  29.372  1.00  0.00    -0.550 OA
ATOM      8  O   UNL     1       6.580  21.699  27.731  1.00  0.00    -0.550 OA
ENDBRANCH   5   6
ENDBRANCH   1   5
TORSDOF 3
ENDMDL
MODEL 2
REMARK VINA RESULT:    -3.131      0.177      3.978
REMARK INTER + INTRA:          -3.790
REMARK INTER:                  -3.676
REMARK INTRA:                  -0.114
REMARK UNBOUND:                -0.110
REMARK SMILES O=C([O-])CCC(=O)[O-]
REMARK SMILES IDX 4 1 2 2 1 3 3 4 5 5 6 6 7 7 8 8
REMARK H PARENT
REMARK Flexibility Score: inf
ROOT
ATOM      1  C   UNL     1       8.539  22.965  28.169  1.00  0.00     0.059 C 
ENDROOT
BRANCH   1   2
ATOM      2  C   UNL     1       7.103  22.645  28.451  1.00  0.00     0.042 C 
ATOM      3  O   UNL     1       6.495  21.792  27.752  1.00  0.00    -0.550 OA
ATOM      4  O   UNL     1       6.448  23.259  29.512  1.00  0.00    -0.550 OA
ENDBRANCH   1   2
BRANCH   1   5
ATOM      5  C   UNL     1       9.432  21.728  28.316  1.00  0.00     0.059 C 
BRANCH   5   6
ATOM      6  C   UNL     1       9.905  21.228  26.985  1.00  0.00     0.042 C 
ATOM      7  O   UNL     1       9.311  20.272  26.420  1.00  0.00    -0.550 OA
ATOM      8  O   UNL     1      11.026  21.791  26.389  1.00  0.00    -0.550 OA
ENDBRANCH   5   6
ENDBRANCH   1   5
TORSDOF 3
ENDMDL
MODEL 3
REMARK VINA RESULT:    -2.877     12.991     14.253
REMARK INTER + INTRA:          -3.491
REMARK INTER:                  -3.391
REMARK INTRA:                  -0.100
REMARK UNBOUND:                -0.110
REMARK SMILES O=C([O-])CCC(=O)[O-]
REMARK SMILES IDX 4 1 2 2 1 3 3 4 5 5 6 6 7 7 8 8
REMARK H PARENT
REMARK Flexibility Score: inf
ROOT
ATOM      1  C   UNL     1      -1.306  12.240  30.028  1.00  0.00     0.059 C 
ENDROOT
BRANCH   1   2
ATOM      2  C   UNL     1      -1.635  11.336  31.177  1.00  0.00     0.042 C 
ATOM      3  O   UNL     1      -0.739  10.621  31.698  1.00  0.00    -0.550 OA
ATOM      4  O   UNL     1      -2.923  11.315  31.700  1.00  0.00    -0.550 OA
ENDBRANCH   1   2
BRANCH   1   5
ATOM      5  C   UNL     1       0.117  12.797  30.138  1.00  0.00     0.059 C 
BRANCH   5   6
ATOM      6  C   UNL     1       1.011  12.243  29.072  1.00  0.00     0.042 C 
ATOM      7  O   UNL     1       0.538  11.498  28.172  1.00  0.00    -0.550 OA
ATOM      8  O   UNL     1       2.373  12.515  29.094  1.00  0.00    -0.550 OA
ENDBRANCH   5   6
ENDBRANCH   1   5
TORSDOF 3
ENDMDL
MODEL 4
REMARK VINA RESULT:    -2.856     13.426     14.333
REMARK INTER + INTRA:          -3.467
REMARK INTER:                  -3.353
REMARK INTRA:                  -0.113
REMARK UNBOUND:                -0.110
REMARK SMILES O=C([O-])CCC(=O)[O-]
REMARK SMILES IDX 4 1 2 2 1 3 3 4 5 5 6 6 7 7 8 8
REMARK H PARENT
REMARK Flexibility Score: inf
ROOT
ATOM      1  C   UNL     1      -0.850  12.575  29.863  1.00  0.00     0.059 C 
ENDROOT
BRANCH   1   2
ATOM      2  C   UNL     1       0.404  11.911  29.381  1.00  0.00     0.042 C 
ATOM      3  O   UNL     1       1.364  11.721  30.174  1.00  0.00    -0.550 OA
ATOM      4  O   UNL     1       0.496  11.464  28.069  1.00  0.00    -0.550 OA
ENDBRANCH   1   2
BRANCH   1   5
ATOM      5  C   UNL     1      -0.993  12.478  31.385  1.00  0.00     0.059 C 
BRANCH   5   6
ATOM      6  C   UNL     1      -1.721  11.233  31.793  1.00  0.00     0.042 C 
ATOM      7  O   UNL     1      -1.080  10.180  32.051  1.00  0.00    -0.550 OA
ATOM      8  O   UNL     1      -3.108  11.226  31.848  1.00  0.00    -0.550 OA
ENDBRANCH   5   6
ENDBRANCH   1   5
TORSDOF 3
ENDMDL
MODEL 5
REMARK VINA RESULT:    -2.848     12.549     13.858
REMARK INTER + INTRA:          -3.457
REMARK INTER:                  -3.338
REMARK INTRA:                  -0.119
REMARK UNBOUND:                -0.110
REMARK SMILES O=C([O-])CCC(=O)[O-]
REMARK SMILES IDX 4 1 2 2 1 3 3 4 5 5 6 6 7 7 8 8
REMARK H PARENT
REMARK Flexibility Score: inf
ROOT
ATOM      1  C   UNL     1      -1.185  12.814  29.883  1.00  0.00     0.059 C 
ENDROOT
BRANCH   1   2
ATOM      2  C   UNL     1      -1.509  12.045  31.127  1.00  0.00     0.042 C 
ATOM      3  O   UNL     1      -2.361  12.488  31.941  1.00  0.00    -0.550 OA
ATOM      4  O   UNL     1      -0.902  10.818  31.365  1.00  0.00    -0.550 OA
ENDBRANCH   1   2
BRANCH   1   5
ATOM      5  C   UNL     1       0.279  13.266  29.863  1.00  0.00     0.059 C 
BRANCH   5   6
ATOM      6  C   UNL     1       1.098  12.441  28.918  1.00  0.00     0.042 C 
ATOM      7  O   UNL     1       0.553  11.534  28.232  1.00  0.00    -0.550 OA
ATOM      8  O   UNL     1       2.468  12.645  28.823  1.00  0.00    -0.550 OA
ENDBRANCH   5   6
ENDBRANCH   1   5
TORSDOF 3
ENDMDL
MODEL 6
REMARK VINA RESULT:    -2.785     12.936     13.757
REMARK INTER + INTRA:          -3.383
REMARK INTER:                  -3.190
REMARK INTRA:                  -0.193
REMARK UNBOUND:                -0.110
REMARK SMILES O=C([O-])CCC(=O)[O-]
REMARK SMILES IDX 4 1 2 2 1 3 3 4 5 5 6 6 7 7 8 8
REMARK H PARENT
REMARK Flexibility Score: inf
ROOT
ATOM      1  C   UNL     1       0.850  12.859  31.558  1.00  0.00     0.059 C 
ENDROOT
BRANCH   1   2
ATOM      2  C   UNL     1       1.142  11.487  31.030  1.00  0.00     0.042 C 
ATOM      3  O   UNL     1       1.147  10.497  31.808  1.00  0.00    -0.550 OA
ATOM      4  O   UNL     1       1.367  11.296  29.672  1.00  0.00    -0.550 OA
ENDBRANCH   1   2
BRANCH   1   5
ATOM      5  C   UNL     1      -0.576  12.960  32.108  1.00  0.00     0.059 C 
BRANCH   5   6
ATOM      6  C   UNL     1      -1.596  12.651  31.055  1.00  0.00     0.042 C 
ATOM      7  O   UNL     1      -2.400  11.694  31.213  1.00  0.00    -0.550 OA
ATOM      8  O   UNL     1      -1.633  13.393  29.882  1.00  0.00    -0.550 OA
ENDBRANCH   5   6
ENDBRANCH   1   5
TORSDOF 3
ENDMDL
MODEL 7
REMARK VINA RESULT:    -2.773     12.761     13.873
REMARK INTER + INTRA:          -3.369
REMARK INTER:                  -3.260
REMARK INTRA:                  -0.109
REMARK UNBOUND:                -0.110
REMARK SMILES O=C([O-])CCC(=O)[O-]
REMARK SMILES IDX 4 1 2 2 1 3 3 4 5 5 6 6 7 7 8 8
REMARK H PARENT
REMARK Flexibility Score: inf
ROOT
ATOM      1  C   UNL     1      -1.303  13.370  29.934  1.00  0.00     0.059 C 
ENDROOT
BRANCH   1   2
ATOM      2  C   UNL     1       0.008  14.023  30.251  1.00  0.00     0.042 C 
ATOM      3  O   UNL     1       0.325  14.260  31.447  1.00  0.00    -0.550 OA
ATOM      4  O   UNL     1       0.899  14.329  29.230  1.00  0.00    -0.550 OA
ENDBRANCH   1   2
BRANCH   1   5
ATOM      5  C   UNL     1      -1.188  11.843  29.929  1.00  0.00     0.059 C 
BRANCH   5   6
ATOM      6  C   UNL     1      -1.573  11.257  31.253  1.00  0.00     0.042 C 
ATOM      7  O   UNL     1      -0.708  10.688  31.971  1.00  0.00    -0.550 OA
ATOM      8  O   UNL     1      -2.895  11.303  31.676  1.00  0.00    -0.550 OA
ENDBRANCH   5   6
ENDBRANCH   1   5
TORSDOF 3
ENDMDL
MODEL 8
REMARK VINA RESULT:    -2.760     12.897     14.084
REMARK INTER + INTRA:          -3.354
REMARK INTER:                  -3.166
REMARK INTRA:                  -0.189
REMARK UNBOUND:                -0.110
REMARK SMILES O=C([O-])CCC(=O)[O-]
REMARK SMILES IDX 4 1 2 2 1 3 3 4 5 5 6 6 7 7 8 8
REMARK H PARENT
REMARK Flexibility Score: inf
ROOT
ATOM      1  C   UNL     1      -0.455  13.037  32.072  1.00  0.00     0.059 C 
ENDROOT
BRANCH   1   2
ATOM      2  C   UNL     1      -1.520  12.706  31.071  1.00  0.00     0.042 C 
ATOM      3  O   UNL     1      -2.361  11.802  31.317  1.00  0.00    -0.550 OA
ATOM      4  O   UNL     1      -1.610  13.426  29.886  1.00  0.00    -0.550 OA
ENDBRANCH   1   2
BRANCH   1   5
ATOM      5  C   UNL     1       0.948  12.857  31.485  1.00  0.00     0.059 C 
BRANCH   5   6
ATOM      6  C   UNL     1       1.158  11.464  30.974  1.00  0.00     0.042 C 
ATOM      7  O   UNL     1       1.412  11.266  29.756  1.00  0.00    -0.550 OA
ATOM      8  O   UNL     1       1.033  10.381  31.835  1.00  0.00    -0.550 OA
ENDBRANCH   5   6
ENDBRANCH   1   5
TORSDOF 3
ENDMDL
MODEL 9
REMARK VINA RESULT:    -2.740     12.630     13.871
REMARK INTER + INTRA:          -3.330
REMARK INTER:                  -3.233
REMARK INTRA:                  -0.097
REMARK UNBOUND:                -0.110
REMARK SMILES O=C([O-])CCC(=O)[O-]
REMARK SMILES IDX 4 1 2 2 1 3 3 4 5 5 6 6 7 7 8 8
REMARK H PARENT
REMARK Flexibility Score: inf
ROOT
ATOM      1  C   UNL     1      -1.021  11.944  29.901  1.00  0.00     0.059 C 
ENDROOT
BRANCH   1   2
ATOM      2  C   UNL     1      -1.510  11.352  31.188  1.00  0.00     0.042 C 
ATOM      3  O   UNL     1      -0.828  10.475  31.781  1.00  0.00    -0.550 OA
ATOM      4  O   UNL     1      -2.696  11.801  31.755  1.00  0.00    -0.550 OA
ENDBRANCH   1   2
BRANCH   1   5
ATOM      5  C   UNL     1      -1.255  13.457  29.850  1.00  0.00     0.059 C 
BRANCH   5   6
ATOM      6  C   UNL     1      -0.019  14.219  30.217  1.00  0.00     0.042 C 
ATOM      7  O   UNL     1       0.682  14.761  29.321  1.00  0.00    -0.550 OA
ATOM      8  O   UNL     1       0.382  14.298  31.544  1.00  0.00    -0.550 OA
ENDBRANCH   5   6
ENDBRANCH   1   5
TORSDOF 3
ENDMDL
