MODEL 1
REMARK VINA RESULT:    -3.281      0.000      0.000
REMARK INTER + INTRA:          -4.301
REMARK INTER:                  -4.623
REMARK INTRA:                   0.322
REMARK UNBOUND:                 0.322
REMARK SMILES CC1=CCC(=C(C)C)C(=O)CC(C)=CCC1
REMARK SMILES IDX 12 1 14 2 13 3 15 4 16 5 2 6 1 7 3 8 11 10 9 11 10 12 5 13
REMARK SMILES IDX 6 14 7 15 8 16 4 17
REMARK H PARENT
REMARK Flexibility Score: 60.00
ROOT
ATOM      1  C   UNL     1       1.416  -0.932  14.819  1.00  0.00    -0.070 C 
ATOM      2  C   UNL     1       1.796  -2.213  15.039  1.00  0.00    -0.027 C 
ATOM      3  C   UNL     1       2.393  -0.010  14.136  1.00  0.00     0.039 C 
ENDROOT
BRANCH   2   4
ATOM      4  C   UNL     1       0.972  -3.254  15.761  1.00  0.00     0.032 C 
BRANCH   4   5
ATOM      5  C   UNL     1       1.183  -3.189  17.282  1.00  0.00     0.034 C 
BRANCH   5   6
ATOM      6  C   UNL     1      -0.106  -3.316  18.080  1.00  0.00    -0.077 C 
ATOM      7  C   UNL     1      -0.765  -4.669  18.186  1.00  0.00     0.039 C 
ATOM      8  C   UNL     1      -0.712  -2.272  18.689  1.00  0.00    -0.023 CG0
ATOM      9  G   UNL     1      -0.171  -0.863  18.753  1.00  0.00     0.000 G0
ENDBRANCH   5   6
ENDBRANCH   4   5
ENDBRANCH   2   4
BRANCH   1  10
ATOM     10  C   UNL     1       0.058  -0.393  15.224  1.00  0.00     0.111 C 
BRANCH  10  11
ATOM     11  C   UNL     1       0.147   0.392  16.502  1.00  0.00     0.163 C 
ATOM     12  O   UNL     1       0.984   1.331  16.594  1.00  0.00    -0.294 OA
BRANCH  11  13
ATOM     13  C   UNL     1      -0.715   0.070  17.669  1.00  0.00    -0.002 C 
ATOM     14  C   UNL     1      -1.967   0.593  17.762  1.00  0.00    -0.069 C 
ATOM     15  C   UNL     1      -2.479   1.584  16.741  1.00  0.00     0.039 C 
ATOM     16  C   UNL     1      -2.877   0.236  18.914  1.00  0.00     0.039 C 
BRANCH  13  17
ATOM     17  C   UNL     1      -0.176  -0.853  18.756  1.00  0.00     0.066 CG0
ATOM     18  G   UNL     1      -0.714  -2.263  18.680  1.00  0.00     0.000 G0
ENDBRANCH  13  17
ENDBRANCH  11  13
ENDBRANCH  10  11
ENDBRANCH   1  10
TORSDOF 0
ENDMDL
MODEL 2
REMARK VINA RESULT:    -3.132      1.832      2.634
REMARK INTER + INTRA:          -4.091
REMARK INTER:                  -4.410
REMARK INTRA:                   0.319
REMARK UNBOUND:                 0.322
REMARK SMILES CC1=CCC(=C(C)C)C(=O)CC(C)=CCC1
REMARK SMILES IDX 12 1 14 2 13 3 15 4 16 5 2 6 1 7 3 8 11 10 9 11 10 12 5 13
REMARK SMILES IDX 6 14 7 15 8 16 4 17
REMARK H PARENT
REMARK Flexibility Score: 60.00
ROOT
ATOM      1  C   UNL     1       0.998  -2.804  16.641  1.00  0.00    -0.070 C 
ATOM      2  C   UNL     1       0.627  -4.083  16.888  1.00  0.00    -0.027 C 
ATOM      3  C   UNL     1       1.148  -2.374  15.204  1.00  0.00     0.039 C 
ENDROOT
BRANCH   2   4
ATOM      4  C   UNL     1       0.488  -4.699  18.261  1.00  0.00     0.032 C 
BRANCH   4   5
ATOM      5  C   UNL     1      -0.890  -4.408  18.875  1.00  0.00     0.034 C 
BRANCH   5   6
ATOM      6  C   UNL     1      -0.817  -3.801  20.269  1.00  0.00    -0.077 C 
ATOM      7  C   UNL     1      -0.304  -4.651  21.406  1.00  0.00     0.039 C 
ATOM      8  C   UNL     1      -1.207  -2.538  20.554  1.00  0.00    -0.023 CG0
ATOM      9  G   UNL     1      -1.679  -1.520  19.543  1.00  0.00     0.000 G0
ENDBRANCH   5   6
ENDBRANCH   4   5
ENDBRANCH   2   4
BRANCH   1  10
ATOM     10  C   UNL     1       1.262  -1.794  17.741  1.00  0.00     0.111 C 
BRANCH  10  11
ATOM     11  C   UNL     1       0.152  -0.783  17.825  1.00  0.00     0.163 C 
ATOM     12  O   UNL     1      -0.160  -0.122  16.798  1.00  0.00    -0.294 OA
BRANCH  11  13
ATOM     13  C   UNL     1      -0.568  -0.532  19.099  1.00  0.00    -0.002 C 
ATOM     14  C   UNL     1      -0.246   0.542  19.870  1.00  0.00    -0.069 C 
ATOM     15  C   UNL     1       0.907   1.450  19.504  1.00  0.00     0.039 C 
ATOM     16  C   UNL     1      -1.002   0.843  21.143  1.00  0.00     0.039 C 
BRANCH  13  17
ATOM     17  C   UNL     1      -1.670  -1.494  19.531  1.00  0.00     0.066 CG0
ATOM     18  G   UNL     1      -1.220  -2.520  20.544  1.00  0.00     0.000 G0
ENDBRANCH  13  17
ENDBRANCH  11  13
ENDBRANCH  10  11
ENDBRANCH   1  10
TORSDOF 0
ENDMDL
MODEL 3
REMARK VINA RESULT:    -3.071      5.828      7.657
REMARK INTER + INTRA:          -4.006
REMARK INTER:                  -4.463
REMARK INTRA:                   0.457
REMARK UNBOUND:                 0.322
REMARK SMILES CC1=CCC(=C(C)C)C(=O)CC(C)=CCC1
REMARK SMILES IDX 12 1 14 2 13 3 15 4 16 5 2 6 1 7 3 8 11 10 9 11 10 12 5 13
REMARK SMILES IDX 6 14 7 15 8 16 4 17
REMARK H PARENT
REMARK Flexibility Score: 60.00
ROOT
ATOM      1  C   UNL     1       3.397   2.817  22.956  1.00  0.00    -0.070 C 
ATOM      2  C   UNL     1       2.549   3.456  22.116  1.00  0.00    -0.027 C 
ATOM      3  C   UNL     1       4.849   2.722  22.562  1.00  0.00     0.039 C 
ENDROOT
BRANCH   2   4
ATOM      4  C   UNL     1       1.058   3.592  22.321  1.00  0.00     0.032 C 
BRANCH   4   5
ATOM      5  C   UNL     1       0.267   2.923  21.186  1.00  0.00     0.034 C 
BRANCH   5   6
ATOM      6  C   UNL     1       0.686   1.485  20.920  1.00  0.00    -0.077 C 
ATOM      7  C   UNL     1       1.245   1.129  19.565  1.00  0.00     0.039 C 
ATOM      8  C   UNL     1       0.566   0.492  21.832  1.00  0.00    -0.023 CG0
ATOM      9  G   UNL     1       0.096   0.666  23.257  1.00  0.00     0.000 G0
ENDBRANCH   5   6
ENDBRANCH   4   5
ENDBRANCH   2   4
BRANCH   1  10
ATOM     10  C   UNL     1       2.951   2.201  24.268  1.00  0.00     0.111 C 
BRANCH  10  11
ATOM     11  C   UNL     1       2.577   0.756  24.088  1.00  0.00     0.163 C 
ATOM     12  O   UNL     1       3.459  -0.070  23.729  1.00  0.00    -0.294 OA
BRANCH  11  13
ATOM     13  C   UNL     1       1.184   0.287  24.302  1.00  0.00    -0.002 C 
ATOM     14  C   UNL     1       0.871  -0.457  25.398  1.00  0.00    -0.069 C 
ATOM     15  C   UNL     1       1.939  -0.904  26.371  1.00  0.00     0.039 C 
ATOM     16  C   UNL     1      -0.550  -0.899  25.660  1.00  0.00     0.039 C 
BRANCH  13  17
ATOM     17  C   UNL     1       0.114   0.649  23.279  1.00  0.00     0.066 CG0
ATOM     18  G   UNL     1       0.564   0.492  21.845  1.00  0.00     0.000 G0
ENDBRANCH  13  17
ENDBRANCH  11  13
ENDBRANCH  10  11
ENDBRANCH   1  10
TORSDOF 0
ENDMDL
MODEL 4
REMARK VINA RESULT:    -3.046      2.849      4.569
REMARK INTER + INTRA:          -3.970
REMARK INTER:                  -4.531
REMARK INTRA:                   0.561
REMARK UNBOUND:                 0.322
REMARK SMILES CC1=CCC(=C(C)C)C(=O)CC(C)=CCC1
REMARK SMILES IDX 12 1 14 2 13 3 15 4 16 5 2 6 1 7 3 8 11 10 9 11 10 12 5 13
REMARK SMILES IDX 6 14 7 15 8 16 4 17
REMARK H PARENT
REMARK Flexibility Score: 60.00
ROOT
ATOM      1  C   UNL     1       1.682  -2.077  15.333  1.00  0.00    -0.070 C 
ATOM      2  C   UNL     1       3.006  -1.987  15.061  1.00  0.00    -0.027 C 
ATOM      3  C   UNL     1       0.784  -0.962  14.862  1.00  0.00     0.039 C 
ENDROOT
BRANCH   2   4
ATOM      4  C   UNL     1       4.056  -2.978  15.507  1.00  0.00     0.032 C 
BRANCH   4   5
ATOM      5  C   UNL     1       5.038  -2.350  16.507  1.00  0.00     0.034 C 
BRANCH   5   6
ATOM      6  C   UNL     1       4.363  -1.473  17.552  1.00  0.00    -0.077 C 
ATOM      7  C   UNL     1       4.604   0.016  17.516  1.00  0.00     0.039 C 
ATOM      8  C   UNL     1       3.567  -1.958  18.532  1.00  0.00    -0.023 CG0
ATOM      9  G   UNL     1       3.155  -3.403  18.688  1.00  0.00     0.000 G0
ENDBRANCH   5   6
ENDBRANCH   4   5
ENDBRANCH   2   4
BRANCH   1  10
ATOM     10  C   UNL     1       1.071  -3.246  16.083  1.00  0.00     0.111 C 
BRANCH  10  11
ATOM     11  C   UNL     1       0.875  -2.912  17.535  1.00  0.00     0.163 C 
ATOM     12  O   UNL     1       0.067  -2.000  17.857  1.00  0.00    -0.294 OA
BRANCH  11  13
ATOM     13  C   UNL     1       1.632  -3.622  18.599  1.00  0.00    -0.002 C 
ATOM     14  C   UNL     1       0.987  -4.451  19.464  1.00  0.00    -0.069 C 
ATOM     15  C   UNL     1      -0.518  -4.600  19.429  1.00  0.00     0.039 C 
ATOM     16  C   UNL     1       1.746  -5.221  20.519  1.00  0.00     0.039 C 
BRANCH  13  17
ATOM     17  C   UNL     1       3.137  -3.407  18.707  1.00  0.00     0.066 CG0
ATOM     18  G   UNL     1       3.563  -1.970  18.515  1.00  0.00     0.000 G0
ENDBRANCH  13  17
ENDBRANCH  11  13
ENDBRANCH  10  11
ENDBRANCH   1  10
TORSDOF 0
ENDMDL
MODEL 5
REMARK VINA RESULT:    -2.956      2.971      4.659
REMARK INTER + INTRA:          -3.844
REMARK INTER:                  -4.469
REMARK INTRA:                   0.625
REMARK UNBOUND:                 0.322
REMARK SMILES CC1=CCC(=C(C)C)C(=O)CC(C)=CCC1
REMARK SMILES IDX 12 1 14 2 13 3 15 4 16 5 2 6 1 7 3 8 11 10 9 11 10 12 5 13
REMARK SMILES IDX 6 14 7 15 8 16 4 17
REMARK H PARENT
REMARK Flexibility Score: 60.00
ROOT
ATOM      1  C   UNL     1       1.697  -3.158  16.128  1.00  0.00    -0.070 C 
ATOM      2  C   UNL     1       3.043  -3.257  16.243  1.00  0.00    -0.027 C 
ATOM      3  C   UNL     1       0.844  -3.932  17.100  1.00  0.00     0.039 C 
ENDROOT
BRANCH   2   4
ATOM      4  C   UNL     1       4.046  -2.602  15.321  1.00  0.00     0.032 C 
BRANCH   4   5
ATOM      5  C   UNL     1       5.110  -1.820  16.106  1.00  0.00     0.034 C 
BRANCH   5   6
ATOM      6  C   UNL     1       4.551  -0.622  16.859  1.00  0.00    -0.077 C 
ATOM      7  C   UNL     1       4.941  -0.423  18.303  1.00  0.00     0.039 C 
ATOM      8  C   UNL     1       3.699   0.274  16.309  1.00  0.00    -0.023 CG0
ATOM      9  G   UNL     1       3.251   0.282  14.866  1.00  0.00     0.000 G0
ENDBRANCH   5   6
ENDBRANCH   4   5
ENDBRANCH   2   4
BRANCH   1  10
ATOM     10  C   UNL     1       1.019  -2.307  15.072  1.00  0.00     0.111 C 
BRANCH  10  11
ATOM     11  C   UNL     1       0.990  -0.861  15.481  1.00  0.00     0.163 C 
ATOM     12  O   UNL     1       0.315  -0.517  16.488  1.00  0.00    -0.294 OA
BRANCH  11  13
ATOM     13  C   UNL     1       1.722   0.175  14.707  1.00  0.00    -0.002 C 
ATOM     14  C   UNL     1       1.051   1.004  13.863  1.00  0.00    -0.069 C 
ATOM     15  C   UNL     1      -0.432   0.836  13.617  1.00  0.00     0.039 C 
ATOM     16  C   UNL     1       1.771   2.097  13.107  1.00  0.00     0.039 C 
BRANCH  13  17
ATOM     17  C   UNL     1       3.234   0.294  14.873  1.00  0.00     0.066 CG0
ATOM     18  G   UNL     1       3.692   0.281  16.312  1.00  0.00     0.000 G0
ENDBRANCH  13  17
ENDBRANCH  11  13
ENDBRANCH  10  11
ENDBRANCH   1  10
TORSDOF 0
ENDMDL
MODEL 6
REMARK VINA RESULT:    -2.948      3.225      5.750
REMARK INTER + INTRA:          -3.832
REMARK INTER:                  -4.270
REMARK INTRA:                   0.438
REMARK UNBOUND:                 0.322
REMARK SMILES CC1=CCC(=C(C)C)C(=O)CC(C)=CCC1
REMARK SMILES IDX 12 1 14 2 13 3 15 4 16 5 2 6 1 7 3 8 11 10 9 11 10 12 5 13
REMARK SMILES IDX 6 14 7 15 8 16 4 17
REMARK H PARENT
REMARK Flexibility Score: 60.00
ROOT
ATOM      1  C   UNL     1      -1.173  -3.886  19.537  1.00  0.00    -0.070 C 
ATOM      2  C   UNL     1      -1.054  -4.029  18.196  1.00  0.00    -0.027 C 
ATOM      3  C   UNL     1      -2.363  -3.127  20.067  1.00  0.00     0.039 C 
ENDROOT
BRANCH   2   4
ATOM      4  C   UNL     1       0.100  -4.704  17.491  1.00  0.00     0.032 C 
BRANCH   4   5
ATOM      5  C   UNL     1       0.840  -3.733  16.559  1.00  0.00     0.034 C 
BRANCH   5   6
ATOM      6  C   UNL     1       1.264  -2.441  17.242  1.00  0.00    -0.077 C 
ATOM      7  C   UNL     1       0.700  -1.135  16.741  1.00  0.00     0.039 C 
ATOM      8  C   UNL     1       2.143  -2.394  18.270  1.00  0.00    -0.023 CG0
ATOM      9  G   UNL     1       2.757  -3.595  18.950  1.00  0.00     0.000 G0
ENDBRANCH   5   6
ENDBRANCH   4   5
ENDBRANCH   2   4
BRANCH   1  10
ATOM     10  C   UNL     1      -0.168  -4.455  20.520  1.00  0.00     0.111 C 
BRANCH  10  11
ATOM     11  C   UNL     1       0.937  -3.472  20.794  1.00  0.00     0.163 C 
ATOM     12  O   UNL     1       0.662  -2.369  21.339  1.00  0.00    -0.294 OA
BRANCH  11  13
ATOM     13  C   UNL     1       2.342  -3.767  20.415  1.00  0.00    -0.002 C 
ATOM     14  C   UNL     1       3.233  -4.187  21.353  1.00  0.00    -0.069 C 
ATOM     15  C   UNL     1       2.847  -4.277  22.813  1.00  0.00     0.039 C 
ATOM     16  C   UNL     1       4.653  -4.541  20.977  1.00  0.00     0.039 C 
BRANCH  13  17
ATOM     17  C   UNL     1       2.771  -3.589  18.962  1.00  0.00     0.066 CG0
ATOM     18  G   UNL     1       2.151  -2.388  18.287  1.00  0.00     0.000 G0
ENDBRANCH  13  17
ENDBRANCH  11  13
ENDBRANCH  10  11
ENDBRANCH   1  10
TORSDOF 0
ENDMDL
MODEL 7
REMARK VINA RESULT:    -2.902      2.701      4.226
REMARK INTER + INTRA:          -3.767
REMARK INTER:                  -4.269
REMARK INTRA:                   0.502
REMARK UNBOUND:                 0.322
REMARK SMILES CC1=CCC(=C(C)C)C(=O)CC(C)=CCC1
REMARK SMILES IDX 12 1 14 2 13 3 15 4 16 5 2 6 1 7 3 8 11 10 9 11 10 12 5 13
REMARK SMILES IDX 6 14 7 15 8 16 4 17
REMARK H PARENT
REMARK Flexibility Score: 60.00
ROOT
ATOM      1  C   UNL     1       0.542  -3.212  17.202  1.00  0.00    -0.070 C 
ATOM      2  C   UNL     1       1.122  -3.344  15.986  1.00  0.00    -0.027 C 
ATOM      3  C   UNL     1       0.242  -4.465  17.985  1.00  0.00     0.039 C 
ENDROOT
BRANCH   2   4
ATOM      4  C   UNL     1       1.437  -2.205  15.043  1.00  0.00     0.032 C 
BRANCH   4   5
ATOM      5  C   UNL     1       2.936  -2.140  14.714  1.00  0.00     0.034 C 
BRANCH   5   6
ATOM      6  C   UNL     1       3.832  -2.280  15.936  1.00  0.00    -0.077 C 
ATOM      7  C   UNL     1       4.776  -3.454  16.015  1.00  0.00     0.039 C 
ATOM      8  C   UNL     1       3.816  -1.415  16.976  1.00  0.00    -0.023 CG0
ATOM      9  G   UNL     1       2.994  -0.149  17.047  1.00  0.00     0.000 G0
ENDBRANCH   5   6
ENDBRANCH   4   5
ENDBRANCH   2   4
BRANCH   1  10
ATOM     10  C   UNL     1       0.187  -1.866  17.806  1.00  0.00     0.111 C 
BRANCH  10  11
ATOM     11  C   UNL     1       1.310  -1.343  18.657  1.00  0.00     0.163 C 
ATOM     12  O   UNL     1       1.615  -1.949  19.719  1.00  0.00    -0.294 OA
BRANCH  11  13
ATOM     13  C   UNL     1       2.053  -0.112  18.282  1.00  0.00    -0.002 C 
ATOM     14  C   UNL     1       1.902   1.028  19.009  1.00  0.00    -0.069 C 
ATOM     15  C   UNL     1       0.914   1.104  20.151  1.00  0.00     0.039 C 
ATOM     16  C   UNL     1       2.688   2.275  18.675  1.00  0.00     0.039 C 
BRANCH  13  17
ATOM     17  C   UNL     1       2.982  -0.145  17.074  1.00  0.00     0.066 CG0
ATOM     18  G   UNL     1       3.820  -1.399  16.984  1.00  0.00     0.000 G0
ENDBRANCH  13  17
ENDBRANCH  11  13
ENDBRANCH  10  11
ENDBRANCH   1  10
TORSDOF 0
ENDMDL
MODEL 8
REMARK VINA RESULT:    -2.837      5.367      7.359
REMARK INTER + INTRA:          -3.676
REMARK INTER:                  -4.202
REMARK INTRA:                   0.526
REMARK UNBOUND:                 0.322
REMARK SMILES CC1=CCC(=C(C)C)C(=O)CC(C)=CCC1
REMARK SMILES IDX 12 1 14 2 13 3 15 4 16 5 2 6 1 7 3 8 11 10 9 11 10 12 5 13
REMARK SMILES IDX 6 14 7 15 8 16 4 17
REMARK H PARENT
REMARK Flexibility Score: 60.00
ROOT
ATOM      1  C   UNL     1       1.363   3.233  22.731  1.00  0.00    -0.070 C 
ATOM      2  C   UNL     1       2.544   3.345  23.384  1.00  0.00    -0.027 C 
ATOM      3  C   UNL     1       0.651   4.500  22.332  1.00  0.00     0.039 C 
ENDROOT
BRANCH   2   4
ATOM      4  C   UNL     1       3.361   2.187  23.910  1.00  0.00     0.032 C 
BRANCH   4   5
ATOM      5  C   UNL     1       4.809   2.239  23.401  1.00  0.00     0.034 C 
BRANCH   5   6
ATOM      6  C   UNL     1       4.919   2.247  21.883  1.00  0.00    -0.077 C 
ATOM      7  C   UNL     1       5.696   3.355  21.216  1.00  0.00     0.039 C 
ATOM      8  C   UNL     1       4.338   1.319  21.088  1.00  0.00    -0.023 CG0
ATOM      9  G   UNL     1       3.584   0.103  21.571  1.00  0.00     0.000 G0
ENDBRANCH   5   6
ENDBRANCH   4   5
ENDBRANCH   2   4
BRANCH   1  10
ATOM     10  C   UNL     1       0.735   1.897  22.384  1.00  0.00     0.111 C 
BRANCH  10  11
ATOM     11  C   UNL     1       1.329   1.331  21.124  1.00  0.00     0.163 C 
ATOM     12  O   UNL     1       1.148   1.932  20.031  1.00  0.00    -0.294 OA
BRANCH  11  13
ATOM     13  C   UNL     1       2.105   0.065  21.139  1.00  0.00    -0.002 C 
ATOM     14  C   UNL     1       1.517  -1.105  20.769  1.00  0.00    -0.069 C 
ATOM     15  C   UNL     1       0.045  -1.167  20.427  1.00  0.00     0.039 C 
ATOM     16  C   UNL     1       2.305  -2.394  20.728  1.00  0.00     0.039 C 
BRANCH  13  17
ATOM     17  C   UNL     1       3.566   0.096  21.574  1.00  0.00     0.066 CG0
ATOM     18  G   UNL     1       4.321   1.311  21.088  1.00  0.00     0.000 G0
ENDBRANCH  13  17
ENDBRANCH  11  13
ENDBRANCH  10  11
ENDBRANCH   1  10
TORSDOF 0
ENDMDL
MODEL 9
REMARK VINA RESULT:    -2.816      2.052      3.937
REMARK INTER + INTRA:          -3.647
REMARK INTER:                  -4.066
REMARK INTRA:                   0.419
REMARK UNBOUND:                 0.322
REMARK SMILES CC1=CCC(=C(C)C)C(=O)CC(C)=CCC1
REMARK SMILES IDX 12 1 14 2 13 3 15 4 16 5 2 6 1 7 3 8 11 10 9 11 10 12 5 13
REMARK SMILES IDX 6 14 7 15 8 16 4 17
REMARK H PARENT
REMARK Flexibility Score: 60.00
ROOT
ATOM      1  C   UNL     1       3.478  -2.935  16.102  1.00  0.00    -0.070 C 
ATOM      2  C   UNL     1       3.778  -1.844  15.358  1.00  0.00    -0.027 C 
ATOM      3  C   UNL     1       4.618  -3.719  16.702  1.00  0.00     0.039 C 
ENDROOT
BRANCH   2   4
ATOM      4  C   UNL     1       2.770  -0.980  14.635  1.00  0.00     0.032 C 
BRANCH   4   5
ATOM      5  C   UNL     1       2.328   0.214  15.493  1.00  0.00     0.034 C 
BRANCH   5   6
ATOM      6  C   UNL     1       0.822   0.288  15.700  1.00  0.00    -0.077 C 
ATOM      7  C   UNL     1      -0.039   0.833  14.587  1.00  0.00     0.039 C 
ATOM      8  C   UNL     1       0.206  -0.091  16.843  1.00  0.00    -0.023 CG0
ATOM      9  G   UNL     1       0.887  -0.722  18.035  1.00  0.00     0.000 G0
ENDBRANCH   5   6
ENDBRANCH   4   5
ENDBRANCH   2   4
BRANCH   1  10
ATOM     10  C   UNL     1       2.056  -3.396  16.355  1.00  0.00     0.111 C 
BRANCH  10  11
ATOM     11  C   UNL     1       1.670  -3.194  17.794  1.00  0.00     0.163 C 
ATOM     12  O   UNL     1       2.246  -3.869  18.689  1.00  0.00    -0.294 OA
BRANCH  11  13
ATOM     13  C   UNL     1       0.608  -2.230  18.180  1.00  0.00    -0.002 C 
ATOM     14  C   UNL     1      -0.590  -2.679  18.644  1.00  0.00    -0.069 C 
ATOM     15  C   UNL     1      -0.907  -4.157  18.691  1.00  0.00     0.039 C 
ATOM     16  C   UNL     1      -1.664  -1.714  19.090  1.00  0.00     0.039 C 
BRANCH  13  17
ATOM     17  C   UNL     1       0.878  -0.735  18.047  1.00  0.00     0.066 CG0
ATOM     18  G   UNL     1       0.206  -0.098  16.853  1.00  0.00     0.000 G0
ENDBRANCH  13  17
ENDBRANCH  11  13
ENDBRANCH  10  11
ENDBRANCH   1  10
TORSDOF 0
ENDMDL
