MODEL 1
REMARK VINA RESULT:    -5.728      0.000      0.000
REMARK INTER + INTRA:          -8.671
REMARK INTER:                  -7.905
REMARK INTRA:                  -0.765
REMARK UNBOUND:                -0.765
REMARK SMILES CCCCc1cccc(O)c1CCCC
REMARK SMILES IDX 5 1 11 2 9 3 8 4 7 5 6 6 4 7 3 8 2 9 1 10 12 11 13 12 14 13
REMARK SMILES IDX 15 14 10 15
REMARK H PARENT 10 16
REMARK Flexibility Score: inf
ROOT
ATOM      1  C   UNL     1     -10.702  -6.198  -6.767  1.00  0.00    -0.041 A 
ATOM      2  C   UNL     1     -11.139  -5.020  -6.090  1.00  0.00    -0.003 A 
ATOM      3  C   UNL     1     -11.198  -3.801  -6.806  1.00  0.00     0.119 A 
ATOM      4  C   UNL     1     -10.876  -3.763  -8.167  1.00  0.00     0.046 A 
ATOM      5  C   UNL     1     -10.492  -4.922  -8.832  1.00  0.00     0.004 A 
ATOM      6  C   UNL     1     -10.405  -6.128  -8.140  1.00  0.00     0.004 A 
ENDROOT
BRANCH   1   7
ATOM      7  C   UNL     1     -10.532  -7.540  -6.080  1.00  0.00     0.036 C 
BRANCH   7   8
ATOM      8  C   UNL     1      -9.167  -7.645  -5.385  1.00  0.00     0.004 C 
BRANCH   8   9
ATOM      9  C   UNL     1      -8.898  -9.049  -4.823  1.00  0.00    -0.003 C 
ATOM     10  C   UNL     1      -7.543  -9.606  -5.257  1.00  0.00     0.004 C 
ENDBRANCH   8   9
ENDBRANCH   7   8
ENDBRANCH   1   7
BRANCH   2  11
ATOM     11  C   UNL     1     -11.581  -5.025  -4.636  1.00  0.00     0.040 C 
BRANCH  11  12
ATOM     12  C   UNL     1     -13.113  -5.101  -4.524  1.00  0.00     0.005 C 
BRANCH  12  13
ATOM     13  C   UNL     1     -13.548  -6.352  -3.751  1.00  0.00    -0.003 C 
ATOM     14  C   UNL     1     -13.857  -7.506  -4.700  1.00  0.00     0.004 C 
ENDBRANCH  12  13
ENDBRANCH  11  12
ENDBRANCH   2  11
BRANCH   3  15
ATOM     15  O   UNL     1     -11.578  -2.624  -6.159  1.00  0.00    -0.508 OA
ATOM     16  H   UNL     1     -11.277  -1.714  -6.487  1.00  0.00     0.293 HD
ENDBRANCH   3  15
TORSDOF 7
ENDMDL
MODEL 2
REMARK VINA RESULT:    -5.044      1.223      3.729
REMARK INTER + INTRA:          -7.726
REMARK INTER:                  -6.937
REMARK INTRA:                  -0.790
REMARK UNBOUND:                -0.765
REMARK SMILES CCCCc1cccc(O)c1CCCC
REMARK SMILES IDX 5 1 11 2 9 3 8 4 7 5 6 6 4 7 3 8 2 9 1 10 12 11 13 12 14 13
REMARK SMILES IDX 15 14 10 15
REMARK H PARENT 10 16
REMARK Flexibility Score: inf
ROOT
ATOM      1  C   UNL     1     -11.947  -7.391  -5.595  1.00  0.00    -0.041 A 
ATOM      2  C   UNL     1     -11.211  -6.169  -5.558  1.00  0.00    -0.003 A 
ATOM      3  C   UNL     1     -11.745  -5.070  -4.845  1.00  0.00     0.119 A 
ATOM      4  C   UNL     1     -12.954  -5.194  -4.152  1.00  0.00     0.046 A 
ATOM      5  C   UNL     1     -13.646  -6.400  -4.156  1.00  0.00     0.004 A 
ATOM      6  C   UNL     1     -13.150  -7.488  -4.871  1.00  0.00     0.004 A 
ENDROOT
BRANCH   1   7
ATOM      7  C   UNL     1     -11.506  -8.607  -6.387  1.00  0.00     0.036 C 
BRANCH   7   8
ATOM      8  C   UNL     1     -11.272  -9.818  -5.473  1.00  0.00     0.004 C 
BRANCH   8   9
ATOM      9  C   UNL     1      -9.811 -10.293  -5.486  1.00  0.00    -0.003 C 
ATOM     10  C   UNL     1      -8.856  -9.269  -4.872  1.00  0.00     0.004 C 
ENDBRANCH   8   9
ENDBRANCH   7   8
ENDBRANCH   1   7
BRANCH   2  11
ATOM     11  C   UNL     1      -9.853  -6.009  -6.221  1.00  0.00     0.040 C 
BRANCH  11  12
ATOM     12  C   UNL     1      -9.989  -5.952  -7.752  1.00  0.00     0.005 C 
BRANCH  12  13
ATOM     13  C   UNL     1     -10.632  -4.635  -8.201  1.00  0.00    -0.003 C 
ATOM     14  C   UNL     1     -10.903  -4.637  -9.702  1.00  0.00     0.004 C 
ENDBRANCH  12  13
ENDBRANCH  11  12
ENDBRANCH   2  11
BRANCH   3  15
ATOM     15  O   UNL     1     -11.068  -3.849  -4.828  1.00  0.00    -0.508 OA
ATOM     16  H   UNL     1     -11.535  -2.984  -4.580  1.00  0.00     0.293 HD
ENDBRANCH   3  15
TORSDOF 7
ENDMDL
MODEL 3
REMARK VINA RESULT:    -4.915      1.622      3.888
REMARK INTER + INTRA:          -7.548
REMARK INTER:                  -6.625
REMARK INTRA:                  -0.923
REMARK UNBOUND:                -0.765
REMARK SMILES CCCCc1cccc(O)c1CCCC
REMARK SMILES IDX 5 1 11 2 9 3 8 4 7 5 6 6 4 7 3 8 2 9 1 10 12 11 13 12 14 13
REMARK SMILES IDX 15 14 10 15
REMARK H PARENT 10 16
REMARK Flexibility Score: inf
ROOT
ATOM      1  C   UNL     1     -12.159  -5.689  -5.811  1.00  0.00    -0.041 A 
ATOM      2  C   UNL     1     -11.101  -6.333  -6.520  1.00  0.00    -0.003 A 
ATOM      3  C   UNL     1     -10.559  -5.700  -7.663  1.00  0.00     0.119 A 
ATOM      4  C   UNL     1     -11.024  -4.444  -8.066  1.00  0.00     0.046 A 
ATOM      5  C   UNL     1     -12.026  -3.801  -7.347  1.00  0.00     0.004 A 
ATOM      6  C   UNL     1     -12.590  -4.417  -6.231  1.00  0.00     0.004 A 
ENDROOT
BRANCH   1   7
ATOM      7  C   UNL     1     -12.862  -6.308  -4.618  1.00  0.00     0.036 C 
BRANCH   7   8
ATOM      8  C   UNL     1     -13.898  -7.353  -5.057  1.00  0.00     0.004 C 
BRANCH   8   9
ATOM      9  C   UNL     1     -13.763  -8.676  -4.289  1.00  0.00    -0.003 C 
ATOM     10  C   UNL     1     -13.332  -9.835  -5.188  1.00  0.00     0.004 C 
ENDBRANCH   8   9
ENDBRANCH   7   8
ENDBRANCH   1   7
BRANCH   2  11
ATOM     11  C   UNL     1     -10.502  -7.656  -6.075  1.00  0.00     0.040 C 
BRANCH  11  12
ATOM     12  C   UNL     1      -9.281  -7.434  -5.166  1.00  0.00     0.005 C 
BRANCH  12  13
ATOM     13  C   UNL     1      -8.607  -8.765  -4.814  1.00  0.00    -0.003 C 
ATOM     14  C   UNL     1      -9.521  -9.946  -5.124  1.00  0.00     0.004 C 
ENDBRANCH  12  13
ENDBRANCH  11  12
ENDBRANCH   2  11
BRANCH   3  15
ATOM     15  O   UNL     1      -9.553  -6.327  -8.402  1.00  0.00    -0.508 OA
ATOM     16  H   UNL     1      -9.244  -7.268  -8.190  1.00  0.00     0.293 HD
ENDBRANCH   3  15
TORSDOF 7
ENDMDL
MODEL 4
REMARK VINA RESULT:    -4.786      3.166      6.297
REMARK INTER + INTRA:          -7.371
REMARK INTER:                  -6.519
REMARK INTRA:                  -0.852
REMARK UNBOUND:                -0.765
REMARK SMILES CCCCc1cccc(O)c1CCCC
REMARK SMILES IDX 5 1 11 2 9 3 8 4 7 5 6 6 4 7 3 8 2 9 1 10 12 11 13 12 14 13
REMARK SMILES IDX 15 14 10 15
REMARK H PARENT 10 16
REMARK Flexibility Score: inf
ROOT
ATOM      1  C   UNL     1     -10.062  -8.293  -5.486  1.00  0.00    -0.041 A 
ATOM      2  C   UNL     1      -9.263  -9.435  -5.178  1.00  0.00    -0.003 A 
ATOM      3  C   UNL     1      -9.845 -10.721  -5.265  1.00  0.00     0.119 A 
ATOM      4  C   UNL     1     -11.170 -10.873  -5.688  1.00  0.00     0.046 A 
ATOM      5  C   UNL     1     -11.931  -9.759  -6.028  1.00  0.00     0.004 A 
ATOM      6  C   UNL     1     -11.385  -8.482  -5.927  1.00  0.00     0.004 A 
ENDROOT
BRANCH   1   7
ATOM      7  C   UNL     1      -9.564  -6.867  -5.356  1.00  0.00     0.036 C 
BRANCH   7   8
ATOM      8  C   UNL     1      -9.263  -6.250  -6.729  1.00  0.00     0.004 C 
BRANCH   8   9
ATOM      9  C   UNL     1     -10.322  -5.223  -7.159  1.00  0.00    -0.003 C 
ATOM     10  C   UNL     1     -10.436  -5.097  -8.678  1.00  0.00     0.004 C 
ENDBRANCH   8   9
ENDBRANCH   7   8
ENDBRANCH   1   7
BRANCH   2  11
ATOM     11  C   UNL     1      -7.796  -9.331  -4.797  1.00  0.00     0.040 C 
BRANCH  11  12
ATOM     12  C   UNL     1      -6.898  -9.326  -6.045  1.00  0.00     0.005 C 
BRANCH  12  13
ATOM     13  C   UNL     1      -5.983 -10.556  -6.071  1.00  0.00    -0.003 C 
ATOM     14  C   UNL     1      -6.399 -11.530  -7.170  1.00  0.00     0.004 C 
ENDBRANCH  12  13
ENDBRANCH  11  12
ENDBRANCH   2  11
BRANCH   3  15
ATOM     15  O   UNL     1      -9.101 -11.853  -4.927  1.00  0.00    -0.508 OA
ATOM     16  H   UNL     1      -8.652 -12.426  -5.633  1.00  0.00     0.293 HD
ENDBRANCH   3  15
TORSDOF 7
ENDMDL
MODEL 5
REMARK VINA RESULT:    -4.667      2.310      4.628
REMARK INTER + INTRA:          -7.206
REMARK INTER:                  -6.548
REMARK INTRA:                  -0.658
REMARK UNBOUND:                -0.765
REMARK SMILES CCCCc1cccc(O)c1CCCC
REMARK SMILES IDX 5 1 11 2 9 3 8 4 7 5 6 6 4 7 3 8 2 9 1 10 12 11 13 12 14 13
REMARK SMILES IDX 15 14 10 15
REMARK H PARENT 10 16
REMARK Flexibility Score: inf
ROOT
ATOM      1  C   UNL     1      -9.266  -9.341  -5.227  1.00  0.00    -0.041 A 
ATOM      2  C   UNL     1     -10.141  -8.228  -5.411  1.00  0.00    -0.003 A 
ATOM      3  C   UNL     1     -11.507  -8.469  -5.686  1.00  0.00     0.119 A 
ATOM      4  C   UNL     1     -12.000  -9.778  -5.734  1.00  0.00     0.046 A 
ATOM      5  C   UNL     1     -11.152 -10.857  -5.512  1.00  0.00     0.004 A 
ATOM      6  C   UNL     1      -9.799 -10.643  -5.262  1.00  0.00     0.004 A 
ENDROOT
BRANCH   1   7
ATOM      7  C   UNL     1      -7.773  -9.201  -4.999  1.00  0.00     0.036 C 
BRANCH   7   8
ATOM      8  C   UNL     1      -7.034 -10.512  -5.299  1.00  0.00     0.004 C 
BRANCH   8   9
ATOM      9  C   UNL     1      -6.090 -10.394  -6.505  1.00  0.00    -0.003 C 
ATOM     10  C   UNL     1      -4.652 -10.785  -6.166  1.00  0.00     0.004 C 
ENDBRANCH   8   9
ENDBRANCH   7   8
ENDBRANCH   1   7
BRANCH   2  11
ATOM     11  C   UNL     1      -9.673  -6.788  -5.285  1.00  0.00     0.040 C 
BRANCH  11  12
ATOM     12  C   UNL     1      -9.186  -6.243  -6.638  1.00  0.00     0.005 C 
BRANCH  12  13
ATOM     13  C   UNL     1     -10.189  -5.243  -7.224  1.00  0.00    -0.003 C 
ATOM     14  C   UNL     1     -10.640  -5.666  -8.618  1.00  0.00     0.004 C 
ENDBRANCH  12  13
ENDBRANCH  11  12
ENDBRANCH   2  11
BRANCH   3  15
ATOM     15  O   UNL     1     -12.376  -7.401  -5.915  1.00  0.00    -0.508 OA
ATOM     16  H   UNL     1     -13.000  -7.383  -6.714  1.00  0.00     0.293 HD
ENDBRANCH   3  15
TORSDOF 7
ENDMDL
MODEL 6
REMARK VINA RESULT:    -4.606      2.377      5.282
REMARK INTER + INTRA:          -7.121
REMARK INTER:                  -6.067
REMARK INTRA:                  -1.055
REMARK UNBOUND:                -0.765
REMARK SMILES CCCCc1cccc(O)c1CCCC
REMARK SMILES IDX 5 1 11 2 9 3 8 4 7 5 6 6 4 7 3 8 2 9 1 10 12 11 13 12 14 13
REMARK SMILES IDX 15 14 10 15
REMARK H PARENT 10 16
REMARK Flexibility Score: inf
ROOT
ATOM      1  C   UNL     1     -11.455  -8.395  -5.650  1.00  0.00    -0.041 A 
ATOM      2  C   UNL     1     -10.089  -8.113  -5.347  1.00  0.00    -0.003 A 
ATOM      3  C   UNL     1      -9.202  -9.191  -5.121  1.00  0.00     0.119 A 
ATOM      4  C   UNL     1      -9.648 -10.512  -5.237  1.00  0.00     0.046 A 
ATOM      5  C   UNL     1     -10.970 -10.781  -5.574  1.00  0.00     0.004 A 
ATOM      6  C   UNL     1     -11.866  -9.735  -5.778  1.00  0.00     0.004 A 
ENDROOT
BRANCH   1   7
ATOM      7  C   UNL     1     -12.507  -7.319  -5.838  1.00  0.00     0.036 C 
BRANCH   7   8
ATOM      8  C   UNL     1     -13.585  -7.390  -4.747  1.00  0.00     0.004 C 
BRANCH   8   9
ATOM      9  C   UNL     1     -13.588  -6.150  -3.840  1.00  0.00    -0.003 C 
ATOM     10  C   UNL     1     -12.655  -5.050  -4.347  1.00  0.00     0.004 C 
ENDBRANCH   8   9
ENDBRANCH   7   8
ENDBRANCH   1   7
BRANCH   2  11
ATOM     11  C   UNL     1      -9.535  -6.699  -5.294  1.00  0.00     0.040 C 
BRANCH  11  12
ATOM     12  C   UNL     1      -9.164  -6.197  -6.699  1.00  0.00     0.005 C 
BRANCH  12  13
ATOM     13  C   UNL     1     -10.205  -5.200  -7.222  1.00  0.00    -0.003 C 
ATOM     14  C   UNL     1     -10.541  -5.471  -8.685  1.00  0.00     0.004 C 
ENDBRANCH  12  13
ENDBRANCH  11  12
ENDBRANCH   2  11
BRANCH   3  15
ATOM     15  O   UNL     1      -7.871  -8.945  -4.779  1.00  0.00    -0.508 OA
ATOM     16  H   UNL     1      -7.602  -8.685  -3.837  1.00  0.00     0.293 HD
ENDBRANCH   3  15
TORSDOF 7
ENDMDL
MODEL 7
REMARK VINA RESULT:    -4.575      3.811      6.594
REMARK INTER + INTRA:          -7.079
REMARK INTER:                  -6.093
REMARK INTRA:                  -0.986
REMARK UNBOUND:                -0.765
REMARK SMILES CCCCc1cccc(O)c1CCCC
REMARK SMILES IDX 5 1 11 2 9 3 8 4 7 5 6 6 4 7 3 8 2 9 1 10 12 11 13 12 14 13
REMARK SMILES IDX 15 14 10 15
REMARK H PARENT 10 16
REMARK Flexibility Score: inf
ROOT
ATOM      1  C   UNL     1      -8.068 -10.265  -5.465  1.00  0.00    -0.041 A 
ATOM      2  C   UNL     1      -8.501 -11.522  -5.986  1.00  0.00    -0.003 A 
ATOM      3  C   UNL     1      -7.626 -12.254  -6.822  1.00  0.00     0.119 A 
ATOM      4  C   UNL     1      -6.341 -11.774  -7.097  1.00  0.00     0.046 A 
ATOM      5  C   UNL     1      -5.909 -10.569  -6.553  1.00  0.00     0.004 A 
ATOM      6  C   UNL     1      -6.763  -9.821  -5.746  1.00  0.00     0.004 A 
ENDROOT
BRANCH   1   7
ATOM      7  C   UNL     1      -8.948  -9.364  -4.620  1.00  0.00     0.036 C 
BRANCH   7   8
ATOM      8  C   UNL     1      -8.790  -7.890  -5.019  1.00  0.00     0.004 C 
BRANCH   8   9
ATOM      9  C   UNL     1     -10.050  -7.323  -5.690  1.00  0.00    -0.003 C 
ATOM     10  C   UNL     1      -9.753  -6.098  -6.555  1.00  0.00     0.004 C 
ENDBRANCH   8   9
ENDBRANCH   7   8
ENDBRANCH   1   7
BRANCH   2  11
ATOM     11  C   UNL     1      -9.853 -12.128  -5.648  1.00  0.00     0.040 C 
BRANCH  11  12
ATOM     12  C   UNL     1     -10.862 -11.900  -6.785  1.00  0.00     0.005 C 
BRANCH  12  13
ATOM     13  C   UNL     1     -11.723 -10.660  -6.518  1.00  0.00    -0.003 C 
ATOM     14  C   UNL     1     -12.389 -10.737  -5.147  1.00  0.00     0.004 C 
ENDBRANCH  12  13
ENDBRANCH  11  12
ENDBRANCH   2  11
BRANCH   3  15
ATOM     15  O   UNL     1      -8.039 -13.465  -7.381  1.00  0.00    -0.508 OA
ATOM     16  H   UNL     1      -7.478 -14.306  -7.305  1.00  0.00     0.293 HD
ENDBRANCH   3  15
TORSDOF 7
ENDMDL
MODEL 8
REMARK VINA RESULT:    -4.382      2.315      4.928
REMARK INTER + INTRA:          -6.812
REMARK INTER:                  -6.087
REMARK INTRA:                  -0.725
REMARK UNBOUND:                -0.765
REMARK SMILES CCCCc1cccc(O)c1CCCC
REMARK SMILES IDX 5 1 11 2 9 3 8 4 7 5 6 6 4 7 3 8 2 9 1 10 12 11 13 12 14 13
REMARK SMILES IDX 15 14 10 15
REMARK H PARENT 10 16
REMARK Flexibility Score: inf
ROOT
ATOM      1  C   UNL     1     -11.285  -6.341  -5.516  1.00  0.00    -0.041 A 
ATOM      2  C   UNL     1     -12.065  -7.537  -5.532  1.00  0.00    -0.003 A 
ATOM      3  C   UNL     1     -13.280  -7.571  -4.809  1.00  0.00     0.119 A 
ATOM      4  C   UNL     1     -13.731  -6.436  -4.126  1.00  0.00     0.046 A 
ATOM      5  C   UNL     1     -12.988  -5.260  -4.149  1.00  0.00     0.004 A 
ATOM      6  C   UNL     1     -11.777  -5.212  -4.836  1.00  0.00     0.004 A 
ENDROOT
BRANCH   1   7
ATOM      7  C   UNL     1      -9.934  -6.217  -6.195  1.00  0.00     0.036 C 
BRANCH   7   8
ATOM      8  C   UNL     1      -9.991  -5.252  -7.387  1.00  0.00     0.004 C 
BRANCH   8   9
ATOM      9  C   UNL     1     -10.708  -5.858  -8.603  1.00  0.00    -0.003 C 
ATOM     10  C   UNL     1     -10.852  -4.864  -9.755  1.00  0.00     0.004 C 
ENDBRANCH   8   9
ENDBRANCH   7   8
ENDBRANCH   1   7
BRANCH   2  11
ATOM     11  C   UNL     1     -11.663  -8.768  -6.327  1.00  0.00     0.040 C 
BRANCH  11  12
ATOM     12  C   UNL     1     -10.789  -9.710  -5.484  1.00  0.00     0.005 C 
BRANCH  12  13
ATOM     13  C   UNL     1     -10.821 -11.138  -6.042  1.00  0.00    -0.003 C 
ATOM     14  C   UNL     1      -9.456 -11.810  -5.916  1.00  0.00     0.004 C 
ENDBRANCH  12  13
ENDBRANCH  11  12
ENDBRANCH   2  11
BRANCH   3  15
ATOM     15  O   UNL     1     -14.041  -8.740  -4.770  1.00  0.00    -0.508 OA
ATOM     16  H   UNL     1     -14.176  -9.317  -5.593  1.00  0.00     0.293 HD
ENDBRANCH   3  15
TORSDOF 7
ENDMDL
MODEL 9
REMARK VINA RESULT:    -4.353      3.811      6.783
REMARK INTER + INTRA:          -6.772
REMARK INTER:                  -5.716
REMARK INTRA:                  -1.056
REMARK UNBOUND:                -0.765
REMARK SMILES CCCCc1cccc(O)c1CCCC
REMARK SMILES IDX 5 1 11 2 9 3 8 4 7 5 6 6 4 7 3 8 2 9 1 10 12 11 13 12 14 13
REMARK SMILES IDX 15 14 10 15
REMARK H PARENT 10 16
REMARK Flexibility Score: inf
ROOT
ATOM      1  C   UNL     1      -8.463 -11.878  -6.178  1.00  0.00    -0.041 A 
ATOM      2  C   UNL     1      -7.377 -10.966  -6.015  1.00  0.00    -0.003 A 
ATOM      3  C   UNL     1      -6.200 -11.161  -6.776  1.00  0.00     0.119 A 
ATOM      4  C   UNL     1      -6.120 -12.205  -7.703  1.00  0.00     0.046 A 
ATOM      5  C   UNL     1      -7.197 -13.065  -7.889  1.00  0.00     0.004 A 
ATOM      6  C   UNL     1      -8.357 -12.905  -7.134  1.00  0.00     0.004 A 
ENDROOT
BRANCH   1   7
ATOM      7  C   UNL     1      -9.740 -11.807  -5.365  1.00  0.00     0.036 C 
BRANCH   7   8
ATOM      8  C   UNL     1     -10.949 -12.303  -6.172  1.00  0.00     0.004 C 
BRANCH   8   9
ATOM      9  C   UNL     1     -11.723 -11.155  -6.839  1.00  0.00    -0.003 C 
ATOM     10  C   UNL     1     -11.676  -9.863  -6.022  1.00  0.00     0.004 C 
ENDBRANCH   8   9
ENDBRANCH   7   8
ENDBRANCH   1   7
BRANCH   2  11
ATOM     11  C   UNL     1      -7.445  -9.767  -5.085  1.00  0.00     0.040 C 
BRANCH  11  12
ATOM     12  C   UNL     1      -8.177  -8.590  -5.750  1.00  0.00     0.005 C 
BRANCH  12  13
ATOM     13  C   UNL     1      -8.971  -7.780  -4.719  1.00  0.00    -0.003 C 
ATOM     14  C   UNL     1      -9.691  -6.606  -5.375  1.00  0.00     0.004 C 
ENDBRANCH  12  13
ENDBRANCH  11  12
ENDBRANCH   2  11
BRANCH   3  15
ATOM     15  O   UNL     1      -5.105 -10.311  -6.605  1.00  0.00    -0.508 OA
ATOM     16  H   UNL     1      -4.475 -10.405  -5.816  1.00  0.00     0.293 HD
ENDBRANCH   3  15
TORSDOF 7
ENDMDL
